# generated using pymatgen
data_H2O
_symmetry_space_group_name_H-M   'P 1'
_cell_length_a   13.50364186
_cell_length_b   13.51534319
_cell_length_c   14.69110744
_cell_angle_alpha   90.00496782
_cell_angle_beta   89.94012279
_cell_angle_gamma   119.94167126
_symmetry_Int_Tables_number   1
_chemical_formula_structural   H2O
_chemical_formula_sum   'H144 O72'
_cell_volume   2323.36704365
_cell_formula_units_Z   72
loop_
 _symmetry_equiv_pos_site_id
 _symmetry_equiv_pos_as_xyz
  1  'x, y, z'
loop_
 _atom_type_symbol
 _atom_type_oxidation_number
  H+  1.0
  O2-  -2.0
loop_
 _atom_site_type_symbol
 _atom_site_label
 _atom_site_symmetry_multiplicity
 _atom_site_fract_x
 _atom_site_fract_y
 _atom_site_fract_z
 _atom_site_occupancy
  H+  H0  1  0.70387037  0.85337376  0.73754432  1
  H+  H1  1  0.47027686  0.65011483  0.49922598  1
  H+  H2  1  0.85227895  0.47659485  0.27282618  1
  H+  H3  1  0.16281077  0.87815365  0.69999936  1
  H+  H4  1  0.15250480  0.18328449  0.73426324  1
  H+  H5  1  0.46866646  0.46723695  0.47005221  1
  H+  H6  1  0.62326411  0.48597963  0.96477547  1
  H+  H7  1  0.16420891  0.85163353  1.01952859  1
  H+  H8  1  0.52204904  0.81431997  0.98128820  1
  H+  H9  1  0.82090937  0.66087187  0.00252554  1
  H+  H10  1  0.63305788  0.14914504  0.75264917  1
  H+  H11  1  0.13250107  0.58041525  0.50894061  1
  H+  H12  1  0.82539156  0.29664515  0.24342920  1
  H+  H13  1  0.91640752  0.67439413  0.54816063  1
  H+  H14  1  0.19017505  0.16054307  0.26832904  1
  H+  H15  1  0.23759570  0.76740727  0.49806566  1
  H+  H16  1  0.81845512  0.18202846  0.73010456  1
  H+  H17  1  0.51413927  0.37193045  0.24274009  1
  H+  H18  1  0.83256835  0.47655556  0.78211466  1
  H+  H19  1  0.81771456  0.67636679  0.27901940  1
  H+  H20  1  0.08496536  0.88005688  0.25820433  1
  H+  H21  1  0.78090177  0.21331462  0.09818873  1
  H+  H22  1  0.68641315  0.50140201  0.25210771  1
  H+  H23  1  0.21395190  0.83027717  0.25258016  1
  H+  H24  1  0.84123373  0.02600796  0.26732113  1
  H+  H25  1  0.30238484  0.48220635  0.47962989  1
  H+  H26  1  0.52316132  0.81748972  0.74823718  1
  H+  H27  1  0.27959551  0.09949201  0.49952281  1
  H+  H28  1  0.82304328  0.85514145  0.74292381  1
  H+  H29  1  0.90940331  0.80048723  0.25206996  1
  H+  H30  1  1.03624954  0.18319255  0.24685202  1
  H+  H31  1  0.49540589  0.18431705  1.00730789  1
  H+  H32  1  0.49715762  0.53653867  0.23148117  1
  H+  H33  1  0.80954159  0.29494970  0.74138592  1
  H+  H34  1  0.18844275  1.00242172  0.23982059  1
  H+  H35  1  0.44158725  0.26345482  0.49949414  1
  H+  H36  1  0.81565603  0.56844096  0.67426232  1
  H+  H37  1  0.82399015  0.85335750  0.51290101  1
  H+  H38  1  0.39394680  0.86396508  0.01822635  1
  H+  H39  1  0.85749131  0.70272110  0.77074935  1
  H+  H40  1  0.14799858  0.29284115  0.49900977  1
  H+  H41  1  0.48492358  0.30032394  0.72754759  1
  H+  H42  1  0.01653574  0.59837060  0.66494380  1
  H+  H43  1  -0.00208344  0.85194602  0.48273661  1
  H+  H44  1  0.67205415  0.17730783  0.50208367  1
  H+  H45  1  0.18379483  0.04469386  0.75595370  1
  H+  H46  1  0.31197087  0.15637377  -0.00906264  1
  H+  H47  1  0.85021783  0.14813243  0.26732954  1
  H+  H48  1  0.86280976  0.83425482  0.99236518  1
  H+  H49  1  0.18277926  0.33891570  0.99272725  1
  H+  H50  1  0.70257130  0.51779906  0.74059020  1
  H+  H51  1  0.50874018  0.13481022  0.48707741  1
  H+  H52  1  0.52228608  0.48658377  0.73614412  1
  H+  H53  1  0.80590733  0.30620279  0.50403867  1
  H+  H54  1  0.37736044  0.51949300  0.72830233  1
  H+  H55  1  0.42994129  0.20167529  0.59493545  1
  H+  H56  1  0.30448725  0.15863079  0.75618554  1
  H+  H57  1  0.70438921  0.18242679  0.24454759  1
  H+  H58  1  -0.03396879  0.44655456  0.49152037  1
  H+  H59  1  0.88566705  0.45713108  0.90263380  1
  H+  H60  1  0.51600778  0.03225989  0.75261335  1
  H+  H61  1  0.37743078  0.19717663  0.23833669  1
  H+  H62  1  0.08288257  0.53434269  0.65158465  1
  H+  H63  1  0.85333912  0.03810296  0.75213097  1
  H+  H64  1  0.88986658  0.04612174  0.96639030  1
  H+  H65  1  0.89075484  0.43319286  0.40275814  1
  H+  H66  1  0.53863138  0.95973180  0.49150443  1
  H+  H67  1  0.03574562  0.85217057  0.01831517  1
  H+  H68  1  0.19890921  0.48370514  0.76523440  1
  H+  H69  1  -0.00528790  0.15417932  0.49296586  1
  H+  H70  1  0.48890661  0.29947021  0.00153155  1
  H+  H71  1  0.39653673  0.86408209  0.23772592  1
  H+  H72  1  0.23101852  0.12361646  0.90373888  1
  H+  H73  1  0.20101669  0.91079569  0.48521255  1
  H+  H74  1  0.67654921  0.82007206  0.00207967  1
  H+  H75  1  0.52667013  0.16288361  0.26061939  1
  H+  H76  1  0.15047386  0.54436679  0.01857195  1
  H+  H77  1  0.16805411  0.17919732  0.01492114  1
  H+  H78  1  0.37297962  0.84825183  0.71757208  1
  H+  H79  1  -0.02515445  0.48459532  0.26385002  1
  H+  H80  1  0.82450464  0.18283422  0.00795747  1
  H+  H81  1  0.50413047  0.68651326  0.97621684  1
  H+  H82  1  0.14780545  0.47279930  0.50712123  1
  H+  H83  1  0.97166399  0.82333701  0.75454663  1
  H+  H84  1  0.90970883  0.79904078  0.90360357  1
  H+  H85  1  0.76244638  0.94127292  0.03897367  1
  H+  H86  1  0.16841607  0.68659610  0.76992847  1
  H+  H87  1  0.86086660  1.02334534  0.49353582  1
  H+  H88  1  0.84501260  0.50741505  -0.00304511  1
  H+  H89  1  0.30508446  0.49149492  0.24909022  1
  H+  H90  1  0.94904880  0.47627730  0.77517681  1
  H+  H91  1  0.70775397  0.50286176  0.51509425  1
  H+  H92  1  0.46448277  0.88600462  0.63712666  1
  H+  H93  1  0.35341316  0.51060920  1.00593281  1
  H+  H94  1  0.89463028  0.54793253  0.53836068  1
  H+  H95  1  0.15431291  0.30138321  0.73026928  1
  H+  H96  1  0.04950448  0.18242513  0.01209485  1
  H+  H97  1  0.51236741  0.97874062  0.00550631  1
  H+  H98  1  0.97259145  0.51311121  1.00101828  1
  H+  H99  1  0.62139485  0.84795788  0.50396760  1
  H+  H100  1  0.55865554  0.77402733  0.83715833  1
  H+  H101  1  0.64712982  0.15494084  -0.01144403  1
  H+  H102  1  0.19560607  0.71790325  1.01273205  1
  H+  H103  1  0.48220910  0.18038946  0.73589795  1
  H+  H104  1  0.15962127  0.64086502  0.24152824  1
  H+  H105  1  0.67727169  0.49278108  0.56048591  1
  H+  H106  1  0.97217550  0.15681090  0.74574897  1
  H+  H107  1  0.56782514  0.73532949  0.22851661  1
  H+  H108  1  0.22467927  0.10594721  0.35244717  1
  H+  H109  1  0.52677776  0.04242818  0.25941888  1
  H+  H110  1  0.14877690  0.78165459  0.80733748  1
  H+  H111  1  0.23968018  0.78904262  0.92153089  1
  H+  H112  1  0.78423529  0.54121156  0.17582855  1
  H+  H113  1  0.72167879  0.58342631  0.07030754  1
  H+  H114  1  0.45300989  0.22931288  0.14647983  1
  H+  H115  1  0.78632428  0.89610484  0.60009009  1
  H+  H116  1  0.56436653  0.11455653  0.90002861  1
  H+  H117  1  0.11696983  0.21924674  0.15842019  1
  H+  H118  1  0.89893580  0.10428567  0.39874692  1
  H+  H119  1  0.25248658  0.79197445  0.34079444  1
  H+  H120  1  0.12892353  0.40760449  0.95249788  1
  H+  H121  1  0.44313868  0.56799380  0.58518891  1
  H+  H122  1  0.90948463  0.12875473  0.88569807  1
  H+  H123  1  0.15577749  0.51991045  0.23561194  1
  H+  H124  1  0.89625573  0.77546224  0.41587261  1
  H+  H125  1  0.44248454  0.56223917  0.08788110  1
  H+  H126  1  0.77134183  0.83147498  0.26149327  1
  H+  H127  1  0.10772082  0.21892872  0.59239223  1
  H+  H128  1  0.53263109  0.44135076  0.33417856  1
  H+  H129  1  0.10729143  0.56895582  0.11227906  1
  H+  H130  1  0.48094156  0.91198830  0.15380317  1
  H+  H131  1  0.54892729  0.44180233  0.82840587  1
  H+  H132  1  0.50236044  0.47769784  0.97415146  1
  H+  H133  1  0.36168786  0.85566668  0.47296554  1
  H+  H134  1  0.18839515  0.36997896  0.25170687  1
  H+  H135  1  0.12367496  0.89860793  0.11393361  1
  H+  H136  1  0.76120338  0.22348174  0.59897751  1
  H+  H137  1  0.22371308  0.43978562  0.38964208  1
  H+  H138  1  0.75171943  0.86942116  0.16510523  1
  H+  H139  1  0.11582908  0.92524829  0.62661542  1
  H+  H140  1  0.49436383  0.63947323  0.72638666  1
  H+  H141  1  0.23628647  0.43191928  0.84482034  1
  H+  H142  1  0.57092116  0.44518201  0.47409950  1
  H+  H143  1  0.56246185  0.11614390  0.39369197  1
  O2-  O144  1  0.11757574  0.22449436  0.22647651  1
  O2-  O145  1  0.11045253  0.22119924  0.70875092  1
  O2-  O146  1  0.11389704  0.56090702  0.21689440  1
  O2-  O147  1  0.05857068  0.56852422  0.70074328  1
  O2-  O148  1  0.15078540  0.91893485  0.21771226  1
  O2-  O149  1  0.10965800  0.90676361  0.69288821  1
  O2-  O150  1  0.45698574  0.23689720  0.21470647  1
  O2-  O151  1  0.44033604  0.21778553  0.71013470  1
  O2-  O152  1  0.45437533  0.57331906  0.20494592  1
  O2-  O153  1  0.45484595  0.56005516  0.70058647  1
  O2-  O154  1  0.47659157  0.91745956  0.22074893  1
  O2-  O155  1  0.45504597  0.89000873  0.70408938  1
  O2-  O156  1  0.78512045  0.21601310  0.22230032  1
  O2-  O157  1  0.77469918  0.22065409  0.70948356  1
  O2-  O158  1  0.77308946  0.54218429  0.24144044  1
  O2-  O159  1  0.78879782  0.55798344  0.73883406  1
  O2-  O160  1  0.74330914  0.87787631  0.23085648  1
  O2-  O161  1  0.78593655  0.89662368  0.71739913  1
  O2-  O162  1  0.23467248  0.12187257  0.28597344  1
  O2-  O163  1  0.22447079  0.12327859  0.78053250  1
  O2-  O164  1  0.22534067  0.45139854  0.27254571  1
  O2-  O165  1  0.23898520  0.44170978  0.77714869  1
  O2-  O166  1  0.24195018  0.77930320  0.27397004  1
  O2-  O167  1  0.20898848  0.76201152  0.80099925  1
  O2-  O168  1  0.56605734  0.12341228  0.28613822  1
  O2-  O169  1  0.55351352  0.11137062  0.77678930  1
  O2-  O170  1  0.55304150  0.45259419  0.26787628  1
  O2-  O171  1  0.55986923  0.44432502  0.76102125  1
  O2-  O172  1  0.49480286  0.67980817  0.25758769  1
  O2-  O173  1  0.56324571  0.77657267  0.76911363  1
  O2-  O174  1  0.88959306  0.10580803  0.28966283  1
  O2-  O175  1  0.89236919  0.12038986  0.77114461  1
  O2-  O176  1  0.89620288  0.43814049  0.28971350  1
  O2-  O177  1  0.87352042  0.43588397  0.80725782  1
  O2-  O178  1  0.85089296  0.75843916  0.29779820  1
  O2-  O179  1  0.89899600  0.78508906  0.78930478  1
  O2-  O180  1  0.20222144  0.05674870  0.46952770  1
  O2-  O181  1  0.23084790  0.12159476  0.97119458  1
  O2-  O182  1  0.22185698  0.43148557  0.45762250  1
  O2-  O183  1  0.20430852  0.41562747  0.96094331  1
  O2-  O184  1  0.28060443  0.83252226  0.45793819  1
  O2-  O185  1  0.23807130  0.79784748  0.98866954  1
  O2-  O186  1  0.56186359  0.10912330  0.46345128  1
  O2-  O187  1  0.56461273  0.11386419  0.96772472  1
  O2-  O188  1  0.49442037  0.41395608  0.44726473  1
  O2-  O189  1  0.54246390  0.43921560  0.94729652  1
  O2-  O190  1  0.54179862  0.81303128  0.47987212  1
  O2-  O191  1  0.55373339  0.76691738  0.95459560  1
  O2-  O192  1  0.90508187  0.10500199  0.46815179  1
  O2-  O193  1  0.91636261  0.12633573  0.95406233  1
  O2-  O194  1  0.88762522  0.42752450  0.47152702  1
  O2-  O195  1  0.89159910  0.47298182  0.97531342  1
  O2-  O196  1  0.91626354  0.79160508  0.48125606  1
  O2-  O197  1  0.90836345  0.79823237  0.97255078  1
  O2-  O198  1  0.12674363  0.22030054  0.04041198  1
  O2-  O199  1  0.10193981  0.21421795  0.52436520  1
  O2-  O200  1  0.10472068  0.57660765  0.04206371  1
  O2-  O201  1  0.10054798  0.50504584  0.53669530  1
  O2-  O202  1  0.11608753  0.88561224  0.04457005  1
  O2-  O203  1  0.15018352  0.93998306  0.50682817  1
  O2-  O204  1  0.45341763  0.22305669  0.03061330  1
  O2-  O205  1  0.42112983  0.18884444  0.52711889  1
  O2-  O206  1  0.43565559  0.55129303  0.02027117  1
  O2-  O207  1  0.43547962  0.56885115  0.51725281  1
  O2-  O208  1  0.47664290  0.89810337  0.02956390  1
  O2-  O209  1  0.49356946  0.88200878  0.51912021  1
  O2-  O210  1  0.77863788  0.21583241  0.03067515  1
  O2-  O211  1  0.75692935  0.22418258  0.52984495  1
  O2-  O212  1  0.77132678  0.57923989  0.02367341  1
  O2-  O213  1  0.91354262  0.60981197  0.58318222  1
  O2-  O214  1  0.75473056  0.86560952  0.03319192  1
  O2-  O215  1  0.78570288  0.89677251  0.53178070  1
