# generated using pymatgen
data_H2O
_symmetry_space_group_name_H-M   'P 1'
_cell_length_a   13.50509044
_cell_length_b   13.51860551
_cell_length_c   14.69789338
_cell_angle_alpha   90.02717170
_cell_angle_beta   89.97471152
_cell_angle_gamma   119.90322618
_symmetry_Int_Tables_number   1
_chemical_formula_structural   H2O
_chemical_formula_sum   'H144 O72'
_cell_volume   2326.15009925
_cell_formula_units_Z   72
loop_
 _symmetry_equiv_pos_site_id
 _symmetry_equiv_pos_as_xyz
  1  'x, y, z'
loop_
 _atom_type_symbol
 _atom_type_oxidation_number
  H+  1.0
  O2-  -2.0
loop_
 _atom_site_type_symbol
 _atom_site_label
 _atom_site_symmetry_multiplicity
 _atom_site_fract_x
 _atom_site_fract_y
 _atom_site_fract_z
 _atom_site_occupancy
  H+  H0  1  0.02124177  0.85049961  0.25726886  1
  H+  H1  1  0.71816379  0.14244996  -0.03049542  1
  H+  H2  1  0.09361059  0.21749608  0.11713159  1
  H+  H3  1  0.82461544  0.63871594  1.00467158  1
  H+  H4  1  0.85385466  0.51226647  0.75968188  1
  H+  H5  1  0.19582943  0.92136929  0.05103924  1
  H+  H6  1  0.14588321  0.65291996  0.27041248  1
  H+  H7  1  0.91598106  0.29307262  0.68453028  1
  H+  H8  1  0.18248050  0.86759598  0.75344093  1
  H+  H9  1  0.22381601  0.79427562  0.41732151  1
  H+  H10  1  -0.01039325  0.82797846  0.00570521  1
  H+  H11  1  0.68419008  0.16299352  0.21387159  1
  H+  H12  1  0.84770459  0.36617266  0.97759672  1
  H+  H13  1  0.37721027  0.80953095  1.01538948  1
  H+  H14  1  0.56068246  0.14156939  0.34070884  1
  H+  H15  1  0.54907248  0.85053652  0.76931813  1
  H+  H16  1  0.35526407  0.17258712  0.71502936  1
  H+  H17  1  0.60071125  0.44602539  0.73798723  1
  H+  H18  1  0.71680802  0.86961636  0.75570642  1
  H+  H19  1  0.53650963  0.84236204  0.25990474  1
  H+  H20  1  0.84918998  0.71057552  0.49224687  1
  H+  H21  1  0.52786601  0.58059762  -0.09243096  1
  H+  H22  1  0.43807573  0.46205532  0.72922336  1
  H+  H23  1  0.81098539  0.82448125  0.24962877  1
  H+  H24  1  0.16319529  0.81682333  0.50228201  1
  H+  H25  1  0.19456879  0.05443497  0.77109015  1
  H+  H26  1  0.56808048  0.76840984  0.83698176  1
  H+  H27  1  0.48508281  0.51194232  0.51056485  1
  H+  H28  1  0.77139513  0.55679524  0.14829128  1
  H+  H29  1  0.78766271  0.87735572  0.14217522  1
  H+  H30  1  0.83907915  1.02281005  0.27071943  1
  H+  H31  1  0.80197217  0.27456654  0.19416774  1
  H+  H32  1  0.50646654  0.99540645  0.23952080  1
  H+  H33  1  1.00680872  0.12467343  0.23112435  1
  H+  H34  1  0.16809912  0.06589627  1.00487916  1
  H+  H35  1  0.45338817  0.56226724  0.25756096  1
  H+  H36  1  0.00458610  0.85964166  0.76968564  1
  H+  H37  1  0.34119417  0.51669399  -0.06721848  1
  H+  H38  1  0.69149402  0.83702159  0.24318407  1
  H+  H39  1  0.47530506  0.86508043  0.49705430  1
  H+  H40  1  0.13000820  0.13372575  0.23068760  1
  H+  H41  1  0.03279321  0.22075885  0.02720196  1
  H+  H42  1  0.13389497  0.44439190  0.21411295  1
  H+  H43  1  0.29922129  0.48180003  0.49844031  1
  H+  H44  1  0.16890243  1.01196563  0.49585071  1
  H+  H45  1  0.84788324  0.46311482  0.21212368  1
  H+  H46  1  0.20396616  0.87033732  0.28037449  1
  H+  H47  1  0.19144755  0.78474765  0.97962950  1
  H+  H48  1  0.29477280  0.12283102  0.49186567  1
  H+  H49  1  0.81631566  0.52173528  0.54558470  1
  H+  H50  1  0.03975296  0.50939347  -0.01382082  1
  H+  H51  1  0.87433000  0.76494104  0.35169811  1
  H+  H52  1  0.37555657  0.84657684  0.73275920  1
  H+  H53  1  0.85002580  0.36535281  0.53226854  1
  H+  H54  1  0.15183094  0.52004219  0.51166747  1
  H+  H55  1  0.91844576  0.80344936  0.91345512  1
  H+  H56  1  0.85058690  0.02859688  0.77183308  1
  H+  H57  1  0.13778590  0.17591339  0.50529403  1
  H+  H58  1  -0.06440081  0.17752397  0.50015444  1
  H+  H59  1  0.46716319  0.59051276  0.82019559  1
  H+  H60  1  0.27783083  0.46498478  0.73352153  1
  H+  H61  1  0.73438875  0.59214514  0.77981322  1
  H+  H62  1  0.22135929  0.43579257  0.97373950  1
  H+  H63  1  0.28562435  0.43595403  0.26271911  1
  H+  H64  1  0.35363577  0.21741433  1.00886095  1
  H+  H65  1  0.14294710  0.18787841  0.74186573  1
  H+  H66  1  0.85161970  0.39248807  0.74657092  1
  H+  H67  1  1.01687187  0.17333891  0.74969230  1
  H+  H68  1  0.46389429  0.20533454  -0.00333583  1
  H+  H69  1  0.64011639  0.49217155  -0.03158251  1
  H+  H70  1  0.47415383  0.28092829  0.71740897  1
  H+  H71  1  0.69006468  0.50067220  0.23583584  1
  H+  H72  1  0.85617505  0.68937855  0.75685534  1
  H+  H73  1  0.85655537  0.14110044  1.00747304  1
  H+  H74  1  0.18941314  0.70455110  0.75095314  1
  H+  H75  1  0.88152019  0.85554336  0.76896120  1
  H+  H76  1  0.59789961  0.17702579  -0.02067043  1
  H+  H77  1  0.14842540  0.63966026  0.51027187  1
  H+  H78  1  0.48261839  0.63028309  0.51005688  1
  H+  H79  1  0.84127083  0.84822031  1.03164927  1
  H+  H80  1  0.73364070  0.15696588  0.48522354  1
  H+  H81  1  0.49740321  0.31393120  0.23931797  1
  H+  H82  1  0.51623545  1.02839900  0.75720314  1
  H+  H83  1  0.51510622  0.16844343  0.24840837  1
  H+  H84  1  0.96327074  0.48287904  0.54364685  1
  H+  H85  1  0.95222995  0.43613641  0.19412585  1
  H+  H86  1  0.81810408  0.51773885  1.00170649  1
  H+  H87  1  0.39011676  0.88220775  0.24930033  1
  H+  H88  1  0.13956441  0.97579976  0.25908397  1
  H+  H89  1  0.50650875  0.13873813  0.74420385  1
  H+  H90  1  0.80109867  0.96893602  0.52089546  1
  H+  H91  1  0.81517918  0.85825386  0.50877720  1
  H+  H92  1  0.84225100  0.13665527  0.24591507  1
  H+  H93  1  0.83703297  -0.03316929  1.03490375  1
  H+  H94  1  0.14604246  0.34383513  0.73501116  1
  H+  H95  1  0.97015062  0.82605365  0.47960083  1
  H+  H96  1  0.63709094  0.48224853  0.50042447  1
  H+  H97  1  0.35379035  0.85654362  0.51077302  1
  H+  H98  1  0.15654247  0.48207427  0.73168940  1
  H+  H99  1  0.20374291  0.65748293  0.27095256  1
  H+  H100  1  1.03058320  0.52967853  0.73327632  1
  H+  H101  1  0.53688534  0.73915992  0.21094646  1
  H+  H102  1  0.48009818  0.46378239  0.23519573  1
  H+  H103  1  0.83820255  0.68236253  0.26095631  1
  H+  H104  1  0.45755794  0.60505146  0.12267511  1
  H+  H105  1  0.45777317  0.19228116  0.57611794  1
  H+  H106  1  0.62409807  0.81452580  0.48791039  1
  H+  H107  1  0.19158149  0.66733398  0.97563259  1
  H+  H108  1  0.55024461  0.77121254  0.39736032  1
  H+  H109  1  0.51245395  0.38573466  0.97580240  1
  H+  H110  1  0.23891406  0.77183858  0.84386532  1
  H+  H111  1  0.88743032  0.47698387  0.38497271  1
  H+  H112  1  0.17215753  0.18548500  1.00138790  1
  H+  H113  1  0.17850303  0.36496137  0.49648286  1
  H+  H114  1  0.85946654  0.41310969  0.38448140  1
  H+  H115  1  0.89065688  0.09831752  0.91973171  1
  H+  H116  1  0.52808587  0.12167962  0.88887717  1
  H+  H117  1  0.23013829  0.11381374  0.35697373  1
  H+  H118  1  0.09622901  0.21245462  0.59295628  1
  H+  H119  1  0.16502601  0.92729179  0.66714715  1
  H+  H120  1  0.47580690  0.72538823  1.08064080  1
  H+  H121  1  0.75164475  0.19266778  0.07385684  1
  H+  H122  1  0.78675870  0.89459907  0.66005401  1
  H+  H123  1  0.07652288  0.37367456  0.12731182  1
  H+  H124  1  0.11018266  0.91095001  0.12739363  1
  H+  H125  1  0.85219634  0.14824257  0.77642902  1
  H+  H126  1  0.12117147  0.52105305  0.06718738  1
  H+  H127  1  0.77638955  0.58462084  0.61291621  1
  H+  H128  1  0.88799079  0.45149678  0.89343424  1
  H+  H129  1  0.31085858  0.15493407  0.26573212  1
  H+  H130  1  0.43901223  0.22882454  0.15065057  1
  H+  H131  1  0.42491606  0.53327829  0.64742434  1
  H+  H132  1  0.05839304  0.85114983  0.58177180  1
  H+  H133  1  0.79341962  0.21984478  0.65144376  1
  H+  H134  1  0.45204133  0.89269298  0.64345863  1
  H+  H135  1  0.48205922  0.05719212  0.49795760  1
  H+  H136  1  0.22623356  0.14407611  0.85096586  1
  H+  H137  1  0.54514149  0.42483890  0.83872322  1
  H+  H138  1  0.31031063  0.95262224  0.33785968  1
  H+  H139  1  0.11055061  0.56437638  0.64222268  1
  H+  H140  1  0.52810228  0.35905262  0.48653347  1
  H+  H141  1  0.56336224  0.43168460  0.33106700  1
  H+  H142  1  0.45297871  0.86894673  0.10249081  1
  H+  H143  1  0.21708304  0.43461905  0.35186549  1
  O2-  O144  1  0.06627694  0.12397049  0.19139422  1
  O2-  O145  1  0.09298561  0.21779361  0.71774103  1
  O2-  O146  1  0.08360186  0.44034963  0.16149610  1
  O2-  O147  1  0.11123116  0.56141858  0.71184672  1
  O2-  O148  1  0.10198658  0.89501778  0.23519210  1
  O2-  O149  1  0.14922478  0.91672718  0.73268819  1
  O2-  O150  1  0.44444442  0.22474524  0.21778532  1
  O2-  O151  1  0.43275812  0.20382249  0.68868520  1
  O2-  O152  1  0.42334910  0.49397175  0.22004267  1
  O2-  O153  1  0.40417354  0.51030235  0.71297879  1
  O2-  O154  1  0.46747555  0.91234051  0.22301640  1
  O2-  O155  1  0.45591617  0.88764785  0.71080025  1
  O2-  O156  1  0.75712454  0.18894890  0.18047368  1
  O2-  O157  1  0.83765821  0.25510055  0.70733731  1
  O2-  O158  1  0.77513557  0.55147274  0.21522063  1
  O2-  O159  1  0.79917218  0.60667817  0.74139694  1
  O2-  O160  1  0.77581707  0.87067961  0.22274417  1
  O2-  O161  1  0.79712223  0.90070705  0.72720227  1
  O2-  O162  1  0.23028580  0.10975472  0.28923928  1
  O2-  O163  1  0.22640414  0.13729587  0.78345400  1
  O2-  O164  1  0.20869740  0.41551671  0.28661532  1
  O2-  O165  1  0.19184651  0.43107075  0.74723913  1
  O2-  O166  1  0.27230740  0.87584613  0.31223049  1
  O2-  O167  1  0.23426492  0.78299503  0.77657042  1
  O2-  O168  1  0.55901399  0.13056637  0.27456705  1
  O2-  O169  1  0.54703273  0.10779850  0.77977323  1
  O2-  O170  1  0.56413709  0.42828595  0.26455915  1
  O2-  O171  1  0.52777774  0.40914460  0.76966829  1
  O2-  O172  1  0.56612375  0.78827223  0.26990700  1
  O2-  O173  1  0.60719053  0.84299019  0.80520621  1
  O2-  O174  1  0.88155424  0.10524744  0.28287609  1
  O2-  O175  1  0.88966452  0.10693739  0.80105250  1
  O2-  O176  1  0.87168477  0.40473948  0.21294818  1
  O2-  O177  1  0.89229245  0.46833304  0.77627248  1
  O2-  O178  1  0.87602406  0.76455290  0.28306994  1
  O2-  O179  1  0.92559227  0.81929778  0.79457730  1
  O2-  O180  1  0.21441215  0.09516194  0.47512430  1
  O2-  O181  1  0.20501357  0.14092888  0.97421496  1
  O2-  O182  1  0.21801625  0.44721771  0.47889382  1
  O2-  O183  1  0.27959772  0.43691386  0.93380702  1
  O2-  O184  1  0.21151882  0.77837368  0.48346331  1
  O2-  O185  1  0.23650611  0.75256229  0.95597750  1
  O2-  O186  1  0.52593995  0.13948598  0.47927895  1
  O2-  O187  1  0.52027891  0.13072650  0.95642722  1
  O2-  O188  1  0.55789433  0.44099071  0.47567545  1
  O2-  O189  1  0.56277431  0.45705102  0.93973142  1
  O2-  O190  1  0.54421045  0.77314550  0.46453248  1
  O2-  O191  1  0.51121213  0.68715169  1.11549230  1
  O2-  O192  1  0.85390791  0.12562559  0.51534591  1
  O2-  O193  1  0.89402519  0.09776609  0.98763614  1
  O2-  O194  1  0.88121840  0.44000671  0.56167002  1
  O2-  O195  1  0.88953694  0.44795490  0.96119997  1
  O2-  O196  1  0.88454543  0.78738002  0.46374768  1
  O2-  O197  1  0.91086125  0.78896648  0.98041031  1
  O2-  O198  1  0.10300532  0.26781573  0.06227764  1
  O2-  O199  1  0.10003682  0.21913424  0.52577956  1
  O2-  O200  1  0.12190136  0.54292472  0.00178194  1
  O2-  O201  1  0.11100842  0.55975842  0.53561621  1
  O2-  O202  1  0.12317383  0.91929978  0.05863456  1
  O2-  O203  1  0.09702269  0.87766005  0.52362027  1
  O2-  O204  1  0.43559927  0.25433157  0.02567451  1
  O2-  O205  1  0.45569522  0.19083839  0.50739799  1
  O2-  O206  1  0.49814406  0.62690674  -0.12044266  1
  O2-  O207  1  0.44381617  0.55083900  0.53453701  1
  O2-  O208  1  0.45091456  0.83090308  0.04447672  1
  O2-  O209  1  0.43800470  0.90604786  0.52307352  1
  O2-  O210  1  0.76801927  0.20979263  0.00540543  1
  O2-  O211  1  0.80285282  0.19944609  0.52223156  1
  O2-  O212  1  0.77504603  0.55688724  0.02008665  1
  O2-  O213  1  0.77685518  0.56792685  0.54765806  1
  O2-  O214  1  0.80071810  0.88651160  0.05907352  1
  O2-  O215  1  0.76728795  0.88764910  0.53722816  1
