# generated using pymatgen
data_H2O
_symmetry_space_group_name_H-M   'P 1'
_cell_length_a   13.51762101
_cell_length_b   13.51898956
_cell_length_c   14.70254284
_cell_angle_alpha   89.99354466
_cell_angle_beta   89.99367540
_cell_angle_gamma   119.99653294
_symmetry_Int_Tables_number   1
_chemical_formula_structural   H2O
_chemical_formula_sum   'H144 O72'
_cell_volume   2326.92692372
_cell_formula_units_Z   72
loop_
 _symmetry_equiv_pos_site_id
 _symmetry_equiv_pos_as_xyz
  1  'x, y, z'
loop_
 _atom_type_symbol
 _atom_type_oxidation_number
  H+  1.0
  O2-  -2.0
loop_
 _atom_site_type_symbol
 _atom_site_label
 _atom_site_symmetry_multiplicity
 _atom_site_fract_x
 _atom_site_fract_y
 _atom_site_fract_z
 _atom_site_occupancy
  H+  H0  1  0.18405071  0.68677525  0.53740959  1
  H+  H1  1  0.54597499  0.82888732  0.75323573  1
  H+  H2  1  0.11704553  0.65952065  0.81127604  1
  H+  H3  1  0.49781343  0.31253517  0.74277841  1
  H+  H4  1  0.50832783  0.83017790  0.52145326  1
  H+  H5  1  0.39021337  0.52841878  0.73251643  1
  H+  H6  1  0.13976983  1.01593089  0.25315860  1
  H+  H7  1  0.70600814  0.53275953  0.75025524  1
  H+  H8  1  0.16970204  0.81399180  0.99785205  1
  H+  H9  1  0.53655155  0.70950539  0.49235615  1
  H+  H10  1  0.66267724  0.17281042  0.26938114  1
  H+  H11  1  0.83795588  -0.02231825  0.50446899  1
  H+  H12  1  0.52290933  0.16168365  0.77300448  1
  H+  H13  1  0.16733987  0.87569465  0.74645889  1
  H+  H14  1  0.05463466  0.84658889  0.50234045  1
  H+  H15  1  0.82767244  0.30814642  0.49718143  1
  H+  H16  1  0.80259885  -0.04306230  0.26900881  1
  H+  H17  1  0.85438211  0.16366054  0.27098023  1
  H+  H18  1  0.97977494  0.82163533  0.23793407  1
  H+  H19  1  0.48957208  0.31186251  0.50026180  1
  H+  H20  1  0.50967842  0.53100128  0.49152125  1
  H+  H21  1  0.84292382  0.48168485  0.46902304  1
  H+  H22  1  0.11182399  0.68456461  0.76690801  1
  H+  H23  1  0.85758543  0.71071349  0.75368845  1
  H+  H24  1  1.03029740  0.54026797  1.02127215  1
  H+  H25  1  0.45944392  -0.03865148  0.22854665  1
  H+  H26  1  0.51968128  0.30607515  0.24384194  1
  H+  H27  1  -0.03117317  0.15750566  0.25904138  1
  H+  H28  1  0.16548967  0.73077308  0.13969261  1
  H+  H29  1  0.51717962  0.71875752  0.97104934  1
  H+  H30  1  0.82875866  0.85329338  0.51161710  1
  H+  H31  1  0.39598670  0.87272806  0.75662927  1
  H+  H32  1  0.88360846  0.42628322  0.88275758  1
  H+  H33  1  0.60317887  0.81515998  0.25060656  1
  H+  H34  1  0.37729932  0.19700024  0.73755101  1
  H+  H35  1  0.18964956  0.50099964  0.47303746  1
  H+  H36  1  0.19944961  0.10564231  0.33323916  1
  H+  H37  1  0.81493422  0.94972077  -0.00141004  1
  H+  H38  1  0.20861696  0.81474693  0.53701692  1
  H+  H39  1  0.13356913  0.58133986  0.70348927  1
  H+  H40  1  0.67534011  0.48607790  0.24807392  1
  H+  H41  1  0.85088331  0.48266193  0.74930386  1
  H+  H42  1  0.77735931  0.53936295  0.10203445  1
  H+  H43  1  0.15186482  -0.01807518  0.73066064  1
  H+  H44  1  0.63196437  0.46746223  0.99168557  1
  H+  H45  1  0.25138048  0.83238459  0.87269232  1
  H+  H46  1  0.04086793  0.19614741  0.73207679  1
  H+  H47  1  0.52110117  0.48120075  0.99138777  1
  H+  H48  1  0.18390706  0.16537173  0.73876767  1
  H+  H49  1  0.53204964  0.49430594  0.76141595  1
  H+  H50  1  0.06219157  0.58159199  0.24078196  1
  H+  H51  1  0.94123864  0.39032669  0.95884069  1
  H+  H52  1  0.64722595  0.16747854  0.48387054  1
  H+  H53  1  0.86173784  0.13841014  0.99221786  1
  H+  H54  1  0.31878388  0.14886745  1.00969903  1
  H+  H55  1  0.26588532  0.79189686  0.20677635  1
  H+  H56  1  0.30595697  0.16300445  0.48534057  1
  H+  H57  1  0.50928231  0.64624777  0.73313721  1
  H+  H58  1  0.13507944  -0.04695483  1.03110397  1
  H+  H59  1  0.82633096  0.64465768  0.22969876  1
  H+  H60  1  0.15620738  0.18022387  1.01495240  1
  H+  H61  1  0.23181211  0.44254725  0.84304081  1
  H+  H62  1  0.77290360  0.29468800  0.01452755  1
  H+  H63  1  0.01653064  0.51381688  0.48753582  1
  H+  H64  1  0.86426237  0.15938317  0.48923773  1
  H+  H65  1  -0.01338263  0.83529117  0.74659895  1
  H+  H66  1  0.49500330  0.30018940  0.01391641  1
  H+  H67  1  0.83569643  0.32436504  0.25305811  1
  H+  H68  1  0.10902134  0.83357580  0.23417153  1
  H+  H69  1  0.16795440  0.35494513  -0.00736082  1
  H+  H70  1  0.64644825  0.48143890  0.48258550  1
  H+  H71  1  0.15493553  0.17121917  0.50218484  1
  H+  H72  1  0.51407648  -0.01510690  0.74818013  1
  H+  H73  1  0.43601484  0.53130919  0.21512866  1
  H+  H74  1  0.90658085  0.76810530  0.58426396  1
  H+  H75  1  0.52828781  0.16928669  0.48233800  1
  H+  H76  1  0.81092167  0.49596387  1.01172343  1
  H+  H77  1  0.53384546  0.17089669  0.25888685  1
  H+  H78  1  0.16361076  0.46265337  0.27634368  1
  H+  H79  1  0.84438256  0.66647388  0.51646023  1
  H+  H80  1  0.48396047  0.70565843  0.21869670  1
  H+  H81  1  0.46896630  0.85086865  0.20728545  1
  H+  H82  1  0.57721686  0.63263440  0.04679776  1
  H+  H83  1  0.71492760  0.85457229  0.73851936  1
  H+  H84  1  0.13886131  0.29925931  0.22426042  1
  H+  H85  1  0.84229787  0.52555509  0.22962407  1
  H+  H86  1  0.98283122  0.14586252  0.98965272  1
  H+  H87  1  0.13373633  0.51621099  1.01202009  1
  H+  H88  1  0.48987045  0.17757446  0.02336614  1
  H+  H89  1  0.44738955  0.57042367  0.10283992  1
  H+  H90  1  0.19195744  1.03967570  0.48507124  1
  H+  H91  1  0.19111374  0.47048013  0.74972618  1
  H+  H92  1  0.31121398  0.51314837  0.47105635  1
  H+  H93  1  0.32545725  0.95554046  0.83067249  1
  H+  H94  1  0.85628466  0.84029310  0.74139112  1
  H+  H95  1  0.27355940  0.48724318  0.21712229  1
  H+  H96  1  0.64001336  0.82689892  -0.02645037  1
  H+  H97  1  0.82113288  0.18355711  0.73896106  1
  H+  H98  1  0.16534546  0.31188893  0.72988931  1
  H+  H99  1  0.86705517  0.04298594  0.75596863  1
  H+  H100  1  0.83756179  0.35586502  0.74641799  1
  H+  H101  1  0.18324609  0.70404201  -0.01637965  1
  H+  H102  1  0.67388269  0.16476160  0.03050385  1
  H+  H103  1  0.89600052  0.44621240  0.38281355  1
  H+  H104  1  0.83537793  0.67853248  -0.00459316  1
  H+  H105  1  0.57905910  0.78726267  0.84214319  1
  H+  H106  1  0.70071794  0.18036650  0.74276604  1
  H+  H107  1  0.01724085  0.47216207  0.72350360  1
  H+  H108  1  0.07963390  0.86881778  0.11429893  1
  H+  H109  1  0.47255998  0.56804657  0.58253543  1
  H+  H110  1  0.47023258  0.88541756  0.62017539  1
  H+  H111  1  0.56062718  -0.04495929  0.97219439  1
  H+  H112  1  0.45293541  0.95701687  0.08269101  1
  H+  H113  1  0.12722408  0.89922966  0.59085605  1
  H+  H114  1  0.08627033  0.51487103  0.57493494  1
  H+  H115  1  0.23265556  0.73962987  0.35759100  1
  H+  H116  1  0.78801140  0.23078289  0.58841683  1
  H+  H117  1  0.46668001  0.21883815  0.16042557  1
  H+  H118  1  0.11299971  0.22161025  0.59361462  1
  H+  H119  1  0.13190813  0.17418556  0.23143326  1
  H+  H120  1  0.79230380  0.83480006  0.25764562  1
  H+  H121  1  0.77634712  0.57541075  0.65697022  1
  H+  H122  1  0.56353627  0.44778443  0.85276570  1
  H+  H123  1  0.56965868  0.44241362  0.39127193  1
  H+  H124  1  0.90604776  0.12028025  0.84509917  1
  H+  H125  1  0.79511915  0.89968766  0.64659690  1
  H+  H126  1  0.36725126  0.81946872  0.54848888  1
  H+  H127  1  0.65044090  0.83609845  0.49949229  1
  H+  H128  1  0.02357031  0.17220489  0.50025637  1
  H+  H129  1  0.27552258  0.47877240  0.99689814  1
  H+  H130  1  0.55468571  0.47974145  0.24243866  1
  H+  H131  1  0.57255338  0.12843196  0.36069768  1
  H+  H132  1  0.90276517  0.12189741  0.39685111  1
  H+  H133  1  0.27799718  0.77702926  0.39100959  1
  H+  H134  1  0.21743198  0.13123903  0.83132032  1
  H+  H135  1  0.75613476  0.47520571  0.57014944  1
  H+  H136  1  0.86150290  0.74492647  0.32607199  1
  H+  H137  1  0.55853475  0.10812495  0.85838774  1
  H+  H138  1  0.77592700  0.23881333  0.16912546  1
  H+  H139  1  0.24741133  0.05498225  0.93778645  1
  H+  H140  1  0.94976051  0.79741091  0.99739265  1
  H+  H141  1  0.10543405  0.21524279  0.10155740  1
  H+  H142  1  0.80097964  0.82592659  -0.00008720  1
  H+  H143  1  0.45298181  0.23390668  0.59016002  1
  O2-  O144  1  0.09330290  0.21565610  0.20451161  1
  O2-  O145  1  0.11913149  0.23219743  0.70397077  1
  O2-  O146  1  0.02782709  0.49821781  0.24692399  1
  O2-  O147  1  0.09459991  0.49838373  0.69662833  1
  O2-  O148  1  0.06880684  0.87535783  0.21862817  1
  O2-  O149  1  0.11628940  0.89906089  0.71468374  1
  O2-  O150  1  0.47748297  0.22259203  0.22753171  1
  O2-  O151  1  0.45902392  0.23140798  0.72099653  1
  O2-  O152  1  0.40672039  0.56663540  0.17389174  1
  O2-  O153  1  0.47037578  0.56546749  0.71088966  1
  O2-  O154  1  0.42950332  0.89703993  0.18602584  1
  O2-  O155  1  0.47391949  0.90256557  0.73041090  1
  O2-  O156  1  0.78691833  0.23934955  0.23632288  1
  O2-  O157  1  0.77846089  0.22071288  0.71514853  1
  O2-  O158  1  0.79115929  0.55427869  0.20692130  1
  O2-  O159  1  0.78647079  0.57765496  0.72398892  1
  O2-  O160  1  0.74846020  0.87436291  0.27089907  1
  O2-  O161  1  0.79803253  0.89654042  0.71524286  1
  O2-  O162  1  0.18491004  0.09927603  0.26754012  1
  O2-  O163  1  0.22257866  0.12397507  0.76544329  1
  O2-  O164  1  0.20453571  0.42739964  0.24975299  1
  O2-  O165  1  0.24072292  0.44228953  0.77592211  1
  O2-  O166  1  0.18131908  0.74590597  0.20444237  1
  O2-  O167  1  0.27806668  0.87660554  0.81104233  1
  O2-  O168  1  0.57736703  0.12746069  0.28798680  1
  O2-  O169  1  0.56387515  0.12010899  0.79202556  1
  O2-  O170  1  0.59096226  0.44182899  0.27212683  1
  O2-  O171  1  0.57215166  0.45359985  0.78445993  1
  O2-  O172  1  0.51892507  0.78326539  0.24622343  1
  O2-  O173  1  0.58666037  0.78771973  0.77222208  1
  O2-  O174  1  0.89363827  0.12221783  0.29258295  1
  O2-  O175  1  0.90528300  0.12374722  0.77680440  1
  O2-  O176  1  0.90776696  0.45799692  0.27409616  1
  O2-  O177  1  0.88544761  0.43676856  0.76963451  1
  O2-  O178  1  0.86431296  0.75209386  0.26013148  1
  O2-  O179  1  0.90162178  0.79717182  0.76348358  1
  O2-  O180  1  0.22344757  0.12106484  0.46640201  1
  O2-  O181  1  0.23988096  0.10475578  0.98172670  1
  O2-  O182  1  0.22988301  0.45808737  0.46286499  1
  O2-  O183  1  0.20034360  0.43494968  0.96840651  1
  O2-  O184  1  0.23661434  0.76549848  0.56195283  1
  O2-  O185  1  0.21789522  0.78648150  0.96793810  1
  O2-  O186  1  0.56892501  0.13073253  0.45746841  1
  O2-  O187  1  0.56109145  0.02859465  0.97702665  1
  O2-  O188  1  0.56324339  0.44424094  0.45853230  1
  O2-  O189  1  0.55135681  0.42936286  0.96823443  1
  O2-  O190  1  0.56809488  0.79494642  0.48306293  1
  O2-  O191  1  0.56049348  0.79797069  0.94604778  1
  O2-  O192  1  0.90489105  0.11868332  0.46726872  1
  O2-  O193  1  0.90378073  0.10722035  0.96093103  1
  O2-  O194  1  0.88554817  0.44047095  0.45177394  1
  O2-  O195  1  0.88638710  0.41645184  0.95062501  1
  O2-  O196  1  0.89148709  0.75464280  0.51940314  1
  O2-  O197  1  0.87162166  0.75758002  0.97150546  1
  O2-  O198  1  0.11143374  0.21693629  0.03089278  1
  O2-  O199  1  0.10744231  0.20811614  0.52554169  1
  O2-  O200  1  0.11192283  0.57245554  0.03272295  1
  O2-  O201  1  0.09574822  0.55122170  0.51490770  1
  O2-  O202  1  0.09322812  0.87107432  0.04498676  1
  O2-  O203  1  0.13355563  0.89884069  0.52351719  1
  O2-  O204  1  0.45405022  0.22147439  0.04317285  1
  O2-  O205  1  0.44632688  0.23018095  0.52307659  1
  O2-  O206  1  0.49848519  0.58312632  0.02669220  1
  O2-  O207  1  0.47681276  0.57781019  0.51573032  1
  O2-  O208  1  0.45312934  0.99800842  0.02382169  1
  O2-  O209  1  0.45502809  0.86743467  0.55331949  1
  O2-  O210  1  0.73242215  0.23471796  0.06043346  1
  O2-  O211  1  0.79033228  0.22740228  0.52122473  1
  O2-  O212  1  0.76753737  0.53175526  0.03258593  1
  O2-  O213  1  0.76795840  0.53232769  0.52467693  1
  O2-  O214  1  0.76140908  0.87007830  0.01510632  1
  O2-  O215  1  0.79534559  0.89989666  0.53305112  1
