# generated using pymatgen
data_H2O
_symmetry_space_group_name_H-M   'P 1'
_cell_length_a   13.50241247
_cell_length_b   13.50253013
_cell_length_c   14.68281279
_cell_angle_alpha   89.99585805
_cell_angle_beta   89.99782724
_cell_angle_gamma   119.95666283
_symmetry_Int_Tables_number   1
_chemical_formula_structural   H2O
_chemical_formula_sum   'H144 O72'
_cell_volume   2319.29453408
_cell_formula_units_Z   72
loop_
 _symmetry_equiv_pos_site_id
 _symmetry_equiv_pos_as_xyz
  1  'x, y, z'
loop_
 _atom_type_symbol
 _atom_type_oxidation_number
  H+  1.0
  O2-  -2.0
loop_
 _atom_site_type_symbol
 _atom_site_label
 _atom_site_symmetry_multiplicity
 _atom_site_fract_x
 _atom_site_fract_y
 _atom_site_fract_z
 _atom_site_occupancy
  H+  H0  1  0.81363667  0.30440986  1.00117716  1
  H+  H1  1  0.50124324  0.69822224  0.26446444  1
  H+  H2  1  0.54427199  0.02283561  0.26836581  1
  H+  H3  1  0.85725451  0.48139259  0.50311622  1
  H+  H4  1  0.94263062  0.09535747  0.28204270  1
  H+  H5  1  0.69630856  0.51458188  0.50644083  1
  H+  H6  1  0.33890041  0.49604401  1.01578804  1
  H+  H7  1  0.63053336  0.81808786  0.73796090  1
  H+  H8  1  0.47731899  0.30085236  0.75007727  1
  H+  H9  1  0.17812932  0.36760079  0.50597047  1
  H+  H10  1  0.50573381  0.66760885  0.00581509  1
  H+  H11  1  0.03695442  0.52817879  0.23881036  1
  H+  H12  1  0.10883701  0.22677892  0.64311053  1
  H+  H13  1  0.85028357  0.04093539  0.99267062  1
  H+  H14  1  0.20101883  0.80958678  0.18367783  1
  H+  H15  1  0.81984790  0.64413183  0.23401820  1
  H+  H16  1  0.19971874  0.23968301  0.53802259  1
  H+  H17  1  0.98080662  0.15312257  0.50180465  1
  H+  H18  1  0.18691946  0.70045984  0.50917410  1
  H+  H19  1  0.46992030  0.52514345  0.25489375  1
  H+  H20  1  0.48051382  0.85112994  0.73468239  1
  H+  H21  1  0.54977111  0.15822784  0.49967295  1
  H+  H22  1  0.13836482  0.30031895  0.73769890  1
  H+  H23  1  0.82075918  0.96427413  0.74092451  1
  H+  H24  1  0.51595266  0.13832559  0.99208062  1
  H+  H25  1  0.23351478  0.15162956  0.27086834  1
  H+  H26  1  0.29389769  0.81141840  0.76880730  1
  H+  H27  1  0.18326407  0.38458010  0.26451962  1
  H+  H28  1  0.86154259  0.36621969  0.51797752  1
  H+  H29  1  0.85105891  0.68728484  0.75555173  1
  H+  H30  1  0.87388017  0.37824003  0.76155231  1
  H+  H31  1  0.96595612  0.14873325  0.75584017  1
  H+  H32  1  -0.03085216  0.48362124  -0.01071435  1
  H+  H33  1  0.58894167  0.15518227  0.26767711  1
  H+  H34  1  0.28101238  0.48200014  0.75556898  1
  H+  H35  1  0.14567977  0.96181908  0.74645373  1
  H+  H36  1  0.14961478  0.84376861  0.75212590  1
  H+  H37  1  0.36051687  0.51094720  0.51261831  1
  H+  H38  1  0.86110067  0.03194107  0.50470584  1
  H+  H39  1  0.17889915  0.70370303  0.24069100  1
  H+  H40  1  0.63867604  0.15766206  0.75980495  1
  H+  H41  1  0.51118394  0.82145002  0.26434883  1
  H+  H42  1  0.63815877  0.14773611  -0.01008702  1
  H+  H43  1  0.47863883  0.96946155  0.74388244  1
  H+  H44  1  0.86426870  0.49629650  0.25088943  1
  H+  H45  1  0.48677064  0.62604853  0.51052032  1
  H+  H46  1  0.51559524  0.78781170  1.00324945  1
  H+  H47  1  0.11591751  -0.00566260  0.23612365  1
  H+  H48  1  0.65616028  0.50274336  0.23103986  1
  H+  H49  1  0.36414498  0.84368025  1.01203674  1
  H+  H50  1  0.16522715  0.49016337  0.76309051  1
  H+  H51  1  0.85030275  0.51283376  0.73762598  1
  H+  H52  1  0.36712380  0.85615675  0.23688980  1
  H+  H53  1  0.53880081  0.32180429  0.24145466  1
  H+  H54  1  0.79457276  0.18493544  0.24220376  1
  H+  H55  1  0.67416128  0.83015179  0.24138350  1
  H+  H56  1  0.12408245  0.19139252  0.23332202  1
  H+  H57  1  0.45528676  0.50865240  0.74686715  1
  H+  H58  1  0.14866981  0.63073528  0.00817491  1
  H+  H59  1  0.60905089  0.51275358  0.76814267  1
  H+  H60  1  0.17603578  0.80828879  0.99421204  1
  H+  H61  1  0.82383228  0.80618158  0.25067080  1
  H+  H62  1  0.50790131  0.70387361  0.74082810  1
  H+  H63  1  0.03320810  0.24261254  0.21515570  1
  H+  H64  1  0.17096240  0.15306810  0.74984054  1
  H+  H65  1  0.50568787  0.48436120  0.49056389  1
  H+  H66  1  0.79254436  0.94489961  0.25419553  1
  H+  H67  1  0.72117539  0.47636690  0.72254342  1
  H+  H68  1  0.81686303  0.84951281  0.50395362  1
  H+  H69  1  1.00296460  0.50427770  0.76324423  1
  H+  H70  1  0.83398888  0.69494777  0.48122117  1
  H+  H71  1  0.87672871  0.38426189  0.24929915  1
  H+  H72  1  0.83134192  0.18140306  0.52337885  1
  H+  H73  1  0.34859623  0.52230141  0.26131084  1
  H+  H74  1  0.11155231  -0.05980762  0.50572015  1
  H+  H75  1  0.78782693  0.56176881  0.14432229  1
  H+  H76  1  0.14329208  0.50922445  1.00341981  1
  H+  H77  1  0.31901731  0.83261833  0.51275447  1
  H+  H78  1  0.18406381  0.82393943  0.50563291  1
  H+  H79  1  0.81872759  0.84399717  0.74057024  1
  H+  H80  1  0.53242786  0.32369202  0.52122871  1
  H+  H81  1  0.03978852  0.52778147  0.52915164  1
  H+  H82  1  0.13159274  0.88258335  0.25524371  1
  H+  H83  1  0.96291755  0.16051975  0.98487249  1
  H+  H84  1  0.95043475  0.82213504  0.25070742  1
  H+  H85  1  0.63932881  0.80389857  0.49359141  1
  H+  H86  1  0.18328845  0.50258308  0.26912010  1
  H+  H87  1  0.13939794  0.17547616  0.00504687  1
  H+  H88  1  0.96717124  0.80696127  0.76127433  1
  H+  H89  1  0.44919601  0.19404062  0.27013685  1
  H+  H90  1  0.81823134  0.18278092  0.74741698  1
  H+  H91  1  0.54114108  0.45745709  0.17440609  1
  H+  H92  1  0.29063263  0.15147272  0.75602515  1
  H+  H93  1  0.47408030  -0.03360422  0.51822516  1
  H+  H94  1  0.12173107  0.94667907  0.00476313  1
  H+  H95  1  0.81652995  0.86120684  0.01216038  1
  H+  H96  1  0.81411859  0.62940160  0.00445251  1
  H+  H97  1  0.26874304  0.10098702  0.96579910  1
  H+  H98  1  0.53711230  0.35412578  0.98786988  1
  H+  H99  1  0.94879700  0.79963230  0.98991006  1
  H+  H100  1  0.16645109  0.35946326  -0.02210467  1
  H+  H101  1  0.21497191  0.45003661  0.41694951  1
  H+  H102  1  0.35411090  0.13669295  0.48448871  1
  H+  H103  1  0.11860758  0.56978363  0.67368072  1
  H+  H104  1  0.15945416  0.52982520  0.52513427  1
  H+  H105  1  0.09986082  0.10833948  0.47778775  1
  H+  H106  1  0.29296887  0.11158791  0.46884056  1
  H+  H107  1  0.82489872  0.51472741  1.00622829  1
  H+  H108  1  0.78327520  0.88884871  0.59797830  1
  H+  H109  1  0.55128580  0.44035739  0.85790194  1
  H+  H110  1  0.55813211  0.76462150  0.40610482  1
  H+  H111  1  0.54752669  0.44908394  0.39961807  1
  H+  H112  1  0.19224611  0.09158780  0.88240401  1
  H+  H113  1  0.78273546  0.22486875  0.65882148  1
  H+  H114  1  0.57719355  0.10025094  0.41239613  1
  H+  H115  1  0.42841245  0.89100507  0.61144441  1
  H+  H116  1  0.65230078  0.47530132  0.98425180  1
  H+  H117  1  0.48578415  0.95819181  0.00807864  1
  H+  H118  1  0.17414368  0.68642822  0.77152019  1
  H+  H119  1  0.89757630  0.45122589  0.89578406  1
  H+  H120  1  0.88715242  0.10953761  0.84631418  1
  H+  H121  1  0.55956467  0.11264982  0.84856627  1
  H+  H122  1  0.81409207  0.18584277  0.00107538  1
  H+  H123  1  0.44982581  0.89053048  0.15085692  1
  H+  H124  1  0.42974446  0.54602221  0.65051037  1
  H+  H125  1  0.11685217  0.06873556  0.37958975  1
  H+  H126  1  0.11749218  0.55825586  0.14981060  1
  H+  H127  1  0.09100208  0.88533523  0.10191408  1
  H+  H128  1  0.20632005  0.44187250  0.88998494  1
  H+  H129  1  0.78732807  0.90177937  0.10473402  1
  H+  H130  1  0.21947902  0.77356095  0.90410657  1
  H+  H131  1  0.86722865  0.77284293  0.39231161  1
  H+  H132  1  0.40685454  0.53567563  0.10988500  1
  H+  H133  1  0.87502411  0.76244847  0.89817312  1
  H+  H134  1  0.11436835  0.88771462  0.60501290  1
  H+  H135  1  0.47875397  0.22261353  0.11942404  1
  H+  H136  1  0.78418389  0.55443441  0.59006980  1
  H+  H137  1  0.11282775  0.23347427  0.09138244  1
  H+  H138  1  0.70875020  0.17245419  0.52034868  1
  H+  H139  1  0.80742129  0.23691008  0.14315117  1
  H+  H140  1  0.87660107  0.08834693  0.37136605  1
  H+  H141  1  0.49311176  0.24484226  0.61065730  1
  H+  H142  1  0.38250959  0.21656400  0.05618971  1
  H+  H143  1  0.48184782  0.18409295  0.75045159  1
  O2-  O144  1  0.11143739  0.25882376  0.20492138  1
  O2-  O145  1  0.10314628  0.21986071  0.71476799  1
  O2-  O146  1  0.12114397  0.56789005  0.21756557  1
  O2-  O147  1  0.11485798  0.56513845  0.74090426  1
  O2-  O148  1  0.08924116  0.90865888  0.21723106  1
  O2-  O149  1  0.10542197  0.88012157  0.72782547  1
  O2-  O150  1  0.51450262  0.23856525  0.23040956  1
  O2-  O151  1  0.43795880  0.22101921  0.72723736  1
  O2-  O152  1  0.42809808  0.56257105  0.23307704  1
  O2-  O153  1  0.42229495  0.55189583  0.71796869  1
  O2-  O154  1  0.44939221  0.89320072  0.21953990  1
  O2-  O155  1  0.43319573  0.88954073  0.72169319  1
  O2-  O156  1  0.84145147  0.25295637  0.20527267  1
  O2-  O157  1  0.78105970  0.22744868  0.72745157  1
  O2-  O158  1  0.78161388  0.56107237  0.21273325  1
  O2-  O159  1  0.79682018  0.54141650  0.71093032  1
  O2-  O160  1  0.75643177  0.87052381  0.22053607  1
  O2-  O161  1  0.78103496  0.88511661  0.71524563  1
  O2-  O162  1  0.15055578  0.10998854  0.26676029  1
  O2-  O163  1  0.20868849  0.10987973  0.77527579  1
  O2-  O164  1  0.22059331  0.46048066  0.29609981  1
  O2-  O165  1  0.20146773  0.43964892  0.77980454  1
  O2-  O166  1  0.21605391  0.79043104  0.24419049  1
  O2-  O167  1  0.21459735  0.77241664  0.79379055  1
  O2-  O168  1  0.60091058  0.09683612  0.29719095  1
  O2-  O169  1  0.55680213  0.11753944  0.78083180  1
  O2-  O170  1  0.56663938  0.45500104  0.23627370  1
  O2-  O171  1  0.53865750  0.44644702  0.78884451  1
  O2-  O172  1  0.54882971  0.77847263  0.28725186  1
  O2-  O173  1  0.54870818  0.78714566  0.75262564  1
  O2-  O174  1  0.86662389  0.07500562  0.30346970  1
  O2-  O175  1  0.88474393  0.10556919  0.77814038  1
  O2-  O176  1  0.91237922  0.46453864  0.27161627  1
  O2-  O177  1  0.91101613  0.45844338  0.78365477  1
  O2-  O178  1  0.87014797  0.76956988  0.27110476  1
  O2-  O179  1  0.88478188  0.76545305  0.78106012  1
  O2-  O180  1  0.09755397  0.04360933  0.44435389  1
  O2-  O181  1  0.19104140  0.08291630  0.95182096  1
  O2-  O182  1  0.22086348  0.45124589  0.48447822  1
  O2-  O183  1  0.20477607  0.44118442  0.95928410  1
  O2-  O184  1  0.22901724  0.78323768  0.48536697  1
  O2-  O185  1  0.22111331  0.77276467  0.97353485  1
  O2-  O186  1  0.56953290  0.09893511  0.48022440  1
  O2-  O187  1  0.55697825  0.10162155  0.96651714  1
  O2-  O188  1  0.55174971  0.44861561  0.46576539  1
  O2-  O189  1  0.57493602  0.42768769  0.95592748  1
  O2-  O190  1  0.56058454  0.74970097  0.47197052  1
  O2-  O191  1  0.55962312  0.74913974  0.99203624  1
  O2-  O192  1  0.89954499  0.11355319  0.48171324  1
  O2-  O193  1  0.88236562  0.11934574  0.96289862  1
  O2-  O194  1  0.90817596  0.44849387  0.50267444  1
  O2-  O195  1  0.88912170  0.44545507  0.96449456  1
  O2-  O196  1  0.86372716  0.77440409  0.45963164  1
  O2-  O197  1  0.86912902  0.75895957  0.96615090  1
  O2-  O198  1  0.10561879  0.22255702  0.02355107  1
  O2-  O199  1  0.12673399  0.23783923  0.54185637  1
  O2-  O200  1  0.10536926  0.55037650  0.03132572  1
  O2-  O201  1  0.12382989  0.57520569  0.54615575  1
  O2-  O202  1  0.09064297  0.87095286  0.03480945  1
  O2-  O203  1  0.12566108  0.88398127  0.53882576  1
  O2-  O204  1  0.45530514  0.21805460  0.05388192  1
  O2-  O205  1  0.53535084  0.26037487  0.55246949  1
  O2-  O206  1  0.41381087  0.52013637  0.04529171  1
  O2-  O207  1  0.44172749  0.54365045  0.53408520  1
  O2-  O208  1  0.44335288  0.88155600  0.03706559  1
  O2-  O209  1  0.42352983  0.88747587  0.54266068  1
  O2-  O210  1  0.77214565  0.22446351  0.02569931  1
  O2-  O211  1  0.78763745  0.21850633  0.54588939  1
  O2-  O212  1  0.78049258  0.55012612  0.03165533  1
  O2-  O213  1  0.77867155  0.55528431  0.52267697  1
  O2-  O214  1  0.82380735  0.92845045  0.04415255  1
  O2-  O215  1  0.78256033  0.89574758  0.53030414  1
