# generated using pymatgen
data_H2O
_symmetry_space_group_name_H-M   'P 1'
_cell_length_a   13.46519445
_cell_length_b   13.49977928
_cell_length_c   14.65300900
_cell_angle_alpha   89.96294348
_cell_angle_beta   90.01674224
_cell_angle_gamma   119.94063747
_symmetry_Int_Tables_number   1
_chemical_formula_structural   H2O
_chemical_formula_sum   'H144 O72'
_cell_volume   2308.10800894
_cell_formula_units_Z   72
loop_
 _symmetry_equiv_pos_site_id
 _symmetry_equiv_pos_as_xyz
  1  'x, y, z'
loop_
 _atom_type_symbol
 _atom_type_oxidation_number
  H+  1.0
  O2-  -2.0
loop_
 _atom_site_type_symbol
 _atom_site_label
 _atom_site_symmetry_multiplicity
 _atom_site_fract_x
 _atom_site_fract_y
 _atom_site_fract_z
 _atom_site_occupancy
  H+  H0  1  0.48590403  0.50631792  0.74983117  1
  H+  H1  1  -0.04711468  0.13469053  0.25984634  1
  H+  H2  1  0.30371843  0.48394448  0.49369930  1
  H+  H3  1  0.47432587  0.29409312  0.75760491  1
  H+  H4  1  0.71538218  0.58927298  0.69477663  1
  H+  H5  1  0.63265624  0.47612494  0.49282991  1
  H+  H6  1  0.36620893  0.83759330  0.74447332  1
  H+  H7  1  0.80585240  0.62694071  1.01472944  1
  H+  H8  1  0.51509468  0.16345385  0.77207247  1
  H+  H9  1  0.63766041  0.81537728  0.47889010  1
  H+  H10  1  0.74007055  0.92154969  0.62222226  1
  H+  H11  1  0.54600983  0.43480599  0.87141732  1
  H+  H12  1  0.20913860  0.83095423  0.76976086  1
  H+  H13  1  0.15595514  0.51811499  0.00996745  1
  H+  H14  1  0.36606781  0.83716447  0.51910019  1
  H+  H15  1  0.84965449  0.68795821  0.48197906  1
  H+  H16  1  0.13759793  0.28853152  0.23816733  1
  H+  H17  1  0.14308931  0.28926358  0.74924776  1
  H+  H18  1  0.16279718  -0.03408476  0.75094728  1
  H+  H19  1  0.62168779  0.45231767  0.26374553  1
  H+  H20  1  0.05237290  0.84310013  0.75589049  1
  H+  H21  1  0.81251135  0.19118209  0.75219207  1
  H+  H22  1  0.04541227  0.64171366  0.67422580  1
  H+  H23  1  0.43866532  0.66157379  0.22817986  1
  H+  H24  1  0.48482417  0.62362789  0.75276578  1
  H+  H25  1  0.13612594  0.16835427  0.75326534  1
  H+  H26  1  0.19466331  0.08377577  1.03820867  1
  H+  H27  1  0.64169929  0.16272437  0.99232713  1
  H+  H28  1  0.12204512  0.92236668  -0.00474808  1
  H+  H29  1  0.82328336  0.30378826  1.01620969  1
  H+  H30  1  0.64501881  0.17056083  0.76970382  1
  H+  H31  1  0.72794428  0.86811147  0.13818584  1
  H+  H32  1  0.37907243  0.53978753  0.00043883  1
  H+  H33  1  0.93434244  0.80382687  1.00450652  1
  H+  H34  1  0.76593242  0.83000290  0.23263653  1
  H+  H35  1  0.97557259  0.48716870  0.99968988  1
  H+  H36  1  0.18102182  0.37100216  0.99318640  1
  H+  H37  1  0.51122018  0.36247901  0.50404581  1
  H+  H38  1  0.83057677  1.02197780  0.26103503  1
  H+  H39  1  0.40143389  0.85629791  0.00222475  1
  H+  H40  1  0.18778219  0.36112965  0.50138100  1
  H+  H41  1  0.19697621  0.00374662  0.47983295  1
  H+  H42  1  0.84246449  0.48548393  0.26142831  1
  H+  H43  1  0.49187250  0.53159476  0.01029183  1
  H+  H44  1  0.81797166  0.51343842  0.01712541  1
  H+  H45  1  0.77725998  0.86770630  0.79568114  1
  H+  H46  1  0.69355193  0.17849396  0.51778713  1
  H+  H47  1  0.96585731  0.80763351  0.48483062  1
  H+  H48  1  0.14393931  0.65933596  0.73924248  1
  H+  H49  1  0.28285637  0.46877547  0.25537835  1
  H+  H50  1  0.30456508  0.04151701  0.41885492  1
  H+  H51  1  0.51286217  1.02883289  0.49953869  1
  H+  H52  1  0.03806421  0.53212383  0.23901051  1
  H+  H53  1  0.82325871  1.04991625  0.74579769  1
  H+  H54  1  0.48847209  0.84285382  0.51358160  1
  H+  H55  1  0.15405649  0.50528906  0.50600859  1
  H+  H56  1  0.48964236  0.51962867  0.50671290  1
  H+  H57  1  0.44699685  0.71202305  0.86089802  1
  H+  H58  1  0.15192330  0.83209516  0.51216925  1
  H+  H59  1  0.36851746  0.19589432  1.01461013  1
  H+  H60  1  0.82235215  0.50360766  0.50028346  1
  H+  H61  1  0.81426663  0.32488973  0.24202697  1
  H+  H62  1  0.81054288  0.83597135  0.50145394  1
  H+  H63  1  0.48485442  0.18405626  0.52708272  1
  H+  H64  1  0.26055413  0.82231800  0.25483838  1
  H+  H65  1  0.36638632  0.17805950  0.52019195  1
  H+  H66  1  0.30714359  0.47697844  0.75564755  1
  H+  H67  1  0.82906173  0.64855352  0.75095129  1
  H+  H68  1  0.48245816  0.18485049  0.01002907  1
  H+  H69  1  0.79712662  0.62775471  0.24468614  1
  H+  H70  1  0.19994745  0.80786556  -0.00631046  1
  H+  H71  1  0.52783363  1.03708074  -0.01487372  1
  H+  H72  1  0.83187119  0.48149520  0.77174451  1
  H+  H73  1  0.20059088  0.69190338  0.99113618  1
  H+  H74  1  0.09148050  0.22381334  0.09975314  1
  H+  H75  1  0.84950927  0.35349357  0.48960558  1
  H+  H76  1  0.54863706  0.79915244  0.35934145  1
  H+  H77  1  0.95382673  0.14830308  0.76467209  1
  H+  H78  1  0.55495526  0.11072192  0.41192549  1
  H+  H79  1  0.88186347  0.82195157  0.77715681  1
  H+  H80  1  0.29358254  0.13512341  0.24724503  1
  H+  H81  1  0.62780700  0.46385212  0.78522213  1
  H+  H82  1  0.19031731  0.68962037  0.48844289  1
  H+  H83  1  0.81009330  0.17686082  0.01793875  1
  H+  H84  1  0.48633299  0.83078960  0.74947357  1
  H+  H85  1  0.95544487  0.49752947  0.76402318  1
  H+  H86  1  0.56486071  0.12820767  0.87152268  1
  H+  H87  1  0.68959292  0.18891537  0.24590893  1
  H+  H88  1  0.57757560  0.78724462  0.86606599  1
  H+  H89  1  0.10015974  0.84050933  0.24546956  1
  H+  H90  1  0.97023005  0.47173444  0.48413678  1
  H+  H91  1  0.13109810  0.97008217  0.23197226  1
  H+  H92  1  0.73360786  0.81294205  0.77292091  1
  H+  H93  1  0.58211865  0.73651934  1.00782423  1
  H+  H94  1  0.04889828  0.18023816  0.51282224  1
  H+  H95  1  0.51551223  0.69725155  0.47977262  1
  H+  H96  1  -0.07227332  0.82045305  0.25032037  1
  H+  H97  1  0.81226667  0.31061494  0.74987324  1
  H+  H98  1  0.47753664  0.27119749  0.25211800  1
  H+  H99  1  0.16889964  0.63476683  0.24361398  1
  H+  H100  1  1.01451204  0.18270698  1.00839500  1
  H+  H101  1  0.81738216  0.01116195  0.99369521  1
  H+  H102  1  0.53029587  0.87744281  0.00927903  1
  H+  H103  1  0.43697872  0.21607507  0.66644366  1
  H+  H104  1  0.17287826  0.17823757  0.99915832  1
  H+  H105  1  0.18857701  0.47559213  0.75183146  1
  H+  H106  1  0.63449406  0.48388149  0.00151338  1
  H+  H107  1  0.29540342  0.14452661  0.77520916  1
  H+  H108  1  0.10786224  0.55208248  0.58851076  1
  H+  H109  1  0.13047771  0.16839282  0.22609498  1
  H+  H110  1  0.09132693  0.86879947  0.09534295  1
  H+  H111  1  0.77033875  0.23218319  0.14742351  1
  H+  H112  1  0.89369906  0.77000672  0.86891020  1
  H+  H113  1  0.24663686  0.78174119  0.85740301  1
  H+  H114  1  0.11600896  0.87908370  0.59925950  1
  H+  H115  1  0.81534703  0.95781867  0.49444880  1
  H+  H116  1  0.11706083  0.56525876  0.09701632  1
  H+  H117  1  0.88758356  0.09959326  0.40285625  1
  H+  H118  1  0.51376872  0.36782175  1.00632055  1
  H+  H119  1  0.44957643  0.86924853  0.64573628  1
  H+  H120  1  0.21410707  0.10663843  0.86280045  1
  H+  H121  1  0.77311305  0.22466266  0.60630876  1
  H+  H122  1  0.88357139  0.43780423  0.34680245  1
  H+  H123  1  0.21940777  0.41761971  0.35049966  1
  H+  H124  1  0.51314663  0.12783075  0.26464680  1
  H+  H125  1  0.42642370  0.58730422  0.14122308  1
  H+  H126  1  0.22351932  0.44511710  0.90248602  1
  H+  H127  1  0.76904387  0.54865335  0.15674262  1
  H+  H128  1  0.86220605  0.09568922  0.90689864  1
  H+  H129  1  0.54541966  0.02642346  0.28047139  1
  H+  H130  1  0.62230662  0.84037105  0.25174588  1
  H+  H131  1  0.85241905  0.13908051  0.49433004  1
  H+  H132  1  0.21305050  0.09643856  0.33350875  1
  H+  H133  1  0.44180273  0.20157038  0.15877188  1
  H+  H134  1  0.24665360  0.77707684  0.40522641  1
  H+  H135  1  0.45446390  0.56337868  0.59486583  1
  H+  H136  1  0.54358915  0.41479968  0.35203054  1
  H+  H137  1  0.71547542  1.02131300  0.62621549  1
  H+  H138  1  0.79237546  0.55132481  0.58933623  1
  H+  H139  1  0.37010132  0.81490472  0.28618677  1
  H+  H140  1  0.11803401  0.21898811  0.60442507  1
  H+  H141  1  0.89059579  0.44600598  0.91399334  1
  H+  H142  1  0.81277629  0.80461409  0.99365930  1
  H+  H143  1  0.86201624  0.77656525  0.34420762  1
  O2-  O144  1  0.08995952  0.20939910  0.20770393  1
  O2-  O145  1  0.09637064  0.20842409  0.72954470  1
  O2-  O146  1  0.11073161  0.57321614  0.20507978  1
  O2-  O147  1  0.07722727  0.59874526  0.70384934  1
  O2-  O148  1  0.07893952  0.88804150  0.20964907  1
  O2-  O149  1  0.13039970  0.88524561  0.72839039  1
  O2-  O150  1  0.43501708  0.18981327  0.22608690  1
  O2-  O151  1  0.43743379  0.21314581  0.73525037  1
  O2-  O152  1  0.40010144  0.58347865  0.20464929  1
  O2-  O153  1  0.44874047  0.54776329  0.72285924  1
  O2-  O154  1  0.49320232  0.88434438  0.27396732  1
  O2-  O155  1  0.44819906  0.86997212  0.71771439  1
  O2-  O156  1  0.76882211  0.23994695  0.21697481  1
  O2-  O157  1  0.76885705  0.22938733  0.72857803  1
  O2-  O158  1  0.76926478  0.54751085  0.22502297  1
  O2-  O159  1  0.77420104  0.57417709  0.71913098  1
  O2-  O160  1  0.72741616  0.87168529  0.20849846  1
  O2-  O161  1  0.71955776  0.96517502  0.66555204  1
  O2-  O162  1  0.21027383  0.09860885  0.26586013  1
  O2-  O163  1  0.21371088  0.10015497  0.79544348  1
  O2-  O164  1  0.21626716  0.40231861  0.28450996  1
  O2-  O165  1  0.22632168  0.43742555  0.77957458  1
  O2-  O166  1  0.27896010  0.77576750  0.29439005  1
  O2-  O167  1  0.24713344  0.78546097  0.78781015  1
  O2-  O168  1  0.57030352  0.10918889  0.29246176  1
  O2-  O169  1  0.56354649  0.13007638  0.79705477  1
  O2-  O170  1  0.54323598  0.39948877  0.28602026  1
  O2-  O171  1  0.54651591  0.43021568  0.80154932  1
  O2-  O172  1  0.54013730  0.80655476  0.28811712  1
  O2-  O173  1  0.51353134  0.75091580  0.82061452  1
  O2-  O174  1  0.87775488  0.09541189  0.29206978  1
  O2-  O175  1  0.87280432  0.11668499  0.78590612  1
  O2-  O176  1  0.88131449  0.44054918  0.27848666  1
  O2-  O177  1  0.87827699  0.44774539  0.79156257  1
  O2-  O178  1  0.85005167  0.77455235  0.27672037  1
  O2-  O179  1  0.91148861  0.77369289  0.80065246  1
  O2-  O180  1  0.25731430  0.07070022  0.44467476  1
  O2-  O181  1  0.21871172  0.13704315  0.98704410  1
  O2-  O182  1  0.22151292  0.44143473  0.47613939  1
  O2-  O183  1  0.22725784  0.45100690  0.96994699  1
  O2-  O184  1  0.23378132  0.77336260  0.47335707  1
  O2-  O185  1  0.24476620  0.77429920  0.96882333  1
  O2-  O186  1  0.55003712  0.11002932  0.48015225  1
  O2-  O187  1  0.56211625  0.12180745  0.96561324  1
  O2-  O188  1  0.55047268  0.44002518  0.47579886  1
  O2-  O189  1  0.55284954  0.44659413  0.97959941  1
  O2-  O190  1  0.55417077  0.77941095  0.45879607  1
  O2-  O191  1  0.62506714  0.81511439  0.98186702  1
  O2-  O192  1  0.89041703  0.09728377  0.47210052  1
  O2-  O193  1  0.86243209  0.09445275  0.97490157  1
  O2-  O194  1  0.88815532  0.43283632  0.46394478  1
  O2-  O195  1  0.89194763  0.44406616  0.98167756  1
  O2-  O196  1  0.88564802  0.76940958  0.46198903  1
  O2-  O197  1  0.85844367  0.76512851  0.97438811  1
  O2-  O198  1  0.09517799  0.22893665  0.02988460  1
  O2-  O199  1  0.12736436  0.22635154  0.53737159  1
  O2-  O200  1  0.11627637  0.56131577  0.02767060  1
  O2-  O201  1  0.11142034  0.54825641  0.52155533  1
  O2-  O202  1  0.08700650  0.85024091  0.02857117  1
  O2-  O203  1  0.11110759  0.87366316  0.53173676  1
  O2-  O204  1  0.44743313  0.22699841  0.03882978  1
  O2-  O205  1  0.44220814  0.22174336  0.55073172  1
  O2-  O206  1  0.46063431  0.58387424  0.01978011  1
  O2-  O207  1  0.45308522  0.56506574  0.52736363  1
  O2-  O208  1  0.48232854  0.91371910  0.01437320  1
  O2-  O209  1  0.44684663  0.87826625  0.54442587  1
  O2-  O210  1  0.77492371  0.22355140  0.03981857  1
  O2-  O211  1  0.77483643  0.21609660  0.53895177  1
  O2-  O212  1  0.77091019  0.54725555  0.03890845  1
  O2-  O213  1  0.78408692  0.54714067  0.52251485  1
  O2-  O214  1  0.74186386  0.86807131  0.02660702  1
  O2-  O215  1  0.76692573  0.87592889  0.51568345  1
