# generated using pymatgen
data_H2O
_symmetry_space_group_name_H-M   'P 1'
_cell_length_a   13.50367667
_cell_length_b   13.51058915
_cell_length_c   14.70519582
_cell_angle_alpha   90.05234440
_cell_angle_beta   89.97303920
_cell_angle_gamma   120.02270204
_symmetry_Int_Tables_number   1
_chemical_formula_structural   H2O
_chemical_formula_sum   'H144 O72'
_cell_volume   2322.88754688
_cell_formula_units_Z   72
loop_
 _symmetry_equiv_pos_site_id
 _symmetry_equiv_pos_as_xyz
  1  'x, y, z'
loop_
 _atom_type_symbol
 _atom_type_oxidation_number
  H+  1.0
  O2-  -2.0
loop_
 _atom_site_type_symbol
 _atom_site_label
 _atom_site_symmetry_multiplicity
 _atom_site_fract_x
 _atom_site_fract_y
 _atom_site_fract_z
 _atom_site_occupancy
  H+  H0  1  0.19182696  0.15348003  0.99198412  1
  H+  H1  1  0.95711080  0.82082046  0.99515291  1
  H+  H2  1  0.15983920  1.01343285  0.47786775  1
  H+  H3  1  0.80851486  0.52124723  0.23756690  1
  H+  H4  1  0.54778063  0.68453087  0.99826761  1
  H+  H5  1  0.31637828  0.15880815  0.25457240  1
  H+  H6  1  0.63051099  0.50494285  0.24705386  1
  H+  H7  1  0.85402602  0.37375444  0.98642540  1
  H+  H8  1  0.68973230  0.83923875  0.74868138  1
  H+  H9  1  0.70804451  0.51202018  1.00687340  1
  H+  H10  1  0.82241038  0.63980258  0.73756010  1
  H+  H11  1  0.51235166  0.35104662  0.50959098  1
  H+  H12  1  0.84587765  0.05666600  0.47799210  1
  H+  H13  1  0.16361516  0.81383856  0.99123553  1
  H+  H14  1  0.15691663  0.31558301  0.75671711  1
  H+  H15  1  0.84177758  0.69626101  0.23597181  1
  H+  H16  1  0.13755380  0.62196426  0.23070829  1
  H+  H17  1  0.82068484  0.63871966  0.01199308  1
  H+  H18  1  0.36410069  0.53246729  0.23916128  1
  H+  H19  1  0.52757161  0.37303466  0.99353424  1
  H+  H20  1  0.03757081  0.16559627  0.75766920  1
  H+  H21  1  0.10714277  0.22145938  0.59566147  1
  H+  H22  1  0.36364536  0.18813969  0.02544591  1
  H+  H23  1  0.09760736  0.88720684  0.52797444  1
  H+  H24  1  0.86987856  1.01583528  0.75405131  1
  H+  H25  1  0.29984456  0.80556373  0.47283314  1
  H+  H26  1  0.70007030  0.19398756  0.50141968  1
  H+  H27  1  0.85298805  0.49276931  -0.00900844  1
  H+  H28  1  0.11036955  0.89193378  0.09358764  1
  H+  H29  1  0.51573060  0.38748299  0.25935432  1
  H+  H30  1  0.16922979  0.18507538  0.75245728  1
  H+  H31  1  0.57447491  0.13487166  0.39207596  1
  H+  H32  1  0.18460603  0.36616697  0.48200552  1
  H+  H33  1  0.62492957  0.50649795  0.76105848  1
  H+  H34  1  0.29612056  0.79951521  0.77834675  1
  H+  H35  1  0.81401037  0.76993157  0.46935709  1
  H+  H36  1  0.56683233  0.45299266  0.90350974  1
  H+  H37  1  0.26246066  0.17856763  0.38271058  1
  H+  H38  1  0.69419133  0.84683426  0.24648926  1
  H+  H39  1  0.70773270  0.19217814  0.01753445  1
  H+  H40  1  0.04294080  0.17934106  0.00711011  1
  H+  H41  1  0.17266694  -0.01236324  0.43681901  1
  H+  H42  1  -0.06813813  0.76915952  0.47871310  1
  H+  H43  1  0.15004968  -0.02998397  1.00457724  1
  H+  H44  1  0.82080979  0.19764024  0.49694632  1
  H+  H45  1  0.85013770  0.48151445  0.49101200  1
  H+  H46  1  0.81086785  0.90867925  -0.00832399  1
  H+  H47  1  0.53047336  0.83461680  0.26426446  1
  H+  H48  1  0.16018637  0.18451940  0.22937993  1
  H+  H49  1  0.28457038  0.82038268  -0.00322256  1
  H+  H50  1  0.61177255  0.81650065  1.02487050  1
  H+  H51  1  0.82374260  0.96907844  0.23904751  1
  H+  H52  1  0.31579193  0.14958834  0.76249237  1
  H+  H53  1  0.16988973  0.47498633  0.24858110  1
  H+  H54  1  0.53547908  0.02761650  0.24887913  1
  H+  H55  1  0.03703088  0.85119461  0.23103358  1
  H+  H56  1  0.14645549  0.61634081  0.74435127  1
  H+  H57  1  0.48551918  0.62579376  0.49086573  1
  H+  H58  1  0.17110974  0.78234043  0.47996059  1
  H+  H59  1  0.48456658  0.53426017  0.23826223  1
  H+  H60  1  0.19095562  1.03761191  0.77421426  1
  H+  H61  1  0.63848587  0.82174066  0.48700853  1
  H+  H62  1  0.30967408  0.81942190  0.24791295  1
  H+  H63  1  0.14625606  0.63170224  1.00827908  1
  H+  H64  1  0.51608890  0.70662022  0.25741596  1
  H+  H65  1  0.44010033  0.56545194  0.09867172  1
  H+  H66  1  0.53980603  0.82822985  0.79980775  1
  H+  H67  1  0.03013001  0.19156920  0.50483518  1
  H+  H68  1  0.51323283  0.04950507  0.99934784  1
  H+  H69  1  0.34852319  0.50638161  0.72052664  1
  H+  H70  1  0.36419200  0.50798519  0.48570429  1
  H+  H71  1  0.22019039  0.21371681  0.47169500  1
  H+  H72  1  0.15364537  0.30095434  0.23069219  1
  H+  H73  1  -0.02191342  0.82220767  0.76442690  1
  H+  H74  1  0.82039765  0.83779060  0.23880895  1
  H+  H75  1  0.42827086  0.54714495  0.63406688  1
  H+  H76  1  0.51033132  0.47803772  0.49336432  1
  H+  H77  1  0.80642854  0.30559814  0.73415078  1
  H+  H78  1  0.46341751  0.86298319  0.01917990  1
  H+  H79  1  0.16170013  0.83419353  0.75537702  1
  H+  H80  1  0.18339480  0.48227287  0.48355723  1
  H+  H81  1  0.86378745  0.92973540  0.52544608  1
  H+  H82  1  0.37243853  0.52945899  0.00437734  1
  H+  H83  1  0.18694670  0.36982215  0.98269496  1
  H+  H84  1  0.56467439  0.78175006  0.39567650  1
  H+  H85  1  0.63802146  0.47809467  0.50819854  1
  H+  H86  1  0.49284545  0.95829427  0.75180428  1
  H+  H87  1  0.48994686  0.19017358  0.50750718  1
  H+  H88  1  0.95820276  0.48013265  0.75725164  1
  H+  H89  1  0.51146664  0.51422867  0.76122505  1
  H+  H90  1  0.02907803  0.51335677  0.00204841  1
  H+  H91  1  0.37984022  0.20966855  0.50229252  1
  H+  H92  1  0.52377012  1.04553473  0.47269407  1
  H+  H93  1  0.15131327  0.61986561  0.50538501  1
  H+  H94  1  0.02875955  0.50670704  0.50779111  1
  H+  H95  1  0.65297788  0.14808867  0.74489629  1
  H+  H96  1  0.85248436  0.36646454  0.48519372  1
  H+  H97  1  0.86048341  0.82284446  0.76036030  1
  H+  H98  1  0.79868394  0.60771587  0.50459765  1
  H+  H99  1  0.15815573  0.45772426  0.75418704  1
  H+  H100  1  0.93676866  0.46063775  0.25205468  1
  H+  H101  1  0.50582399  0.20133295  0.24926957  1
  H+  H102  1  0.48988987  0.84983809  0.48772511  1
  H+  H103  1  0.48349599  0.15966728  0.74447042  1
  H+  H104  1  0.15527599  0.84977848  0.23226711  1
  H+  H105  1  0.19556787  0.04062615  0.25187113  1
  H+  H106  1  0.80671464  0.10533311  0.98246413  1
  H+  H107  1  0.23953193  0.11883233  0.90603613  1
  H+  H108  1  0.18207699  0.92426931  0.67768476  1
  H+  H109  1  0.20878987  0.43018483  0.84772513  1
  H+  H110  1  0.60146585  0.08368323  0.83771634  1
  H+  H111  1  0.54857110  0.15055801  0.92658118  1
  H+  H112  1  0.78006170  0.56159282  0.14265572  1
  H+  H113  1  0.88140613  0.07439955  0.84932102  1
  H+  H114  1  0.89807809  0.12683121  0.38658057  1
  H+  H115  1  0.44562944  0.20481398  0.65818948  1
  H+  H116  1  0.43871293  0.91345555  0.10725542  1
  H+  H117  1  0.88097173  0.44710408  0.84635623  1
  H+  H118  1  0.10702753  0.54311119  0.65122357  1
  H+  H119  1  0.44762594  0.90570612  0.56274279  1
  H+  H120  1  0.73808775  0.26031428  0.26575853  1
  H+  H121  1  0.22864112  0.77251416  0.33397182  1
  H+  H122  1  0.48628445  0.19967988  0.03564864  1
  H+  H123  1  0.21441805  0.43980386  0.33703969  1
  H+  H124  1  0.60449011  0.79302427  0.87634860  1
  H+  H125  1  0.77259523  0.54756981  0.60490498  1
  H+  H126  1  0.88003629  0.77105392  0.32693758  1
  H+  H127  1  -0.02166068  0.14930040  0.24313375  1
  H+  H128  1  0.20812802  0.76004565  0.86123657  1
  H+  H129  1  0.85510783  0.14179569  0.24378315  1
  H+  H130  1  0.72744430  0.77340379  0.67897542  1
  H+  H131  1  0.81188113  0.51665571  0.73916031  1
  H+  H132  1  0.87862734  0.77536882  0.90901021  1
  H+  H133  1  0.09683251  0.54253812  0.14371468  1
  H+  H134  1  0.04972903  0.79247009  0.60361750  1
  H+  H135  1  0.77562757  0.23219450  0.64192665  1
  H+  H136  1  0.45074294  0.84275572  0.69289521  1
  H+  H137  1  0.79994290  0.22760339  0.09427394  1
  H+  H138  1  0.18036025  0.48506542  0.97978396  1
  H+  H139  1  0.45380473  0.23653497  0.16551056  1
  H+  H140  1  0.77243586  0.90698798  0.59946278  1
  H+  H141  1  0.57266539  0.95768617  0.17889781  1
  H+  H142  1  0.87220119  0.43843448  0.34551272  1
  H+  H143  1  0.12080380  0.22601603  0.09469539  1
  O2-  O144  1  0.11400831  0.21991152  0.20729490  1
  O2-  O145  1  0.11946236  0.21846745  0.73206568  1
  O2-  O146  1  0.09333845  0.54090682  0.21182307  1
  O2-  O147  1  0.10472023  0.53715086  0.71938239  1
  O2-  O148  1  0.11774417  0.89301799  0.21063578  1
  O2-  O149  1  0.12884169  0.88093330  0.72645339  1
  O2-  O150  1  0.45697108  0.23485788  0.23375653  1
  O2-  O151  1  0.43497684  0.19078047  0.72465950  1
  O2-  O152  1  0.44540800  0.57940024  0.21979224  1
  O2-  O153  1  0.42666839  0.55966816  0.70009002  1
  O2-  O154  1  0.50257365  0.93786115  0.21246181  1
  O2-  O155  1  0.44129743  0.87204670  0.75075222  1
  O2-  O156  1  0.70322843  0.17813116  0.25031607  1
  O2-  O157  1  0.76963372  0.22636356  0.70941995  1
  O2-  O158  1  0.77849962  0.56945278  0.21158660  1
  O2-  O159  1  0.77807670  0.56133882  0.71188519  1
  O2-  O160  1  0.77714242  0.88444323  0.22303196  1
  O2-  O161  1  0.75663338  0.85129937  0.70146454  1
  O2-  O162  1  0.23261314  0.12224711  0.27010350  1
  O2-  O163  1  0.23424981  0.11990079  0.78855886  1
  O2-  O164  1  0.21534504  0.43900816  0.26911338  1
  O2-  O165  1  0.19892955  0.41695910  0.77831157  1
  O2-  O166  1  0.22911592  0.77827574  0.26615047  1
  O2-  O167  1  0.21277661  0.75875503  0.79245441  1
  O2-  O168  1  0.58194642  0.12921441  0.28210726  1
  O2-  O169  1  0.57516514  0.09356722  0.77840203  1
  O2-  O170  1  0.55120739  0.47077116  0.27030844  1
  O2-  O171  1  0.55118316  0.47839654  0.79189034  1
  O2-  O172  1  0.56630692  0.78815044  0.28280955  1
  O2-  O173  1  0.60095300  0.81023130  0.80986616  1
  O2-  O174  1  0.89656993  0.10480967  0.26717469  1
  O2-  O175  1  0.91652846  0.08654203  0.78763492  1
  O2-  O176  1  0.85916765  0.42944658  0.27837582  1
  O2-  O177  1  0.87769384  0.44574988  0.77821836  1
  O2-  O178  1  0.88133305  0.78013031  0.25982192  1
  O2-  O179  1  0.89723758  0.77986684  0.78299961  1
  O2-  O180  1  0.28844157  0.22094599  0.44104147  1
  O2-  O181  1  0.23262694  0.11207155  0.97367399  1
  O2-  O182  1  0.22432035  0.44499390  0.45604207  1
  O2-  O183  1  0.22123219  0.44653225  0.95359668  1
  O2-  O184  1  0.21945090  0.75527451  0.45162762  1
  O2-  O185  1  0.20623839  0.77318040  0.97192517  1
  O2-  O186  1  0.56442238  0.12862794  0.46103574  1
  O2-  O187  1  0.56420582  0.13310893  0.98755885  1
  O2-  O188  1  0.55487432  0.43513940  0.48492910  1
  O2-  O189  1  0.59290127  0.43583838  0.96180328  1
  O2-  O190  1  0.55926575  0.77936592  0.46420877  1
  O2-  O191  1  0.61236653  0.76393476  0.98012788  1
  O2-  O192  1  0.89608965  0.13454285  0.45388961  1
  O2-  O193  1  0.80133359  0.03920388  0.94777917  1
  O2-  O194  1  0.89470261  0.44852149  0.46373721  1
  O2-  O195  1  0.89305149  0.45307093  0.96325485  1
  O2-  O196  1  0.85809456  0.73686010  0.44437618  1
  O2-  O197  1  0.87563772  0.77951028  0.97590525  1
  O2-  O198  1  0.12261819  0.22707591  0.02572470  1
  O2-  O199  1  0.10985453  0.23092015  0.52926239  1
  O2-  O200  1  0.10956110  0.54951897  0.02608134  1
  O2-  O201  1  0.10854482  0.54279428  0.53367060  1
  O2-  O202  1  0.10533805  0.88876546  0.02563125  1
  O2-  O203  1  0.05546752  0.80368938  0.53722833  1
  O2-  O204  1  0.44090910  0.23534002  0.05372358  1
  O2-  O205  1  0.45236608  0.22914964  0.53780050  1
  O2-  O206  1  0.44911738  0.56507461  0.03172710  1
  O2-  O207  1  0.44507790  0.54414270  0.50909174  1
  O2-  O208  1  0.42810698  0.90729027  0.03889157  1
  O2-  O209  1  0.44500765  0.89070884  0.49778138  1
  O2-  O210  1  0.79083000  0.22185521  0.02827859  1
  O2-  O211  1  0.78099988  0.23568294  0.52417851  1
  O2-  O212  1  0.78899596  0.55830634  0.03416363  1
  O2-  O213  1  0.76364249  0.53296138  0.53620139  1
  O2-  O214  1  0.84261558  0.98759038  0.01526197  1
  O2-  O215  1  0.78712852  0.91939738  0.53158972  1
