# generated using pymatgen
data_H2O
_symmetry_space_group_name_H-M   'P 1'
_cell_length_a   13.51232088
_cell_length_b   13.51370279
_cell_length_c   14.70678880
_cell_angle_alpha   89.92360731
_cell_angle_beta   90.04054740
_cell_angle_gamma   120.02097744
_symmetry_Int_Tables_number   1
_chemical_formula_structural   H2O
_chemical_formula_sum   'H144 O72'
_cell_volume   2325.20138471
_cell_formula_units_Z   72
loop_
 _symmetry_equiv_pos_site_id
 _symmetry_equiv_pos_as_xyz
  1  'x, y, z'
loop_
 _atom_type_symbol
 _atom_type_oxidation_number
  H+  1.0
  O2-  -2.0
loop_
 _atom_site_type_symbol
 _atom_site_label
 _atom_site_symmetry_multiplicity
 _atom_site_fract_x
 _atom_site_fract_y
 _atom_site_fract_z
 _atom_site_occupancy
  H+  H0  1  0.62389684  0.82258649  0.74031999  1
  H+  H1  1  0.52088120  0.37634408  0.98628535  1
  H+  H2  1  0.81351047  0.65186608  0.47343649  1
  H+  H3  1  0.81451730  0.18311658  1.02057146  1
  H+  H4  1  0.51546637  0.04027717  0.48488004  1
  H+  H5  1  0.19044753  0.71503583  0.75963538  1
  H+  H6  1  0.61496357  0.03970642  0.81997085  1
  H+  H7  1  0.15486334  0.29808189  0.49743662  1
  H+  H8  1  1.03276639  0.52268591  1.00242556  1
  H+  H9  1  -0.02031029  0.16035157  0.48513950  1
  H+  H10  1  0.17882071  0.54214382  0.49395525  1
  H+  H11  1  0.70043351  0.52987363  0.00127633  1
  H+  H12  1  0.35828067  0.85715360  0.73148863  1
  H+  H13  1  0.12203153  0.22456459  0.15403693  1
  H+  H14  1  0.64929310  0.49172000  0.47522970  1
  H+  H15  1  0.31532254  0.16541019  0.98861293  1
  H+  H16  1  0.08330133  0.37039825  0.82059906  1
  H+  H17  1  0.99708806  0.48589694  0.47605232  1
  H+  H18  1  0.16362836  0.18151058  0.73871633  1
  H+  H19  1  0.84212378  0.69317497  0.24364772  1
  H+  H20  1  -0.01254827  0.83520552  0.01540294  1
  H+  H21  1  0.51829124  0.04219466  0.98770445  1
  H+  H22  1  0.84437763  0.36493438  1.00347324  1
  H+  H23  1  0.19407115  0.81241094  0.24144662  1
  H+  H24  1  0.16083002  0.52241948  0.74572841  1
  H+  H25  1  0.86083789  0.03470561  1.02343020  1
  H+  H26  1  0.18548648  0.03512908  0.26180989  1
  H+  H27  1  0.49058774  0.30928561  0.23704394  1
  H+  H28  1  0.04734764  0.19517782  0.02503440  1
  H+  H29  1  0.15373154  0.64217657  1.00200495  1
  H+  H30  1  0.18184964  0.13827679  0.48574074  1
  H+  H31  1  0.47226243  0.84603815  0.72604140  1
  H+  H32  1  0.99769526  0.82815803  0.51224239  1
  H+  H33  1  0.90175289  0.44420686  0.33395030  1
  H+  H34  1  0.37305848  0.52644265  0.49585196  1
  H+  H35  1  0.47377720  0.52494325  0.75226593  1
  H+  H36  1  0.51459400  0.15156438  0.25555786  1
  H+  H37  1  0.94927289  0.82273088  0.77150628  1
  H+  H38  1  0.18383489  0.68851581  0.23963759  1
  H+  H39  1  0.47665980  0.51570294  0.00740190  1
  H+  H40  1  0.81723090  0.18091398  0.49948698  1
  H+  H41  1  0.37077071  0.84469589  0.24196415  1
  H+  H42  1  0.47907617  0.18512941  0.50764204  1
  H+  H43  1  1.03564072  0.18210350  0.23973536  1
  H+  H44  1  0.63439637  0.82724355  0.26262487  1
  H+  H45  1  0.35281757  0.16676087  0.50975500  1
  H+  H46  1  0.38740932  0.86981648  0.99953860  1
  H+  H47  1  0.48731413  0.19547941  0.72843713  1
  H+  H48  1  1.02354294  0.52605186  0.22828800  1
  H+  H49  1  0.81273381  0.51755646  0.23213386  1
  H+  H50  1  0.17646322  0.82602976  0.76114112  1
  H+  H51  1  0.50503709  0.84242626  0.25915776  1
  H+  H52  1  0.17710603  0.98957505  0.01607120  1
  H+  H53  1  0.83014197  0.35323019  0.75834765  1
  H+  H54  1  0.18785243  0.15441969  0.25972894  1
  H+  H55  1  0.69408660  0.17853214  0.24393440  1
  H+  H56  1  0.36594997  0.86611154  0.48799766  1
  H+  H57  1  0.49258155  0.37182589  0.46524552  1
  H+  H58  1  -0.01405234  0.15891585  0.72243143  1
  H+  H59  1  0.08146810  0.88500083  0.66264665  1
  H+  H60  1  0.81695880  0.96911506  0.24737617  1
  H+  H61  1  0.66285642  0.85271613  -0.01930078  1
  H+  H62  1  0.51311049  0.88417475  -0.00511826  1
  H+  H63  1  0.88727233  0.35885467  0.47246015  1
  H+  H64  1  0.06958834  0.53631301  0.68672584  1
  H+  H65  1  0.18778352  0.49265834  -0.00321439  1
  H+  H66  1  0.20090838  0.82915951  0.99594983  1
  H+  H67  1  0.36003595  0.52518865  0.77244675  1
  H+  H68  1  0.48993806  0.63624852  0.24041540  1
  H+  H69  1  0.23048599  0.11705889  0.84875189  1
  H+  H70  1  0.83120554  0.70770632  0.77871593  1
  H+  H71  1  0.49322449  0.51764607  0.23810142  1
  H+  H72  1  0.55814583  0.12782980  0.90155257  1
  H+  H73  1  0.14050444  0.96646434  0.74756731  1
  H+  H74  1  0.94529499  0.46741787  0.78429355  1
  H+  H75  1  0.16536797  0.31504931  1.01614947  1
  H+  H76  1  0.80787406  0.96358154  0.71319966  1
  H+  H77  1  0.52012586  1.00928448  0.74769400  1
  H+  H78  1  0.82740323  0.60479044  0.66458306  1
  H+  H79  1  0.70092737  0.17584451  0.72786174  1
  H+  H80  1  0.54357380  0.44254572  0.34600276  1
  H+  H81  1  0.48944501  -0.02799265  0.25367180  1
  H+  H82  1  0.31037169  0.49168236  -0.00388277  1
  H+  H83  1  0.48721305  0.52079749  0.47687867  1
  H+  H84  1  0.92738552  0.92383433  0.54542530  1
  H+  H85  1  0.84157097  0.86867930  1.02503933  1
  H+  H86  1  0.30379381  0.15087960  0.75596759  1
  H+  H87  1  0.50999161  0.69841713  0.47308361  1
  H+  H88  1  0.51104566  0.37319106  0.74798831  1
  H+  H89  1  0.43845455  0.22403314  0.63874446  1
  H+  H90  1  0.63468349  0.15988605  0.48238894  1
  H+  H91  1  0.48994441  0.19616749  0.00775067  1
  H+  H92  1  0.82667210  0.19620254  0.71409404  1
  H+  H93  1  0.80297551  0.84510689  0.73450658  1
  H+  H94  1  0.20090526  0.72717441  0.47128031  1
  H+  H95  1  0.83362558  0.78072862  0.47447512  1
  H+  H96  1  0.69519187  0.18456074  0.00931655  1
  H+  H97  1  0.20213860  0.36099255  0.25923182  1
  H+  H98  1  0.62829318  0.48149259  0.25357312  1
  H+  H99  1  0.37316619  0.18882301  0.23642932  1
  H+  H100  1  0.81396613  0.51611723  0.74120573  1
  H+  H101  1  0.32102997  0.48147972  0.26271455  1
  H+  H102  1  0.84266834  0.36502998  0.24948425  1
  H+  H103  1  0.12280467  0.87496040  0.32466439  1
  H+  H104  1  0.09092849  0.39870079  0.43549436  1
  H+  H105  1  0.85001239  0.15161930  0.25634307  1
  H+  H106  1  0.62645830  0.49306486  0.74768279  1
  H+  H107  1  0.50570560  0.70757213  0.76089262  1
  H+  H108  1  0.14879866  0.91634815  0.10731183  1
  H+  H109  1  0.19550190  0.16223825  0.99008777  1
  H+  H110  1  0.17419486  0.60019136  0.58570439  1
  H+  H111  1  0.45095922  0.23522075  0.09729996  1
  H+  H112  1  0.87153772  0.75439981  0.34000905  1
  H+  H113  1  0.23043528  0.78956159  0.90276607  1
  H+  H114  1  0.80886998  0.89342229  0.58988890  1
  H+  H115  1  0.81091323  0.84651415  0.24538148  1
  H+  H116  1  0.72177467  0.50578127  0.56678453  1
  H+  H117  1  0.55144765  0.11634610  0.34881295  1
  H+  H118  1  0.15998628  0.29901840  0.73969967  1
  H+  H119  1  0.89153890  0.10943654  0.79841742  1
  H+  H120  1  0.76972467  0.21808475  0.15355520  1
  H+  H121  1  0.86570083  0.72075552  1.00662255  1
  H+  H122  1  0.55504406  0.45283130  0.89588892  1
  H+  H123  1  0.10903892  0.95574203  0.51414773  1
  H+  H124  1  0.78242196  0.89701322  0.10919283  1
  H+  H125  1  0.13075654  0.22585171  0.59019245  1
  H+  H126  1  0.43793636  0.55176679  0.09831393  1
  H+  H127  1  0.81583836  0.52384496  0.00744246  1
  H+  H128  1  0.01747238  0.83865616  0.26003994  1
  H+  H129  1  0.20760416  0.43145320  0.38383001  1
  H+  H130  1  0.43720109  0.89452104  0.58186137  1
  H+  H131  1  0.22100624  0.09707010  0.39915074  1
  H+  H132  1  0.19911671  0.43669509  0.87430665  1
  H+  H133  1  0.89415307  0.11641814  0.34497312  1
  H+  H134  1  0.90805567  0.11769465  0.93864916  1
  H+  H135  1  0.50850447  0.81915127  0.47601390  1
  H+  H136  1  0.24017136  0.78993275  0.37703847  1
  H+  H137  1  0.10604341  0.56130830  0.14191337  1
  H+  H138  1  0.58118674  0.81444816  0.89212810  1
  H+  H139  1  0.86830464  0.43357691  0.91119269  1
  H+  H140  1  0.86998313  0.03929802  0.48683698  1
  H+  H141  1  0.77374150  0.55853911  0.14262275  1
  H+  H142  1  0.77791040  0.22952164  0.58270618  1
  H+  H143  1  0.55183206  0.78449202  0.35807844  1
  O2-  O144  1  0.11781798  0.21850231  0.22183255  1
  O2-  O145  1  0.12566876  0.22293965  0.71070923  1
  O2-  O146  1  0.10494925  0.56800475  0.20902001  1
  O2-  O147  1  0.14685184  0.57859034  0.71117246  1
  O2-  O148  1  0.10515471  0.88217821  0.26134802  1
  O2-  O149  1  0.09505678  0.88450989  0.72952621  1
  O2-  O150  1  0.45290228  0.22744755  0.21276236  1
  O2-  O151  1  0.44183616  0.22937936  0.70898211  1
  O2-  O152  1  0.45122461  0.55788274  0.21567021  1
  O2-  O153  1  0.43257460  0.56763211  0.74119917  1
  O2-  O154  1  0.45688261  0.89000291  0.23333731  1
  O2-  O155  1  0.43570018  0.89094281  0.70272773  1
  O2-  O156  1  0.77479982  0.21846411  0.22135495  1
  O2-  O157  1  0.77897775  0.23261883  0.70404364  1
  O2-  O158  1  0.77341350  0.55937577  0.21077646  1
  O2-  O159  1  0.78073191  0.56202615  0.71658546  1
  O2-  O160  1  0.77074720  0.88826507  0.22548055  1
  O2-  O161  1  0.76354701  0.88136492  0.69972361  1
  O2-  O162  1  0.23138110  0.11604547  0.28106317  1
  O2-  O163  1  0.22420626  0.11230489  0.78060929  1
  O2-  O164  1  0.24153627  0.43779535  0.28735051  1
  O2-  O165  1  0.16471158  0.41852181  0.80788945  1
  O2-  O166  1  0.23594393  0.77321346  0.25933167  1
  O2-  O167  1  0.22567710  0.79429461  0.78276224  1
  O2-  O168  1  0.55189982  0.10903695  0.28071537  1
  O2-  O169  1  0.58334760  0.07750419  0.78302082  1
  O2-  O170  1  0.54669114  0.43914396  0.27185556  1
  O2-  O171  1  0.54910629  0.45173686  0.77414382  1
  O2-  O172  1  0.55245960  0.78819629  0.28322971  1
  O2-  O173  1  0.54807093  0.79287138  0.77048870  1
  O2-  O174  1  0.89232780  0.11226409  0.27707369  1
  O2-  O175  1  0.90054293  0.12345698  0.73332966  1
  O2-  O176  1  0.88174009  0.44670873  0.26909078  1
  O2-  O177  1  0.86244366  0.43042051  0.78976770  1
  O2-  O178  1  0.88132750  0.77174210  0.27267127  1
  O2-  O179  1  0.86719362  0.79070304  0.78646589  1
  O2-  O180  1  0.21317009  0.08818986  0.46676894  1
  O2-  O181  1  0.23402557  0.12098433  0.96569776  1
  O2-  O182  1  0.17083842  0.41965270  0.44838419  1
  O2-  O183  1  0.22518230  0.44969588  0.97311793  1
  O2-  O184  1  0.23723782  0.80438281  0.44304502  1
  O2-  O185  1  0.23326861  0.78327040  0.97014346  1
  O2-  O186  1  0.55293305  0.12203908  0.46328371  1
  O2-  O187  1  0.55933698  0.12891942  0.96838306  1
  O2-  O188  1  0.53676125  0.44900552  0.43990450  1
  O2-  O189  1  0.56071780  0.45685808  0.96336016  1
  O2-  O190  1  0.54905344  0.78110601  0.45061422  1
  O2-  O191  1  0.58458703  0.82649513  0.95855538  1
  O2-  O192  1  0.89820477  0.11945402  0.46482712  1
  O2-  O193  1  0.90151546  0.12114840  1.00407721  1
  O2-  O194  1  0.95260535  0.41893673  0.43696795  1
  O2-  O195  1  0.88316717  0.44435443  0.97731410  1
  O2-  O196  1  0.86620059  0.73426191  0.45143009  1
  O2-  O197  1  0.90691585  0.80471057  0.99792961  1
  O2-  O198  1  0.13094661  0.23375642  0.03778727  1
  O2-  O199  1  0.12381509  0.21894507  0.52297615  1
  O2-  O200  1  0.11397209  0.56028731  0.02233343  1
  O2-  O201  1  0.15290269  0.59316264  0.52117349  1
  O2-  O202  1  0.14247607  0.90974452  0.04127316  1
  O2-  O203  1  0.04641999  0.89511691  0.55157545  1
  O2-  O204  1  0.44931127  0.23700678  0.02881887  1
  O2-  O205  1  0.43204465  0.21670766  0.53335173  1
  O2-  O206  1  0.42859476  0.54644092  0.03082879  1
  O2-  O207  1  0.45525968  0.56985975  0.50439472  1
  O2-  O208  1  0.46835463  0.92180221  0.01551247  1
  O2-  O209  1  0.44587644  0.90173807  0.51465089  1
  O2-  O210  1  0.77408800  0.22528911  0.03653226  1
  O2-  O211  1  0.77894815  0.22581094  0.51537067  1
  O2-  O212  1  0.77974314  0.56888004  0.02697382  1
  O2-  O213  1  0.73393813  0.52394748  0.50241434  1
  O2-  O214  1  0.79762502  0.90948140  0.04235257  1
  O2-  O215  1  0.85081884  0.91307156  0.53044348  1
