# generated using pymatgen
data_H2O
_symmetry_space_group_name_H-M   'P 1'
_cell_length_a   13.52179661
_cell_length_b   13.52741049
_cell_length_c   14.69844766
_cell_angle_alpha   89.95752765
_cell_angle_beta   90.04630122
_cell_angle_gamma   120.06617978
_symmetry_Int_Tables_number   1
_chemical_formula_structural   H2O
_chemical_formula_sum   'H144 O72'
_cell_volume   2326.81036756
_cell_formula_units_Z   72
loop_
 _symmetry_equiv_pos_site_id
 _symmetry_equiv_pos_as_xyz
  1  'x, y, z'
loop_
 _atom_type_symbol
 _atom_type_oxidation_number
  H+  1.0
  O2-  -2.0
loop_
 _atom_site_type_symbol
 _atom_site_label
 _atom_site_symmetry_multiplicity
 _atom_site_fract_x
 _atom_site_fract_y
 _atom_site_fract_z
 _atom_site_occupancy
  H+  H0  1  0.82007027  0.32089491  0.74370629  1
  H+  H1  1  0.51619468  1.02613807  0.49213581  1
  H+  H2  1  0.82809228  0.36792740  0.48437222  1
  H+  H3  1  -0.05676619  0.48183185  0.45870348  1
  H+  H4  1  0.84206615  0.08253019  0.71341956  1
  H+  H5  1  0.50760660  0.13964226  0.76493698  1
  H+  H6  1  0.48383669  0.34029755  1.00066343  1
  H+  H7  1  0.49324491  0.85314114  0.23872995  1
  H+  H8  1  0.37028551  0.85215256  0.23805319  1
  H+  H9  1  0.51118838  0.80855220  0.75893365  1
  H+  H10  1  0.35649921  0.18047471  0.24559313  1
  H+  H11  1  0.70607998  0.40189533  0.06202548  1
  H+  H12  1  0.81130723  0.84461603  0.24550920  1
  H+  H13  1  0.42887200  0.19210974  0.65441730  1
  H+  H14  1  0.18114159  0.16321864  0.49224418  1
  H+  H15  1  0.50764971  0.14107379  -0.00476569  1
  H+  H16  1  0.50472816  0.36329448  0.26481079  1
  H+  H17  1  0.50680070  0.48351741  0.26408461  1
  H+  H18  1  0.82460620  0.69125912  0.98532853  1
  H+  H19  1  0.49425257  0.50201523  0.72917254  1
  H+  H20  1  0.05730406  0.50539802  0.78518369  1
  H+  H21  1  0.17984992  0.38752863  0.98571062  1
  H+  H22  1  0.36261775  0.52398387  0.24664300  1
  H+  H23  1  0.84506215  1.03883482  0.49378209  1
  H+  H24  1  0.23635684  0.79422700  0.86250376  1
  H+  H25  1  0.45397310  0.89030797  0.60326077  1
  H+  H26  1  0.80769232  0.18345631  0.50908963  1
  H+  H27  1  0.63387659  0.82781479  -0.00926879  1
  H+  H28  1  0.81290959  0.96450420  0.23374092  1
  H+  H29  1  0.95613905  0.15874886  0.47632917  1
  H+  H30  1  0.15010976  0.26503158  0.72865733  1
  H+  H31  1  0.82268520  0.19747159  -0.00162716  1
  H+  H32  1  0.51349412  0.33793562  0.75083229  1
  H+  H33  1  0.11510621  0.79984024  0.04712395  1
  H+  H34  1  0.05655242  0.88692087  0.76941899  1
  H+  H35  1  0.15273365  0.96996332  0.25478231  1
  H+  H36  1  0.13499897  0.51110261  0.45824186  1
  H+  H37  1  0.68651647  0.51595190  0.25147561  1
  H+  H38  1  0.52057247  0.70149912  0.49743221  1
  H+  H39  1  0.30159876  0.44429877  0.73399306  1
  H+  H40  1  0.49794542  0.98546951  0.01718077  1
  H+  H41  1  0.36202100  0.17632503  0.52163051  1
  H+  H42  1  0.70280019  0.85399827  0.51989036  1
  H+  H43  1  0.22355323  0.11691901  0.89155438  1
  H+  H44  1  0.85724154  0.14839041  0.18102763  1
  H+  H45  1  0.31207297  0.49509635  0.47858984  1
  H+  H46  1  0.48034403  0.53101389  0.02040979  1
  H+  H47  1  0.70597768  0.19867269  -0.00225654  1
  H+  H48  1  1.03485473  0.20076485  1.00300525  1
  H+  H49  1  0.51461404  0.70821289  0.26687531  1
  H+  H50  1  0.87329775  0.70090170  0.76321523  1
  H+  H51  1  0.86655457  0.37837482  0.97820440  1
  H+  H52  1  0.03858457  0.53730385  0.01093046  1
  H+  H53  1  0.19803518  -0.01874704  0.98072502  1
  H+  H54  1  0.85044745  0.03760251  0.99400425  1
  H+  H55  1  0.15662126  0.53816891  0.01424518  1
  H+  H56  1  0.79673499  0.56459747  0.64979667  1
  H+  H57  1  0.30085536  0.83079010  1.00624779  1
  H+  H58  1  0.18343902  0.37087876  0.25120254  1
  H+  H59  1  0.66848075  0.19029307  0.24652279  1
  H+  H60  1  0.80734377  0.93891320  0.76490604  1
  H+  H61  1  0.47491342  0.16610103  0.52129551  1
  H+  H62  1  0.02755567  0.85176846  0.47355700  1
  H+  H63  1  0.18752121  0.70844722  0.99845627  1
  H+  H64  1  0.36416640  0.53403761  0.01021195  1
  H+  H65  1  0.49387275  0.53051436  0.50197520  1
  H+  H66  1  0.44911339  0.40511012  0.92918202  1
  H+  H67  1  0.16182236  0.32649893  0.48782122  1
  H+  H68  1  0.36263754  0.17902573  0.01735197  1
  H+  H69  1  0.15932968  0.21587208  -0.00641026  1
  H+  H70  1  0.64131991  0.50501095  0.49584812  1
  H+  H71  1  0.17314186  0.64552543  0.24728309  1
  H+  H72  1  0.87460789  0.49810944  0.75229917  1
  H+  H73  1  0.19867061  0.82460699  0.48332982  1
  H+  H74  1  0.02821267  0.18752766  0.22721853  1
  H+  H75  1  0.85627907  0.48865255  -0.01946750  1
  H+  H76  1  0.51236924  0.71156102  0.99416895  1
  H+  H77  1  0.72079700  0.51463165  0.73893086  1
  H+  H78  1  0.49725828  0.86001834  1.01603766  1
  H+  H79  1  0.63059818  0.14905382  0.49137249  1
  H+  H80  1  0.85697326  0.15513120  0.28365859  1
  H+  H81  1  -0.09793698  0.45496774  0.84536407  1
  H+  H82  1  0.49434757  0.84982046  0.51477193  1
  H+  H83  1  0.84890918  0.82171786  0.49686991  1
  H+  H84  1  1.09467575  0.85907813  0.18696585  1
  H+  H85  1  0.20036872  0.83260151  0.77334745  1
  H+  H86  1  0.66556888  0.47310216  1.00748644  1
  H+  H87  1  0.43572544  0.21007227  0.11162060  1
  H+  H88  1  0.31647288  0.82219380  0.49795250  1
  H+  H89  1  0.27985600  0.24713613  0.88526796  1
  H+  H90  1  0.20452204  0.82959810  0.27364023  1
  H+  H91  1  0.99634263  0.79536568  1.04893184  1
  H+  H92  1  0.81093592  0.85134421  1.00675945  1
  H+  H93  1  0.96609942  0.13616640  0.75283415  1
  H+  H94  1  0.77290871  0.88636902  0.09845041  1
  H+  H95  1  0.81491836  0.51668032  0.51307792  1
  H+  H96  1  0.14927941  0.08195645  0.74996750  1
  H+  H97  1  0.34756935  0.14163838  0.74326266  1
  H+  H98  1  0.14000778  0.62947824  0.46332141  1
  H+  H99  1  0.48370921  0.61485595  0.73751955  1
  H+  H100  1  0.81690334  0.20396929  0.75381413  1
  H+  H101  1  0.17756712  0.15371010  0.25723304  1
  H+  H102  1  0.17651846  0.61884625  0.78909573  1
  H+  H103  1  0.37253992  0.85284256  0.74755692  1
  H+  H104  1  0.83217129  0.68907757  0.26786294  1
  H+  H105  1  0.14343772  0.97997498  -0.00711825  1
  H+  H106  1  0.82293974  0.64051013  0.51854059  1
  H+  H107  1  0.11649531  0.88862436  0.39503746  1
  H+  H108  1  0.77043714  0.22585780  0.59873967  1
  H+  H109  1  0.56178654  0.46076072  0.40681095  1
  H+  H110  1  0.45827558  0.89847008  0.12375743  1
  H+  H111  1  0.63422669  0.15667679  0.76750790  1
  H+  H112  1  0.88520461  0.11158146  0.90364225  1
  H+  H113  1  0.06404047  0.50164046  0.61952560  1
  H+  H114  1  0.10200480  0.17191848  0.64907801  1
  H+  H115  1  0.49255186  0.96885273  0.74626935  1
  H+  H116  1  0.85531871  0.80784987  0.76586140  1
  H+  H117  1  0.09781740  0.56513573  0.62581708  1
  H+  H118  1  0.44403926  0.55661234  0.59145768  1
  H+  H119  1  0.18779293  0.44722498  0.75714780  1
  H+  H120  1  0.08530882  0.27779672  0.57287498  1
  H+  H121  1  0.95385302  0.80547134  0.27934194  1
  H+  H122  1  0.76808701  0.55094723  0.16604100  1
  H+  H123  1  0.47459520  0.17887119  0.24999904  1
  H+  H124  1  0.68634751  0.82672620  0.74974360  1
  H+  H125  1  0.25402217  0.79005058  0.35603197  1
  H+  H126  1  0.51042332  1.03145215  0.26691412  1
  H+  H127  1  0.18725387  0.49386068  0.25239119  1
  H+  H128  1  0.17626595  0.04265171  0.47646228  1
  H+  H129  1  0.12506142  0.57381368  0.15631019  1
  H+  H130  1  0.44526043  0.57209211  0.16123050  1
  H+  H131  1  0.54715920  0.76856590  0.84837810  1
  H+  H132  1  0.23669337  0.45274231  0.38519673  1
  H+  H133  1  0.54653037  0.10164324  0.90384720  1
  H+  H134  1  0.63533170  0.82437027  0.26328232  1
  H+  H135  1  0.56479691  0.41811833  0.83613700  1
  H+  H136  1  0.11502111  0.22976250  0.14494671  1
  H+  H137  1  0.87023372  0.76986147  0.40537924  1
  H+  H138  1  0.20881194  0.47624977  0.90386378  1
  H+  H139  1  0.22214372  0.12634832  0.35001735  1
  H+  H140  1  0.54604830  0.10679962  0.35989223  1
  H+  H141  1  0.88895031  0.77354087  0.90261835  1
  H+  H142  1  0.56315997  0.78573469  0.41100986  1
  H+  H143  1  0.78193610  0.88827384  0.60811666  1
  O2-  O144  1  0.11122238  0.22484014  0.21250614  1
  O2-  O145  1  0.10057914  0.17895057  0.71541364  1
  O2-  O146  1  0.13371508  0.56717820  0.22261169  1
  O2-  O147  1  0.13978284  0.53572141  0.79888910  1
  O2-  O148  1  0.11430903  0.88474360  0.25256668  1
  O2-  O149  1  0.13753380  0.92909553  0.74677958  1
  O2-  O150  1  0.43689256  0.21900178  0.22155882  1
  O2-  O151  1  0.42797573  0.19226635  0.72551086  1
  O2-  O152  1  0.44616753  0.56904551  0.22847946  1
  O2-  O153  1  0.44811763  0.53716942  0.71065197  1
  O2-  O154  1  0.45183451  0.89180281  0.21053942  1
  O2-  O155  1  0.45244006  0.88858982  0.72293726  1
  O2-  O156  1  0.74065461  0.23492797  0.20855962  1
  O2-  O157  1  0.77370215  0.23696480  0.72642215  1
  O2-  O158  1  0.76798047  0.56260038  0.23155989  1
  O2-  O159  1  0.80109463  0.56322256  0.71969036  1
  O2-  O160  1  0.77046512  0.88223324  0.21739966  1
  O2-  O161  1  0.76991200  0.86524461  0.73272892  1
  O2-  O162  1  0.21917688  0.11592017  0.28233296  1
  O2-  O163  1  0.18910927  0.04669421  0.78270643  1
  O2-  O164  1  0.22781265  0.45071882  0.27364586  1
  O2-  O165  1  0.22018763  0.39538627  0.75228028  1
  O2-  O166  1  0.25341166  0.79524013  0.28723314  1
  O2-  O167  1  0.23761615  0.78975939  0.79444089  1
  O2-  O168  1  0.54221126  0.10993506  0.29053360  1
  O2-  O169  1  0.55468148  0.10724143  0.79083246  1
  O2-  O170  1  0.54722043  0.44370036  0.28636628  1
  O2-  O171  1  0.56140996  0.41994229  0.76960086  1
  O2-  O172  1  0.55496365  0.79054306  0.28641096  1
  O2-  O173  1  0.54783521  0.76384391  0.78094960  1
  O2-  O174  1  0.87759408  0.11899800  0.23447233  1
  O2-  O175  1  0.88386425  0.10495236  0.77111143  1
  O2-  O176  1  0.82779870  0.28730972  0.26839304  1
  O2-  O177  1  0.90703532  0.45110946  0.77739116  1
  O2-  O178  1  0.87143028  0.77108797  0.29243445  1
  O2-  O179  1  0.90632326  0.78001238  0.78926044  1
  O2-  O180  1  0.22330542  0.12732137  0.46756685  1
  O2-  O181  1  0.25442613  0.18619532  0.93029171  1
  O2-  O182  1  0.23246113  0.44965532  0.45368745  1
  O2-  O183  1  0.22570384  0.47022616  0.96809008  1
  O2-  O184  1  0.23964579  0.78353752  0.46750123  1
  O2-  O185  1  0.22479565  0.79128870  0.97811204  1
  O2-  O186  1  0.54970877  0.10572847  0.46795534  1
  O2-  O187  1  0.54786800  0.10089017  0.97283515  1
  O2-  O188  1  0.56184735  0.47342703  0.47316548  1
  O2-  O189  1  0.51174750  0.41702539  0.96934340  1
  O2-  O190  1  0.56538755  0.78511250  0.47855944  1
  O2-  O191  1  0.55197045  0.79200868  0.97041272  1
  O2-  O192  1  0.87292073  0.11524288  0.46610648  1
  O2-  O193  1  0.89196323  0.11774491  0.97020709  1
  O2-  O194  1  0.85855951  0.44682503  0.46235403  1
  O2-  O195  1  0.90771844  0.46160292  0.95887848  1
  O2-  O196  1  0.88538744  0.77862498  0.47286347  1
  O2-  O197  1  0.87404116  0.77163012  0.97021848  1
  O2-  O198  1  0.11604627  0.24842762  0.02327469  1
  O2-  O199  1  0.10899401  0.24976206  0.52096320  1
  O2-  O200  1  0.11780593  0.57948807  0.03655575  1
  O2-  O201  1  0.08865856  0.54798209  0.45004426  1
  O2-  O202  1  0.05404190  0.79294278  0.08824524  1
  O2-  O203  1  0.11268278  0.89580501  0.46115241  1
  O2-  O204  1  0.44069164  0.21267936  0.04208831  1
  O2-  O205  1  0.43540489  0.20135747  0.55321937  1
  O2-  O206  1  0.44340159  0.57571335  0.03621763  1
  O2-  O207  1  0.44688915  0.56699808  0.52439658  1
  O2-  O208  1  0.46079646  0.90334117  0.04508019  1
  O2-  O209  1  0.45280972  0.89023745  0.53534077  1
  O2-  O210  1  0.78858508  0.24630302  0.00901478  1
  O2-  O211  1  0.76434916  0.22105775  0.53169501  1
  O2-  O212  1  0.73222611  0.47917081  0.03946437  1
  O2-  O213  1  0.78135458  0.56186366  0.54416493  1
  O2-  O214  1  0.77270689  0.89307166  0.03042707  1
  O2-  O215  1  0.78436079  0.89622320  0.54102106  1
