# generated using pymatgen
data_H2O
_symmetry_space_group_name_H-M   'P 1'
_cell_length_a   13.52778141
_cell_length_b   13.51792453
_cell_length_c   14.69573637
_cell_angle_alpha   89.95006767
_cell_angle_beta   90.02007354
_cell_angle_gamma   120.01062290
_symmetry_Int_Tables_number   1
_chemical_formula_structural   H2O
_chemical_formula_sum   'H144 O72'
_cell_volume   2327.08321266
_cell_formula_units_Z   72
loop_
 _symmetry_equiv_pos_site_id
 _symmetry_equiv_pos_as_xyz
  1  'x, y, z'
loop_
 _atom_type_symbol
 _atom_type_oxidation_number
  H+  1.0
  O2-  -2.0
loop_
 _atom_site_type_symbol
 _atom_site_label
 _atom_site_symmetry_multiplicity
 _atom_site_fract_x
 _atom_site_fract_y
 _atom_site_fract_z
 _atom_site_occupancy
  H+  H0  1  0.29678307  0.82434494  0.97349571  1
  H+  H1  1  0.62352702  0.15453673  0.27314563  1
  H+  H2  1  0.75207983  0.54176133  0.11742382  1
  H+  H3  1  0.14013617  -0.03554822  1.01386187  1
  H+  H4  1  0.72827475  0.85568858  0.74538639  1
  H+  H5  1  0.83162602  0.83088978  0.73022291  1
  H+  H6  1  0.75763264  0.47504766  0.72839090  1
  H+  H7  1  0.81783376  0.92009064  0.00888948  1
  H+  H8  1  0.48037728  0.31017405  0.51029373  1
  H+  H9  1  0.15526980  0.28375774  0.75888477  1
  H+  H10  1  0.61516217  0.48273507  0.74596386  1
  H+  H11  1  0.88349012  0.12606104  0.95009825  1
  H+  H12  1  0.50835350  0.68443290  -0.00898398  1
  H+  H13  1  0.80582205  0.63387652  0.24969409  1
  H+  H14  1  0.48546745  0.97363636  0.22830560  1
  H+  H15  1  0.69367186  0.86081811  0.25402019  1
  H+  H16  1  0.05740406  0.19638810  0.02935448  1
  H+  H17  1  0.48557625  0.85503061  0.51246271  1
  H+  H18  1  0.83978880  0.81843002  0.26737289  1
  H+  H19  1  0.68838667  0.51233701  0.25646977  1
  H+  H20  1  0.62042002  0.47443632  0.98813199  1
  H+  H21  1  0.48157553  0.18335626  0.99613409  1
  H+  H22  1  0.10412164  0.89188054  0.15613264  1
  H+  H23  1  0.11885653  0.65095986  0.27267618  1
  H+  H24  1  0.59209324  0.81228758  0.85997670  1
  H+  H25  1  0.52213372  0.15958100  0.75611565  1
  H+  H26  1  0.36476922  0.18338969  0.00358889  1
  H+  H27  1  0.80728028  0.61308058  0.73599436  1
  H+  H28  1  0.79362902  0.50538785  0.02709117  1
  H+  H29  1  0.85143534  0.49606754  0.48149901  1
  H+  H30  1  0.14966687  0.62557142  0.50953194  1
  H+  H31  1  0.36696866  0.86803738  0.24408810  1
  H+  H32  1  0.15061156  0.18425811  0.51144193  1
  H+  H33  1  0.47461923  0.51521994  0.72965665  1
  H+  H34  1  0.11783428  0.90021364  0.59728864  1
  H+  H35  1  0.84710227  0.35697744  0.75105912  1
  H+  H36  1  0.48949076  0.14686972  0.48286900  1
  H+  H37  1  0.50773217  0.47865861  0.27495372  1
  H+  H38  1  0.47757566  0.30659524  0.26292094  1
  H+  H39  1  0.63239534  0.83406010  0.49937822  1
  H+  H40  1  0.69824554  0.19335898  0.73110404  1
  H+  H41  1  0.35679798  0.51048838  0.72553680  1
  H+  H42  1  0.63576597  0.49173766  0.48837190  1
  H+  H43  1  0.18715437  0.03441401  0.48801791  1
  H+  H44  1  0.47600273  -0.02905156  0.50816948  1
  H+  H45  1  0.47840606  0.49350917  -0.02135523  1
  H+  H46  1  0.49876818  0.97640022  0.74467056  1
  H+  H47  1  0.51756869  0.49623035  0.49338067  1
  H+  H48  1  0.19201098  0.14370308  0.77793446  1
  H+  H49  1  0.29522855  0.47984880  0.96898192  1
  H+  H50  1  0.17954705  0.48654649  -0.02107396  1
  H+  H51  1  0.97435478  0.15423416  0.49501813  1
  H+  H52  1  0.16110462  0.85659324  0.51683002  1
  H+  H53  1  0.48157974  0.30209679  0.73475283  1
  H+  H54  1  0.47048468  0.83876246  0.00803695  1
  H+  H55  1  0.93333664  0.59730189  0.93867963  1
  H+  H56  1  1.04287993  0.48906628  0.73106346  1
  H+  H57  1  0.81084964  0.18730818  0.70709772  1
  H+  H58  1  0.19063732  0.15243280  -0.00596923  1
  H+  H59  1  0.95001846  0.24947953  0.90995794  1
  H+  H60  1  0.90286901  0.49491313  0.74097431  1
  H+  H61  1  0.15559983  0.30268105  0.51379570  1
  H+  H62  1  0.51305197  0.71082101  0.28072338  1
  H+  H63  1  1.02801359  0.51004247  0.49565590  1
  H+  H64  1  0.54791485  0.43990132  0.36416362  1
  H+  H65  1  0.79977820  0.22147669  0.01253062  1
  H+  H66  1  0.04297660  0.90138108  0.72490708  1
  H+  H67  1  0.76826089  0.20820478  0.36352012  1
  H+  H68  1  0.62553582  0.79727912  0.01098006  1
  H+  H69  1  0.20382056  0.79331129  0.89291278  1
  H+  H70  1  0.50898009  0.82615796  0.26315450  1
  H+  H71  1  0.84103331  0.67154302  0.00732929  1
  H+  H72  1  0.04035502  0.16648864  0.73906216  1
  H+  H73  1  0.56412329  0.86240668  0.77181738  1
  H+  H74  1  0.04751403  0.19173268  0.24312963  1
  H+  H75  1  0.85908379  0.04133321  0.25652135  1
  H+  H76  1  0.34784355  0.17719044  0.26087360  1
  H+  H77  1  0.89766246  0.47902039  0.89442855  1
  H+  H78  1  0.47938639  0.18112828  0.25369253  1
  H+  H79  1  0.35877095  0.51852300  0.26761459  1
  H+  H80  1  0.80935055  -0.01961610  0.50547204  1
  H+  H81  1  0.86239496  0.16032535  0.27102027  1
  H+  H82  1  0.84297033  0.48187078  0.25420145  1
  H+  H83  1  0.19794094  0.36799666  0.27254315  1
  H+  H84  1  0.84995213  0.02407456  0.72114142  1
  H+  H85  1  0.96393272  0.79265416  0.99828555  1
  H+  H86  1  0.77582171  0.89041365  0.58734892  1
  H+  H87  1  1.04168212  0.53507491  0.99849693  1
  H+  H88  1  0.52709321  0.10293133  0.34710632  1
  H+  H89  1  0.19834905  0.86567735  0.27923331  1
  H+  H90  1  0.21024367  0.76247779  0.59482778  1
  H+  H91  1  0.97992681  0.75045256  0.77174749  1
  H+  H92  1  0.48845269  0.64532683  0.51058810  1
  H+  H93  1  0.14657246  0.85033566  0.01429033  1
  H+  H94  1  0.19145134  0.15934346  0.26529129  1
  H+  H95  1  0.31330954  0.49237809  0.49305787  1
  H+  H96  1  0.50541297  0.35075522  0.97789130  1
  H+  H97  1  0.11680876  0.67216291  0.22582766  1
  H+  H98  1  0.18129815  0.46601907  0.73942715  1
  H+  H99  1  0.80828370  0.30118601  0.28606204  1
  H+  H100  1  0.50352818  1.02305106  -0.01592703  1
  H+  H101  1  0.14172958  0.97558765  0.24249123  1
  H+  H102  1  0.12325255  0.46636954  0.23014462  1
  H+  H103  1  0.16553629  0.31807881  1.00976356  1
  H+  H104  1  0.95025938  0.45693262  0.24282872  1
  H+  H105  1  0.82271616  0.63785319  0.49880075  1
  H+  H106  1  0.97545108  0.81123239  0.48900515  1
  H+  H107  1  0.61706161  0.14452281  -0.00180157  1
  H+  H108  1  0.90867276  0.11503436  0.40160423  1
  H+  H109  1  0.22555443  0.11224137  0.35567450  1
  H+  H110  1  0.31368316  0.82114001  0.52692178  1
  H+  H111  1  0.20381536  0.03071420  0.77145697  1
  H+  H112  1  0.18920362  0.48393650  0.49042358  1
  H+  H113  1  0.30368474  0.15643374  0.48851533  1
  H+  H114  1  0.54977331  0.79244465  0.41203999  1
  H+  H115  1  0.61022933  0.15514152  0.47711340  1
  H+  H116  1  0.56199968  0.12037263  0.84599962  1
  H+  H117  1  0.75295763  0.22791592  0.57270040  1
  H+  H118  1  0.44017139  0.22606062  0.59741005  1
  H+  H119  1  0.46129647  0.89318212  0.66152177  1
  H+  H120  1  0.95801265  0.81827793  0.25850106  1
  H+  H121  1  0.22615295  0.10440187  0.90695334  1
  H+  H122  1  0.87740229  0.73195027  0.84511345  1
  H+  H123  1  0.77150427  0.88402521  0.16553654  1
  H+  H124  1  0.10828099  0.52869329  0.63609705  1
  H+  H125  1  0.81196081  0.80374799  0.02215064  1
  H+  H126  1  0.16212480  0.64399222  0.00265973  1
  H+  H127  1  0.42698289  0.88131289  0.09140801  1
  H+  H128  1  0.77139173  0.55112275  0.58441558  1
  H+  H129  1  0.79566475  0.31772602  0.49272051  1
  H+  H130  1  0.54552120  0.44040390  0.83975549  1
  H+  H131  1  0.89353302  0.77333959  0.40196929  1
  H+  H132  1  0.41673807  0.50271205  0.06536166  1
  H+  H133  1  0.86486329  0.10918528  0.79916205  1
  H+  H134  1  0.21746741  0.43542765  0.83430141  1
  H+  H135  1  0.22873983  0.44826240  0.36153484  1
  H+  H136  1  0.36989195  0.17950974  0.74106696  1
  H+  H137  1  0.44712863  0.58056605  0.18622208  1
  H+  H138  1  0.75273802  0.20235514  0.11234212  1
  H+  H139  1  0.23379565  0.81374087  0.36116326  1
  H+  H140  1  0.89150603  0.45477004  0.39294467  1
  H+  H141  1  0.09125105  0.50490458  0.13726422  1
  H+  H142  1  0.44615617  0.56033095  0.59761685  1
  H+  H143  1  0.13778543  0.23918688  0.16095919  1
  O2-  O144  1  0.13153112  0.23178183  0.22837815  1
  O2-  O145  1  0.11528203  0.19927022  0.76907348  1
  O2-  O146  1  0.05875185  0.45665220  0.19183509  1
  O2-  O147  1  0.11893744  0.53165428  0.70348319  1
  O2-  O148  1  0.09998944  0.89373406  0.22404727  1
  O2-  O149  1  0.11611818  0.90396788  0.71543078  1
  O2-  O150  1  0.43508573  0.22357147  0.23977078  1
  O2-  O151  1  0.44737849  0.22146559  0.71207826  1
  O2-  O152  1  0.44487598  0.56352408  0.25070628  1
  O2-  O153  1  0.43702397  0.55562815  0.70352344  1
  O2-  O154  1  0.44064419  0.89144648  0.21111651  1
  O2-  O155  1  0.46701546  0.89483278  0.72858688  1
  O2-  O156  1  0.76852008  0.21547125  0.29689685  1
  O2-  O157  1  0.77592142  0.23690498  0.70154981  1
  O2-  O158  1  0.76619580  0.55191500  0.22883773  1
  O2-  O159  1  0.75089421  0.53778058  0.70255803  1
  O2-  O160  1  0.77467388  0.89641566  0.23203429  1
  O2-  O161  1  0.80029486  0.87877450  0.70923958  1
  O2-  O162  1  0.22984738  0.11544931  0.28578491  1
  O2-  O163  1  0.24232741  0.11009626  0.79551497  1
  O2-  O164  1  0.23181677  0.44947834  0.29194641  1
  O2-  O165  1  0.22123154  0.42681630  0.76770981  1
  O2-  O166  1  0.26439089  0.86676406  0.31039367  1
  O2-  O167  1  0.09495254  0.79605945  0.75977285  1
  O2-  O168  1  0.53831509  0.11299627  0.27841222  1
  O2-  O169  1  0.56830796  0.12512702  0.77818539  1
  O2-  O170  1  0.54500370  0.43443632  0.29432516  1
  O2-  O171  1  0.53701446  0.43753548  0.77206162  1
  O2-  O172  1  0.55464595  0.79452379  0.29179952  1
  O2-  O173  1  0.62482201  0.85234295  0.80247900  1
  O2-  O174  1  0.91006948  0.12350233  0.27200395  1
  O2-  O175  1  0.87740992  0.10667580  0.73388681  1
  O2-  O176  1  0.87915418  0.43862985  0.27834040  1
  O2-  O177  1  0.89434116  0.43492846  0.78267166  1
  O2-  O178  1  0.87788128  0.77330356  0.28158172  1
  O2-  O179  1  0.88866691  0.72790149  0.77911231  1
  O2-  O180  1  0.22480652  0.11345357  0.46179303  1
  O2-  O181  1  0.21956966  0.10115821  0.97562147  1
  O2-  O182  1  0.23303619  0.44696112  0.46880222  1
  O2-  O183  1  0.21130084  0.43764478  0.95658729  1
  O2-  O184  1  0.22513605  0.77358758  0.52948475  1
  O2-  O185  1  0.21312907  0.78503548  0.95821417  1
  O2-  O186  1  0.52779392  0.10573901  0.45752138  1
  O2-  O187  1  0.54440636  0.10406654  0.96302353  1
  O2-  O188  1  0.55280092  0.44990553  0.47041266  1
  O2-  O189  1  0.54604021  0.43491313  0.95531793  1
  O2-  O190  1  0.54749180  0.78782397  0.47948282  1
  O2-  O191  1  0.54872797  0.76872833  0.98458161  1
  O2-  O192  1  0.89615329  0.11438682  0.46748350  1
  O2-  O193  1  0.87350536  0.18534596  0.92101671  1
  O2-  O194  1  0.89173678  0.45406302  0.46100980  1
  O2-  O195  1  0.91285892  0.51893213  0.95423039  1
  O2-  O196  1  0.89558520  0.76307489  0.46856962  1
  O2-  O197  1  0.88472457  0.74549471  0.97313128  1
  O2-  O198  1  0.13877580  0.24183654  0.04174696  1
  O2-  O199  1  0.11117152  0.22312678  0.53635172  1
  O2-  O200  1  0.12081088  0.56181978  0.02030107  1
  O2-  O201  1  0.10769775  0.54158489  0.51982838  1
  O2-  O202  1  0.10071371  0.88398715  0.03804813  1
  O2-  O203  1  0.12007294  0.89924230  0.52951031  1
  O2-  O204  1  0.44781770  0.23033758  0.01665326  1
  O2-  O205  1  0.43763114  0.22796231  0.52896707  1
  O2-  O206  1  0.43333267  0.53149129  0.00326469  1
  O2-  O207  1  0.45043102  0.56251293  0.52765669  1
  O2-  O208  1  0.42823206  0.87949604  0.02337431  1
  O2-  O209  1  0.44243416  0.89364393  0.53631654  1
  O2-  O210  1  0.74577006  0.22944728  0.05258613  1
  O2-  O211  1  0.74232263  0.23544020  0.50696009  1
  O2-  O212  1  0.74924888  0.54070954  0.04861490  1
  O2-  O213  1  0.77477049  0.55306715  0.51686839  1
  O2-  O214  1  0.77649000  0.84985393  0.04391759  1
  O2-  O215  1  0.75778662  0.89873895  0.52377817  1
