# generated using pymatgen
data_H2O
_symmetry_space_group_name_H-M   'P 1'
_cell_length_a   13.51310063
_cell_length_b   13.51064074
_cell_length_c   14.68916964
_cell_angle_alpha   90.01153692
_cell_angle_beta   90.03466890
_cell_angle_gamma   120.00360274
_symmetry_Int_Tables_number   1
_chemical_formula_structural   H2O
_chemical_formula_sum   'H144 O72'
_cell_volume   2322.43150419
_cell_formula_units_Z   72
loop_
 _symmetry_equiv_pos_site_id
 _symmetry_equiv_pos_as_xyz
  1  'x, y, z'
loop_
 _atom_type_symbol
 _atom_type_oxidation_number
  H+  1.0
  O2-  -2.0
loop_
 _atom_site_type_symbol
 _atom_site_label
 _atom_site_symmetry_multiplicity
 _atom_site_fract_x
 _atom_site_fract_y
 _atom_site_fract_z
 _atom_site_occupancy
  H+  H0  1  0.46439006  0.54947181  0.79399042  1
  H+  H1  1  0.17984458  0.80884599  0.31386776  1
  H+  H2  1  0.48770127  0.86385469  0.50781339  1
  H+  H3  1  0.83296071  0.15481408  0.75796559  1
  H+  H4  1  0.15827113  0.30693006  -0.03060638  1
  H+  H5  1  0.48825381  0.70023113  0.76434692  1
  H+  H6  1  0.37417092  0.51108422  -0.02087773  1
  H+  H7  1  0.14080605  0.51060717  0.78496451  1
  H+  H8  1  0.83225815  0.62512457  1.03590388  1
  H+  H9  1  0.62807432  0.81209699  -0.01373150  1
  H+  H10  1  0.14297989  0.52174438  0.24108592  1
  H+  H11  1  0.99920234  0.16048859  0.75430108  1
  H+  H12  1  0.52825445  0.47875927  0.99906798  1
  H+  H13  1  0.44800257  0.80169253  0.23263183  1
  H+  H14  1  0.47876849  0.62136621  0.22485571  1
  H+  H15  1  0.14453045  0.50136821  0.48134747  1
  H+  H16  1  0.18682923  0.36493873  0.48016797  1
  H+  H17  1  0.81132337  0.84383926  0.24670474  1
  H+  H18  1  0.38926117  0.18670693  0.49710539  1
  H+  H19  1  0.19005345  1.03871618  -0.03068628  1
  H+  H20  1  0.77180419  0.87000716  0.10170446  1
  H+  H21  1  0.03761531  0.85753295  0.72480718  1
  H+  H22  1  0.96364295  0.47908837  0.77430065  1
  H+  H23  1  0.70949301  0.19110508  0.51476532  1
  H+  H24  1  0.85144352  0.03968227  0.48199821  1
  H+  H25  1  0.79522975  0.96316342  0.73057604  1
  H+  H26  1  0.50231127  0.69497234  0.49713063  1
  H+  H27  1  -0.04463465  0.81267625  0.27859742  1
  H+  H28  1  0.17902693  0.79728488  0.97714670  1
  H+  H29  1  0.13592593  0.60902702  0.51586655  1
  H+  H30  1  0.53193353  0.04896901  0.49747886  1
  H+  H31  1  0.61397545  0.81321858  0.75029122  1
  H+  H32  1  0.13877342  0.62508830  0.76053181  1
  H+  H33  1  0.00401744  0.21692082  0.53019963  1
  H+  H34  1  0.64318004  0.49356101  0.26946059  1
  H+  H35  1  0.15554601  0.85688359  0.73754641  1
  H+  H36  1  0.14120830  0.96659921  0.25258311  1
  H+  H37  1  0.48614054  0.63189038  -0.00742814  1
  H+  H38  1  0.83273336  0.31735681  0.00414478  1
  H+  H39  1  0.35957986  0.18520091  0.73322965  1
  H+  H40  1  0.46074763  0.17337289  0.24465192  1
  H+  H41  1  0.51548962  0.48203395  0.72041263  1
  H+  H42  1  0.81619959  0.95013643  0.01434027  1
  H+  H43  1  0.81322806  0.96324983  0.23740772  1
  H+  H44  1  0.15654240  0.16175013  0.48549019  1
  H+  H45  1  0.62337896  0.16428434  0.26208854  1
  H+  H46  1  0.05371918  0.34172904  0.57417486  1
  H+  H47  1  0.05195082  0.50215136  -0.01360973  1
  H+  H48  1  0.80969026  0.84841250  0.50298608  1
  H+  H49  1  0.17265682  0.03324443  0.74792753  1
  H+  H50  1  0.21231489  0.20719611  0.50515022  1
  H+  H51  1  0.51768058  0.36905132  0.74079388  1
  H+  H52  1  0.64451451  0.47587891  1.01651479  1
  H+  H53  1  0.19575200  0.15983220  0.97398072  1
  H+  H54  1  -0.02720583  0.47430690  0.48954029  1
  H+  H55  1  0.85033930  0.36525025  0.26186538  1
  H+  H56  1  0.47867181  -0.02343321  0.74303390  1
  H+  H57  1  0.31429498  0.50299477  0.79298538  1
  H+  H58  1  0.53938933  0.17200606  0.50225368  1
  H+  H59  1  0.51751477  0.16284818  0.75951713  1
  H+  H60  1  0.81745207  0.30643095  0.74278298  1
  H+  H61  1  0.55730752  0.52299367  0.49198110  1
  H+  H62  1  0.28519629  0.14154660  0.23720638  1
  H+  H63  1  0.89381360  0.11138647  1.07800530  1
  H+  H64  1  0.82369754  0.51169018  0.25726812  1
  H+  H65  1  0.29951033  0.47762984  0.23391552  1
  H+  H66  1  0.52231153  0.48911643  0.26118758  1
  H+  H67  1  0.96896207  0.81702102  0.49234704  1
  H+  H68  1  0.71447664  0.51760848  0.51120646  1
  H+  H69  1  0.70517249  0.52623701  0.73239327  1
  H+  H70  1  0.14123683  0.18564334  0.21223027  1
  H+  H71  1  0.19131699  0.48569834  0.94730268  1
  H+  H72  1  0.83254124  0.51566886  0.51139726  1
  H+  H73  1  0.14129667  0.63401063  0.27225744  1
  H+  H74  1  0.26602239  0.77996660  0.52043451  1
  H+  H75  1  0.29449858  0.81939903  0.75121045  1
  H+  H76  1  0.86578980  0.48440337  1.00156202  1
  H+  H77  1  0.38255853  0.18349135  -0.00438158  1
  H+  H78  1  0.11950000  0.89038487  0.58379436  1
  H+  H79  1  0.81068853  0.18190184  0.23460441  1
  H+  H80  1  0.14169796  0.81548157  0.50865048  1
  H+  H81  1  0.63762361  0.16306152  0.75631684  1
  H+  H82  1  0.52889096  0.17515893  -0.01150927  1
  H+  H83  1  0.84567594  0.15496663  0.48428352  1
  H+  H84  1  0.13157157  0.16221743  0.74337671  1
  H+  H85  1  0.30289494  0.48055785  0.48600214  1
  H+  H86  1  0.96791477  0.15575821  0.24427452  1
  H+  H87  1  0.16813896  0.62119773  0.98234215  1
  H+  H88  1  0.80285603  0.84947885  0.72366493  1
  H+  H89  1  0.56057786  0.13458466  0.35677002  1
  H+  H90  1  0.84947867  0.70508048  0.74225616  1
  H+  H91  1  0.76206985  0.88932712  0.58502384  1
  H+  H92  1  0.79305994  0.56250879  0.65043681  1
  H+  H93  1  0.82945703  0.30929025  0.51165701  1
  H+  H94  1  0.42484257  0.46662717  0.56954082  1
  H+  H95  1  0.62530775  0.80293198  0.25700696  1
  H+  H96  1  0.02416437  0.84003544  -0.02052746  1
  H+  H97  1  0.62418697  0.80675047  0.48417972  1
  H+  H98  1  0.97154088  0.48660831  0.26840478  1
  H+  H99  1  0.84652673  0.48374649  0.76376676  1
  H+  H100  1  0.46798064  0.84399191  0.00804960  1
  H+  H101  1  0.85210333  0.69776988  0.49992926  1
  H+  H102  1  0.82401144  0.19303827  1.00884903  1
  H+  H103  1  0.83161292  0.79963763  0.98920305  1
  H+  H104  1  0.30339042  0.80809892  0.98375106  1
  H+  H105  1  0.21903435  0.00063600  0.46729677  1
  H+  H106  1  0.42937285  0.20370844  0.14795843  1
  H+  H107  1  0.49958987  0.30558103  0.01210231  1
  H+  H108  1  0.21533036  0.11776330  0.83608219  1
  H+  H109  1  0.22181289  0.77799696  0.84291436  1
  H+  H110  1  0.12692279  0.24252439  0.06799037  1
  H+  H111  1  0.55052179  0.78246161  0.89602375  1
  H+  H112  1  0.88812624  0.44426045  0.90303619  1
  H+  H113  1  0.20655287  0.74951103  0.39893342  1
  H+  H114  1  0.44355533  0.22394587  0.64741667  1
  H+  H115  1  0.12092260  0.85111554  0.20305230  1
  H+  H116  1  0.98033931  0.15490704  0.99792718  1
  H+  H117  1  0.57392445  0.13829127  0.88942295  1
  H+  H118  1  0.82073852  0.63104075  0.25524796  1
  H+  H119  1  0.10231215  0.88790509  0.06464615  1
  H+  H120  1  0.33319059  0.80374267  0.24967367  1
  H+  H121  1  0.89689773  0.79865011  0.82194836  1
  H+  H122  1  0.79135224  0.54525811  0.12340147  1
  H+  H123  1  0.44368125  0.54501250  0.13405082  1
  H+  H124  1  0.88653962  0.43836917  0.40337602  1
  H+  H125  1  0.85637892  0.10043999  0.84735883  1
  H+  H126  1  0.78368547  0.22909289  0.65047143  1
  H+  H127  1  0.87177224  0.77136551  0.36299505  1
  H+  H128  1  0.47730184  0.85777611  0.74118579  1
  H+  H129  1  0.89553036  0.11862485  0.33737552  1
  H+  H130  1  0.08197226  0.23008332  0.66476092  1
  H+  H131  1  0.54251508  0.75601035  0.34350545  1
  H+  H132  1  0.45364530  0.90618247  0.59780682  1
  H+  H133  1  0.66142101  0.18058258  -0.01640132  1
  H+  H134  1  0.41755837  0.54958968  0.64044854  1
  H+  H135  1  0.32188675  0.04362820  0.39855228  1
  H+  H136  1  0.77557352  0.22888630  0.14819712  1
  H+  H137  1  0.49392263  0.31771431  0.50749820  1
  H+  H138  1  0.57028445  0.46643266  0.39970764  1
  H+  H139  1  0.80829468  0.69335723  0.92687992  1
  H+  H140  1  0.14586829  0.30632264  0.21292050  1
  H+  H141  1  0.22603804  0.43473970  0.32415456  1
  H+  H142  1  0.40974915  0.86019999  0.09539102  1
  H+  H143  1  0.21154316  0.11246193  0.32695072  1
  O2-  O144  1  0.10254430  0.22618655  0.18670397  1
  O2-  O145  1  0.08087527  0.20080580  0.72957108  1
  O2-  O146  1  0.09767347  0.56056234  0.23744165  1
  O2-  O147  1  0.09438556  0.54058933  0.75652263  1
  O2-  O148  1  0.10000004  0.87983052  0.25600869  1
  O2-  O149  1  0.12083305  0.90238130  0.71215192  1
  O2-  O150  1  0.40859739  0.19529786  0.21288135  1
  O2-  O151  1  0.44122088  0.22180794  0.71581397  1
  O2-  O152  1  0.43932478  0.54087605  0.20171487  1
  O2-  O153  1  0.41626541  0.56295040  0.75192599  1
  O2-  O154  1  0.39724421  0.82712621  0.20634787  1
  O2-  O155  1  0.43852284  0.89899133  0.71615736  1
  O2-  O156  1  0.77391340  0.22660773  0.21571301  1
  O2-  O157  1  0.77766723  0.22499669  0.71924026  1
  O2-  O158  1  0.78319607  0.55139469  0.23092451  1
  O2-  O159  1  0.78912592  0.56792438  0.71862915  1
  O2-  O160  1  0.77322867  0.88243895  0.21583591  1
  O2-  O161  1  0.75692427  0.88516695  0.70434861  1
  O2-  O162  1  0.20096065  0.10630935  0.26036135  1
  O2-  O163  1  0.20494549  0.11610483  0.76791388  1
  O2-  O164  1  0.21871309  0.43709470  0.25714263  1
  O2-  O165  1  0.22441808  0.44743442  0.82101728  1
  O2-  O166  1  0.21400451  0.76111942  0.32613028  1
  O2-  O167  1  0.21455594  0.78064933  0.77477672  1
  O2-  O168  1  0.54722243  0.13198816  0.29028308  1
  O2-  O169  1  0.56003538  0.12592704  0.78529331  1
  O2-  O170  1  0.56696059  0.46386039  0.29833481  1
  O2-  O171  1  0.56155299  0.45348950  0.74909132  1
  O2-  O172  1  0.54464348  0.75351346  0.27583202  1
  O2-  O173  1  0.53875357  0.78492289  0.78034128  1
  O2-  O174  1  0.88869392  0.11217843  0.26970348  1
  O2-  O175  1  0.86794573  0.10704743  0.78154630  1
  O2-  O176  1  0.88768466  0.44290219  0.28973445  1
  O2-  O177  1  0.87767211  0.43627060  0.78891051  1
  O2-  O178  1  0.87252544  0.77145368  0.29431124  1
  O2-  O179  1  0.88855214  0.79053790  0.75559301  1
  O2-  O180  1  0.28021470  0.07097906  0.43513148  1
  O2-  O181  1  0.23544353  0.11946983  0.94959317  1
  O2-  O182  1  0.23735835  0.43448419  0.44534654  1
  O2-  O183  1  0.23310808  0.44185827  0.92140807  1
  O2-  O184  1  0.18873784  0.73844849  0.49516885  1
  O2-  O185  1  0.22250512  0.76187255  0.95471845  1
  O2-  O186  1  0.57817278  0.13150810  0.47787947  1
  O2-  O187  1  0.57887212  0.14177278  0.95962270  1
  O2-  O188  1  0.57392797  0.46436897  0.47088561  1
  O2-  O189  1  0.56710543  0.43354475  0.98963134  1
  O2-  O190  1  0.54229114  0.76767836  0.46418516  1
  O2-  O191  1  0.54838446  0.77371282  0.96395167  1
  O2-  O192  1  0.89313257  0.12120529  0.46216686  1
  O2-  O193  1  0.89511079  0.10981852  1.01137136  1
  O2-  O194  1  0.88824294  0.43876522  0.47191590  1
  O2-  O195  1  0.90093003  0.44347373  0.97058627  1
  O2-  O196  1  0.88512410  0.77805181  0.47697521  1
  O2-  O197  1  0.86932884  0.75900545  0.95883532  1
  O2-  O198  1  0.12157542  0.23015907  0.00043323  1
  O2-  O199  1  0.06651441  0.27644226  0.56988408  1
  O2-  O200  1  0.13570388  0.53779856  -0.00525123  1
  O2-  O201  1  0.09852733  0.52072026  0.52143007  1
  O2-  O202  1  0.10501290  0.88604577  -0.00156226  1
  O2-  O203  1  0.11417830  0.87656241  0.51739176  1
  O2-  O204  1  0.45946231  0.21847563  0.02406159  1
  O2-  O205  1  0.45927101  0.23891954  0.53282044  1
  O2-  O206  1  0.44834464  0.54970018  0.01175216  1
  O2-  O207  1  0.42283967  0.53777954  0.57217068  1
  O2-  O208  1  0.42000025  0.87595710  0.02821395  1
  O2-  O209  1  0.45675687  0.91197662  0.53010033  1
  O2-  O210  1  0.78320867  0.23429286  0.02564432  1
  O2-  O211  1  0.79132147  0.22831970  0.53691742  1
  O2-  O212  1  0.79395112  0.54441630  0.05393663  1
  O2-  O213  1  0.79385447  0.55781091  0.53592668  1
  O2-  O214  1  0.77362378  0.86885979  0.03279813  1
  O2-  O215  1  0.76659815  0.88903781  0.51718837  1
