# generated using pymatgen
data_H2O
_symmetry_space_group_name_H-M   'P 1'
_cell_length_a   13.52916033
_cell_length_b   13.51592212
_cell_length_c   14.67605859
_cell_angle_alpha   89.99840047
_cell_angle_beta   89.98851866
_cell_angle_gamma   120.02598720
_symmetry_Int_Tables_number   1
_chemical_formula_structural   H2O
_chemical_formula_sum   'H144 O72'
_cell_volume   2323.50062526
_cell_formula_units_Z   72
loop_
 _symmetry_equiv_pos_site_id
 _symmetry_equiv_pos_as_xyz
  1  'x, y, z'
loop_
 _atom_type_symbol
 _atom_type_oxidation_number
  H+  1.0
  O2-  -2.0
loop_
 _atom_site_type_symbol
 _atom_site_label
 _atom_site_symmetry_multiplicity
 _atom_site_fract_x
 _atom_site_fract_y
 _atom_site_fract_z
 _atom_site_occupancy
  H+  H0  1  0.60808937  0.30686262  0.56945819  1
  H+  H1  1  0.85207357  0.16920791  0.76086343  1
  H+  H2  1  0.65696861  0.14746108  1.00760928  1
  H+  H3  1  0.03298200  0.50150142  0.23856766  1
  H+  H4  1  0.18296738  0.66555444  0.76313309  1
  H+  H5  1  0.42907234  0.21819731  0.00326057  1
  H+  H6  1  0.13400631  -0.03688077  1.00033616  1
  H+  H7  1  0.83997943  0.72528059  0.49460799  1
  H+  H8  1  0.33333960  0.45919675  0.20382863  1
  H+  H9  1  0.33095127  0.14467952  0.49725492  1
  H+  H10  1  0.86063280  0.44848110  0.51576118  1
  H+  H11  1  0.63426844  0.78232283  0.01683707  1
  H+  H12  1  0.37490539  0.20125779  0.75070999  1
  H+  H13  1  0.49662726  0.01138110  0.75219762  1
  H+  H14  1  0.79536122  0.29278225  0.73798888  1
  H+  H15  1  0.47140863  0.17579897  0.24240159  1
  H+  H16  1  0.15828531  0.32966970  0.99944300  1
  H+  H17  1  0.94488852  0.47194899  0.74986781  1
  H+  H18  1  0.15066438  0.16184635  0.99630367  1
  H+  H19  1  0.14602630  0.65212551  0.50102456  1
  H+  H20  1  0.82605843  0.63697773  0.02406480  1
  H+  H21  1  0.68564825  0.16600686  0.50659952  1
  H+  H22  1  0.52704803  0.38122395  0.77860643  1
  H+  H23  1  0.62695318  0.14058687  0.75009297  1
  H+  H24  1  0.16150962  0.91916729  0.74568206  1
  H+  H25  1  0.02945574  0.82421684  0.74723597  1
  H+  H26  1  0.64985773  0.83684961  0.25778967  1
  H+  H27  1  0.21915831  0.52140698  0.76336444  1
  H+  H28  1  0.69717450  0.52435013  0.74193094  1
  H+  H29  1  0.15234876  0.33634040  0.75420658  1
  H+  H30  1  1.00489615  0.20210301  0.76279124  1
  H+  H31  1  0.31721796  0.52137751  0.50722239  1
  H+  H32  1  0.75213973  0.90764010  0.00266458  1
  H+  H33  1  0.84780695  0.35208560  0.26228382  1
  H+  H34  1  0.87872616  0.06921091  0.99332062  1
  H+  H35  1  0.80767794  0.55972120  0.49564867  1
  H+  H36  1  0.14896191  0.84756646  0.24141566  1
  H+  H37  1  0.65640783  0.51685584  0.00000939  1
  H+  H38  1  0.80836644  0.30648454  1.00748515  1
  H+  H39  1  0.51825801  0.71054128  0.47544442  1
  H+  H40  1  0.90053947  0.14055915  0.85427982  1
  H+  H41  1  0.18027806  0.82312303  0.47836385  1
  H+  H42  1  0.81918996  0.86125526  0.24462841  1
  H+  H43  1  0.48501880  0.53017223  0.50436286  1
  H+  H44  1  0.06819014  0.82623816  -0.01191590  1
  H+  H45  1  0.88513720  0.10637455  0.40003296  1
  H+  H46  1  0.83877971  0.99455812  0.53212944  1
  H+  H47  1  0.19839642  0.40796503  0.52699336  1
  H+  H48  1  0.53088228  0.01007458  1.01131482  1
  H+  H49  1  0.17239498  0.77537077  0.76000394  1
  H+  H50  1  0.62362223  0.50581474  0.48102760  1
  H+  H51  1  0.17715815  0.08003644  0.76505015  1
  H+  H52  1  0.35758295  0.84150339  0.74559626  1
  H+  H53  1  0.35607226  0.18476148  0.23318166  1
  H+  H54  1  -0.01509470  0.47705783  0.49311227  1
  H+  H55  1  0.85684957  1.03863200  0.25318045  1
  H+  H56  1  0.93846382  0.83724642  1.01189479  1
  H+  H57  1  0.29776357  0.80498848  0.25427416  1
  H+  H58  1  1.02122007  0.49976958  1.00639242  1
  H+  H59  1  0.47737626  0.84973824  0.75692083  1
  H+  H60  1  0.82174229  0.63562259  0.74276334  1
  H+  H61  1  0.32506614  0.50089407  0.75612362  1
  H+  H62  1  0.07847533  0.45473465  0.69530836  1
  H+  H63  1  0.55874605  0.79161128  0.35354016  1
  H+  H64  1  0.50754457  0.82281921  0.47443354  1
  H+  H65  1  0.96796722  0.83859721  0.26251193  1
  H+  H66  1  0.11244401  0.25301219  0.09455948  1
  H+  H67  1  0.50156072  0.01932774  0.48799886  1
  H+  H68  1  0.99120878  0.19055334  0.99118447  1
  H+  H69  1  0.18192540  0.68478050  0.25471935  1
  H+  H70  1  0.86645947  0.85282406  0.50495106  1
  H+  H71  1  0.52119976  0.83166743  0.25336146  1
  H+  H72  1  0.54527733  0.10242184  0.34270256  1
  H+  H73  1  0.17760096  0.04808431  0.23304545  1
  H+  H74  1  0.80843941  0.17327419  0.24021651  1
  H+  H75  1  0.49684441  0.53072809  0.74805269  1
  H+  H76  1  0.62567417  0.14559313  0.25469922  1
  H+  H77  1  0.34232846  0.19227759  0.46489380  1
  H+  H78  1  0.16294788  0.54165017  0.51199685  1
  H+  H79  1  0.83889922  0.14265897  0.48783563  1
  H+  H80  1  0.53183274  0.41330693  1.00550945  1
  H+  H81  1  0.47979125  0.96501688  0.23892813  1
  H+  H82  1  0.14772128  0.21475016  0.75928150  1
  H+  H83  1  0.22863393  0.84670155  -0.01324192  1
  H+  H84  1  0.51336737  0.14374837  0.48902823  1
  H+  H85  1  0.48370526  0.64336509  0.75399480  1
  H+  H86  1  0.68263885  0.73670920  0.71159603  1
  H+  H87  1  0.17298628  0.48302999  -0.00993180  1
  H+  H88  1  0.82936511  0.47541676  0.75137649  1
  H+  H89  1  0.15944518  0.22410578  0.22640820  1
  H+  H90  1  0.50388225  0.14552481  0.75740762  1
  H+  H91  1  0.89235109  0.81022496  0.35197928  1
  H+  H92  1  0.39044669  0.85570299  0.00724457  1
  H+  H93  1  0.43346462  0.88004478  0.59505591  1
  H+  H94  1  0.25200063  0.13983588  1.01366066  1
  H+  H95  1  0.13421900  0.12938785  0.46300984  1
  H+  H96  1  0.57175020  0.47135669  0.86155543  1
  H+  H97  1  0.96863114  0.16578291  0.25640563  1
  H+  H98  1  0.35296189  0.84487903  0.50569879  1
  H+  H99  1  0.85126878  0.80569238  0.76949233  1
  H+  H100  1  0.53013353  0.13966931  0.01512832  1
  H+  H101  1  0.51123803  0.58575578  0.99702999  1
  H+  H102  1  0.51157102  0.36294091  0.26200441  1
  H+  H103  1  0.83854434  0.48063929  0.99189142  1
  H+  H104  1  0.60810262  0.80778759  0.79241522  1
  H+  H105  1  0.14386176  0.28562511  0.44578731  1
  H+  H106  1  0.03107429  0.20205961  0.49595450  1
  H+  H107  1  0.80997148  0.79623785  0.99576753  1
  H+  H108  1  0.46401615  0.58057673  0.59689226  1
  H+  H109  1  0.76985024  0.57215442  0.59757252  1
  H+  H110  1  0.54197482  0.44769314  0.39446794  1
  H+  H111  1  0.21488574  0.13849572  0.86197380  1
  H+  H112  1  0.81352506  0.49670273  0.24120074  1
  H+  H113  1  0.81202467  0.27888878  0.51070210  1
  H+  H114  1  0.76126614  0.20701755  0.65129206  1
  H+  H115  1  0.02738212  0.84776542  0.50736200  1
  H+  H116  1  0.52199114  0.33561584  0.52236724  1
  H+  H117  1  0.50796764  0.47648288  0.25025253  1
  H+  H118  1  0.13936981  0.01431473  0.46080338  1
  H+  H119  1  0.89443009  0.77597546  0.86018359  1
  H+  H120  1  0.52317622  0.75516606  0.87744478  1
  H+  H121  1  0.22019555  0.77728863  0.39107071  1
  H+  H122  1  0.49749469  0.83475979  0.02082938  1
  H+  H123  1  0.77344918  0.21926867  0.15220669  1
  H+  H124  1  0.82624802  0.19672498  0.00929328  1
  H+  H125  1  0.46654028  0.22849201  0.10863362  1
  H+  H126  1  0.42973250  0.55213667  0.13801654  1
  H+  H127  1  0.09596008  0.55621980  0.63310833  1
  H+  H128  1  0.44880306  0.88402809  0.15092025  1
  H+  H129  1  0.46824013  0.24655132  0.66813171  1
  H+  H130  1  0.69758976  0.50233196  0.23995562  1
  H+  H131  1  0.89244772  0.42982374  0.35095165  1
  H+  H132  1  0.78087259  0.54704480  0.10922846  1
  H+  H133  1  0.10979058  0.88127783  0.15127831  1
  H+  H134  1  0.76331630  0.87982155  0.15277732  1
  H+  H135  1  0.24817062  0.78069610  0.90405503  1
  H+  H136  1  0.75352628  0.86070405  0.67245899  1
  H+  H137  1  0.11118660  0.87756926  0.59217409  1
  H+  H138  1  0.23151166  0.45462310  0.90487650  1
  H+  H139  1  0.10336832  0.54138733  0.09261192  1
  H+  H140  1  0.90660983  0.97785249  0.60959360  1
  H+  H141  1  0.86874379  0.43573354  0.89958812  1
  H+  H142  1  0.19236107  0.11371657  0.32288340  1
  H+  H143  1  0.13885132  0.48232555  0.22433603  1
  O2-  O144  1  0.11486659  0.26132851  0.20663268  1
  O2-  O145  1  0.10368998  0.25210243  0.73862317  1
  O2-  O146  1  0.11219166  0.53894258  0.21412833  1
  O2-  O147  1  0.08575095  0.53018876  0.70034244  1
  O2-  O148  1  0.11305050  0.89124966  0.21790126  1
  O2-  O149  1  0.10568556  0.84688923  0.71825589  1
  O2-  O150  1  0.43889392  0.22107175  0.21507563  1
  O2-  O151  1  0.45658501  0.23170557  0.73565434  1
  O2-  O152  1  0.41732997  0.50622411  0.19323364  1
  O2-  O153  1  0.45681962  0.56909468  0.72082906  1
  O2-  O154  1  0.44497490  0.88307811  0.21927221  1
  O2-  O155  1  0.43970987  0.88948422  0.72668079  1
  O2-  O156  1  0.76670396  0.21316579  0.21976297  1
  O2-  O157  1  0.75849900  0.20944006  0.72004296  1
  O2-  O158  1  0.77476373  0.53491882  0.21297528  1
  O2-  O159  1  0.77498418  0.55971870  0.71259602  1
  O2-  O160  1  0.77301980  0.89736238  0.21945480  1
  O2-  O161  1  0.73114858  0.81609292  0.73046797  1
  O2-  O162  1  0.21431676  0.12776390  0.25616604  1
  O2-  O163  1  0.22613627  0.15359240  0.79419819  1
  O2-  O164  1  0.18555501  0.38077102  0.23859709  1
  O2-  O165  1  0.24367695  0.46674556  0.77955000  1
  O2-  O166  1  0.21758329  0.76549716  0.27675218  1
  O2-  O167  1  0.22238099  0.74611039  0.78275917  1
  O2-  O168  1  0.54380381  0.10411531  0.27487027  1
  O2-  O169  1  0.54311248  0.09894391  0.77136962  1
  O2-  O170  1  0.55061569  0.44376018  0.28302028  1
  O2-  O171  1  0.56779037  0.46400863  0.79276034  1
  O2-  O172  1  0.56585324  0.79550923  0.27999932  1
  O2-  O173  1  0.52630792  0.77041248  0.80880235  1
  O2-  O174  1  0.89031899  0.11679054  0.28086819  1
  O2-  O175  1  0.90560848  0.14419801  0.78544495  1
  O2-  O176  1  0.89163728  0.43295183  0.28388961  1
  O2-  O177  1  0.86514606  0.43023224  0.77307367  1
  O2-  O178  1  0.88917944  0.81017071  0.28468448  1
  O2-  O179  1  0.89942132  0.77419439  0.79202682  1
  O2-  O180  1  0.13087781  0.06946217  0.42257749  1
  O2-  O181  1  0.18503492  0.11186328  0.97453862  1
  O2-  O182  1  0.23286509  0.48289779  0.49698657  1
  O2-  O183  1  0.21637366  0.44257885  0.97056310  1
  O2-  O184  1  0.22099460  0.78126456  0.45977307  1
  O2-  O185  1  0.27241930  0.81100662  0.96620953  1
  O2-  O186  1  0.54733870  0.09983212  0.46381315  1
  O2-  O187  1  0.56935452  0.09717041  0.99133987  1
  O2-  O188  1  0.54317025  0.45231580  0.46389012  1
  O2-  O189  1  0.57624733  0.48705815  0.97479899  1
  O2-  O190  1  0.55149948  0.78859281  0.44821630  1
  O2-  O191  1  0.53564272  0.74099787  0.98603207  1
  O2-  O192  1  0.88717477  0.11001561  0.46822965  1
  O2-  O193  1  0.90728605  0.14459038  0.96628320  1
  O2-  O194  1  0.90108921  0.42081676  0.47835136  1
  O2-  O195  1  0.86997539  0.43232016  0.96691827  1
  O2-  O196  1  0.89281669  0.80451880  0.47414346  1
  O2-  O197  1  0.87427771  0.78011899  0.97615071  1
  O2-  O198  1  0.11007228  0.24324011  0.02601384  1
  O2-  O199  1  0.11575530  0.24715042  0.50436997  1
  O2-  O200  1  0.10212565  0.53925877  0.02479501  1
  O2-  O201  1  0.10874677  0.57203143  0.52736675  1
  O2-  O202  1  0.12119791  0.88967173  0.02654563  1
  O2-  O203  1  0.10999858  0.88394560  0.52532825  1
  O2-  O204  1  0.49337861  0.23440836  0.04248521  1
  O2-  O205  1  0.52625885  0.27540933  0.56081180  1
  O2-  O206  1  0.46740557  0.62196108  0.01889854  1
  O2-  O207  1  0.45723939  0.58095044  0.52960269  1
  O2-  O208  1  0.46956168  0.88973257  0.03709428  1
  O2-  O209  1  0.43453768  0.88492254  0.52786334  1
  O2-  O210  1  0.77519643  0.22512261  0.03218485  1
  O2-  O211  1  0.76272678  0.20095389  0.53652142  1
  O2-  O212  1  0.78256733  0.55451230  0.03877618  1
  O2-  O213  1  0.76164798  0.58326596  0.53047524  1
  O2-  O214  1  0.73307310  0.83899390  0.03735252  1
  O2-  O215  1  0.83389795  0.93572421  0.57756749  1
