# generated using pymatgen
data_H2O
_symmetry_space_group_name_H-M   'P 1'
_cell_length_a   13.51719754
_cell_length_b   13.49627002
_cell_length_c   14.69903090
_cell_angle_alpha   89.92922953
_cell_angle_beta   90.15605922
_cell_angle_gamma   120.06866092
_symmetry_Int_Tables_number   1
_chemical_formula_structural   H2O
_chemical_formula_sum   'H144 O72'
_cell_volume   2320.69061246
_cell_formula_units_Z   72
loop_
 _symmetry_equiv_pos_site_id
 _symmetry_equiv_pos_as_xyz
  1  'x, y, z'
loop_
 _atom_type_symbol
 _atom_type_oxidation_number
  H+  1.0
  O2-  -2.0
loop_
 _atom_site_type_symbol
 _atom_site_label
 _atom_site_symmetry_multiplicity
 _atom_site_fract_x
 _atom_site_fract_y
 _atom_site_fract_z
 _atom_site_occupancy
  H+  H0  1  0.47870789  0.13526954  0.97050987  1
  H+  H1  1  0.64918719  0.18750300  0.76210822  1
  H+  H2  1  0.57678059  0.11898693  0.34242731  1
  H+  H3  1  0.85821542  0.81599696  0.48761751  1
  H+  H4  1  0.84349421  0.15295912  0.76980742  1
  H+  H5  1  0.55392130  0.17618713  0.48623175  1
  H+  H6  1  0.47163090  0.51407705  0.73080434  1
  H+  H7  1  0.81016858  0.85210994  0.76110060  1
  H+  H8  1  0.50975724  0.35486108  0.26569933  1
  H+  H9  1  0.50087523  0.69194813  0.74994789  1
  H+  H10  1  0.49145166  -0.03600117  0.50229340  1
  H+  H11  1  0.29135418  0.81422597  0.80500411  1
  H+  H12  1  0.37673883  0.84354335  0.51160433  1
  H+  H13  1  0.86286987  0.15582824  0.47686318  1
  H+  H14  1  0.49909618  0.64088492  0.24850334  1
  H+  H15  1  0.85639457  0.36799174  0.26537323  1
  H+  H16  1  0.48402544  0.18177242  0.73242032  1
  H+  H17  1  0.01780620  0.17617959  0.75335631  1
  H+  H18  1  0.17916002  0.67436297  0.21154146  1
  H+  H19  1  0.52533318  0.15288680  0.25790167  1
  H+  H20  1  0.56306459  0.84200734  0.97380323  1
  H+  H21  1  0.52490727  0.81928108  0.49534522  1
  H+  H22  1  0.82925464  0.63610287  0.50008521  1
  H+  H23  1  0.28116281  0.16315228  0.00737364  1
  H+  H24  1  0.83204294  -0.03329112  0.49416133  1
  H+  H25  1  0.96608124  0.53774968  0.80117819  1
  H+  H26  1  0.50301855  0.50683299  0.47580783  1
  H+  H27  1  0.18896013  0.70187825  1.05984582  1
  H+  H28  1  0.02852896  0.18551012  0.50909785  1
  H+  H29  1  0.80603534  0.49965022  0.01133646  1
  H+  H30  1  0.95492513  0.80384751  0.76959685  1
  H+  H31  1  0.17092843  0.56441466  0.16154924  1
  H+  H32  1  0.65865522  0.81980933  0.26363192  1
  H+  H33  1  0.27414353  0.22787671  0.41653391  1
  H+  H34  1  0.85340499  0.80850815  0.99285902  1
  H+  H35  1  0.96993506  0.46661774  0.50052991  1
  H+  H36  1  0.69716345  0.50938822  0.24152892  1
  H+  H37  1  0.84571101  0.69177252  0.25595736  1
  H+  H38  1  0.50874133  0.98029048  0.25057845  1
  H+  H39  1  0.09512638  0.88007482  0.13695642  1
  H+  H40  1  0.16611632  0.36532971  0.74284614  1
  H+  H41  1  0.53284443  0.19286596  -0.02894812  1
  H+  H42  1  0.16290725  0.14721705  0.77114105  1
  H+  H43  1  0.17528464  0.76738143  0.52156474  1
  H+  H44  1  0.14582419  0.97194844  0.21726328  1
  H+  H45  1  0.13672610  -0.03412993  0.46176824  1
  H+  H46  1  0.83240190  0.19145576  0.23266338  1
  H+  H47  1  0.63358206  0.05159455  0.97647929  1
  H+  H48  1  0.54211869  0.40278250  0.48243478  1
  H+  H49  1  0.23276228  0.10983205  0.46746833  1
  H+  H50  1  0.65516277  0.14947219  0.48934101  1
  H+  H51  1  0.80898134  0.15947378  0.00586317  1
  H+  H52  1  0.18990815  0.96625318  0.47939350  1
  H+  H53  1  0.30410926  0.48989499  0.26492647  1
  H+  H54  1  0.13663636  0.95378285  0.76005322  1
  H+  H55  1  0.44872167  0.21435773  0.32754918  1
  H+  H56  1  0.41827331  0.23492878  0.50405763  1
  H+  H57  1  0.27941178  0.48534312  0.72963848  1
  H+  H58  1  0.51741408  0.71093642  1.00140244  1
  H+  H59  1  0.81688708  0.33008812  -0.01076748  1
  H+  H60  1  0.91923739  0.31272682  0.56074563  1
  H+  H61  1  0.71450862  0.84281078  1.00906367  1
  H+  H62  1  0.64401700  0.49053027  0.98309941  1
  H+  H63  1  0.53132339  0.50114896  -0.02352681  1
  H+  H64  1  0.82952654  0.96507121  0.00837546  1
  H+  H65  1  0.71311745  0.18904346  0.23621887  1
  H+  H66  1  0.48244790  0.85084106  0.78304858  1
  H+  H67  1  0.68685958  0.50522897  0.72894805  1
  H+  H68  1  0.34518436  0.50352820  0.01854108  1
  H+  H69  1  0.40489604  0.85352817  0.27026169  1
  H+  H70  1  0.85496185  0.50548864  0.48928999  1
  H+  H71  1  0.16501586  0.80188470  0.01617966  1
  H+  H72  1  0.78536651  0.55230768  0.58727481  1
  H+  H73  1  0.16499661  0.36433642  0.98451377  1
  H+  H74  1  0.00972389  0.77981398  0.53321572  1
  H+  H75  1  0.97281268  0.49021749  0.70581136  1
  H+  H76  1  0.12212331  0.47996550  0.66881873  1
  H+  H77  1  -0.01698086  0.15997792  0.24696581  1
  H+  H78  1  0.25191868  0.84288707  0.31713452  1
  H+  H79  1  0.46367007  0.94212737  0.02444165  1
  H+  H80  1  0.15267949  0.20172863  0.52737580  1
  H+  H81  1  0.84891873  0.48231550  0.26581326  1
  H+  H82  1  0.49368740  0.35865991  0.75429629  1
  H+  H83  1  0.51247659  0.48048725  0.25413907  1
  H+  H84  1  0.14386967  0.81139663  0.26054029  1
  H+  H85  1  0.14317616  -0.04110046  1.00607330  1
  H+  H86  1  0.16399310  0.46891887  0.49813979  1
  H+  H87  1  0.83802759  0.02910823  0.77227069  1
  H+  H88  1  0.28444079  0.15511449  0.77596402  1
  H+  H89  1  0.48082272  -0.03230592  0.76333369  1
  H+  H90  1  0.14031499  0.18428276  0.00791369  1
  H+  H91  1  0.21607642  0.44848893  0.34619324  1
  H+  H92  1  0.54351257  0.82382079  0.26378344  1
  H+  H93  1  0.82914156  0.32132748  0.74959158  1
  H+  H94  1  0.36201824  0.52402005  0.49940835  1
  H+  H95  1  0.16682661  0.19938846  0.22374593  1
  H+  H96  1  0.96261954  0.81312150  0.25177872  1
  H+  H97  1  0.82721330  0.85058447  0.24063044  1
  H+  H98  1  0.81169443  0.51615928  0.72832387  1
  H+  H99  1  0.96714873  0.15099312  0.99330074  1
  H+  H100  1  0.90333934  0.12036616  0.38556527  1
  H+  H101  1  0.83315225  0.68911852  0.75914764  1
  H+  H102  1  0.86478432  0.03874898  0.24949441  1
  H+  H103  1  0.46529822  0.33411008  0.02227744  1
  H+  H104  1  0.89608242  0.77314813  0.39948903  1
  H+  H105  1  0.18812571  0.37052104  0.49402846  1
  H+  H106  1  0.82189672  0.31215768  0.51029026  1
  H+  H107  1  0.89729203  0.45452106  0.39127691  1
  H+  H108  1  0.75955831  0.19641149  0.08894923  1
  H+  H109  1  0.21111923  0.11097481  0.91398537  1
  H+  H110  1  0.13938796  0.83674920  0.77373475  1
  H+  H111  1  0.54845354  0.44164844  0.83959148  1
  H+  H112  1  0.49456758  0.26319160  0.59029936  1
  H+  H113  1  0.88721737  0.10763449  0.90387027  1
  H+  H114  1  0.20224302  0.73289664  0.42718186  1
  H+  H115  1  0.32453754  0.15868663  0.25107580  1
  H+  H116  1  0.07847004  0.81552117  0.62711626  1
  H+  H117  1  0.56868258  0.16714123  0.84804370  1
  H+  H118  1  0.81791446  0.62504050  0.01156130  1
  H+  H119  1  0.48751655  0.64397168  0.50081479  1
  H+  H120  1  0.77516158  0.54551715  0.15274815  1
  H+  H121  1  0.42282588  0.27007093  0.11724210  1
  H+  H122  1  0.88034080  0.76080785  0.90154411  1
  H+  H123  1  0.55082555  0.45899978  0.37695485  1
  H+  H124  1  0.71536590  0.85037233  0.50790423  1
  H+  H125  1  0.41914635  0.90110647  0.12829655  1
  H+  H126  1  0.30741766  0.83899830  0.03809566  1
  H+  H127  1  0.02290155  0.83686367  0.00022609  1
  H+  H128  1  0.37086659  0.13091780  0.67275186  1
  H+  H129  1  0.56934097  0.77984894  0.40806144  1
  H+  H130  1  0.53826911  -0.03421817  0.89933757  1
  H+  H131  1  0.44216817  0.55741655  0.63942186  1
  H+  H132  1  0.54900047  0.75576476  0.84507696  1
  H+  H133  1  0.09341663  0.21306634  0.66263322  1
  H+  H134  1  0.79140661  0.24409288  0.66119439  1
  H+  H135  1  0.69230075  0.85184613  0.75358813  1
  H+  H136  1  0.11036439  0.23622969  0.09423188  1
  H+  H137  1  0.44266532  0.55713640  0.16154936  1
  H+  H138  1  0.39466381  0.43190118  0.06170533  1
  H+  H139  1  0.19869998  0.74697572  0.87795900  1
  H+  H140  1  0.90154923  0.42622936  0.92204642  1
  H+  H141  1  0.78949705  0.89026673  0.15060589  1
  H+  H142  1  0.16165922  0.31663559  0.23570237  1
  H+  H143  1  0.20996207  0.09223073  0.31398689  1
  O2-  O144  1  0.12189509  0.23698216  0.20800910  1
  O2-  O145  1  0.09862708  0.21210400  0.73030408  1
  O2-  O146  1  0.17574791  0.63819853  0.15227002  1
  O2-  O147  1  0.07225063  0.50614736  0.63574096  1
  O2-  O148  1  0.09688631  0.88833076  0.20520456  1
  O2-  O149  1  0.09647125  0.87153348  0.74456148  1
  O2-  O150  1  0.44815005  0.22065422  0.26137464  1
  O2-  O151  1  0.42995400  0.20260656  0.69976749  1
  O2-  O152  1  0.45222369  0.55877456  0.22883704  1
  O2-  O153  1  0.43485243  0.55667675  0.70672400  1
  O2-  O154  1  0.47021154  0.89645833  0.23028442  1
  O2-  O155  1  0.45261291  0.90212107  0.80450638  1
  O2-  O156  1  0.79124883  0.23083282  0.20975881  1
  O2-  O157  1  0.78113473  0.24127265  0.72876047  1
  O2-  O158  1  0.77795581  0.55016455  0.22074466  1
  O2-  O159  1  0.76659145  0.55134463  0.70640014  1
  O2-  O160  1  0.79003295  0.89490692  0.21862388  1
  O2-  O161  1  0.77611752  0.90051652  0.74732270  1
  O2-  O162  1  0.23205523  0.11516185  0.25113259  1
  O2-  O163  1  0.20546435  0.10906328  0.79719573  1
  O2-  O164  1  0.22125429  0.44663051  0.27891546  1
  O2-  O165  1  0.19579053  0.44876730  0.73771242  1
  O2-  O166  1  0.18520092  0.77615428  0.29197404  1
  O2-  O167  1  0.20767183  0.76901107  0.81361915  1
  O2-  O168  1  0.57004903  0.11329034  0.27484605  1
  O2-  O169  1  0.56694841  0.14994782  0.78328688  1
  O2-  O170  1  0.55305162  0.44164870  0.28115667  1
  O2-  O171  1  0.54224688  0.43912453  0.77140056  1
  O2-  O172  1  0.57769734  0.77864966  0.28712307  1
  O2-  O173  1  0.54204455  0.76927569  0.77968642  1
  O2-  O174  1  0.90291334  0.12005033  0.27094878  1
  O2-  O175  1  0.88356806  0.11338267  0.79230955  1
  O2-  O176  1  0.89041447  0.44571426  0.29301183  1
  O2-  O177  1  0.91734581  0.48049696  0.75643701  1
  O2-  O178  1  0.88431676  0.77272012  0.27850132  1
  O2-  O179  1  0.87319964  0.76490679  0.79021422  1
  O2-  O180  1  0.27634255  0.19386170  0.47480405  1
  O2-  O181  1  0.20581005  0.10520289  0.98191911  1
  O2-  O182  1  0.22151847  0.45027458  0.47114878  1
  O2-  O183  1  0.21036819  0.44920508  0.96866155  1
  O2-  O184  1  0.23632499  0.76204440  0.48670737  1
  O2-  O185  1  0.21470988  0.76512209  1.01145991  1
  O2-  O186  1  0.58012546  0.12437836  0.46227316  1
  O2-  O187  1  0.56806277  -0.02677466  0.96301228  1
  O2-  O188  1  0.55294801  0.47227394  0.44865120  1
  O2-  O189  1  0.56466474  0.45482287  0.95532990  1
  O2-  O190  1  0.56295115  0.77402984  0.47552677  1
  O2-  O191  1  0.57463409  0.77503660  0.96570237  1
  O2-  O192  1  0.90283747  0.11660442  0.45402300  1
  O2-  O193  1  0.88587639  0.10181342  0.97246650  1
  O2-  O194  1  0.89501276  0.45768567  0.46319573  1
  O2-  O195  1  0.85465321  0.41346503  0.97553023  1
  O2-  O196  1  0.89382694  0.76899617  0.46697139  1
  O2-  O197  1  0.88889328  0.76336695  0.97012814  1
  O2-  O198  1  0.10448711  0.23066971  0.02589950  1
  O2-  O199  1  0.10166527  0.23041257  0.54481524  1
  O2-  O200  1  0.15286116  0.49821441  0.00530782  1
  O2-  O201  1  0.04073742  0.44046968  0.54967703  1
  O2-  O202  1  0.10346232  0.87695077  0.02589554  1
  O2-  O203  1  0.06623817  0.77160443  0.57061206  1
  O2-  O204  1  0.39665109  0.28929667  0.06134780  1
  O2-  O205  1  0.49986348  0.27008407  0.52285645  1
  O2-  O206  1  0.41583904  0.51208978  0.04803627  1
  O2-  O207  1  0.44490311  0.55826710  0.51731833  1
  O2-  O208  1  0.39581137  0.91682881  0.06736730  1
  O2-  O209  1  0.46004821  0.88689400  0.52782321  1
  O2-  O210  1  0.75065893  0.18248505  0.02190885  1
  O2-  O211  1  0.83450499  0.25814576  0.54774226  1
  O2-  O212  1  0.77023668  0.54451745  0.03413279  1
  O2-  O213  1  0.79416505  0.55331322  0.51999303  1
  O2-  O214  1  0.79384311  0.88491541  0.03342624  1
  O2-  O215  1  0.79870325  0.88839775  0.51875545  1
