# generated using pymatgen
data_H2O
_symmetry_space_group_name_H-M   'P 1'
_cell_length_a   13.50418989
_cell_length_b   13.51175245
_cell_length_c   14.66581673
_cell_angle_alpha   89.97959032
_cell_angle_beta   90.00830502
_cell_angle_gamma   119.98086507
_symmetry_Int_Tables_number   1
_chemical_formula_structural   H2O
_chemical_formula_sum   'H144 O72'
_cell_volume   2317.93247466
_cell_formula_units_Z   72
loop_
 _symmetry_equiv_pos_site_id
 _symmetry_equiv_pos_as_xyz
  1  'x, y, z'
loop_
 _atom_type_symbol
 _atom_type_oxidation_number
  H+  1.0
  O2-  -2.0
loop_
 _atom_site_type_symbol
 _atom_site_label
 _atom_site_symmetry_multiplicity
 _atom_site_fract_x
 _atom_site_fract_y
 _atom_site_fract_z
 _atom_site_occupancy
  H+  H0  1  0.30337262  0.47491796  0.48323431  1
  H+  H1  1  0.88026258  0.72387087  0.28778847  1
  H+  H2  1  0.70664227  0.20300181  0.75332380  1
  H+  H3  1  0.48616889  0.17033593  0.23882572  1
  H+  H4  1  0.47972301  0.96142877  0.73768355  1
  H+  H5  1  0.81909646  0.63999040  0.51169919  1
  H+  H6  1  0.35884622  0.52374078  0.18778713  1
  H+  H7  1  0.30203633  0.81105094  0.75292495  1
  H+  H8  1  0.70696051  0.18728920  0.48227446  1
  H+  H9  1  0.04780859  0.86754251  0.24269864  1
  H+  H10  1  0.59601228  0.09518011  0.97241712  1
  H+  H11  1  0.50631510  0.43951410  0.90051476  1
  H+  H12  1  0.19649420  0.15861608  0.76063247  1
  H+  H13  1  0.63275400  0.14721594  0.26010436  1
  H+  H14  1  0.15985628  0.85687612  0.23705065  1
  H+  H15  1  0.47506168  0.83940593  0.74518724  1
  H+  H16  1  0.50947408  0.67860737  0.51255662  1
  H+  H17  1  0.43146982  0.53396222  0.60622512  1
  H+  H18  1  0.85271796  0.22408323  0.00694369  1
  H+  H19  1  0.02585095  0.51383357  0.75376919  1
  H+  H20  1  0.30461999  0.80630051  0.98449871  1
  H+  H21  1  0.85870971  0.36926246  0.76775824  1
  H+  H22  1  0.45730681  0.62807937  1.03503216  1
  H+  H23  1  0.18597119  0.69785345  0.48374904  1
  H+  H24  1  0.48956086  0.30669734  0.50290591  1
  H+  H25  1  0.99354842  0.80015689  0.97827183  1
  H+  H26  1  0.97927278  0.16664274  0.75168540  1
  H+  H27  1  0.15578560  0.30246743  0.73937701  1
  H+  H28  1  0.50759627  0.50310819  0.23937615  1
  H+  H29  1  0.63141659  0.82326477  0.28000007  1
  H+  H30  1  0.57898971  0.88088528  0.33853926  1
  H+  H31  1  0.63548340  0.48875333  0.48234055  1
  H+  H32  1  0.16802096  0.64005241  0.00001860  1
  H+  H33  1  0.51159223  1.02708788  0.49317206  1
  H+  H34  1  0.97743008  0.49532513  0.48229300  1
  H+  H35  1  0.52095478  0.35702257  0.75390057  1
  H+  H36  1  1.05088719  0.86099955  0.73616799  1
  H+  H37  1  0.85708020  1.04157049  0.27010223  1
  H+  H38  1  0.17901667  0.35759181  -0.00137090  1
  H+  H39  1  0.18820630  1.03477861  -0.00963754  1
  H+  H40  1  0.23932740  0.12304029  0.85014389  1
  H+  H41  1  0.77754734  0.81556104  1.05453191  1
  H+  H42  1  0.69957541  0.84355238  0.52503853  1
  H+  H43  1  0.59461164  0.74900388  0.98389318  1
  H+  H44  1  0.36596157  0.17815700  0.23926137  1
  H+  H45  1  0.51331548  0.02711132  0.25215087  1
  H+  H46  1  0.03553855  0.18848827  0.24247240  1
  H+  H47  1  0.85883005  0.49769202  0.48499794  1
  H+  H48  1  0.12331697  0.54602897  0.58693072  1
  H+  H49  1  0.11806239  0.88764234  0.09318506  1
  H+  H50  1  0.85660517  0.15842496  0.26606848  1
  H+  H51  1  0.85411346  0.82557183  0.50734311  1
  H+  H52  1  0.30301224  0.81614609  0.48678595  1
  H+  H53  1  0.11413231  0.56049457  0.14889138  1
  H+  H54  1  0.16275585  0.18184784  0.50767520  1
  H+  H55  1  0.19588879  0.03654651  0.48418285  1
  H+  H56  1  0.74287367  0.23941542  0.01360619  1
  H+  H57  1  0.18539732  0.81702281  0.75297583  1
  H+  H58  1  -0.03145080  0.14159669  0.52049695  1
  H+  H59  1  0.81615309  0.30294725  0.25319850  1
  H+  H60  1  0.47459493  0.62408312  0.74843855  1
  H+  H61  1  0.82052042  0.85023580  0.27031829  1
  H+  H62  1  0.51627699  0.15037828  0.74633501  1
  H+  H63  1  0.47982329  0.50385086  0.51540768  1
  H+  H64  1  0.46953339  0.81583433  0.00334830  1
  H+  H65  1  0.15658662  0.19087523  0.24115927  1
  H+  H66  1  0.59225498  0.45521271  0.24388998  1
  H+  H67  1  0.19152701  0.37264904  0.24585406  1
  H+  H68  1  0.16408839  0.84901376  0.00628771  1
  H+  H69  1  0.16084531  0.51030684  0.49542985  1
  H+  H70  1  0.15713327  0.51673011  0.75954865  1
  H+  H71  1  0.16273681  0.51405022  1.00573752  1
  H+  H72  1  0.88277784  0.39477683  0.99183864  1
  H+  H73  1  0.84624311  0.77627974  0.75244972  1
  H+  H74  1  0.37782120  0.19470384  0.73538839  1
  H+  H75  1  0.61555551  0.80572168  0.77148211  1
  H+  H76  1  0.48078136  0.83721528  0.51507164  1
  H+  H77  1  0.29784863  0.48587702  0.76741105  1
  H+  H78  1  0.46921185  0.15767540  1.01651208  1
  H+  H79  1  0.84190554  0.47205984  0.24748915  1
  H+  H80  1  0.47595659  0.99021583  -0.02104242  1
  H+  H81  1  0.03676151  0.18721158  0.01291607  1
  H+  H82  1  0.82550064  0.61758649  0.73398388  1
  H+  H83  1  0.15764101  0.29729714  0.50411092  1
  H+  H84  1  0.15531397  0.85176836  0.50718213  1
  H+  H85  1  0.68637723  0.49363320  -0.04052416  1
  H+  H86  1  0.35742333  0.84734918  0.23187134  1
  H+  H87  1  0.63849388  0.90109265  -0.01444728  1
  H+  H88  1  0.18683598  0.15298982  -0.00437338  1
  H+  H89  1  0.83506519  0.07195430  0.98059086  1
  H+  H90  1  0.83193578  0.91039008  0.75409412  1
  H+  H91  1  0.86334932  0.49166238  0.75919578  1
  H+  H92  1  0.15614504  0.64472270  0.74968145  1
  H+  H93  1  0.19601579  0.04179693  0.25325491  1
  H+  H94  1  0.18142037  0.70117587  0.25459902  1
  H+  H95  1  0.70406139  0.50153434  0.73960068  1
  H+  H96  1  0.19053954  0.49034090  0.24972998  1
  H+  H97  1  0.80916407  0.59654729  0.98449065  1
  H+  H98  1  0.74179778  0.77473897  0.01674832  1
  H+  H99  1  0.16990905  0.98077695  0.74291004  1
  H+  H100  1  0.29638151  0.47642320  1.00742356  1
  H+  H101  1  0.54893354  0.75578691  0.42322050  1
  H+  H102  1  0.52995613  0.75510003  0.85883373  1
  H+  H103  1  0.03233080  0.51892371  0.23642085  1
  H+  H104  1  0.47744884  0.50675696  0.74853155  1
  H+  H105  1  1.01829619  0.51179750  0.98650191  1
  H+  H106  1  0.75855806  0.57715082  0.20141707  1
  H+  H107  1  0.48827468  0.18605538  0.50690362  1
  H+  H108  1  0.90781591  0.75735706  0.83822997  1
  H+  H109  1  0.22309549  0.77253556  0.89534935  1
  H+  H110  1  0.86776181  0.77995174  0.97487721  1
  H+  H111  1  0.97585670  0.82741314  0.50470949  1
  H+  H112  1  0.43878971  0.88087531  0.59874074  1
  H+  H113  1  0.54953844  0.45718527  0.39678836  1
  H+  H114  1  0.53443636  0.09803556  0.83763904  1
  H+  H115  1  0.12436214  0.22476994  0.64930833  1
  H+  H116  1  0.22359888  0.78059905  0.34396224  1
  H+  H117  1  0.68909589  0.95938712  0.07878523  1
  H+  H118  1  0.77548946  0.87074111  0.17819044  1
  H+  H119  1  0.11395298  0.22278336  0.10420104  1
  H+  H120  1  0.23647968  0.11884336  0.34424619  1
  H+  H121  1  0.77187660  0.89668733  0.65625509  1
  H+  H122  1  0.23319212  0.44287119  0.38896235  1
  H+  H123  1  0.54466660  0.10196652  0.40254416  1
  H+  H124  1  0.12846376  0.90156207  0.59715005  1
  H+  H125  1  0.81874125  0.96957653  0.53225988  1
  H+  H126  1  0.47346845  0.84381495  0.23238128  1
  H+  H127  1  0.84969568  0.06214113  0.75340233  1
  H+  H128  1  0.31378704  0.15645383  0.48497469  1
  H+  H129  1  0.89321277  0.45577748  0.34288387  1
  H+  H130  1  0.77604427  0.54845016  0.59280522  1
  H+  H131  1  0.35978481  0.17493847  0.01970681  1
  H+  H132  1  0.90798910  0.80102060  0.37494194  1
  H+  H133  1  0.91910680  0.46684861  0.89284138  1
  H+  H134  1  0.82464306  0.30494930  0.47517171  1
  H+  H135  1  0.43262562  0.86824280  0.09007347  1
  H+  H136  1  0.90571507  0.14593496  0.89522321  1
  H+  H137  1  0.44180595  0.20465608  0.13491251  1
  H+  H138  1  0.21976594  0.44405676  0.85782104  1
  H+  H139  1  0.73771363  0.49907246  0.11804560  1
  H+  H140  1  0.78712957  0.23349733  0.16218041  1
  H+  H141  1  0.45349899  0.23386351  0.64259387  1
  H+  H142  1  0.85229552  0.14532371  0.50415125  1
  H+  H143  1  0.82800842  0.20733591  0.75070583  1
  O2-  O144  1  0.11614259  0.22961616  0.21672603  1
  O2-  O145  1  0.11899929  0.22227748  0.71816119  1
  O2-  O146  1  0.11436476  0.56197038  0.21640801  1
  O2-  O147  1  0.11403811  0.55710942  0.73377976  1
  O2-  O148  1  0.12348097  0.90081133  0.21253612  1
  O2-  O149  1  0.13225572  0.90111269  0.71731192  1
  O2-  O150  1  0.44604349  0.21043019  0.21140361  1
  O2-  O151  1  0.45795016  0.23434908  0.71149688  1
  O2-  O152  1  0.43824411  0.56884096  0.16187311  1
  O2-  O153  1  0.43256581  0.54215413  0.72700091  1
  O2-  O154  1  0.43740524  0.88613232  0.20635097  1
  O2-  O155  1  0.43547779  0.87913080  0.71891967  1
  O2-  O156  1  0.77358135  0.22282396  0.22839537  1
  O2-  O157  1  0.78920791  0.25247669  0.73967059  1
  O2-  O158  1  0.74050021  0.49957338  0.18682317  1
  O2-  O159  1  0.78291467  0.53659804  0.71323795  1
  O2-  O160  1  0.77201763  0.88019838  0.24385542  1
  O2-  O161  1  0.76585319  0.90764454  0.72507649  1
  O2-  O162  1  0.23854942  0.12253672  0.27552318  1
  O2-  O163  1  0.24026368  0.12120428  0.78200359  1
  O2-  O164  1  0.23813547  0.45498576  0.26399806  1
  O2-  O165  1  0.21643561  0.45057983  0.78978199  1
  O2-  O166  1  0.22322393  0.78281298  0.27563520  1
  O2-  O167  1  0.21925541  0.76934414  0.77450416  1
  O2-  O168  1  0.54995068  0.10565998  0.27876004  1
  O2-  O169  1  0.55089411  0.10557773  0.77123190  1
  O2-  O170  1  0.53641149  0.46488298  0.27998503  1
  O2-  O171  1  0.56359250  0.44040755  0.77858073  1
  O2-  O172  1  0.55770038  0.80926173  0.30722616  1
  O2-  O173  1  0.53388229  0.76012238  0.78821806  1
  O2-  O174  1  0.90454989  0.12403353  0.28082940  1
  O2-  O175  1  0.90152915  0.13881504  0.77920319  1
  O2-  O176  1  0.89243972  0.44602766  0.27463543  1
  O2-  O177  1  0.90931759  0.45761329  0.78565855  1
  O2-  O178  1  0.91054507  0.80355226  0.30485736  1
  O2-  O179  1  0.90532895  0.75816284  0.76904176  1
  O2-  O180  1  0.23405570  0.11593228  0.45936349  1
  O2-  O181  1  0.23051211  0.11654562  0.97141012  1
  O2-  O182  1  0.22455735  0.43792963  0.45666966  1
  O2-  O183  1  0.22028937  0.43918820  0.97565854  1
  O2-  O184  1  0.22266502  0.77884924  0.46294943  1
  O2-  O185  1  0.22164274  0.76938011  0.96323804  1
  O2-  O186  1  0.54653242  0.10697354  0.47010771  1
  O2-  O187  1  0.51705550  0.07320862  0.95872032  1
  O2-  O188  1  0.55319340  0.44782041  0.46426303  1
  O2-  O189  1  0.56413982  0.42188670  0.87775553  1
  O2-  O190  1  0.55196598  0.76028079  0.49058783  1
  O2-  O191  1  0.52526277  0.74972056  0.96667797  1
  O2-  O192  1  0.88443446  0.09663637  0.52538809  1
  O2-  O193  1  0.90212240  0.14701775  0.96367196  1
  O2-  O194  1  0.89896071  0.46018715  0.45681031  1
  O2-  O195  1  0.92953778  0.47305549  0.96228304  1
  O2-  O196  1  0.89512506  0.78647761  0.48144236  1
  O2-  O197  1  0.91556897  0.75113308  0.94912483  1
  O2-  O198  1  0.11699910  0.22302227  0.03514059  1
  O2-  O199  1  0.12440936  0.22166893  0.53510666  1
  O2-  O200  1  0.12284907  0.55830218  0.02373259  1
  O2-  O201  1  0.12309105  0.55305014  0.52054848  1
  O2-  O202  1  0.11928563  0.88653667  0.02491855  1
  O2-  O203  1  0.11935801  0.89649472  0.52950686  1
  O2-  O204  1  0.43890486  0.20382240  0.04525080  1
  O2-  O205  1  0.44832798  0.22758524  0.52884749  1
  O2-  O206  1  0.42390860  0.54860831  0.06252502  1
  O2-  O207  1  0.43448810  0.53937180  0.53843237  1
  O2-  O208  1  0.43039748  0.86214542  0.02199105  1
  O2-  O209  1  0.44103551  0.88066409  0.53067707  1
  O2-  O210  1  0.82050630  0.27063401  0.03653953  1
  O2-  O211  1  0.79002671  0.22108681  0.47413842  1
  O2-  O212  1  0.74628114  0.52325652  0.00662289  1
  O2-  O213  1  0.77737350  0.55640783  0.52523362  1
  O2-  O214  1  0.69527453  0.97559772  0.01362423  1
  O2-  O215  1  0.77914707  0.88310704  0.54914957  1
