# generated using pymatgen
data_H2O
_symmetry_space_group_name_H-M   'P 1'
_cell_length_a   13.49372580
_cell_length_b   13.48266404
_cell_length_c   14.67373950
_cell_angle_alpha   90.03429781
_cell_angle_beta   89.96480074
_cell_angle_gamma   119.94747123
_symmetry_Int_Tables_number   1
_chemical_formula_structural   H2O
_chemical_formula_sum   'H144 O72'
_cell_volume   2313.17536635
_cell_formula_units_Z   72
loop_
 _symmetry_equiv_pos_site_id
 _symmetry_equiv_pos_as_xyz
  1  'x, y, z'
loop_
 _atom_type_symbol
 _atom_type_oxidation_number
  H+  1.0
  O2-  -2.0
loop_
 _atom_site_type_symbol
 _atom_site_label
 _atom_site_symmetry_multiplicity
 _atom_site_fract_x
 _atom_site_fract_y
 _atom_site_fract_z
 _atom_site_occupancy
  H+  H0  1  0.50610764  0.82641029  0.75685956  1
  H+  H1  1  0.81096548  0.18535268  0.24604450  1
  H+  H2  1  0.63240339  0.15430045  0.48997680  1
  H+  H3  1  0.51937438  0.16137152  0.75175996  1
  H+  H4  1  0.82229930  0.18876604  0.50815643  1
  H+  H5  1  0.98347312  0.20888430  0.77544945  1
  H+  H6  1  0.82112520  0.29271016  0.02483865  1
  H+  H7  1  0.15347751  0.30939118  0.24567392  1
  H+  H8  1  0.14905839  0.48372614  0.26665599  1
  H+  H9  1  1.01735627  0.46493375  0.77892358  1
  H+  H10  1  0.37182326  0.84668235  0.50438702  1
  H+  H11  1  0.85057312  0.47428570  0.99915436  1
  H+  H12  1  0.87526475  0.49811985  0.49450396  1
  H+  H13  1  0.67611611  0.17635477  0.72308924  1
  H+  H14  1  0.69345755  0.50101062  1.01240959  1
  H+  H15  1  0.20080861  0.05341224  0.76363957  1
  H+  H16  1  0.81417073  0.48559549  0.25233360  1
  H+  H17  1  0.81174433  0.20299566  0.72966678  1
  H+  H18  1  0.63387790  0.15736806  0.26519387  1
  H+  H19  1  0.15857219  0.21418371  0.75154299  1
  H+  H20  1  0.97274639  0.15888408  0.26228776  1
  H+  H21  1  0.51130356  0.47501228  -0.01275804  1
  H+  H22  1  0.47681314  0.17858603  0.25321393  1
  H+  H23  1  0.89318732  0.68495967  0.48127372  1
  H+  H24  1  0.55331589  0.11411285  0.40132540  1
  H+  H25  1  0.15637886  0.29271384  1.01814394  1
  H+  H26  1  0.64195575  0.81336635  0.47965007  1
  H+  H27  1  0.48577762  0.30540828  0.24347879  1
  H+  H28  1  0.45314279  0.50991146  0.48188704  1
  H+  H29  1  0.14568256  0.61913404  0.01768490  1
  H+  H30  1  0.48492501  0.61628575  -0.01009294  1
  H+  H31  1  0.82850641  0.31570581  0.51122122  1
  H+  H32  1  0.63754851  0.15375493  -0.00504907  1
  H+  H33  1  0.79776746  0.81907743  0.70645022  1
  H+  H34  1  0.48918341  0.96968059  0.50422972  1
  H+  H35  1  0.44717858  0.23159705  0.59784959  1
  H+  H36  1  0.48140064  0.18554558  0.50916047  1
  H+  H37  1  0.35405806  0.80860678  0.01479013  1
  H+  H38  1  0.35327309  0.85303236  0.25295845  1
  H+  H39  1  0.63982583  0.46216124  0.25788556  1
  H+  H40  1  0.51185652  0.03824599  0.26692223  1
  H+  H41  1  0.35862736  0.84510923  0.73527200  1
  H+  H42  1  0.19730997  0.17644830  0.26863166  1
  H+  H43  1  0.86398078  0.74796917  0.77260811  1
  H+  H44  1  0.16306250  0.68183317  0.27142446  1
  H+  H45  1  0.33030714  0.17603469  0.26723242  1
  H+  H46  1  0.68985467  0.84386570  -0.01022419  1
  H+  H47  1  0.83536025  0.84947515  0.45341980  1
  H+  H48  1  0.84932340  0.03029300  0.48092175  1
  H+  H49  1  0.82006980  0.84538130  1.00467998  1
  H+  H50  1  0.96482941  0.81702328  1.01323514  1
  H+  H51  1  0.83708270  0.57278703  0.76495835  1
  H+  H52  1  0.29814750  0.46338354  0.99150089  1
  H+  H53  1  0.04697726  0.91657392  0.70984553  1
  H+  H54  1  0.98589034  0.76367365  0.77406430  1
  H+  H55  1  0.82269711  0.85311936  0.75003995  1
  H+  H56  1  0.45518178  0.35142257  0.46203024  1
  H+  H57  1  0.65206533  0.51784245  0.48352858  1
  H+  H58  1  0.90758800  0.43299212  0.91982042  1
  H+  H59  1  0.50670956  0.68484694  0.49690151  1
  H+  H60  1  0.52956469  0.47675844  0.22843734  1
  H+  H61  1  0.37460292  0.19748156  0.74427994  1
  H+  H62  1  0.16789006  0.97365692  0.50740733  1
  H+  H63  1  0.51926583  0.66294891  0.24698759  1
  H+  H64  1  0.23029223  0.12073043  0.85728864  1
  H+  H65  1  0.81964975  -0.02659515  1.00341271  1
  H+  H66  1  0.11408278  0.88659622  0.63905900  1
  H+  H67  1  0.14299705  0.84753436  0.02216944  1
  H+  H68  1  0.49186105  0.65276207  0.72656873  1
  H+  H69  1  0.18112825  0.15117416  0.49741524  1
  H+  H70  1  0.15047406  0.51176247  0.51401860  1
  H+  H71  1  0.30075689  0.13893889  -0.00194386  1
  H+  H72  1  0.77409522  0.53189678  0.16788920  1
  H+  H73  1  0.16566893  0.85204621  0.50642402  1
  H+  H74  1  0.64649560  0.46273945  0.50151629  1
  H+  H75  1  0.99743167  0.85000722  0.45617496  1
  H+  H76  1  0.51184785  0.35586775  0.99250940  1
  H+  H77  1  0.84379102  0.14473581  1.01388998  1
  H+  H78  1  0.49281530  0.31494244  0.74203636  1
  H+  H79  1  0.44210342  0.55932336  0.58348147  1
  H+  H80  1  0.02743469  0.50332983  0.02313605  1
  H+  H81  1  0.12322511  0.22381528  0.15960506  1
  H+  H82  1  0.52168130  0.80298981  0.98896435  1
  H+  H83  1  0.80979076  0.61969510  1.02358372  1
  H+  H84  1  0.82324694  0.96996713  0.24411773  1
  H+  H85  1  0.28656478  0.47880740  0.48586686  1
  H+  H86  1  0.23527255  0.13217379  0.36364327  1
  H+  H87  1  0.52043029  0.82603817  0.50157859  1
  H+  H88  1  0.19207171  0.66288004  0.75859140  1
  H+  H89  1  0.51318374  0.03830436  0.75156956  1
  H+  H90  1  0.98073745  0.48005034  0.50378665  1
  H+  H91  1  0.81877964  0.31028173  0.24710391  1
  H+  H92  1  0.63180400  0.85362739  0.75167455  1
  H+  H93  1  0.17941165  0.46128138  0.99975341  1
  H+  H94  1  -0.00201146  0.49364382  0.25286876  1
  H+  H95  1  0.55446139  0.79205149  0.26157043  1
  H+  H96  1  0.14298395  0.29632981  0.51154523  1
  H+  H97  1  0.19032575  0.69773545  0.50055716  1
  H+  H98  1  0.43429761  0.88606644  0.16729482  1
  H+  H99  1  0.14606336  0.96626109  0.02156202  1
  H+  H100  1  0.17430237  0.77363305  0.74862522  1
  H+  H101  1  0.27998603  0.53346308  0.72221119  1
  H+  H102  1  0.63808737  0.47307605  0.77009920  1
  H+  H103  1  -0.03383437  0.14932214  0.49703539  1
  H+  H104  1  0.80485898  1.04342710  0.74973295  1
  H+  H105  1  0.30441144  0.15758891  0.49697576  1
  H+  H106  1  1.03689706  0.17364447  1.02587310  1
  H+  H107  1  0.88394562  0.42529640  0.77746063  1
  H+  H108  1  0.18306872  0.14141611  0.99899202  1
  H+  H109  1  0.94170804  0.80905122  0.35462102  1
  H+  H110  1  0.56772171  0.12776128  0.90251455  1
  H+  H111  1  0.46239966  0.54645658  0.09105051  1
  H+  H112  1  0.09199782  0.87833899  0.17000213  1
  H+  H113  1  0.43771494  0.21046010  0.10421047  1
  H+  H114  1  0.55351234  0.44180166  0.85390852  1
  H+  H115  1  0.49367608  0.42252618  0.36909337  1
  H+  H116  1  0.92639746  0.27782480  0.81527685  1
  H+  H117  1  0.88763907  0.42883224  0.34554936  1
  H+  H118  1  0.56722354  0.79043732  0.88882024  1
  H+  H119  1  0.76963244  0.22280219  0.61917537  1
  H+  H120  1  0.30162679  0.90865329  0.93723747  1
  H+  H121  1  0.89241332  0.12756173  0.92033319  1
  H+  H122  1  0.89461779  0.76231854  0.92247054  1
  H+  H123  1  0.10636328  0.22326298  0.60338409  1
  H+  H124  1  0.19801602  0.43393864  0.40283429  1
  H+  H125  1  0.89287182  0.12194472  0.34951170  1
  H+  H126  1  0.79633456  0.49747078  0.67709143  1
  H+  H127  1  0.15497894  0.33041675  0.73308420  1
  H+  H128  1  0.27604845  0.50379567  0.27648169  1
  H+  H129  1  0.48029406  0.53014306  0.73236039  1
  H+  H130  1  0.77280753  0.21549237  0.11452671  1
  H+  H131  1  0.79555697  0.85713562  0.55163043  1
  H+  H132  1  0.22273333  0.76878357  0.40684163  1
  H+  H133  1  0.37668509  0.73003026  0.08150795  1
  H+  H134  1  0.23795372  0.79011222  0.88723944  1
  H+  H135  1  0.16200333  0.79957110  0.27587067  1
  H+  H136  1  0.09571079  0.54680938  0.16735592  1
  H+  H137  1  0.40015763  0.49573130  0.20216394  1
  H+  H138  1  0.74214321  0.86449691  0.18466567  1
  H+  H139  1  0.79300883  0.60232966  0.54240479  1
  H+  H140  1  0.77867854  0.99276389  0.65149684  1
  H+  H141  1  0.44094568  0.89245333  0.64745782  1
  H+  H142  1  0.12356254  0.54967276  0.60992690  1
  H+  H143  1  0.48342252  0.17594044  0.01457422  1
  O2-  O144  1  0.12353236  0.22764327  0.22820485  1
  O2-  O145  1  0.11310843  0.24593551  0.72398163  1
  O2-  O146  1  0.09079233  0.54525353  0.23467629  1
  O2-  O147  1  0.13752570  0.54352820  0.72320225  1
  O2-  O148  1  0.08866824  0.87141962  0.23793447  1
  O2-  O149  1  0.10152097  0.88908568  0.70778385  1
  O2-  O150  1  0.43411022  0.21685530  0.22911881  1
  O2-  O151  1  0.45329727  0.23378108  0.71826138  1
  O2-  O152  1  0.47786805  0.54530981  0.18102177  1
  O2-  O153  1  0.44826028  0.57342627  0.70205083  1
  O2-  O154  1  0.43366199  0.90172259  0.23255598  1
  O2-  O155  1  0.43968941  0.89589465  0.71548396  1
  O2-  O156  1  0.76885428  0.22396401  0.22432195  1
  O2-  O157  1  0.75860931  0.22130120  0.69562862  1
  O2-  O158  1  0.76636466  0.52226883  0.23434103  1
  O2-  O159  1  0.78957086  0.49249488  0.74336751  1
  O2-  O160  1  0.79792484  0.88858800  0.23351725  1
  O2-  O161  1  0.74324631  0.98816084  0.71026437  1
  O2-  O162  1  0.24213205  0.13964214  0.29426760  1
  O2-  O163  1  0.23348774  0.13095724  0.78908859  1
  O2-  O164  1  0.19701951  0.44586258  0.28926933  1
  O2-  O165  1  0.20209405  0.48379710  0.74613410  1
  O2-  O166  1  0.20778108  0.76342810  0.29391472  1
  O2-  O167  1  0.22359694  0.74948553  0.77836453  1
  O2-  O168  1  0.55326723  0.11919912  0.29041412  1
  O2-  O169  1  0.56203354  0.12053092  0.76933946  1
  O2-  O170  1  0.55222595  0.42685115  0.26669808  1
  O2-  O171  1  0.55764148  0.44809169  0.78501059  1
  O2-  O172  1  0.53323913  0.72181896  0.29479270  1
  O2-  O173  1  0.55631186  0.79434758  0.77545797  1
  O2-  O174  1  0.89168212  0.12234863  0.28205102  1
  O2-  O175  1  0.91036147  0.19743955  0.80314550  1
  O2-  O176  1  0.88732521  0.42890776  0.27871677  1
  O2-  O177  1  0.94070733  0.41248302  0.80982319  1
  O2-  O178  1  0.97147401  0.80595940  0.25501391  1
  O2-  O179  1  0.90913639  0.71816632  0.80225185  1
  O2-  O180  1  0.22417924  0.11507810  0.47132529  1
  O2-  O181  1  0.22002484  0.09836035  0.97348011  1
  O2-  O182  1  0.20386012  0.43172744  0.47113547  1
  O2-  O183  1  0.21452036  0.41669673  0.97774860  1
  O2-  O184  1  0.23242970  0.77724707  0.47524162  1
  O2-  O185  1  0.25552733  0.82679548  0.94988361  1
  O2-  O186  1  0.55144844  0.11067038  0.47067995  1
  O2-  O187  1  0.55902075  0.12035320  0.96917347  1
  O2-  O188  1  0.44721095  0.40877302  0.42617212  1
  O2-  O189  1  0.55514453  0.43475723  0.96720230  1
  O2-  O190  1  0.55786353  0.77638749  0.49312098  1
  O2-  O191  1  0.57589422  0.78454392  0.95665750  1
  O2-  O192  1  0.88550140  0.11463064  0.47385060  1
  O2-  O193  1  0.88375943  0.10454182  0.98522457  1
  O2-  O194  1  0.89902969  0.44026467  0.48214830  1
  O2-  O195  1  0.89580473  0.43498084  0.98670307  1
  O2-  O196  1  0.92319097  0.80791129  0.42392643  1
  O2-  O197  1  0.88511901  0.77712700  0.98690255  1
  O2-  O198  1  0.11813620  0.21089812  0.04435600  1
  O2-  O199  1  0.10412935  0.21565563  0.53575230  1
  O2-  O200  1  0.11004426  0.54280141  0.04405010  1
  O2-  O201  1  0.11654222  0.55610600  0.54170357  1
  O2-  O202  1  0.10275913  0.88585734  0.04661164  1
  O2-  O203  1  0.12479912  0.89259766  0.52892237  1
  O2-  O204  1  0.43624254  0.21041347  0.03652208  1
  O2-  O205  1  0.43930489  0.22470054  0.53019334  1
  O2-  O206  1  0.44389543  0.53907867  0.01575981  1
  O2-  O207  1  0.43673589  0.56707050  0.51603326  1
  O2-  O208  1  0.41427410  0.80470619  0.05164836  1
  O2-  O209  1  0.45337492  0.88879933  0.52741136  1
  O2-  O210  1  0.77814126  0.21127378  0.04533411  1
  O2-  O211  1  0.78225139  0.23012351  0.53141896  1
  O2-  O212  1  0.77418341  0.53683213  0.03495571  1
  O2-  O213  1  0.87112145  0.62228493  0.52750167  1
  O2-  O214  1  0.77460362  0.88659957  0.01771591  1
  O2-  O215  1  0.78637230  0.87564335  0.48902262  1
