# generated using pymatgen
data_H2O
_symmetry_space_group_name_H-M   'P 1'
_cell_length_a   13.49722685
_cell_length_b   13.51019683
_cell_length_c   14.68947561
_cell_angle_alpha   90.04245388
_cell_angle_beta   89.97821060
_cell_angle_gamma   119.98380328
_symmetry_Int_Tables_number   1
_chemical_formula_structural   H2O
_chemical_formula_sum   'H144 O72'
_cell_volume   2320.13836879
_cell_formula_units_Z   72
loop_
 _symmetry_equiv_pos_site_id
 _symmetry_equiv_pos_as_xyz
  1  'x, y, z'
loop_
 _atom_type_symbol
 _atom_type_oxidation_number
  H+  1.0
  O2-  -2.0
loop_
 _atom_site_type_symbol
 _atom_site_label
 _atom_site_symmetry_multiplicity
 _atom_site_fract_x
 _atom_site_fract_y
 _atom_site_fract_z
 _atom_site_occupancy
  H+  H0  1  0.51526679  0.81615513  0.75947080  1
  H+  H1  1  0.29248904  0.48673648  0.49180146  1
  H+  H2  1  0.69326882  0.17532053  0.22002175  1
  H+  H3  1  0.63315373  0.15739267  0.49599718  1
  H+  H4  1  0.02395846  0.53587442  -0.01580326  1
  H+  H5  1  0.87186792  0.71201278  0.49557321  1
  H+  H6  1  0.36163832  0.18458233  0.25389842  1
  H+  H7  1  0.85788461  0.39442983  0.27091010  1
  H+  H8  1  0.14748072  0.85048815  0.26890597  1
  H+  H9  1  0.18847144  0.82114081  0.74550921  1
  H+  H10  1  0.56148321  0.45995837  0.84864638  1
  H+  H11  1  0.84989485  0.49488256  0.98299078  1
  H+  H12  1  0.82406565  -0.02277274  0.73115394  1
  H+  H13  1  0.60709457  0.12803981  0.26268258  1
  H+  H14  1  0.38536425  0.20650832  0.72941365  1
  H+  H15  1  0.69400770  0.52670746  0.25970798  1
  H+  H16  1  0.56822469  0.78880914  0.89743873  1
  H+  H17  1  0.36129185  0.84259414  0.00526635  1
  H+  H18  1  0.84621007  0.48914806  0.75525779  1
  H+  H19  1  0.48149699  0.29688299  0.50530554  1
  H+  H20  1  0.43732192  0.55260331  0.60027537  1
  H+  H21  1  0.48599732  0.52367202  0.73932936  1
  H+  H22  1  0.17827937  0.49423007  0.48803368  1
  H+  H23  1  0.49840676  -0.02870229  0.74318439  1
  H+  H24  1  0.18963685  0.37604858  0.75986114  1
  H+  H25  1  0.85582265  0.36632883  0.49798002  1
  H+  H26  1  0.15548947  0.96030995  0.04077677  1
  H+  H27  1  0.48544260  0.30080058  0.25911466  1
  H+  H28  1  0.81183807  0.18023846  0.51311244  1
  H+  H29  1  0.52518038  0.82592123  -0.01248714  1
  H+  H30  1  0.52262807  0.49786705  0.98924474  1
  H+  H31  1  0.81213960  0.95380887  0.24689025  1
  H+  H32  1  0.51771938  0.37617545  0.99537794  1
  H+  H33  1  0.02698240  0.16339493  -0.00172213  1
  H+  H34  1  0.14840327  0.63834117  0.73965763  1
  H+  H35  1  0.63353120  0.12298610  0.75315699  1
  H+  H36  1  0.89568930  0.10263625  0.41741635  1
  H+  H37  1  0.52818816  0.38451350  0.75744700  1
  H+  H38  1  0.18574454  0.72294321  0.29430919  1
  H+  H39  1  0.95602127  0.76243198  0.94171765  1
  H+  H40  1  0.50124590  0.16676511  0.49784030  1
  H+  H41  1  0.15141085  0.30299773  0.49968108  1
  H+  H42  1  0.47991424  0.62505541  0.50862825  1
  H+  H43  1  0.36271386  0.17187600  0.50531188  1
  H+  H44  1  0.38673559  0.19456015  1.02998324  1
  H+  H45  1  0.50711214  0.65622276  1.01101667  1
  H+  H46  1  0.40253470  0.90325256  0.59807471  1
  H+  H47  1  0.75834312  0.55838307  0.44288681  1
  H+  H48  1  0.97706469  0.14001812  0.26428903  1
  H+  H49  1  0.05014918  0.54946058  0.26607056  1
  H+  H50  1  0.14940411  0.52084897  0.73996844  1
  H+  H51  1  0.50327695  0.82446082  0.26767201  1
  H+  H52  1  0.11094344  0.87912762  0.17188695  1
  H+  H53  1  0.96392784  0.48632981  0.75478980  1
  H+  H54  1  0.16056170  0.19496459  0.71779254  1
  H+  H55  1  0.05941531  0.83352971  0.49506978  1
  H+  H56  1  0.50081059  0.47234698  0.50304639  1
  H+  H57  1  0.52078192  0.81328457  0.51079813  1
  H+  H58  1  0.84430596  0.81445817  0.25645674  1
  H+  H59  1  0.51994309  0.48375309  0.26133720  1
  H+  H60  1  0.13416849  0.66150170  0.51634809  1
  H+  H61  1  0.63907782  0.81633533  0.49630288  1
  H+  H62  1  0.82380715  0.18836011  0.73685430  1
  H+  H63  1  0.30631590  0.49530006  0.76305322  1
  H+  H64  1  0.18721909  0.12993290  1.00961204  1
  H+  H65  1  0.62274162  0.14083906  0.97349838  1
  H+  H66  1  0.12279180  0.87222960  0.63099416  1
  H+  H67  1  0.49491830  0.14212125  0.27337183  1
  H+  H68  1  0.81092957  0.19804518  0.00796960  1
  H+  H69  1  0.02920876  0.85372032  0.04313363  1
  H+  H70  1  0.18601267  0.14169123  0.49504284  1
  H+  H71  1  0.81423590  0.84296689  0.01351409  1
  H+  H72  1  0.82322608  0.85023643  0.51283488  1
  H+  H73  1  0.51429624  1.01543711  -0.01887063  1
  H+  H74  1  0.48017732  0.24403078  0.65657640  1
  H+  H75  1  0.68458183  0.50982899  0.00804862  1
  H+  H76  1  0.17677392  0.02797064  0.26603849  1
  H+  H77  1  0.18822319  0.02898971  0.71528843  1
  H+  H78  1  0.84679408  0.70290478  0.74564019  1
  H+  H79  1  0.35024316  0.83599530  0.26158270  1
  H+  H80  1  0.03769006  0.84782257  0.71697953  1
  H+  H81  1  -0.03016359  0.81619382  0.25969702  1
  H+  H82  1  0.15146653  0.18166633  0.24408463  1
  H+  H83  1  0.15332137  0.66811186  0.98215703  1
  H+  H84  1  0.63276751  0.82234726  0.26620983  1
  H+  H85  1  0.19435601  0.41787477  0.00417401  1
  H+  H86  1  0.82838369  0.66754384  0.25560395  1
  H+  H87  1  -0.01135606  0.16703290  0.73296836  1
  H+  H88  1  0.48392274  0.64043479  0.73919951  1
  H+  H89  1  0.82000421  0.17777305  0.23732325  1
  H+  H90  1  0.15231394  0.25618773  -0.02797305  1
  H+  H91  1  0.18250137  0.37408865  0.25895649  1
  H+  H92  1  0.85723336  0.13515206  0.28855197  1
  H+  H93  1  0.61780256  0.46844265  0.50888833  1
  H+  H94  1  0.85016462  1.02725114  0.50559524  1
  H+  H95  1  0.82143693  0.53301283  0.26285479  1
  H+  H96  1  0.30564972  0.81646363  0.75044691  1
  H+  H97  1  0.37105825  0.50309151  0.24000663  1
  H+  H98  1  0.97592420  0.49216898  0.50069049  1
  H+  H99  1  0.81892370  0.85617233  0.73346573  1
  H+  H100  1  0.81857789  0.30426499  0.23713432  1
  H+  H101  1  0.69730924  0.84660614  0.00990364  1
  H+  H102  1  0.83963352  0.67825437  0.99065036  1
  H+  H103  1  0.80817028  0.29784713  0.74238841  1
  H+  H104  1  0.83938150  0.01806511  0.99587532  1
  H+  H105  1  0.18265255  0.82788613  -0.01984399  1
  H+  H106  1  0.80558233  0.30908148  -0.01284038  1
  H+  H107  1  0.69689828  0.52273897  0.74451283  1
  H+  H108  1  0.76689859  0.87742845  0.15582173  1
  H+  H109  1  0.15587003  0.54439517  -0.01294163  1
  H+  H110  1  0.46632825  0.24398029  0.11432131  1
  H+  H111  1  0.77588478  0.88603123  0.60026360  1
  H+  H112  1  0.46486444  0.95143808  0.25007756  1
  H+  H113  1  0.03630994  0.18127461  0.50949330  1
  H+  H114  1  0.77140938  0.22218493  0.59952959  1
  H+  H115  1  0.54455825  0.10590086  0.40806133  1
  H+  H116  1  0.24440192  0.07977776  0.94306510  1
  H+  H117  1  0.45591001  0.54545705  0.15450929  1
  H+  H118  1  0.22484204  0.79416387  0.88481744  1
  H+  H119  1  0.22035927  0.11026074  0.35200737  1
  H+  H120  1  0.88248863  0.78266265  0.83192126  1
  H+  H121  1  0.89092835  0.46049893  0.88933489  1
  H+  H122  1  0.21396884  0.80898106  0.38202071  1
  H+  H123  1  0.55122952  0.07982829  0.84359071  1
  H+  H124  1  0.38507852  0.54559499  0.01042699  1
  H+  H125  1  0.55920968  0.45155092  0.35695078  1
  H+  H126  1  0.76458589  0.54617122  0.09832291  1
  H+  H127  1  0.19527814  0.02556588  0.48963965  1
  H+  H128  1  0.11098136  0.57312055  0.59831176  1
  H+  H129  1  0.11093205  0.21958089  0.15527723  1
  H+  H130  1  0.55443527  0.78945186  0.36426031  1
  H+  H131  1  0.93037369  0.12699455  0.82737860  1
  H+  H132  1  0.77160170  0.55496345  0.65328663  1
  H+  H133  1  0.43025831  0.87188766  0.09902569  1
  H+  H134  1  0.16673222  0.54929198  0.25674576  1
  H+  H135  1  0.12369879  0.24309608  0.63553809  1
  H+  H136  1  0.22686728  0.45229063  0.34677985  1
  H+  H137  1  0.63628932  0.82148796  0.75800997  1
  H+  H138  1  0.82389660  0.51358864  0.50166247  1
  H+  H139  1  0.82491298  0.09246351  0.92100581  1
  H+  H140  1  0.22836463  0.46494429  0.89997880  1
  H+  H141  1  0.21846856  0.10781069  0.80005614  1
  H+  H142  1  0.89480037  0.46019423  0.36947088  1
  H+  H143  1  0.90276486  0.78708499  0.40629202  1
  O2-  O144  1  0.10598253  0.21779229  0.22216484  1
  O2-  O145  1  0.12321091  0.24099747  0.70430454  1
  O2-  O146  1  0.13006195  0.59601801  0.24634969  1
  O2-  O147  1  0.10550535  0.55730972  0.71792371  1
  O2-  O148  1  0.10064756  0.88315979  0.23874581  1
  O2-  O149  1  0.11921028  0.88606940  0.69823720  1
  O2-  O150  1  0.44535600  0.21919417  0.23988935  1
  O2-  O151  1  0.46853085  0.25461837  0.72084760  1
  O2-  O152  1  0.45249293  0.53533076  0.22143964  1
  O2-  O153  1  0.44134658  0.55961386  0.71627846  1
  O2-  O154  1  0.42891324  0.86946690  0.23258980  1
  O2-  O155  1  0.44524650  0.87813123  0.71818164  1
  O2-  O156  1  0.78186705  0.22044987  0.20673604  1
  O2-  O157  1  0.77466586  0.21944952  0.71627000  1
  O2-  O158  1  0.77884715  0.57129054  0.23696004  1
  O2-  O159  1  0.77865691  0.56168133  0.71957832  1
  O2-  O160  1  0.76458005  0.87350839  0.22440768  1
  O2-  O161  1  0.77705661  0.89582585  0.71241943  1
  O2-  O162  1  0.21785779  0.11074884  0.28399787  1
  O2-  O163  1  0.22585381  0.11200308  0.73413899  1
  O2-  O164  1  0.22981520  0.45437381  0.27886827  1
  O2-  O165  1  0.22610278  0.45371359  0.78810118  1
  O2-  O166  1  0.22509038  0.80644665  0.31178573  1
  O2-  O167  1  0.22526782  0.78084678  0.77519649  1
  O2-  O168  1  0.53134160  0.09389674  0.29376793  1
  O2-  O169  1  0.55324047  0.07466408  0.77373620  1
  O2-  O170  1  0.56960380  0.45233777  0.28989998  1
  O2-  O171  1  0.56716625  0.46618829  0.78068285  1
  O2-  O172  1  0.55365938  0.79151662  0.29442048  1
  O2-  O173  1  0.55788207  0.77790841  0.78403736  1
  O2-  O174  1  0.89685731  0.09025174  0.29120817  1
  O2-  O175  1  0.91047685  0.12373912  0.76303482  1
  O2-  O176  1  0.89109540  0.47125070  0.30001882  1
  O2-  O177  1  0.88368168  0.44635387  0.77889884  1
  O2-  O178  1  0.88422241  0.77260979  0.27884950  1
  O2-  O179  1  0.88935514  0.78532725  0.76513007  1
  O2-  O180  1  0.23135159  0.10713075  0.47091858  1
  O2-  O181  1  0.23382830  0.09131055  1.00707339  1
  O2-  O182  1  0.21306264  0.44841471  0.46702967  1
  O2-  O183  1  0.23346239  0.48685464  0.96713731  1
  O2-  O184  1  0.18671241  0.79845110  0.48521682  1
  O2-  O185  1  0.22214872  0.78886262  0.95419015  1
  O2-  O186  1  0.55022073  0.11922442  0.47573969  1
  O2-  O187  1  0.54576713  0.08844486  0.94790394  1
  O2-  O188  1  0.54144097  0.43106796  0.48014378  1
  O2-  O189  1  0.56037834  0.45481873  0.96667177  1
  O2-  O190  1  0.55728218  0.77937666  0.47385455  1
  O2-  O191  1  0.57159079  0.79133277  0.96621462  1
  O2-  O192  1  0.89084739  0.10890491  0.48404728  1
  O2-  O193  1  0.87628778  0.09829873  0.97034446  1
  O2-  O194  1  0.89419745  0.44722924  0.47588818  1
  O2-  O195  1  0.89953098  0.46574868  0.95818043  1
  O2-  O196  1  0.91105998  0.79194588  0.47329974  1
  O2-  O197  1  0.88636939  0.75877005  0.96487785  1
  O2-  O198  1  0.10804368  0.20043283  0.01914753  1
  O2-  O199  1  0.11990755  0.22382237  0.52432864  1
  O2-  O200  1  0.10993382  0.58275896  0.00417373  1
  O2-  O201  1  0.10699582  0.57787371  0.53077623  1
  O2-  O202  1  0.10950311  0.87591792  0.05423944  1
  O2-  O203  1  0.13957692  0.87234178  0.51803158  1
  O2-  O204  1  0.46363014  0.25404315  0.04813787  1
  O2-  O205  1  0.44656493  0.21390260  0.52452412  1
  O2-  O206  1  0.46386046  0.57485931  0.03246944  1
  O2-  O207  1  0.43650379  0.54562628  0.53186495  1
  O2-  O208  1  0.43882286  0.87450244  0.03216053  1
  O2-  O209  1  0.46303046  0.88786430  0.61750890  1
  O2-  O210  1  0.76153615  0.23160909  0.01316430  1
  O2-  O211  1  0.77095585  0.22187048  0.53090121  1
  O2-  O212  1  0.76765601  0.54833043  0.03146412  1
  O2-  O213  1  0.77939105  0.55584570  0.50619756  1
  O2-  O214  1  0.77714041  0.88420979  0.03825030  1
  O2-  O215  1  0.77625600  0.88490070  0.53139543  1
