# generated using pymatgen
data_H2O
_symmetry_space_group_name_H-M   'P 1'
_cell_length_a   13.50261835
_cell_length_b   13.50363070
_cell_length_c   14.68311139
_cell_angle_alpha   89.92351667
_cell_angle_beta   90.02469832
_cell_angle_gamma   119.96741426
_symmetry_Int_Tables_number   1
_chemical_formula_structural   H2O
_chemical_formula_sum   'H144 O72'
_cell_volume   2319.31307426
_cell_formula_units_Z   72
loop_
 _symmetry_equiv_pos_site_id
 _symmetry_equiv_pos_as_xyz
  1  'x, y, z'
loop_
 _atom_type_symbol
 _atom_type_oxidation_number
  H+  1.0
  O2-  -2.0
loop_
 _atom_site_type_symbol
 _atom_site_label
 _atom_site_symmetry_multiplicity
 _atom_site_fract_x
 _atom_site_fract_y
 _atom_site_fract_z
 _atom_site_occupancy
  H+  H0  1  0.29625788  0.14766910  0.75702202  1
  H+  H1  1  0.67578401  0.82340044  0.51846768  1
  H+  H2  1  0.15567256  0.30851511  0.23895382  1
  H+  H3  1  0.84068887  0.46395242  0.49130927  1
  H+  H4  1  0.45008289  0.58893973  0.79177941  1
  H+  H5  1  0.54518487  0.37379106  0.76691086  1
  H+  H6  1  0.51345462  0.82750569  0.50300579  1
  H+  H7  1  0.95578251  0.46903655  0.75057243  1
  H+  H8  1  0.23972384  0.76055593  0.87055528  1
  H+  H9  1  0.24824958  0.12058914  0.39398739  1
  H+  H10  1  0.14775811  0.52306318  0.01870882  1
  H+  H11  1  0.19676130  0.85926700  0.50771041  1
  H+  H12  1  0.14307494  0.80672595  0.52249029  1
  H+  H13  1  0.20389353  0.32176838  0.52274022  1
  H+  H14  1  0.50594832  1.04602340  0.75955335  1
  H+  H15  1  0.29879216  0.49241466  0.47743979  1
  H+  H16  1  0.30306653  0.70118145  0.82887472  1
  H+  H17  1  0.50655374  0.26079912  0.50481003  1
  H+  H18  1  0.50305546  0.88740665  0.74698596  1
  H+  H19  1  -0.02998655  0.15152255  -0.01165347  1
  H+  H20  1  0.85454389  0.82396738  0.26996499  1
  H+  H21  1  0.17922113  0.49107863  0.25602917  1
  H+  H22  1  0.46609812  0.65541578  0.01798665  1
  H+  H23  1  0.14246989  -0.03230380  1.00196192  1
  H+  H24  1  0.48244062  0.65564796  0.49589111  1
  H+  H25  1  0.51577091  0.42029107  0.53544193  1
  H+  H26  1  0.49125770  0.30712365  1.00238005  1
  H+  H27  1  0.61027450  1.13192539  0.42842944  1
  H+  H28  1  0.48484015  0.54205223  0.46421201  1
  H+  H29  1  0.51520007  0.46576437  0.74002619  1
  H+  H30  1  0.19748202  0.65605288  0.47599679  1
  H+  H31  1  0.83565227  -0.02013223  0.23378151  1
  H+  H32  1  0.37701319  0.84770270  0.51185446  1
  H+  H33  1  0.02248094  0.84992818  0.01314122  1
  H+  H34  1  0.82073903  0.52672017  0.73819686  1
  H+  H35  1  0.71896047  0.19236719  0.24234577  1
  H+  H36  1  0.85468449  0.50343387  0.26812697  1
  H+  H37  1  0.82039987  0.97275292  0.73631921  1
  H+  H38  1  0.16287261  0.24066150  0.61256991  1
  H+  H39  1  0.52660680  0.04126797  0.99319683  1
  H+  H40  1  0.03422411  0.52843009  0.24319848  1
  H+  H41  1  0.28289417  0.47054918  0.77635997  1
  H+  H42  1  0.48897447  0.18758603  0.00792749  1
  H+  H43  1  0.53324874  0.75139563  0.77639468  1
  H+  H44  1  0.84167452  0.14768510  0.74721926  1
  H+  H45  1  0.68076965  0.17199756  0.72298652  1
  H+  H46  1  0.64507952  0.47300525  0.50203098  1
  H+  H47  1  0.49566316  0.69306852  0.27362802  1
  H+  H48  1  0.82771021  0.65957879  0.26211999  1
  H+  H49  1  0.02656420  0.52159135  0.01925666  1
  H+  H50  1  -0.04626395  0.82372355  0.50893380  1
  H+  H51  1  0.49150687  0.86293506  1.01645085  1
  H+  H52  1  0.85500605  0.38384954  0.25689740  1
  H+  H53  1  0.48563570  0.52433606  0.24556627  1
  H+  H54  1  0.82434080  0.78343537  0.50267778  1
  H+  H55  1  0.15328743  0.18509505  0.01177795  1
  H+  H56  1  0.64923265  0.47742918  -0.00809044  1
  H+  H57  1  0.28924042  0.49032001  0.99528970  1
  H+  H58  1  0.37416921  0.85805866  0.75097162  1
  H+  H59  1  0.13351420  0.50076894  0.74466571  1
  H+  H60  1  0.97991100  0.16105187  0.25668553  1
  H+  H61  1  0.51397730  0.16801263  0.76136758  1
  H+  H62  1  0.30377634  0.15537727  -0.00760750  1
  H+  H63  1  0.33734503  0.36470673  0.61435972  1
  H+  H64  1  0.79440562  0.93253566  0.50546849  1
  H+  H65  1  0.12371893  0.98426699  0.52077181  1
  H+  H66  1  0.31927033  0.17709090  0.25586262  1
  H+  H67  1  0.64950405  0.50838544  0.26950513  1
  H+  H68  1  0.03566170  0.83539519  0.76073487  1
  H+  H69  1  0.17963018  0.82353224  -0.00895678  1
  H+  H70  1  0.18173813  0.70605237  0.00421459  1
  H+  H71  1  0.01442017  0.49379882  0.50648836  1
  H+  H72  1  0.49574579  0.81247662  0.27070382  1
  H+  H73  1  0.83388121  0.49257478  1.02511997  1
  H+  H74  1  0.79858534  0.28340440  0.70467251  1
  H+  H75  1  0.78557512  0.26916779  0.48414401  1
  H+  H76  1  -0.00814368  0.19753285  0.54805318  1
  H+  H77  1  0.42145321  0.29547356  0.68597830  1
  H+  H78  1  0.36270791  0.85917933  0.23975642  1
  H+  H79  1  0.17590485  0.36250145  0.99665958  1
  H+  H80  1  0.49281114  0.32387412  0.23288974  1
  H+  H81  1  0.95266815  0.14694547  0.51808504  1
  H+  H82  1  0.18267591  0.70696273  0.24923009  1
  H+  H83  1  0.78287575  0.55286986  0.60191938  1
  H+  H84  1  0.36220090  0.51627260  0.24510451  1
  H+  H85  1  0.87506068  0.72128247  0.78150557  1
  H+  H86  1  0.14964251  0.95708562  0.74649724  1
  H+  H87  1  0.83251707  0.31719748  1.00631607  1
  H+  H88  1  0.82292718  0.62421840  0.50983979  1
  H+  H89  1  0.71171414  0.19840205  0.00640689  1
  H+  H90  1  0.38353257  0.15188841  0.50291304  1
  H+  H91  1  0.65939944  0.85980193  0.76106524  1
  H+  H92  1  0.17027169  0.47006999  0.49151261  1
  H+  H93  1  0.78577152  0.09185425  0.46050721  1
  H+  H94  1  0.88168467  0.77801641  0.36420171  1
  H+  H95  1  0.23725054  0.16843051  0.49108266  1
  H+  H96  1  0.17718794  0.14478134  0.76365421  1
  H+  H97  1  0.83754131  0.70948235  0.00464280  1
  H+  H98  1  1.02420540  0.17594006  0.73655615  1
  H+  H99  1  0.85587897  0.15999481  0.98857098  1
  H+  H100  1  0.16719387  0.87940905  0.23314941  1
  H+  H101  1  0.53524426  1.01056090  0.27620949  1
  H+  H102  1  0.86211807  0.39715011  0.82575477  1
  H+  H103  1  0.92265990  0.50140095  0.92304449  1
  H+  H104  1  0.70872558  0.53540245  0.73892411  1
  H+  H105  1  0.90092117  0.77955674  0.91357989  1
  H+  H106  1  0.47074446  0.60138639  0.74276316  1
  H+  H107  1  0.14170428  0.62039963  0.74593709  1
  H+  H108  1  0.88496744  0.43820476  0.39817894  1
  H+  H109  1  0.79240430  0.57490160  0.17178877  1
  H+  H110  1  0.42786234  0.57101079  0.10297081  1
  H+  H111  1  0.21237433  0.44424141  0.34520176  1
  H+  H112  1  0.11168349  0.56401597  0.15210409  1
  H+  H113  1  0.44812661  0.90162122  0.60264445  1
  H+  H114  1  0.45006486  0.24109370  0.14623699  1
  H+  H115  1  0.07731648  0.91641172  0.61614390  1
  H+  H116  1  0.76657734  0.88317438  0.65304921  1
  H+  H117  1  0.22425530  0.11729775  0.90393974  1
  H+  H118  1  0.72463138  0.43687285  0.09162562  1
  H+  H119  1  0.37028159  0.86005201  0.01663821  1
  H+  H120  1  0.43263371  0.49162103  0.59563744  1
  H+  H121  1  0.85536105  0.07325954  0.38245103  1
  H+  H122  1  0.86470135  0.16765213  0.25102645  1
  H+  H123  1  0.80840376  0.90346399  0.14685994  1
  H+  H124  1  0.78785426  0.23836337  0.14775585  1
  H+  H125  1  0.09340525  0.53858231  0.59706446  1
  H+  H126  1  0.56265495  0.11963747  0.90301487  1
  H+  H127  1  0.64593908  0.84240246  1.00263998  1
  H+  H128  1  0.20230197  0.05616338  0.25257340  1
  H+  H129  1  0.30972410  0.69523479  0.41861214  1
  H+  H130  1  0.56303808  0.45092538  0.35276218  1
  H+  H131  1  0.54030775  0.78091645  0.40695173  1
  H+  H132  1  0.44978950  0.90089424  0.15462774  1
  H+  H133  1  0.22953605  0.77580868  0.33970925  1
  H+  H134  1  0.72947613  0.18390614  0.56633492  1
  H+  H135  1  0.11208413  0.22226182  0.10130485  1
  H+  H136  1  0.57168415  0.45821957  0.90469738  1
  H+  H137  1  0.20416404  0.43471938  0.86544176  1
  H+  H138  1  0.44276559  0.20674477  0.63450117  1
  H+  H139  1  0.16335006  0.19330398  0.24348470  1
  H+  H140  1  0.88715863  0.11991881  0.84058131  1
  H+  H141  1  0.14082271  0.29251539  0.75019565  1
  H+  H142  1  0.12928935  0.91434339  0.14187473  1
  H+  H143  1  0.57689512  0.81742196  0.91054573  1
  O2-  O144  1  0.11716661  0.22738215  0.21826268  1
  O2-  O145  1  0.10815596  0.21609741  0.72130077  1
  O2-  O146  1  0.11519310  0.56599791  0.22117531  1
  O2-  O147  1  0.09553235  0.54245356  0.71997283  1
  O2-  O148  1  0.14336031  0.93189551  0.20812793  1
  O2-  O149  1  0.10671170  0.88202747  0.71663466  1
  O2-  O150  1  0.44880931  0.24299214  0.21389011  1
  O2-  O151  1  0.43325527  0.23083459  0.69983234  1
  O2-  O152  1  0.44260712  0.56189361  0.22298817  1
  O2-  O153  1  0.41566974  0.42534641  0.63665498  1
  O2-  O154  1  0.44576358  0.89662686  0.22273813  1
  O2-  O155  1  0.44918555  0.91312137  0.72348966  1
  O2-  O156  1  0.79486756  0.24514074  0.21570911  1
  O2-  O157  1  0.75542683  0.20068624  0.69054345  1
  O2-  O158  1  0.78732919  0.57369159  0.23906804  1
  O2-  O159  1  0.78647535  0.57030556  0.71243098  1
  O2-  O160  1  0.80396828  0.89941331  0.21363444  1
  O2-  O161  1  0.76696495  0.89155162  0.72091378  1
  O2-  O162  1  0.23901478  0.13495133  0.28180279  1
  O2-  O163  1  0.22167523  0.11028893  0.78884409  1
  O2-  O164  1  0.21870831  0.44886751  0.27748447  1
  O2-  O165  1  0.20286540  0.43388450  0.79473161  1
  O2-  O166  1  0.22471739  0.78719494  0.27361085  1
  O2-  O167  1  0.25993930  0.73791775  0.80996657  1
  O2-  O168  1  0.60347010  0.07865146  0.30609160  1
  O2-  O169  1  0.55333369  0.12724519  0.78188159  1
  O2-  O170  1  0.56585487  0.46562032  0.28684983  1
  O2-  O171  1  0.56773277  0.45389506  0.77920458  1
  O2-  O172  1  0.52290355  0.76743877  0.30529535  1
  O2-  O173  1  0.57786643  0.83221409  0.79244467  1
  O2-  O174  1  0.89706328  0.12043670  0.27382710  1
  O2-  O175  1  0.88930087  0.11709002  0.77258035  1
  O2-  O176  1  0.89644383  0.46137088  0.28540134  1
  O2-  O177  1  0.87122426  0.42437014  0.76294913  1
  O2-  O178  1  0.88315159  0.77478848  0.29661696  1
  O2-  O179  1  0.93868888  0.77180451  0.82126302  1
  O2-  O180  1  0.25392585  0.11226843  0.46200376  1
  O2-  O181  1  0.22224718  0.11738737  0.97208287  1
  O2-  O182  1  0.21635586  0.43858754  0.46330068  1
  O2-  O183  1  0.20900501  0.44144738  0.96984017  1
  O2-  O184  1  0.26180870  0.72310978  0.44442572  1
  O2-  O185  1  0.22497423  0.78439324  0.97641542  1
  O2-  O186  1  0.55172411  0.11035546  0.37861768  1
  O2-  O187  1  0.56817427  0.12207003  0.97061842  1
  O2-  O188  1  0.56227269  0.42741216  0.48156598  1
  O2-  O189  1  0.56902973  0.44271579  0.97030516  1
  O2-  O190  1  0.54473649  0.77844799  0.47703290  1
  O2-  O191  1  0.56675662  0.80280746  0.97754654  1
  O2-  O192  1  0.82954308  0.05302439  0.44694668  1
  O2-  O193  1  0.89386482  0.12149612  0.95821503  1
  O2-  O194  1  0.87984725  0.42361356  0.46589151  1
  O2-  O195  1  0.90830201  0.46063479  0.98052555  1
  O2-  O196  1  0.87972689  0.75978347  0.48149116  1
  O2-  O197  1  0.88539825  0.78740518  0.98315420  1
  O2-  O198  1  0.11065864  0.22421864  0.03300207  1
  O2-  O199  1  0.21989174  0.27074098  0.56179357  1
  O2-  O200  1  0.11191146  0.56669816  0.04216371  1
  O2-  O201  1  0.09585820  0.53341157  0.52964582  1
  O2-  O202  1  0.10765975  0.88837207  0.02608940  1
  O2-  O203  1  0.05401041  0.93592092  0.55607648  1
  O2-  O204  1  0.44610997  0.22652794  0.02654963  1
  O2-  O205  1  0.45984432  0.18646670  0.53488784  1
  O2-  O206  1  0.41249611  0.57633735  0.03752208  1
  O2-  O207  1  0.44108083  0.56618999  0.50203671  1
  O2-  O208  1  0.45106129  0.90406040  0.03825267  1
  O2-  O209  1  0.45472308  0.89691643  0.53570354  1
  O2-  O210  1  0.79172628  0.23652693  0.03000269  1
  O2-  O211  1  0.73032802  0.18780671  0.49877136  1
  O2-  O212  1  0.77126183  0.50780125  0.05838908  1
  O2-  O213  1  0.78024793  0.54283900  0.53353088  1
  O2-  O214  1  0.79436733  0.94380050  0.02328956  1
  O2-  O215  1  0.75688655  0.85795451  0.53954380  1
