# generated using pymatgen
data_H2O
_symmetry_space_group_name_H-M   'P 1'
_cell_length_a   13.52462902
_cell_length_b   13.50890840
_cell_length_c   14.69437049
_cell_angle_alpha   90.03092611
_cell_angle_beta   89.94312861
_cell_angle_gamma   119.98636461
_symmetry_Int_Tables_number   1
_chemical_formula_structural   H2O
_chemical_formula_sum   'H144 O72'
_cell_volume   2325.34114485
_cell_formula_units_Z   72
loop_
 _symmetry_equiv_pos_site_id
 _symmetry_equiv_pos_as_xyz
  1  'x, y, z'
loop_
 _atom_type_symbol
 _atom_type_oxidation_number
  H+  1.0
  O2-  -2.0
loop_
 _atom_site_type_symbol
 _atom_site_label
 _atom_site_symmetry_multiplicity
 _atom_site_fract_x
 _atom_site_fract_y
 _atom_site_fract_z
 _atom_site_occupancy
  H+  H0  1  0.82651513  0.01024569  0.19878435  1
  H+  H1  1  0.51682990  0.48114802  0.48487082  1
  H+  H2  1  0.97039662  0.49607576  0.50471085  1
  H+  H3  1  0.49256039  0.64156834  0.99418980  1
  H+  H4  1  0.61824106  0.15126929  0.98940787  1
  H+  H5  1  0.02757939  0.54047406  0.72879130  1
  H+  H6  1  0.14301111  -0.03936596  0.74788871  1
  H+  H7  1  0.50731545  0.03192144  0.75889538  1
  H+  H8  1  0.96518447  0.14928661  0.54306404  1
  H+  H9  1  0.47401752  0.95656996  0.25020569  1
  H+  H10  1  0.54762130  0.16128555  0.48533380  1
  H+  H11  1  0.78282416  0.22512740  0.31828693  1
  H+  H12  1  0.20251862  0.36012483  0.77778397  1
  H+  H13  1  0.20308405  0.49762367  0.25756163  1
  H+  H14  1  0.33540296  0.14412855  0.47650032  1
  H+  H15  1  0.31906846  0.49858977  1.01077248  1
  H+  H16  1  0.13449988  0.94207905  0.01180496  1
  H+  H17  1  0.52654632  0.43816892  0.83021032  1
  H+  H18  1  0.51327497  0.82655322  0.75855569  1
  H+  H19  1  0.04924244  0.54122157  0.01932255  1
  H+  H20  1  0.82646283  0.83764851  0.24497891  1
  H+  H21  1  0.37294755  0.85637290  0.50791205  1
  H+  H22  1  -0.01981603  0.16525505  -0.01276938  1
  H+  H23  1  0.15669295  0.65438590  0.73690547  1
  H+  H24  1  0.81019431  0.19090989  0.02703598  1
  H+  H25  1  0.30734675  0.82223144  0.26772712  1
  H+  H26  1  0.31392569  0.14645177  0.52308023  1
  H+  H27  1  0.16901599  0.84618059  0.26215509  1
  H+  H28  1  0.82046320  0.85614359  0.75263394  1
  H+  H29  1  0.82101435  0.63813551  0.50304460  1
  H+  H30  1  0.32938792  0.50955358  0.25296808  1
  H+  H31  1  0.15903763  0.84936559  0.51458600  1
  H+  H32  1  0.47848065  0.17749378  0.73890078  1
  H+  H33  1  0.68903054  0.18311559  0.74150051  1
  H+  H34  1  0.61953290  0.81754544  0.97622669  1
  H+  H35  1  0.64079754  0.49469892  0.47653045  1
  H+  H36  1  0.81367565  0.95720925  0.53354768  1
  H+  H37  1  0.51262848  0.68749148  0.51602457  1
  H+  H38  1  0.16291502  0.97719103  0.25161660  1
  H+  H39  1  0.44640877  0.51941778  0.61006485  1
  H+  H40  1  0.35609929  0.86895624  -0.02097429  1
  H+  H41  1  0.18549595  0.15379793  0.24290150  1
  H+  H42  1  0.53462060  0.32012850  0.50968535  1
  H+  H43  1  0.16350646  0.29891608  -0.00273368  1
  H+  H44  1  0.80614674  0.17170147  0.23103662  1
  H+  H45  1  0.14328812  0.38714762  0.46108414  1
  H+  H46  1  0.49246852  0.23801077  0.59788761  1
  H+  H47  1  0.70565834  0.18204132  0.50487654  1
  H+  H48  1  0.85453780  0.37467940  0.50490710  1
  H+  H49  1  0.61434995  0.14402675  0.25260529  1
  H+  H50  1  0.49186453  0.35360083  -0.04127576  1
  H+  H51  1  0.36047572  0.50193613  0.52731019  1
  H+  H52  1  0.63158181  0.82637601  0.76181203  1
  H+  H53  1  0.97471279  0.81725578  0.49956376  1
  H+  H54  1  0.29666548  0.14043916  0.75308839  1
  H+  H55  1  0.10533026  0.88278718  0.65900130  1
  H+  H56  1  0.85797314  0.36238860  -0.00937161  1
  H+  H57  1  0.96481384  0.81496993  0.75900506  1
  H+  H58  1  0.70384376  0.53525628  0.23679418  1
  H+  H59  1  0.13945566  0.95738105  0.51040462  1
  H+  H60  1  0.80468174  0.30483378  0.73716554  1
  H+  H61  1  0.30141989  0.15204950  0.25790417  1
  H+  H62  1  0.23091594  0.79220958  0.87384817  1
  H+  H63  1  0.16246062  0.54256712  0.51583254  1
  H+  H64  1  0.15776453  0.17524464  0.99234030  1
  H+  H65  1  0.69624832  0.83529743  0.52539748  1
  H+  H66  1  0.48707951  0.84851161  0.51683723  1
  H+  H67  1  0.84153570  0.69980224  0.75059924  1
  H+  H68  1  0.85505027  0.81920674  0.49935404  1
  H+  H69  1  0.83120277  0.81609902  -0.02473057  1
  H+  H70  1  0.42957971  0.63352855  0.17303262  1
  H+  H71  1  0.17028143  0.55208221  0.02086831  1
  H+  H72  1  0.47034107  0.85913315  -0.01678206  1
  H+  H73  1  0.18818153  0.70878111  0.49693992  1
  H+  H74  1  0.81861525  0.51722845  0.50904833  1
  H+  H75  1  0.19238287  0.30113739  0.53502180  1
  H+  H76  1  0.89512631  0.10906140  0.12750494  1
  H+  H77  1  0.22397103  0.44395638  1.08455079  1
  H+  H78  1  0.47553482  0.18248509  0.00228873  1
  H+  H79  1  0.02616443  0.17905243  0.75650607  1
  H+  H80  1  0.35097881  0.84380807  0.74399833  1
  H+  H81  1  0.00995173  0.84098742  0.00920707  1
  H+  H82  1  0.47937686  0.31194849  0.23512408  1
  H+  H83  1  0.84691023  0.14633792  0.52855007  1
  H+  H84  1  0.17835805  0.14151965  0.76449707  1
  H+  H85  1  0.86121398  0.50539309  0.24457810  1
  H+  H86  1  0.04273904  0.01698666  0.42395568  1
  H+  H87  1  0.52702190  0.03203083  0.48043229  1
  H+  H88  1  0.23760053  0.45715116  0.38844563  1
  H+  H89  1  0.19179531  0.81210567  0.75548385  1
  H+  H90  1  1.04722220  0.53177566  0.24160242  1
  H+  H91  1  0.88893102  0.13000070  -0.09327924  1
  H+  H92  1  0.83954331  0.54056210  0.01830883  1
  H+  H93  1  0.68568459  0.52430893  0.72239785  1
  H+  H94  1  0.47559518  0.84022942  0.26927823  1
  H+  H95  1  0.29806856  0.14727432  -0.01417324  1
  H+  H96  1  0.82750661  0.48922418  0.74515921  1
  H+  H97  1  0.51761791  0.50325387  0.24678576  1
  H+  H98  1  0.84297578  0.15658188  0.76430745  1
  H+  H99  1  0.86081115  0.38726256  0.24589406  1
  H+  H100  1  0.50212332  0.47702776  0.95994962  1
  H+  H101  1  0.81754664  0.64404956  0.00929267  1
  H+  H102  1  0.03873838  0.84900881  0.25823926  1
  H+  H103  1  0.16531769  0.08698925  0.37917162  1
  H+  H104  1  0.13505724  0.16945682  0.51088779  1
  H+  H105  1  0.63007170  0.81089493  0.28992180  1
  H+  H106  1  0.86202543  0.70515298  0.26396083  1
  H+  H107  1  0.18348498  0.31519728  0.22543741  1
  H+  H108  1  0.47276269  0.56458666  0.08469273  1
  H+  H109  1  0.18374449  0.70434389  0.26390634  1
  H+  H110  1  0.96042122  0.40385715  0.92341855  1
  H+  H111  1  0.94905572  0.16008714  0.38285266  1
  H+  H112  1  0.51204019  0.69041733  0.27595501  1
  H+  H113  1  0.54821734  0.11471382  0.84650840  1
  H+  H114  1  0.44072781  0.89700626  0.65666107  1
  H+  H115  1  0.78012633  0.89117058  0.66389738  1
  H+  H116  1  0.95201221  0.16152812  0.33166822  1
  H+  H117  1  0.87130002  0.76987470  0.89058445  1
  H+  H118  1  0.13182970  0.58132547  0.15802470  1
  H+  H119  1  0.13962950  0.23413223  0.13583644  1
  H+  H120  1  0.54301951  0.10796911  0.34272845  1
  H+  H121  1  0.55069090  0.76198043  0.42486355  1
  H+  H122  1  0.90041764  0.78313064  0.35607265  1
  H+  H123  1  0.46799635  0.29085278  0.72976671  1
  H+  H124  1  0.77027370  0.22339591  0.60129067  1
  H+  H125  1  0.43946596  0.23026992  0.08897741  1
  H+  H126  1  0.18349146  0.75270936  0.97720484  1
  H+  H127  1  0.22806274  0.46748923  0.83477841  1
  H+  H128  1  0.76337543  0.23722162  0.10610200  1
  H+  H129  1  0.87013701  0.45416901  0.83442114  1
  H+  H130  1  0.11072356  0.21601213  0.67085848  1
  H+  H131  1  0.77492540  0.90524684  0.07943994  1
  H+  H132  1  0.78876738  0.57717641  0.15051635  1
  H+  H133  1  0.47724513  0.19133616  0.23732767  1
  H+  H134  1  0.11541034  0.57708693  0.60658629  1
  H+  H135  1  0.22587507  0.78589421  0.40575178  1
  H+  H136  1  0.84487280  0.03828512  0.76924668  1
  H+  H137  1  0.22139968  0.10224109  0.89594438  1
  H+  H138  1  0.72037624  0.78383133  0.18064659  1
  H+  H139  1  0.49999422  0.02797685  0.97999869  1
  H+  H140  1  0.54195704  0.77162991  0.88677185  1
  H+  H141  1  0.76875416  0.56179571  0.63629255  1
  H+  H142  1  0.81774083  -0.01364170  0.99444464  1
  H+  H143  1  0.55401938  0.46028385  0.33547999  1
  O2-  O144  1  0.14394954  0.23491541  0.20342660  1
  O2-  O145  1  0.10776523  0.21218760  0.73817647  1
  O2-  O146  1  0.13130171  0.57381940  0.22601659  1
  O2-  O147  1  0.10624779  0.57413441  0.70639094  1
  O2-  O148  1  0.12358006  0.89021045  0.24369745  1
  O2-  O149  1  0.09833409  0.87959210  0.72627359  1
  O2-  O150  1  0.43605589  0.23059642  0.21456748  1
  O2-  O151  1  0.43326609  0.21009259  0.71012268  1
  O2-  O152  1  0.44895340  0.58777642  0.21277506  1
  O2-  O153  1  0.49131755  0.50295399  0.72125218  1
  O2-  O154  1  0.43156074  0.87265895  0.24074714  1
  O2-  O155  1  0.43840076  0.89632324  0.72400160  1
  O2-  O156  1  0.77447513  0.22126068  0.25213749  1
  O2-  O157  1  0.77020217  0.22276156  0.71890194  1
  O2-  O158  1  0.78636769  0.57782062  0.21977682  1
  O2-  O159  1  0.76730359  0.56261527  0.70517307  1
  O2-  O160  1  0.76890931  0.85414180  0.21424915  1
  O2-  O161  1  0.78341051  0.90057847  0.73145449  1
  O2-  O162  1  0.21770009  0.10756491  0.27347875  1
  O2-  O163  1  0.21879853  0.09906753  0.78125886  1
  O2-  O164  1  0.24556677  0.45819781  0.27641374  1
  O2-  O165  1  0.26312210  0.43825750  0.79299360  1
  O2-  O166  1  0.22257038  0.78580704  0.28783677  1
  O2-  O167  1  0.23238124  0.77173398  0.77364842  1
  O2-  O168  1  0.53461061  0.10702135  0.27408212  1
  O2-  O169  1  0.55107439  0.11514718  0.77820029  1
  O2-  O170  1  0.55547315  0.46060386  0.26714004  1
  O2-  O171  1  0.53569113  0.44029647  0.75687896  1
  O2-  O172  1  0.55074873  0.76846049  0.31141049  1
  O2-  O173  1  0.55081314  0.78385057  0.78146310  1
  O2-  O174  1  0.84589899  0.08809593  0.18088031  1
  O2-  O175  1  0.88377275  0.11935462  0.79217643  1
  O2-  O176  1  0.90938626  0.46975746  0.25424187  1
  O2-  O177  1  0.86743753  0.44802326  0.76778683  1
  O2-  O178  1  0.90568880  0.78691588  0.28751832  1
  O2-  O179  1  0.88213411  0.77729679  0.77888278  1
  O2-  O180  1  0.12317089  0.06452722  0.43922490  1
  O2-  O181  1  0.21727297  0.10681142  0.96379642  1
  O2-  O182  1  0.22221742  0.44924584  0.45686329  1
  O2-  O183  1  0.23287460  0.45799971  1.01911638  1
  O2-  O184  1  0.23025220  0.79055963  0.47355710  1
  O2-  O185  1  0.23551921  0.81909911  0.94105709  1
  O2-  O186  1  0.57106632  0.10989957  0.45228147  1
  O2-  O187  1  0.54160217  0.11556837  0.96245382  1
  O2-  O188  1  0.56071667  0.45070361  0.45245515  1
  O2-  O189  1  0.52694164  0.42885262  0.92684811  1
  O2-  O190  1  0.55408772  0.76743220  0.49314092  1
  O2-  O191  1  0.53967125  0.76816691  0.95688027  1
  O2-  O192  1  0.88511583  0.09909975  0.52641995  1
  O2-  O193  1  0.89591126  0.13228437  0.97515146  1
  O2-  O194  1  0.88898673  0.45567397  0.48590536  1
  O2-  O195  1  0.91605474  0.43139844  0.95627654  1
  O2-  O196  1  0.89768694  0.78414373  0.46993864  1
  O2-  O197  1  0.86599343  0.76925452  0.95892848  1
  O2-  O198  1  0.11746383  0.21803147  0.01589324  1
  O2-  O199  1  0.12846390  0.22597216  0.55083432  1
  O2-  O200  1  0.12743548  0.58940646  0.04253250  1
  O2-  O201  1  0.11862359  0.57898090  0.53483844  1
  O2-  O202  1  0.07837507  0.87716259  0.04805178  1
  O2-  O203  1  0.11128172  0.88205497  0.53912678  1
  O2-  O204  1  0.43627540  0.22596775  0.02151263  1
  O2-  O205  1  0.53706250  0.25623182  0.54054919  1
  O2-  O206  1  0.45762303  0.55967292  0.01837252  1
  O2-  O207  1  0.44122010  0.53718438  0.54500264  1
  O2-  O208  1  0.43826348  0.90666062  0.00385382  1
  O2-  O209  1  0.45348711  0.89804073  0.52999967  1
  O2-  O210  1  0.76962865  0.23385201  0.04000452  1
  O2-  O211  1  0.78264920  0.22523418  0.53392861  1
  O2-  O212  1  0.79148837  0.56939974  0.04165439  1
  O2-  O213  1  0.77421193  0.55805336  0.52473275  1
  O2-  O214  1  0.77228441  0.90406883  0.01295294  1
  O2-  O215  1  0.77774168  0.87305861  0.54605160  1
