# generated using pymatgen
data_H2O
_symmetry_space_group_name_H-M   'P 1'
_cell_length_a   13.48840590
_cell_length_b   13.48622287
_cell_length_c   14.68536893
_cell_angle_alpha   89.96380663
_cell_angle_beta   90.02474433
_cell_angle_gamma   119.92724120
_symmetry_Int_Tables_number   1
_chemical_formula_structural   H2O
_chemical_formula_sum   'H144 O72'
_cell_volume   2315.17756195
_cell_formula_units_Z   72
loop_
 _symmetry_equiv_pos_site_id
 _symmetry_equiv_pos_as_xyz
  1  'x, y, z'
loop_
 _atom_type_symbol
 _atom_type_oxidation_number
  H+  1.0
  O2-  -2.0
loop_
 _atom_site_type_symbol
 _atom_site_label
 _atom_site_symmetry_multiplicity
 _atom_site_fract_x
 _atom_site_fract_y
 _atom_site_fract_z
 _atom_site_occupancy
  H+  H0  1  0.92218677  0.22557768  0.31184498  1
  H+  H1  1  0.66016033  0.83919038  0.75016090  1
  H+  H2  1  0.15926504  0.19579637  -0.00527408  1
  H+  H3  1  0.21873182  0.11087935  0.88287155  1
  H+  H4  1  0.10906069  0.22808306  0.17629265  1
  H+  H5  1  0.83656693  0.48659472  0.75706231  1
  H+  H6  1  0.81546639  0.78361958  0.98466809  1
  H+  H7  1  0.55828491  0.77770639  0.40285113  1
  H+  H8  1  0.17327672  0.81233267  0.75516042  1
  H+  H9  1  0.47953245  0.96715995  0.01468502  1
  H+  H10  1  0.35596742  0.17488539  0.73903024  1
  H+  H11  1  0.48051833  0.95982212  0.74469686  1
  H+  H12  1  0.48782643  0.19667748  0.51391177  1
  H+  H13  1  0.64562321  0.46918982  0.97643497  1
  H+  H14  1  0.69847632  0.85620561  0.24553448  1
  H+  H15  1  0.02113178  0.18010627  0.75133206  1
  H+  H16  1  0.78345878  0.49559534  0.49293104  1
  H+  H17  1  0.17868427  0.69525964  0.49988843  1
  H+  H18  1  0.19022132  0.03128596  0.26077214  1
  H+  H19  1  0.37142117  0.18615903  -0.02661384  1
  H+  H20  1  1.01589479  0.84315556  0.73072747  1
  H+  H21  1  0.80495258  0.30639520  0.74064534  1
  H+  H22  1  0.48510886  0.84698640  0.51514034  1
  H+  H23  1  0.18372194  1.01587761  0.48730781  1
  H+  H24  1  0.84880178  0.80362924  0.47548863  1
  H+  H25  1  0.64322363  0.81681073  0.48818324  1
  H+  H26  1  0.97271056  0.46718260  0.25070768  1
  H+  H27  1  0.92043460  0.76551231  0.96748867  1
  H+  H28  1  0.15687868  0.84043286  0.24518030  1
  H+  H29  1  0.61557103  0.14846921  0.25522131  1
  H+  H30  1  0.15558393  0.50923785  0.20842715  1
  H+  H31  1  0.36051648  0.85197497  0.01933975  1
  H+  H32  1  0.82294526  1.03175969  0.75529264  1
  H+  H33  1  0.29729431  0.46233358  0.20845456  1
  H+  H34  1  0.17092154  0.49424295  -0.01306177  1
  H+  H35  1  0.97113968  0.15250052  0.26484142  1
  H+  H36  1  0.00583767  0.52503124  0.00409454  1
  H+  H37  1  0.30094885  0.81008727  0.49594724  1
  H+  H38  1  0.83869350  0.41411270  0.37562444  1
  H+  H39  1  0.71280081  0.37772451  0.39822753  1
  H+  H40  1  0.78757485  0.17116004  0.22128150  1
  H+  H41  1  0.96330891  0.02141586  0.90980865  1
  H+  H42  1  0.17630407  0.86208727  1.00606349  1
  H+  H43  1  0.64030529  0.80175362  -0.00428806  1
  H+  H44  1  0.14066649  0.31143063  0.53964753  1
  H+  H45  1  0.29519154  0.49886524  0.52685829  1
  H+  H46  1  0.52252990  0.68260697  0.99584048  1
  H+  H47  1  0.78968128  0.87342574  0.59036463  1
  H+  H48  1  0.52519709  0.70844863  0.25869650  1
  H+  H49  1  0.47636409  0.96454321  0.24705788  1
  H+  H50  1  0.62226889  0.14225673  0.49344115  1
  H+  H51  1  0.29079255  0.47950408  0.76077959  1
  H+  H52  1  0.30437290  0.80880010  0.26229969  1
  H+  H53  1  0.82705748  0.58653706  -0.04035307  1
  H+  H54  1  0.80396889  0.29585795  0.22647235  1
  H+  H55  1  0.78331251  0.28315424  0.49493166  1
  H+  H56  1  0.54044470  0.11003920  0.34665127  1
  H+  H57  1  0.49413907  0.29669071  0.98318844  1
  H+  H58  1  0.50266910  0.52509551  0.23464876  1
  H+  H59  1  0.88013460  0.09945754  0.84509682  1
  H+  H60  1  0.63215110  0.14604511  0.97342074  1
  H+  H61  1  0.69657464  0.91687567  0.66353815  1
  H+  H62  1  0.17284210  0.35925703  0.76621329  1
  H+  H63  1  0.79480257  0.31907569  -0.00278358  1
  H+  H64  1  0.01576759  0.52022856  0.53075903  1
  H+  H65  1  0.17724802  0.50019199  0.52939682  1
  H+  H66  1  0.16630367  0.69787512  -0.01331490  1
  H+  H67  1  0.55232549  0.34441497  0.29673111  1
  H+  H68  1  0.14578837  0.83519470  0.50606557  1
  H+  H69  1  0.51740750  0.82352504  0.26195926  1
  H+  H70  1  0.17260257  0.69366031  0.76234785  1
  H+  H71  1  0.62301148  0.14454595  0.75205231  1
  H+  H72  1  0.83122136  0.94584986  0.00931689  1
  H+  H73  1  0.50098901  0.80389787  0.77925394  1
  H+  H74  1  0.86559795  0.44982980  0.85306218  1
  H+  H75  1  0.36075070  0.84228296  0.74483398  1
  H+  H76  1  0.84478011  0.63421845  0.20746651  1
  H+  H77  1  0.80591451  0.62558276  0.49684145  1
  H+  H78  1  0.47475076  0.17280303  0.74440983  1
  H+  H79  1  0.47247800  0.19050903  0.23751605  1
  H+  H80  1  0.16893959  0.14312400  0.75125323  1
  H+  H81  1  1.02792481  0.18787646  0.52994965  1
  H+  H82  1  0.81812593  0.97204642  0.24044075  1
  H+  H83  1  0.01473149  0.50863917  0.75673502  1
  H+  H84  1  0.50706374  0.35774595  0.75666638  1
  H+  H85  1  0.49866599  0.64605935  0.51829001  1
  H+  H86  1  0.82225589  0.81915516  0.74199461  1
  H+  H87  1  0.80022036  0.63645443  0.72914984  1
  H+  H88  1  0.16950611  1.02312396  0.74471192  1
  H+  H89  1  0.82553361  0.96372542  0.50898151  1
  H+  H90  1  0.63259728  0.49193808  0.51727320  1
  H+  H91  1  0.47707924  0.63186454  0.75429507  1
  H+  H92  1  0.36558058  0.20502212  0.24880882  1
  H+  H93  1  0.20294773  1.04946073  -0.01959981  1
  H+  H94  1  0.80748071  0.18923085  0.74008030  1
  H+  H95  1  0.50392433  0.36363101  0.52197288  1
  H+  H96  1  0.50090594  1.02974299  0.49474141  1
  H+  H97  1  0.48389727  0.50088487  0.00538298  1
  H+  H98  1  1.02487626  0.83070067  0.49949516  1
  H+  H99  1  0.85315263  0.77173474  0.83072627  1
  H+  H100  1  0.85566821  0.81486243  0.25017864  1
  H+  H101  1  0.62580698  0.47797427  0.75018110  1
  H+  H102  1  0.07325419  0.88714456  0.01943399  1
  H+  H103  1  0.99222534  0.12705664  0.97280461  1
  H+  H104  1  0.15562467  0.62620553  0.23617786  1
  H+  H105  1  0.50442964  0.50200019  0.52464624  1
  H+  H106  1  0.29761198  0.13807347  0.49058685  1
  H+  H107  1  0.22613890  0.42782917  0.11896820  1
  H+  H108  1  0.22267654  0.76416866  0.34985021  1
  H+  H109  1  0.76948265  0.55277215  0.64380651  1
  H+  H110  1  0.56258679  0.44686702  0.89174778  1
  H+  H111  1  0.21624292  0.77850019  0.89779496  1
  H+  H112  1  0.97580446  0.81695307  0.25118438  1
  H+  H113  1  0.51089906  0.13886015  0.96669189  1
  H+  H114  1  0.44023499  0.88789200  0.15641554  1
  H+  H115  1  0.36649371  0.50715330  0.00623646  1
  H+  H116  1  0.86215209  0.47798930  0.23604992  1
  H+  H117  1  0.47711163  0.51240859  0.74431900  1
  H+  H118  1  0.78276834  0.87911380  0.10487438  1
  H+  H119  1  0.77017525  0.22555518  0.59481292  1
  H+  H120  1  0.20789370  0.34555826  0.36374591  1
  H+  H121  1  0.13454306  0.50650601  0.75198896  1
  H+  H122  1  0.55104690  0.76452687  0.86753677  1
  H+  H123  1  0.12666441  0.14409382  0.24234664  1
  H+  H124  1  0.44430865  0.22520866  0.60767777  1
  H+  H125  1  0.10111588  0.22344111  0.66284955  1
  H+  H126  1  0.22044156  0.10558554  0.35134949  1
  H+  H127  1  0.45560881  0.57190649  0.61541012  1
  H+  H128  1  0.09623243  0.87443606  0.64316657  1
  H+  H129  1  0.88514044  0.76008549  0.38619587  1
  H+  H130  1  0.08841785  0.55794052  0.62375628  1
  H+  H131  1  0.44261476  0.87986243  0.60612873  1
  H+  H132  1  0.21611468  0.45345454  0.90241161  1
  H+  H133  1  0.88814864  0.10614923  0.41345925  1
  H+  H134  1  0.82072253  0.55396226  0.11922064  1
  H+  H135  1  0.75716738  0.23198369  0.08005802  1
  H+  H136  1  0.57927167  0.42980669  0.37816505  1
  H+  H137  1  0.46211810  0.55855052  0.14486228  1
  H+  H138  1  0.09099348  0.55785900  0.09078197  1
  H+  H139  1  0.13878208  0.30298400  -0.00757613  1
  H+  H140  1  0.13483852  0.89407313  0.15582116  1
  H+  H141  1  0.15177195  0.34419011  0.36264273  1
  H+  H142  1  0.54890808  0.09801534  0.84455889  1
  H+  H143  1  0.83651637  0.13727903  0.49865435  1
  O2-  O144  1  0.06726026  0.15750998  0.21168338  1
  O2-  O145  1  0.10293654  0.21977760  0.73330203  1
  O2-  O146  1  0.11043952  0.54942099  0.20664571  1
  O2-  O147  1  0.09529394  0.54958873  0.73255141  1
  O2-  O148  1  0.11994228  0.88445137  0.22236721  1
  O2-  O149  1  0.09696752  0.87862615  0.71172304  1
  O2-  O150  1  0.44773876  0.24803999  0.23143192  1
  O2-  O151  1  0.43849304  0.21735673  0.72065492  1
  O2-  O152  1  0.46189291  0.56341152  0.21337934  1
  O2-  O153  1  0.43790349  0.55496965  0.72323042  1
  O2-  O154  1  0.44188758  0.88312746  0.22593213  1
  O2-  O155  1  0.44216061  0.87713095  0.72490487  1
  O2-  O156  1  0.75057144  0.21549172  0.20457404  1
  O2-  O157  1  0.76758616  0.22791560  0.71330382  1
  O2-  O158  1  0.81915399  0.55567153  0.18621825  1
  O2-  O159  1  0.76523704  0.55429245  0.71152020  1
  O2-  O160  1  0.77894961  0.89204421  0.22098977  1
  O2-  O161  1  0.73096686  0.89167392  0.71016639  1
  O2-  O162  1  0.21924576  0.11082985  0.28244603  1
  O2-  O163  1  0.21264040  0.10321283  0.76812374  1
  O2-  O164  1  0.21800699  0.42396543  0.18516931  1
  O2-  O165  1  0.21173030  0.44185386  0.78596313  1
  O2-  O166  1  0.22182278  0.76384679  0.28195512  1
  O2-  O167  1  0.21647957  0.77615897  0.78021015  1
  O2-  O168  1  0.53589176  0.10402875  0.27927909  1
  O2-  O169  1  0.54284382  0.09907872  0.77464687  1
  O2-  O170  1  0.61520699  0.39867878  0.33883467  1
  O2-  O171  1  0.54643631  0.44020261  0.77563942  1
  O2-  O172  1  0.56228104  0.78661605  0.28532529  1
  O2-  O173  1  0.54486280  0.76486460  0.79680067  1
  O2-  O174  1  0.89928474  0.14625162  0.29796576  1
  O2-  O175  1  0.86963608  0.11062345  0.77940060  1
  O2-  O176  1  0.88979346  0.42856972  0.26698004  1
  O2-  O177  1  0.87343322  0.44525401  0.78423637  1
  O2-  O178  1  0.89347126  0.77147345  0.26988234  1
  O2-  O179  1  0.86226527  0.77930986  0.76299384  1
  O2-  O180  1  0.22324983  0.09354147  0.46028843  1
  O2-  O181  1  0.22492312  0.12369977  0.95048164  1
  O2-  O182  1  0.21276241  0.45326110  0.51529567  1
  O2-  O183  1  0.21552786  0.45574065  0.97081980  1
  O2-  O184  1  0.22165884  0.77168226  0.47030047  1
  O2-  O185  1  0.21358403  0.77945851  0.96590078  1
  O2-  O186  1  0.54142020  0.11009751  0.47233618  1
  O2-  O187  1  0.55159215  0.09495017  0.95059139  1
  O2-  O188  1  0.54493719  0.45127420  0.50605932  1
  O2-  O189  1  0.56628284  0.44795957  0.95988537  1
  O2-  O190  1  0.56059690  0.77625508  0.47125673  1
  O2-  O191  1  0.56251498  0.76050789  0.96906682  1
  O2-  O192  1  0.87955061  0.09751275  0.48098791  1
  O2-  O193  1  0.92538480  0.05672168  0.94176032  1
  O2-  O194  1  0.78592627  0.39348460  0.42950569  1
  O2-  O195  1  0.86787608  0.46454771  0.96370797  1
  O2-  O196  1  0.88275393  0.75665623  0.45475157  1
  O2-  O197  1  0.84413243  0.74171604  0.94466531  1
  O2-  O198  1  0.10600782  0.22312459  0.01418081  1
  O2-  O199  1  0.10308266  0.22991725  0.55999025  1
  O2-  O200  1  0.08877091  0.55958939  0.02262819  1
  O2-  O201  1  0.09293191  0.56569369  0.55470385  1
  O2-  O202  1  0.15286761  0.91676545  0.03557545  1
  O2-  O203  1  0.10163725  0.87185007  0.52888316  1
  O2-  O204  1  0.45202086  0.21262441  -0.01012014  1
  O2-  O205  1  0.45016061  0.23849159  0.53969858  1
  O2-  O206  1  0.44441510  0.54010459  0.03247467  1
  O2-  O207  1  0.45796547  0.56691293  0.54612724  1
  O2-  O208  1  0.43586205  0.89401137  0.04890214  1
  O2-  O209  1  0.44085941  0.88273777  0.53791993  1
  O2-  O210  1  0.76231352  0.23653359  0.01293223  1
  O2-  O211  1  0.76479873  0.21085297  0.52758201  1
  O2-  O212  1  0.79922732  0.51702173  -0.00316973  1
  O2-  O213  1  0.76183313  0.54750311  0.52635353  1
  O2-  O214  1  0.78143523  0.86902997  0.03732209  1
  O2-  O215  1  0.78725295  0.87875996  0.52380683  1
