# generated using pymatgen
data_H2O
_symmetry_space_group_name_H-M   'P 1'
_cell_length_a   13.50119251
_cell_length_b   13.50233475
_cell_length_c   14.69195428
_cell_angle_alpha   89.87939222
_cell_angle_beta   90.10488668
_cell_angle_gamma   119.92240872
_symmetry_Int_Tables_number   1
_chemical_formula_structural   H2O
_chemical_formula_sum   'H144 O72'
_cell_volume   2321.28833699
_cell_formula_units_Z   72
loop_
 _symmetry_equiv_pos_site_id
 _symmetry_equiv_pos_as_xyz
  1  'x, y, z'
loop_
 _atom_type_symbol
 _atom_type_oxidation_number
  H+  1.0
  O2-  -2.0
loop_
 _atom_site_type_symbol
 _atom_site_label
 _atom_site_symmetry_multiplicity
 _atom_site_fract_x
 _atom_site_fract_y
 _atom_site_fract_z
 _atom_site_occupancy
  H+  H0  1  0.87610011  0.67928228  0.20147041  1
  H+  H1  1  0.20725304  0.37389478  0.76952456  1
  H+  H2  1  0.55166830  1.04261641  0.50251611  1
  H+  H3  1  0.80618348  0.13798224  0.75969651  1
  H+  H4  1  0.88282334  0.73286289  0.54788162  1
  H+  H5  1  0.50562441  0.36212603  0.50098982  1
  H+  H6  1  0.87373063  0.99200216  0.18591905  1
  H+  H7  1  0.18152113  0.15448411  0.50270279  1
  H+  H8  1  0.52109420  0.69985307  0.48718452  1
  H+  H9  1  0.46353073  -0.05415950  0.71681609  1
  H+  H10  1  0.63019970  0.14825288  0.26228142  1
  H+  H11  1  0.43755271  0.62618012  0.25972114  1
  H+  H12  1  0.16945948  0.79866690  0.84299407  1
  H+  H13  1  0.62398411  0.14785157  0.73969925  1
  H+  H14  1  0.72660190  0.52684035  0.70982879  1
  H+  H15  1  0.91529897  0.12899129  0.75269310  1
  H+  H16  1  0.85642678  0.70033837  0.74540448  1
  H+  H17  1  0.92873662  0.86636146  0.20901505  1
  H+  H18  1  1.13472850  0.29241077  0.23699404  1
  H+  H19  1  0.47613595  0.51718424  0.50899628  1
  H+  H20  1  0.82717569  0.31206806  0.01048927  1
  H+  H21  1  0.18697258  0.18454124  0.74044511  1
  H+  H22  1  0.90780964  0.39620250  0.46534244  1
  H+  H23  1  0.18419388  0.16020340  0.98820754  1
  H+  H24  1  0.29731931  0.15313927  0.27599315  1
  H+  H25  1  0.18535550  0.86645344  0.53473814  1
  H+  H26  1  0.64770852  0.16880025  0.02165308  1
  H+  H27  1  0.74969139  0.21886311  0.63950392  1
  H+  H28  1  0.53561872  0.76818624  0.89911500  1
  H+  H29  1  0.25635671  0.46737026  0.25981312  1
  H+  H30  1  0.96243793  0.14591116  0.99899018  1
  H+  H31  1  0.39048528  0.86735725  0.49421217  1
  H+  H32  1  0.73936224  0.25890866  0.48471833  1
  H+  H33  1  0.52692799  0.35594806  0.27448046  1
  H+  H34  1  0.14578339  0.30197689  0.01574309  1
  H+  H35  1  0.80564211  0.84281198  0.74666446  1
  H+  H36  1  0.25559455  0.74599006  0.25492475  1
  H+  H37  1  0.92144438  0.79996116  0.45804696  1
  H+  H38  1  0.87186734  0.49211752  0.74773306  1
  H+  H39  1  0.19398776  1.04267070  0.51320192  1
  H+  H40  1  0.49261834  0.20025587  0.74974764  1
  H+  H41  1  0.11576814  0.58436871  0.09780239  1
  H+  H42  1  0.44843135  0.94925196  0.24516378  1
  H+  H43  1  0.30857881  0.13271800  0.75773315  1
  H+  H44  1  0.21770029  0.77103594  0.40652225  1
  H+  H45  1  0.35491965  0.53147448  1.01501372  1
  H+  H46  1  0.46641963  0.85099441  0.00919234  1
  H+  H47  1  0.47262726  0.16412177  0.25877633  1
  H+  H48  1  0.80958340  0.49222904  0.48954525  1
  H+  H49  1  0.08406315  0.19733988  0.76750504  1
  H+  H50  1  0.70421477  0.70038862  0.19716456  1
  H+  H51  1  0.85486439  0.51511799  0.25605069  1
  H+  H52  1  0.97113366  0.81446838  0.76552436  1
  H+  H53  1  0.56319242  0.10388595  0.35479011  1
  H+  H54  1  0.41207699  0.87817350  0.15307284  1
  H+  H55  1  0.18625018  0.98023972  0.26576727  1
  H+  H56  1  0.69242631  0.51242831  0.00919466  1
  H+  H57  1  0.85049889  0.48520880  0.97846055  1
  H+  H58  1  0.21278801  0.71654226  0.50146735  1
  H+  H59  1  0.29928912  0.49112187  0.48791057  1
  H+  H60  1  0.07033065  0.86901534  0.55170534  1
  H+  H61  1  0.81041812  0.63007805  0.99516494  1
  H+  H62  1  0.96565369  0.17796641  0.26883824  1
  H+  H63  1  0.80853507  0.30299243  0.72596864  1
  H+  H64  1  0.84452763  0.38915512  0.25255688  1
  H+  H65  1  0.47961578  0.64486557  0.74069538  1
  H+  H66  1  0.62354376  0.81097267  0.98766803  1
  H+  H67  1  0.44615400  0.24395384  0.82758894  1
  H+  H68  1  0.61888927  0.80955796  0.76835094  1
  H+  H69  1  0.87189102  -0.02632524  0.23465750  1
  H+  H70  1  0.48741716  0.81058408  0.26145334  1
  H+  H71  1  0.97285958  0.49394839  0.98500932  1
  H+  H72  1  0.84349633  0.04406028  0.50706377  1
  H+  H73  1  0.16300941  0.50326379  0.74991650  1
  H+  H74  1  0.78983560  -0.04653120  0.75472906  1
  H+  H75  1  0.16310765  0.82670377  -0.01077389  1
  H+  H76  1  1.02719310  0.19590152  0.52403881  1
  H+  H77  1  0.28237215  0.82840681  0.98199714  1
  H+  H78  1  0.14852777  0.65493917  0.00518963  1
  H+  H79  1  0.47561838  0.52748363  0.02663511  1
  H+  H80  1  0.79814734  -0.04725861  1.01951310  1
  H+  H81  1  0.83229750  0.80587242  -0.01926057  1
  H+  H82  1  0.19330123  0.01116554  0.77085628  1
  H+  H83  1  0.82173739  0.19002984  0.02007120  1
  H+  H84  1  0.13946983  0.17492958  0.24000921  1
  H+  H85  1  0.79155738  0.58975730  0.45003294  1
  H+  H86  1  0.17911356  0.37344610  0.49888697  1
  H+  H87  1  0.49402245  0.36326957  1.03090467  1
  H+  H88  1  0.50049826  0.81209555  0.75752746  1
  H+  H89  1  0.48987774  0.66861110  1.00172584  1
  H+  H90  1  0.47784788  -0.02631058  1.01825538  1
  H+  H91  1  0.49261874  0.19149668  0.50828496  1
  H+  H92  1  0.62657032  0.75712926  0.21396031  1
  H+  H93  1  0.31636607  0.49865750  0.76457482  1
  H+  H94  1  0.54184599  0.39208947  0.74927655  1
  H+  H95  1  0.37169058  0.18600036  0.50809231  1
  H+  H96  1  0.49175466  0.53346841  0.72813759  1
  H+  H97  1  0.81689639  0.21372318  0.25384379  1
  H+  H98  1  0.06780579  0.55239544  0.52236391  1
  H+  H99  1  0.02089433  0.85528950  0.00417029  1
  H+  H100  1  0.18574390  0.50393339  -0.00088615  1
  H+  H101  1  0.03507991  0.84732109  0.20512384  1
  H+  H102  1  1.03316093  0.50145087  0.74491863  1
  H+  H103  1  0.48048142  0.19063166  1.03809647  1
  H+  H104  1  0.62256918  0.48071066  0.50087969  1
  H+  H105  1  0.50330764  0.85527668  0.49593823  1
  H+  H106  1  0.17091868  0.52356387  0.51800405  1
  H+  H107  1  0.82986533  0.87335960  0.53213365  1
  H+  H108  1  0.76511954  0.89466376  0.61148945  1
  H+  H109  1  0.12691812  0.55347785  0.65478549  1
  H+  H110  1  0.17582244  0.41913704  0.34397275  1
  H+  H111  1  0.54411970  0.78098142  0.34709849  1
  H+  H112  1  0.55853267  0.44317660  0.35264399  1
  H+  H113  1  0.77503565  0.23952976  0.15953890  1
  H+  H114  1  0.35782163  0.18333832  0.02483820  1
  H+  H115  1  0.87414933  0.10546968  0.91570644  1
  H+  H116  1  1.03897959  0.56147650  0.25579484  1
  H+  H117  1  0.41878050  0.54687466  0.17695060  1
  H+  H118  1  0.61309237  0.49917169  0.81345580  1
  H+  H119  1  0.81290685  0.56534424  0.62820618  1
  H+  H120  1  0.45016049  0.87048337  0.63334388  1
  H+  H121  1  0.43735729  0.56532785  0.59254346  1
  H+  H122  1  0.50716907  0.42477931  0.93860222  1
  H+  H123  1  0.56813863  0.15067376  0.93885686  1
  H+  H124  1  0.85388044  0.42347880  0.37856488  1
  H+  H125  1  0.89711413  0.15143662  0.36258201  1
  H+  H126  1  0.79644298  0.56946185  0.14350921  1
  H+  H127  1  0.10645380  0.21641689  0.10118882  1
  H+  H128  1  0.89868244  0.44639802  0.84170710  1
  H+  H129  1  0.13881969  0.97454056  0.00208068  1
  H+  H130  1  0.11661894  0.23221508  0.60627820  1
  H+  H131  1  0.87631276  0.77022201  0.89252109  1
  H+  H132  1  0.79986973  0.71138555  0.36374783  1
  H+  H133  1  0.82140986  0.14794616  0.50099429  1
  H+  H134  1  0.43180788  0.21042967  0.17423795  1
  H+  H135  1  0.64201084  0.81888272  0.48943998  1
  H+  H136  1  0.53295445  0.06925637  0.81376920  1
  H+  H137  1  0.21863179  0.90431435  0.20471669  1
  H+  H138  1  0.73698375  0.83707642  0.08470294  1
  H+  H139  1  0.21277583  0.11283181  0.36064943  1
  H+  H140  1  0.22935805  0.11823393  0.90237171  1
  H+  H141  1  0.85487907  0.70904763  0.36098468  1
  H+  H142  1  0.13408117  0.87637912  0.68228548  1
  H+  H143  1  0.22840008  0.46129137  0.91291803  1
  O2-  O144  1  0.09920686  0.21163435  0.21066307  1
  O2-  O145  1  0.15129520  0.23364613  0.72854679  1
  O2-  O146  1  0.11129179  0.61207530  0.22215082  1
  O2-  O147  1  0.11766158  0.54055040  0.72425034  1
  O2-  O148  1  0.16542742  0.89934354  0.25147346  1
  O2-  O149  1  0.11709904  0.86912187  0.74986184  1
  O2-  O150  1  0.43134017  0.20550800  0.24157434  1
  O2-  O151  1  0.45684283  0.24878152  0.76169854  1
  O2-  O152  1  0.39441180  0.54511995  0.23953431  1
  O2-  O153  1  0.44076361  0.56480414  0.71471526  1
  O2-  O154  1  0.40451476  0.87060956  0.22044398  1
  O2-  O155  1  0.44049806  0.86671380  0.70095559  1
  O2-  O156  1  0.76802027  0.24393361  0.22640944  1
  O2-  O157  1  0.75986779  0.22174138  0.70663055  1
  O2-  O158  1  0.81881552  0.59526140  0.20664626  1
  O2-  O159  1  0.80979907  0.56511869  0.69550472  1
  O2-  O160  1  0.67404448  0.74498585  0.16821089  1
  O2-  O161  1  0.75642678  0.87554727  0.72826429  1
  O2-  O162  1  0.21399436  0.11204759  0.29296673  1
  O2-  O163  1  0.22909379  0.09575628  0.78021794  1
  O2-  O164  1  0.17454981  0.41481854  0.27734537  1
  O2-  O165  1  0.23557946  0.45406928  0.78974566  1
  O2-  O166  1  0.19116803  0.68810039  0.29215513  1
  O2-  O167  1  0.15673714  0.78890182  0.77554887  1
  O2-  O168  1  0.55174133  0.09807387  0.28820893  1
  O2-  O169  1  0.53998740  0.10515848  0.75462915  1
  O2-  O170  1  0.58081839  0.43601759  0.29056549  1
  O2-  O171  1  0.58878368  0.47799094  0.75047479  1
  O2-  O172  1  0.52771291  0.76918217  0.28072065  1
  O2-  O173  1  0.53777499  0.77134836  0.79001692  1
  O2-  O174  1  0.89243476  0.16240742  0.29688404  1
  O2-  O175  1  0.84424804  0.09733509  0.78693590  1
  O2-  O176  1  0.88591635  0.46548498  0.28343087  1
  O2-  O177  1  0.90368773  0.44470000  0.77293722  1
  O2-  O178  1  0.95373825  0.81543609  0.18495951  1
  O2-  O179  1  0.88648769  0.77726413  0.77311774  1
  O2-  O180  1  0.22358211  0.11644352  0.48047171  1
  O2-  O181  1  0.23055367  0.12419876  0.96967797  1
  O2-  O182  1  0.21492935  0.45327115  0.47499501  1
  O2-  O183  1  0.22824754  0.46327156  0.98052898  1
  O2-  O184  1  0.23940810  0.79123853  0.47087765  1
  O2-  O185  1  0.20200050  0.78536190  0.96107382  1
  O2-  O186  1  0.58727867  0.12591266  0.48265526  1
  O2-  O187  1  0.56373155  0.13007006  1.00284009  1
  O2-  O188  1  0.54162939  0.44594292  0.48417243  1
  O2-  O189  1  0.52883111  0.44253991  1.00228641  1
  O2-  O190  1  0.56311743  0.78072586  0.46425643  1
  O2-  O191  1  0.53868013  0.76712299  0.96882868  1
  O2-  O192  1  0.88087806  0.12680111  0.49087260  1
  O2-  O193  1  0.87903644  0.10591320  0.98270510  1
  O2-  O194  1  0.83826619  0.39571900  0.44689312  1
  O2-  O195  1  0.89495427  0.44784280  0.95757708  1
  O2-  O196  1  0.92453307  0.81121460  0.52414856  1
  O2-  O197  1  0.87437849  0.76692903  0.96017875  1
  O2-  O198  1  0.10700397  0.21986737  0.03141028  1
  O2-  O199  1  0.11012978  0.23281438  0.53929969  1
  O2-  O200  1  0.11503382  0.57482232  0.03095774  1
  O2-  O201  1  0.14174120  0.57424941  0.54980183  1
  O2-  O202  1  0.10266059  0.89390610  0.02137691  1
  O2-  O203  1  0.15194166  0.90605937  0.56983340  1
  O2-  O204  1  0.43477584  0.22715252  0.05509608  1
  O2-  O205  1  0.45145737  0.22931467  0.53115847  1
  O2-  O206  1  0.43942385  0.57664019  0.03554619  1
  O2-  O207  1  0.43747793  0.56267237  0.52495458  1
  O2-  O208  1  0.42754654  0.89144834  0.03192899  1
  O2-  O209  1  0.46935655  0.90216525  0.51932715  1
  O2-  O210  1  0.78397732  0.23443334  0.03893322  1
  O2-  O211  1  0.70536056  0.18445039  0.51904637  1
  O2-  O212  1  0.77580173  0.54838153  0.01617871  1
  O2-  O213  1  0.78951415  0.55226786  0.50780563  1
  O2-  O214  1  0.75196833  0.86794447  0.02036133  1
  O2-  O215  1  0.77697174  0.90249396  0.54403166  1
