# generated using pymatgen
data_H2O
_symmetry_space_group_name_H-M   'P 1'
_cell_length_a   13.52529969
_cell_length_b   13.51364561
_cell_length_c   14.68918373
_cell_angle_alpha   90.02334551
_cell_angle_beta   89.99228703
_cell_angle_gamma   119.95314826
_symmetry_Int_Tables_number   1
_chemical_formula_structural   H2O
_chemical_formula_sum   'H144 O72'
_cell_volume   2326.22929405
_cell_formula_units_Z   72
loop_
 _symmetry_equiv_pos_site_id
 _symmetry_equiv_pos_as_xyz
  1  'x, y, z'
loop_
 _atom_type_symbol
 _atom_type_oxidation_number
  H+  1.0
  O2-  -2.0
loop_
 _atom_site_type_symbol
 _atom_site_label
 _atom_site_symmetry_multiplicity
 _atom_site_fract_x
 _atom_site_fract_y
 _atom_site_fract_z
 _atom_site_occupancy
  H+  H0  1  0.55189402  0.76875404  0.90564066  1
  H+  H1  1  0.51177231  0.47787185  0.75821368  1
  H+  H2  1  0.18165653  0.49375975  -0.02836941  1
  H+  H3  1  0.15053965  0.52303646  0.50656282  1
  H+  H4  1  0.49532723  0.18367530  0.73761693  1
  H+  H5  1  0.81918083  0.30101639  0.52183166  1
  H+  H6  1  0.75363760  0.52457419  0.47189746  1
  H+  H7  1  0.17400326  0.03694044  0.50723885  1
  H+  H8  1  0.62816938  0.15037950  0.75648818  1
  H+  H9  1  0.35314136  0.18570941  0.52219628  1
  H+  H10  1  0.84392086  0.14666008  0.50414624  1
  H+  H11  1  0.50476343  0.15275303  0.25237482  1
  H+  H12  1  0.65490102  0.49149137  0.26689719  1
  H+  H13  1  0.63389646  0.48338420  0.75186970  1
  H+  H14  1  0.19767454  0.70065192  0.97361667  1
  H+  H15  1  0.42699570  0.83566215  0.49644547  1
  H+  H16  1  0.51061133  0.35657334  0.98600972  1
  H+  H17  1  0.51594153  0.69150946  -0.00482959  1
  H+  H18  1  0.84160799  0.36352542  0.74769115  1
  H+  H19  1  0.70530728  0.84594101  0.00471067  1
  H+  H20  1  0.64291482  0.93617623  0.28996618  1
  H+  H21  1  0.85626137  0.03257309  0.50607075  1
  H+  H22  1  0.13006236  0.27189263  0.24265395  1
  H+  H23  1  0.80281101  0.17325445  0.24289431  1
  H+  H24  1  0.83340955  0.67788239  0.74480979  1
  H+  H25  1  0.83991032  -0.03223508  0.23838782  1
  H+  H26  1  0.69300521  0.83673157  0.74626031  1
  H+  H27  1  0.77186295  0.55268955  0.63583110  1
  H+  H28  1  0.86173221  0.49413521  0.51311403  1
  H+  H29  1  0.84594742  0.84850897  0.51966430  1
  H+  H30  1  0.79206163  0.88694524  0.08772734  1
  H+  H31  1  0.83900915  0.03305106  0.76201258  1
  H+  H32  1  0.49820403  1.03201041  0.23967945  1
  H+  H33  1  0.35747426  0.50755564  0.74853411  1
  H+  H34  1  0.19414431  0.41966319  0.33931259  1
  H+  H35  1  0.09241343  0.87677162  0.66973893  1
  H+  H36  1  0.15509518  0.13382837  0.78097506  1
  H+  H37  1  1.02354444  0.85652869  0.52532384  1
  H+  H38  1  1.02079403  0.17866558  0.51437841  1
  H+  H39  1  0.26910578  0.45668929  0.48154617  1
  H+  H40  1  0.57617134  0.84774204  0.51513593  1
  H+  H41  1  0.14802007  0.35078115  0.48544955  1
  H+  H42  1  0.51620672  1.03241057  0.48286488  1
  H+  H43  1  -0.03163741  0.79598382  0.27428708  1
  H+  H44  1  0.85373576  0.15228951  1.00708558  1
  H+  H45  1  0.16775449  0.70410108  0.49864380  1
  H+  H46  1  0.76682296  0.22252591  0.08961681  1
  H+  H47  1  0.85509592  0.68998274  0.50053403  1
  H+  H48  1  0.47682702  0.96417215  0.74106245  1
  H+  H49  1  0.80227224  0.29425988  -0.00337455  1
  H+  H50  1  0.72467243  0.85486440  0.23085841  1
  H+  H51  1  0.87170937  0.69925850  1.01075580  1
  H+  H52  1  0.42229884  0.58722846  0.51564527  1
  H+  H53  1  0.95408701  0.13802299  0.26617685  1
  H+  H54  1  0.28012911  0.81148411  0.75683256  1
  H+  H55  1  0.09878340  0.60177902  0.18104040  1
  H+  H56  1  0.48813956  0.17296956  0.99953771  1
  H+  H57  1  0.32979291  0.85790393  0.51974706  1
  H+  H58  1  0.28961328  0.12815083  0.27144992  1
  H+  H59  1  0.36023229  0.51684152  0.00990321  1
  H+  H60  1  0.68686695  0.50526345  0.01014353  1
  H+  H61  1  0.62505380  0.13441940  0.98057856  1
  H+  H62  1  0.70301245  0.17974884  0.50713651  1
  H+  H63  1  0.11949465  0.87815618  0.05971472  1
  H+  H64  1  0.56051653  0.10185466  0.38963915  1
  H+  H65  1  0.82424535  0.62905536  0.24465438  1
  H+  H66  1  0.47325404  0.50584896  1.00898505  1
  H+  H67  1  0.45806138  0.55294293  0.15030583  1
  H+  H68  1  0.31874668  0.84160464  0.26608491  1
  H+  H69  1  0.12896612  0.82624006  0.75740590  1
  H+  H70  1  0.14291701  0.18538081  0.51354853  1
  H+  H71  1  0.14951072  0.01468246  0.78970684  1
  H+  H72  1  0.95046831  0.44842351  0.28314382  1
  H+  H73  1  0.96241312  0.48301198  0.74879132  1
  H+  H74  1  0.82821469  0.34132262  0.27065527  1
  H+  H75  1  0.62024722  0.49542807  0.50344897  1
  H+  H76  1  0.45844347  0.49111390  0.50798251  1
  H+  H77  1  0.48094912  0.84379059  0.00834032  1
  H+  H78  1  0.83633109  0.80401688  0.75816587  1
  H+  H79  1  0.52862734  0.64938876  0.22051899  1
  H+  H80  1  0.03410756  0.52301528  0.51679981  1
  H+  H81  1  0.81136768  0.51363975  0.72640771  1
  H+  H82  1  0.13412554  0.94461237  0.25302896  1
  H+  H83  1  0.10109275  0.20034044  0.15392904  1
  H+  H84  1  0.18315539  0.48818803  0.75602693  1
  H+  H85  1  0.38923391  0.26239039  0.18934054  1
  H+  H86  1  0.81927900  0.50745476  0.24561222  1
  H+  H87  1  0.80515864  0.17925522  0.74417375  1
  H+  H88  1  0.14757151  0.83570601  0.25649977  1
  H+  H89  1  0.21781104  0.71691509  0.27807730  1
  H+  H90  1  0.47342808  0.30250146  0.51553160  1
  H+  H91  1  0.14461869  0.63636438  0.74653777  1
  H+  H92  1  0.49801139  0.31206909  0.73802881  1
  H+  H93  1  1.00171014  0.49706101  0.98137745  1
  H+  H94  1  0.57199435  0.73349137  0.48864265  1
  H+  H95  1  0.14090619  0.85975508  0.52755763  1
  H+  H96  1  0.17312350  0.13212408  0.26315608  1
  H+  H97  1  0.28021779  0.13583104  0.01199894  1
  H+  H98  1  0.18129006  0.46377155  0.24291550  1
  H+  H99  1  1.04741353  0.21053563  1.01794591  1
  H+  H100  1  0.50933087  0.81107198  0.76017237  1
  H+  H101  1  0.16650717  0.21176204  0.01432220  1
  H+  H102  1  0.35462847  0.83362686  0.99022826  1
  H+  H103  1  0.18785148  0.37922661  0.98612417  1
  H+  H104  1  0.68450999  0.17495191  0.23674393  1
  H+  H105  1  0.73723630  0.86230859  0.51002160  1
  H+  H106  1  0.50787604  0.69134116  0.75997245  1
  H+  H107  1  0.85479471  0.80312281  0.26461034  1
  H+  H108  1  0.87845043  0.10507244  0.35731435  1
  H+  H109  1  0.83013921  0.47182167  0.97647782  1
  H+  H110  1  0.50007336  0.32747198  0.24797075  1
  H+  H111  1  0.14198297  0.30012823  0.74496655  1
  H+  H112  1  0.21253645  0.85844751  1.01453983  1
  H+  H113  1  0.20052336  0.10759092  0.92600639  1
  H+  H114  1  0.53980677  0.49943699  0.26334856  1
  H+  H115  1  0.21368166  0.10709399  0.41361748  1
  H+  H116  1  0.55002680  0.44056904  0.90044893  1
  H+  H117  1  0.21344812  0.79136460  0.41380369  1
  H+  H118  1  0.87995276  0.81779465  1.00531075  1
  H+  H119  1  0.95372960  0.15261707  0.75801779  1
  H+  H120  1  0.50471954  0.01525880  0.98045428  1
  H+  H121  1  0.48222704  0.86703485  0.21929404  1
  H+  H122  1  0.86510901  0.04032269  1.00696743  1
  H+  H123  1  0.89314761  0.77251096  0.41072556  1
  H+  H124  1  0.76470641  0.21736307  0.65503628  1
  H+  H125  1  0.06559285  0.48835186  0.06670419  1
  H+  H126  1  0.54373161  0.10663496  0.84351587  1
  H+  H127  1  0.96713823  0.80306288  0.75767257  1
  H+  H128  1  0.44945022  0.22836222  0.63976732  1
  H+  H129  1  0.11459605  0.56250459  0.65449907  1
  H+  H130  1  0.56216212  0.45598851  0.40358235  1
  H+  H131  1  0.57984267  0.82230095  0.34256311  1
  H+  H132  1  0.78094765  0.87925234  0.66112255  1
  H+  H133  1  0.10169438  0.22096578  0.65743170  1
  H+  H134  1  0.43342161  0.88465089  0.65387735  1
  H+  H135  1  0.86867282  0.43690739  0.88229288  1
  H+  H136  1  0.21841475  0.63211502  0.14715769  1
  H+  H137  1  0.43088755  0.53511126  0.65895040  1
  H+  H138  1  0.22342212  0.44907066  0.84504875  1
  H+  H139  1  0.42980760  0.89118035  0.12824837  1
  H+  H140  1  0.47074273  0.22593106  0.09073282  1
  H+  H141  1  0.22188895  0.77345878  0.85875951  1
  H+  H142  1  0.76997274  0.53766704  0.09675626  1
  H+  H143  1  0.88473895  0.43930316  0.42422723  1
  O2-  O144  1  0.09276681  0.19010101  0.22140971  1
  O2-  O145  1  0.09790745  0.21884735  0.72511118  1
  O2-  O146  1  0.16571599  0.59638271  0.19797565  1
  O2-  O147  1  0.10779657  0.55531774  0.72202285  1
  O2-  O148  1  0.09284978  0.86149548  0.24174925  1
  O2-  O149  1  0.08132356  0.86274812  0.73696320  1
  O2-  O150  1  0.44668980  0.25014992  0.21920964  1
  O2-  O151  1  0.45952492  0.23061867  0.71245063  1
  O2-  O152  1  0.47996735  0.56701234  0.21632006  1
  O2-  O153  1  0.43945261  0.54521033  0.72582186  1
  O2-  O154  1  0.43437179  0.89878840  0.19875411  1
  O2-  O155  1  0.43885804  0.88280968  0.72103929  1
  O2-  O156  1  0.76712147  0.21744876  0.21930153  1
  O2-  O157  1  0.76362095  0.22094461  0.72308096  1
  O2-  O158  1  0.78159194  0.54815538  0.22005811  1
  O2-  O159  1  0.76934985  0.55342683  0.70518011  1
  O2-  O160  1  0.80536443  0.88871939  0.21327387  1
  O2-  O161  1  0.77558148  0.87360987  0.72884953  1
  O2-  O162  1  0.21103957  0.09323031  0.29399701  1
  O2-  O163  1  0.19119588  0.09426204  0.81090274  1
  O2-  O164  1  0.19685139  0.40832069  0.27268043  1
  O2-  O165  1  0.22318909  0.44647151  0.77642320  1
  O2-  O166  1  0.24635224  0.79480692  0.30161524  1
  O2-  O167  1  0.20329506  0.77008758  0.78424535  1
  O2-  O168  1  0.54267482  0.10945214  0.26921713  1
  O2-  O169  1  0.54485734  0.11143212  0.77475020  1
  O2-  O170  1  0.57440568  0.45551203  0.29211174  1
  O2-  O171  1  0.55457526  0.43803459  0.77709565  1
  O2-  O172  1  0.59586371  0.85384242  0.28030553  1
  O2-  O173  1  0.55132942  0.77194956  0.78172945  1
  O2-  O174  1  0.87351826  0.10102163  0.28920988  1
  O2-  O175  1  0.87136592  0.11491251  0.77466445  1
  O2-  O176  1  0.87094356  0.42078109  0.29868054  1
  O2-  O177  1  0.87987864  0.44606579  0.76655010  1
  O2-  O178  1  0.88426227  0.75640314  0.29371712  1
  O2-  O179  1  0.87570145  0.75792970  0.77376414  1
  O2-  O180  1  0.21631345  0.11611267  0.48122605  1
  O2-  O181  1  0.20597399  0.12431862  0.99269599  1
  O2-  O182  1  0.19104550  0.43038918  0.45891861  1
  O2-  O183  1  0.22988018  0.45917208  0.95775820  1
  O2-  O184  1  0.20150739  0.78685855  0.48120957  1
  O2-  O185  1  0.24671185  0.77661568  0.94846554  1
  O2-  O186  1  0.58086232  0.09864055  0.45383532  1
  O2-  O187  1  0.54511998  0.09633545  0.95663986  1
  O2-  O188  1  0.54657901  0.45051805  0.47172166  1
  O2-  O189  1  0.54623715  0.43923381  0.96799216  1
  O2-  O190  1  0.58889326  0.80775255  0.46496627  1
  O2-  O191  1  0.55692327  0.77226161  0.97318784  1
  O2-  O192  1  0.88479143  0.10858392  0.47676658  1
  O2-  O193  1  0.90834624  0.12459889  1.01338446  1
  O2-  O194  1  0.89550511  0.44521911  0.49113389  1
  O2-  O195  1  0.86929318  0.43143823  0.95036371  1
  O2-  O196  1  0.89512916  0.77540523  0.47900314  1
  O2-  O197  1  0.92710998  0.78144338  1.01161031  1
  O2-  O198  1  0.13001859  0.25825232  0.03575490  1
  O2-  O199  1  0.10179562  0.22508409  0.53578553  1
  O2-  O200  1  0.08049073  0.53026338  0.00984493  1
  O2-  O201  1  0.11741286  0.56822599  0.53335556  1
  O2-  O202  1  0.20179092  0.90683009  0.06065104  1
  O2-  O203  1  0.10214481  0.90021398  0.55284348  1
  O2-  O204  1  0.45705453  0.22119908  0.02487227  1
  O2-  O205  1  0.43414402  0.22628257  0.54444523  1
  O2-  O206  1  0.43929624  0.55030145  0.03565354  1
  O2-  O207  1  0.40468901  0.51272797  0.53855949  1
  O2-  O208  1  0.43696748  0.88238059  0.02394888  1
  O2-  O209  1  0.41408283  0.88826719  0.53299940  1
  O2-  O210  1  0.76232677  0.21529289  0.02254479  1
  O2-  O211  1  0.77856605  0.21867181  0.53960965  1
  O2-  O212  1  0.76788808  0.53647481  0.02921308  1
  O2-  O213  1  0.79304922  0.56463441  0.52708565  1
  O2-  O214  1  0.78792520  0.88862011  0.02056123  1
  O2-  O215  1  0.80874644  0.89347941  0.54433272  1
