# generated using pymatgen
data_H2O
_symmetry_space_group_name_H-M   'P 1'
_cell_length_a   13.51001555
_cell_length_b   13.53500966
_cell_length_c   14.67111478
_cell_angle_alpha   90.08387772
_cell_angle_beta   89.98527268
_cell_angle_gamma   119.93997258
_symmetry_Int_Tables_number   1
_chemical_formula_structural   H2O
_chemical_formula_sum   'H144 O72'
_cell_volume   2324.71657390
_cell_formula_units_Z   72
loop_
 _symmetry_equiv_pos_site_id
 _symmetry_equiv_pos_as_xyz
  1  'x, y, z'
loop_
 _atom_type_symbol
 _atom_type_oxidation_number
  H+  1.0
  O2-  -2.0
loop_
 _atom_site_type_symbol
 _atom_site_label
 _atom_site_symmetry_multiplicity
 _atom_site_fract_x
 _atom_site_fract_y
 _atom_site_fract_z
 _atom_site_occupancy
  H+  H0  1  0.16998598  0.36650630  0.76139995  1
  H+  H1  1  0.51274972  0.36407509  0.98836554  1
  H+  H2  1  0.14599109  0.62958017  0.25245025  1
  H+  H3  1  0.29434076  0.47827989  0.25497177  1
  H+  H4  1  0.75417335  0.50115189  0.66040782  1
  H+  H5  1  0.17103623  0.79958273  0.99383791  1
  H+  H6  1  0.55989955  0.48067934  0.52450435  1
  H+  H7  1  0.03467232  0.50532618  0.25957591  1
  H+  H8  1  0.30208437  0.14348190  0.25956884  1
  H+  H9  1  0.57392840  0.40243848  0.40361336  1
  H+  H10  1  0.69987776  0.22403129  0.95440385  1
  H+  H11  1  0.50972979  0.68064103  0.25886625  1
  H+  H12  1  0.77141765  0.46054598  0.75274720  1
  H+  H13  1  0.66830343  0.17260692  0.51434329  1
  H+  H14  1  0.47370184  0.50648315  -0.00348301  1
  H+  H15  1  0.68632573  0.24850994  -0.00452620  1
  H+  H16  1  0.17218772  0.48848255  -0.00555497  1
  H+  H17  1  0.81963544  0.95013486  0.26126929  1
  H+  H18  1  0.28740369  0.48268448  0.98536151  1
  H+  H19  1  0.13444071  0.50970655  0.73020371  1
  H+  H20  1  0.80831198  0.63333008  -0.01241779  1
  H+  H21  1  0.17789088  0.48009413  0.26334426  1
  H+  H22  1  0.15060424  0.29538000  0.25703623  1
  H+  H23  1  0.88916236  0.10724661  0.67072490  1
  H+  H24  1  0.19063514  0.19724091  0.00144219  1
  H+  H25  1  0.46908036  0.82070137  0.24808230  1
  H+  H26  1  0.54136113  0.34186556  0.60926026  1
  H+  H27  1  0.02666778  0.20075888  0.51995142  1
  H+  H28  1  0.48396134  0.28415853  0.25384368  1
  H+  H29  1  0.02308571  0.51447200  0.02133108  1
  H+  H30  1  0.74881760  0.19766397  0.60244344  1
  H+  H31  1  0.97320029  0.83575769  0.75839528  1
  H+  H32  1  0.17867167  0.03046744  0.77103654  1
  H+  H33  1  0.60504562  1.05662857  0.09615530  1
  H+  H34  1  0.62675304  0.80910138  0.76107068  1
  H+  H35  1  0.88412324  0.75598037  0.51235875  1
  H+  H36  1  0.46454775  0.49377085  0.21033037  1
  H+  H37  1  0.13070123  0.30464409  1.02467183  1
  H+  H38  1  0.85522596  0.35846309  0.77052164  1
  H+  H39  1  0.42012201  0.23237781  0.62220256  1
  H+  H40  1  0.82823421  0.14343454  0.49300735  1
  H+  H41  1  0.84083735  0.03537410  0.49709635  1
  H+  H42  1  0.81662544  0.03671134  0.96286269  1
  H+  H43  1  0.62123764  0.03929808  1.05230676  1
  H+  H44  1  0.47832980  1.02905028  0.48283853  1
  H+  H45  1  0.10249452  0.55169615  0.11221800  1
  H+  H46  1  0.15193789  0.96287374  0.25299774  1
  H+  H47  1  0.36788304  0.49501970  0.51075921  1
  H+  H48  1  0.88899883  0.33432343  0.02161143  1
  H+  H49  1  0.47058615  0.62057045  0.74779203  1
  H+  H50  1  0.34025225  0.51007410  0.74548534  1
  H+  H51  1  0.03564220  0.84608776  0.02083033  1
  H+  H52  1  0.53196871  0.10566866  0.71272910  1
  H+  H53  1  0.87529519  0.20500421  0.00333245  1
  H+  H54  1  0.03225264  0.84565060  0.25385535  1
  H+  H55  1  0.50578701  0.78502143  0.49944735  1
  H+  H56  1  0.86906817  0.47702200  0.52032077  1
  H+  H57  1  0.80617425  0.97493197  0.74192666  1
  H+  H58  1  0.32931944  0.81318858  0.75212433  1
  H+  H59  1  0.44778406  0.92464877  0.77142707  1
  H+  H60  1  0.33237051  0.80647671  1.00895832  1
  H+  H61  1  0.51047193  0.66873290  0.49805113  1
  H+  H62  1  0.84489878  0.47895955  0.99522168  1
  H+  H63  1  0.02142008  0.18599850  0.74264978  1
  H+  H64  1  0.96102272  0.48428072  0.76702144  1
  H+  H65  1  0.55275739  0.22770875  0.72259570  1
  H+  H66  1  0.52808702  0.45384782  0.33295821  1
  H+  H67  1  0.71835543  0.20180176  0.74538452  1
  H+  H68  1  0.88033579  0.59752611  0.51468445  1
  H+  H69  1  0.06880106  0.90415770  0.51725692  1
  H+  H70  1  0.86506429  0.30357533  0.24679410  1
  H+  H71  1  0.14268670  0.18859561  0.75146815  1
  H+  H72  1  0.70020205  0.83293593  0.26027520  1
  H+  H73  1  0.81968005  0.86844329  0.51506979  1
  H+  H74  1  0.48735422  0.35899335  0.74101691  1
  H+  H75  1  0.29232856  0.14932366  0.76681705  1
  H+  H76  1  0.48952181  0.12049412  0.25254362  1
  H+  H77  1  0.14654190  0.84756038  0.74869045  1
  H+  H78  1  0.50281946  0.79561967  0.99065127  1
  H+  H79  1  0.29041921  0.80082761  0.26732288  1
  H+  H80  1  0.67869998  0.47592864  0.52188007  1
  H+  H81  1  0.44679588  0.92314938  0.02074219  1
  H+  H82  1  0.63127810  0.48212300  -0.02887581  1
  H+  H83  1  0.70390459  0.48507778  0.29525797  1
  H+  H84  1  0.45264903  0.46212974  0.76610545  1
  H+  H85  1  0.97499646  0.13597690  0.27301826  1
  H+  H86  1  0.85239161  0.83437027  0.75565882  1
  H+  H87  1  0.08160876  0.53866437  0.64260944  1
  H+  H88  1  0.50015350  0.79423371  0.76444353  1
  H+  H89  1  0.15638142  0.17935197  0.25714980  1
  H+  H90  1  0.83066656  0.18322975  0.73315196  1
  H+  H91  1  0.18055811  0.36667130  0.49829812  1
  H+  H92  1  0.86775482  0.46180460  0.31214882  1
  H+  H93  1  0.85483009  0.69144181  0.28864051  1
  H+  H94  1  0.76122139  0.88616060  0.66007773  1
  H+  H95  1  0.15720423  0.68028788  0.75434232  1
  H+  H96  1  0.82647027  0.88080884  1.00108066  1
  H+  H97  1  0.54142310  0.09369100  0.95362838  1
  H+  H98  1  0.70139841  0.86116465  1.00298983  1
  H+  H99  1  0.12423693  0.90363097  0.66070403  1
  H+  H100  1  0.47945740  0.62795746  -0.00132200  1
  H+  H101  1  0.75523389  0.72921661  -0.06823537  1
  H+  H102  1  0.46219156  0.19175711  0.00431708  1
  H+  H103  1  0.30861527  0.83407193  0.49058605  1
  H+  H104  1  0.41436484  0.14159502  0.45826930  1
  H+  H105  1  0.16478021  0.67811562  0.99471663  1
  H+  H106  1  0.17537923  0.80911902  0.26665849  1
  H+  H107  1  0.84633936  0.80748949  0.27800829  1
  H+  H108  1  0.11623630  0.48604056  0.50024537  1
  H+  H109  1  0.90787798  0.80395574  0.41085795  1
  H+  H110  1  0.50112092  0.12439395  0.86527661  1
  H+  H111  1  0.24777112  0.06470512  0.54775078  1
  H+  H112  1  0.22357899  0.79260201  0.40632356  1
  H+  H113  1  0.86379312  0.12012388  0.87642440  1
  H+  H114  1  0.54195143  0.74907978  0.35378272  1
  H+  H115  1  0.23124401  0.15397550  0.91164631  1
  H+  H116  1  0.55679669  0.95723432  0.55791650  1
  H+  H117  1  0.86751476  0.76921430  0.87441592  1
  H+  H118  1  0.10618311  0.23956109  0.60828836  1
  H+  H119  1  0.20592809  0.45046966  0.84768255  1
  H+  H120  1  0.44915522  0.87924970  0.61828802  1
  H+  H121  1  0.10754854  0.22705247  0.11295980  1
  H+  H122  1  0.10999399  0.87422611  0.11030217  1
  H+  H123  1  0.48717460  1.00102364  0.25957769  1
  H+  H124  1  0.17525006  0.88163367  0.51576475  1
  H+  H125  1  0.88937846  0.10552637  0.35783056  1
  H+  H126  1  0.55010905  0.76581726  0.90017220  1
  H+  H127  1  0.76499246  0.57584004  0.08306245  1
  H+  H128  1  0.87199217  0.25425720  0.11997685  1
  H+  H129  1  0.78039404  0.50112787  0.20947802  1
  H+  H130  1  0.43199021  0.54855836  0.13065933  1
  H+  H131  1  0.51153752  0.41587189  0.85148507  1
  H+  H132  1  0.36279606  0.22156785  0.01463538  1
  H+  H133  1  0.85323609  0.17943214  0.23944966  1
  H+  H134  1  0.44501259  0.23118200  0.15210494  1
  H+  H135  1  0.22475487  0.44305692  0.40712497  1
  H+  H136  1  0.51882451  0.09225099  0.38633140  1
  H+  H137  1  0.89088940  0.44337837  0.90533840  1
  H+  H138  1  0.25133612  0.11550032  0.35738838  1
  H+  H139  1  0.93342411  0.42586341  0.38548635  1
  H+  H140  1  0.68927233  0.83929735  0.51316822  1
  H+  H141  1  0.19662787  0.75098676  0.85006112  1
  H+  H142  1  0.41968187  0.84652121  0.15734915  1
  H+  H143  1  0.43761837  0.53321955  0.60283319  1
  O2-  O144  1  0.11163318  0.21476212  0.23493774  1
  O2-  O145  1  0.10744486  0.23340031  0.73017537  1
  O2-  O146  1  0.10994636  0.55005678  0.22697439  1
  O2-  O147  1  0.09258842  0.54949731  0.70987794  1
  O2-  O148  1  0.11141074  0.88317035  0.22871436  1
  O2-  O149  1  0.11634283  0.89789474  0.72867006  1
  O2-  O150  1  0.43724673  0.21329831  0.21914815  1
  O2-  O151  1  0.49059210  0.28683044  0.65664599  1
  O2-  O152  1  0.43419929  0.54457995  0.19985311  1
  O2-  O153  1  0.42320511  0.53951308  0.72633855  1
  O2-  O154  1  0.42411008  0.85590969  0.22467757  1
  O2-  O155  1  0.41462465  0.85534685  0.73471339  1
  O2-  O156  1  0.83538530  0.23483527  0.20709353  1
  O2-  O157  1  0.79554020  0.23633594  0.71940433  1
  O2-  O158  1  0.78417506  0.52864448  0.27147317  1
  O2-  O159  1  0.71401900  0.47011265  0.71805435  1
  O2-  O160  1  0.78233073  0.86754498  0.24560126  1
  O2-  O161  1  0.76185116  0.88853861  0.72806655  1
  O2-  O162  1  0.22715280  0.10451963  0.29275085  1
  O2-  O163  1  0.21517081  0.11248084  0.79129666  1
  O2-  O164  1  0.21871198  0.43944669  0.28495434  1
  O2-  O165  1  0.20961635  0.45018253  0.77925297  1
  O2-  O166  1  0.21063256  0.76501776  0.29202670  1
  O2-  O167  1  0.20116372  0.75899895  0.78189987  1
  O2-  O168  1  0.52550793  0.08067189  0.28255725  1
  O2-  O169  1  0.56387801  0.16909571  0.75567060  1
  O2-  O170  1  0.56624537  0.40887094  0.33534823  1
  O2-  O171  1  0.46469264  0.39525221  0.79223316  1
  O2-  O172  1  0.54600137  0.75797062  0.28610961  1
  O2-  O173  1  0.54571766  0.75861925  0.78380128  1
  O2-  O174  1  0.89204931  0.09649619  0.29017509  1
  O2-  O175  1  0.88416735  0.11105667  0.73697937  1
  O2-  O176  1  0.91571632  0.42603984  0.31729274  1
  O2-  O177  1  0.88639424  0.43717813  0.79840789  1
  O2-  O178  1  0.89501815  0.77367094  0.30266427  1
  O2-  O179  1  0.89136815  0.79234260  0.77649815  1
  O2-  O180  1  0.31069527  0.14707888  0.54984751  1
  O2-  O181  1  0.25375043  0.18723300  0.97303366  1
  O2-  O182  1  0.22702044  0.44835362  0.47479615  1
  O2-  O183  1  0.20680121  0.44646168  0.96444725  1
  O2-  O184  1  0.23080277  0.81190140  0.47279711  1
  O2-  O185  1  0.20678683  0.75641065  0.96619873  1
  O2-  O186  1  0.50984751  0.10440722  0.45469872  1
  O2-  O187  1  0.47376851  0.09016814  0.92662808  1
  O2-  O188  1  0.59385183  0.43139184  0.51419790  1
  O2-  O189  1  0.54913855  0.44059449  0.95401186  1
  O2-  O190  1  0.54732912  0.74874882  0.47332747  1
  O2-  O191  1  0.55160363  0.76432420  0.96852645  1
  O2-  O192  1  0.88045421  0.11494289  0.47386035  1
  O2-  O193  1  0.82863639  0.11075035  0.93649449  1
  O2-  O194  1  0.95013023  0.42748946  0.49453112  1
  O2-  O195  1  0.89207180  0.44583678  0.97513931  1
  O2-  O196  1  0.91695068  0.82680762  0.47790825  1
  O2-  O197  1  0.83491350  0.75049866  0.94147566  1
  O2-  O198  1  0.10183033  0.22560590  0.04556668  1
  O2-  O199  1  0.10705847  0.24220409  0.54062140  1
  O2-  O200  1  0.10395500  0.55313729  0.04365202  1
  O2-  O201  1  0.06617169  0.51731694  0.51998268  1
  O2-  O202  1  0.11222598  0.86878316  0.04254093  1
  O2-  O203  1  0.14349666  0.92765025  0.54615997  1
  O2-  O204  1  0.44618726  0.24626942  0.03741523  1
  O2-  O205  1  0.35418691  0.16655166  0.45616731  1
  O2-  O206  1  0.43385172  0.54652315  0.02026371  1
  O2-  O207  1  0.44797642  0.53129924  0.53602462  1
  O2-  O208  1  0.41290844  0.84237994  0.03540636  1
  O2-  O209  1  0.47695963  0.89553424  0.55392608  1
  O2-  O210  1  0.90310780  0.27407453  0.04894720  1
  O2-  O211  1  0.71632312  0.14897115  0.54723357  1
  O2-  O212  1  0.77241513  0.55671926  0.02036582  1
  O2-  O213  1  0.82418355  0.51975108  0.53074361  1
  O2-  O214  1  0.78208768  0.91791850  0.01616464  1
  O2-  O215  1  0.76594044  0.89205786  0.53965756  1
