# generated using pymatgen
data_H2O
_symmetry_space_group_name_H-M   'P 1'
_cell_length_a   13.51310359
_cell_length_b   13.51904139
_cell_length_c   14.67902296
_cell_angle_alpha   90.07649616
_cell_angle_beta   89.99259657
_cell_angle_gamma   119.96100306
_symmetry_Int_Tables_number   1
_chemical_formula_structural   H2O
_chemical_formula_sum   'H144 O72'
_cell_volume   2323.26548337
_cell_formula_units_Z   72
loop_
 _symmetry_equiv_pos_site_id
 _symmetry_equiv_pos_as_xyz
  1  'x, y, z'
loop_
 _atom_type_symbol
 _atom_type_oxidation_number
  H+  1.0
  O2-  -2.0
loop_
 _atom_site_type_symbol
 _atom_site_label
 _atom_site_symmetry_multiplicity
 _atom_site_fract_x
 _atom_site_fract_y
 _atom_site_fract_z
 _atom_site_occupancy
  H+  H0  1  0.71259222  0.52189996  0.24221121  1
  H+  H1  1  0.52484822  0.70861726  0.27140805  1
  H+  H2  1  0.88616780  0.12168578  0.42724915  1
  H+  H3  1  0.44678659  0.22818150  0.59768568  1
  H+  H4  1  0.51333505  0.36819310  0.27443149  1
  H+  H5  1  0.84021139  0.46744921  0.74942164  1
  H+  H6  1  0.48510797  0.30910395  0.75357487  1
  H+  H7  1  0.84997792  0.82527469  -0.00680522  1
  H+  H8  1  0.48064215  0.62064456  0.74532915  1
  H+  H9  1  0.19000629  0.15048574  0.75851116  1
  H+  H10  1  0.20580426  0.48712312  0.18264419  1
  H+  H11  1  0.42325741  0.87245694  0.66466628  1
  H+  H12  1  0.09229305  0.64618210  0.38334665  1
  H+  H13  1  0.47295428  0.62183958  0.52465871  1
  H+  H14  1  0.02556525  0.86555454  0.02009953  1
  H+  H15  1  0.83469536  0.31564017  0.24283800  1
  H+  H16  1  0.30531544  0.14638007  0.49282172  1
  H+  H17  1  0.35638051  0.17534111  0.74553113  1
  H+  H18  1  0.80104444  0.62719156  0.50499090  1
  H+  H19  1  0.13737240  0.31194896  0.23883181  1
  H+  H20  1  0.85117292  1.04415510  0.27957383  1
  H+  H21  1  0.55303075  0.77066836  0.60838682  1
  H+  H22  1  0.16797891  0.47417106  0.51927987  1
  H+  H23  1  0.28140722  0.50652676  -0.00999719  1
  H+  H24  1  0.50581281  0.46862433  0.76498758  1
  H+  H25  1  0.15512930  0.48613040  0.99759897  1
  H+  H26  1  0.64745987  0.48485527  0.49373619  1
  H+  H27  1  0.13158202  0.84750880  1.02265032  1
  H+  H28  1  0.64597727  0.49195342  0.99084638  1
  H+  H29  1  0.72156113  0.18571072  0.01431203  1
  H+  H30  1  0.70378621  0.85139701  1.01637721  1
  H+  H31  1  0.63552627  0.81053779  0.76246603  1
  H+  H32  1  0.15017548  0.17781434  0.51612016  1
  H+  H33  1  0.29535727  0.47184382  0.50822948  1
  H+  H34  1  0.63342493  0.15551743  0.72053832  1
  H+  H35  1  0.56299173  0.05063476  0.96254984  1
  H+  H36  1  0.02899513  0.84612220  0.74403665  1
  H+  H37  1  0.51938748  0.35528179  0.49011189  1
  H+  H38  1  0.48180878  0.20370267  0.05877780  1
  H+  H39  1  0.82000439  0.18097880  0.55989538  1
  H+  H40  1  0.48278802  0.19755450  0.25649304  1
  H+  H41  1  0.71392244  0.86424952  0.24534192  1
  H+  H42  1  0.13423135  0.60137201  0.51256170  1
  H+  H43  1  0.47959936  0.96617537  0.73954718  1
  H+  H44  1  0.97077394  0.82302891  0.26007677  1
  H+  H45  1  0.85459129  0.03616360  0.51093851  1
  H+  H46  1  0.83967909  0.35396907  0.99047007  1
  H+  H47  1  0.84503686  0.14030735  0.74703547  1
  H+  H48  1  0.55984273  0.44074660  0.39173317  1
  H+  H49  1  -0.04865653  0.47393922  0.52308205  1
  H+  H50  1  0.51116536  0.88065170  0.23999374  1
  H+  H51  1  0.95609331  0.46441477  0.75349500  1
  H+  H52  1  0.17163597  0.34581419  0.51151660  1
  H+  H53  1  0.52089677  0.49211223  0.27944579  1
  H+  H54  1  0.52454285  0.37468866  -0.00034916  1
  H+  H55  1  0.49372129  0.50733285  0.02526649  1
  H+  H56  1  0.50611254  0.81299598  0.53054802  1
  H+  H57  1  0.85328982  0.70812452  0.99190811  1
  H+  H58  1  0.17086925  0.87109782  0.23967923  1
  H+  H59  1  0.84365949  0.81229777  0.49051273  1
  H+  H60  1  0.24461030  0.77166832  1.00971446  1
  H+  H61  1  0.83378586  0.36124704  0.53561344  1
  H+  H62  1  0.36387485  0.85689284  0.51161100  1
  H+  H63  1  0.29039173  0.80901836  0.78050623  1
  H+  H64  1  0.33304227  0.85926441  0.24727620  1
  H+  H65  1  0.42544748  0.89582898  -0.00156897  1
  H+  H66  1  0.69762715  0.51236505  0.74488215  1
  H+  H67  1  0.70685894  0.85280923  0.52441288  1
  H+  H68  1  0.17179326  0.80603585  0.76992580  1
  H+  H69  1  0.55539676  0.16333057  0.95381033  1
  H+  H70  1  0.02985426  0.17781625  0.52151171  1
  H+  H71  1  0.13465237  0.30154738  0.00951013  1
  H+  H72  1  0.02579119  0.19275704  0.24793302  1
  H+  H73  1  0.78425428  0.56077071  0.09482192  1
  H+  H74  1  0.85254043  0.69670870  0.76375651  1
  H+  H75  1  0.81611349  0.51663500  0.00396940  1
  H+  H76  1  0.97145819  0.15069590  0.99447708  1
  H+  H77  1  0.87305949  0.76992850  0.39618743  1
  H+  H78  1  0.49099914  0.18320224  0.73918918  1
  H+  H79  1  0.30286972  0.15325670  0.26942685  1
  H+  H80  1  0.14270238  0.62299207  0.75382566  1
  H+  H81  1  0.37401661  0.53062780  0.25804607  1
  H+  H82  1  0.48239075  0.97346480  0.51743782  1
  H+  H83  1  0.49184790  0.18419235  0.51423010  1
  H+  H84  1  -0.03819147  0.14030210  0.76145534  1
  H+  H85  1  0.81983605  0.97339038  0.01376257  1
  H+  H86  1  0.81325116  0.95953343  0.74568177  1
  H+  H87  1  0.18575823  1.02665239  0.48896275  1
  H+  H88  1  0.82415552  0.64424811  0.23724897  1
  H+  H89  1  0.81197227  0.29001484  0.70357267  1
  H+  H90  1  0.53318429  0.06424991  0.26544790  1
  H+  H91  1  0.11432841  0.88651211  0.40658377  1
  H+  H92  1  0.29417273  0.47154324  0.76528237  1
  H+  H93  1  0.14518130  0.50485910  0.75009617  1
  H+  H94  1  0.81681448  0.84204947  0.74710563  1
  H+  H95  1  0.14616218  0.28893592  0.75235715  1
  H+  H96  1  0.52563089  0.86848715  0.00117195  1
  H+  H97  1  0.12523304  0.74979247  0.45143995  1
  H+  H98  1  0.15928258  0.49848565  0.27490059  1
  H+  H99  1  0.36476703  0.18906795  0.02148330  1
  H+  H100  1  0.87926034  0.50701678  0.25686000  1
  H+  H101  1  0.20135534  0.03220329  0.99287084  1
  H+  H102  1  0.09881723  0.22672026  0.09979515  1
  H+  H103  1  0.10463979  0.61096907  1.02953082  1
  H+  H104  1  0.51558769  0.81114227  0.76667274  1
  H+  H105  1  0.63855529  0.15202281  0.50873346  1
  H+  H106  1  0.51460318  0.69435264  0.99620904  1
  H+  H107  1  0.85508292  0.82835546  0.25622716  1
  H+  H108  1  0.37108163  0.44724940  0.06469961  1
  H+  H109  1  0.23917947  0.78291677  0.32186208  1
  H+  H110  1  0.10989788  0.21197319  0.66253092  1
  H+  H111  1  0.49049918  0.93069858  0.14871147  1
  H+  H112  1  0.57818862  0.12613641  0.81980422  1
  H+  H113  1  0.43839808  0.53718012  0.65845283  1
  H+  H114  1  0.43172455  0.23934482  0.17345540  1
  H+  H115  1  0.17827311  0.01848583  0.26065761  1
  H+  H116  1  -0.00203131  0.48953133  0.02247371  1
  H+  H117  1  0.11488861  0.90705767  0.15694500  1
  H+  H118  1  0.78887360  0.88606681  0.60855867  1
  H+  H119  1  0.78614881  0.22727133  0.16065288  1
  H+  H120  1  0.83744029  0.18533208  0.02057342  1
  H+  H121  1  0.04388109  0.54294803  0.19156570  1
  H+  H122  1  0.87143004  0.42424838  0.89640197  1
  H+  H123  1  0.01683506  0.83533610  0.47841316  1
  H+  H124  1  0.89325720  0.78000288  0.85166260  1
  H+  H125  1  0.47644453  0.50559028  0.50811613  1
  H+  H126  1  0.80387575  0.50786733  0.52079386  1
  H+  H127  1  0.45717800  0.55794601  0.17475401  1
  H+  H128  1  0.24788385  0.10783722  0.90185369  1
  H+  H129  1  0.55040529  0.43283967  0.85505690  1
  H+  H130  1  0.76960571  0.55571364  0.65399587  1
  H+  H131  1  0.79180084  0.90613803  0.15649024  1
  H+  H132  1  0.10878132  0.87814043  0.65657580  1
  H+  H133  1  0.11304604  0.54483848  0.61633634  1
  H+  H134  1  0.84473499  0.15869728  0.28121615  1
  H+  H135  1  0.88501807  0.10857262  0.90739712  1
  H+  H136  1  0.64673010  0.18360551  0.26910934  1
  H+  H137  1  0.21091437  0.43888063  0.85175448  1
  H+  H138  1  0.19256359  0.03181530  0.75322787  1
  H+  H139  1  0.57068429  0.12627549  0.41265425  1
  H+  H140  1  0.56797487  0.79662810  0.35299005  1
  H+  H141  1  0.21831920  0.10431994  0.35990804  1
  H+  H142  1  0.55748239  0.76192507  0.90164081  1
  H+  H143  1  0.18658905  0.75574435  0.91267425  1
  O2-  O144  1  0.10079762  0.23277250  0.21688998  1
  O2-  O145  1  0.10958276  0.20794106  0.73040470  1
  O2-  O146  1  0.04076216  0.54150509  0.25934125  1
  O2-  O147  1  0.10447800  0.54485696  0.72687882  1
  O2-  O148  1  0.12177188  0.90759118  0.22603208  1
  O2-  O149  1  0.11154786  0.88554581  0.72288267  1
  O2-  O150  1  0.43495028  0.23400827  0.24172112  1
  O2-  O151  1  0.44421636  0.22441088  0.72504737  1
  O2-  O152  1  0.45615494  0.56384015  0.24277332  1
  O2-  O153  1  0.44008054  0.53863577  0.72625526  1
  O2-  O154  1  0.47918584  0.92734315  0.21542810  1
  O2-  O155  1  0.43586290  0.88185011  0.73139351  1
  O2-  O156  1  0.78245377  0.23382681  0.22847591  1
  O2-  O157  1  0.77011694  0.20775303  0.68123131  1
  O2-  O158  1  0.78975285  0.56334512  0.21547103  1
  O2-  O159  1  0.77673119  0.55407028  0.72128874  1
  O2-  O160  1  0.79449284  0.90569356  0.22485780  1
  O2-  O161  1  0.77270253  0.87831340  0.72350266  1
  O2-  O162  1  0.22040646  0.10355520  0.29055001  1
  O2-  O163  1  0.23752651  0.11342534  0.77324843  1
  O2-  O164  1  0.21466273  0.47905698  0.24787129  1
  O2-  O165  1  0.21243513  0.43194013  0.78404597  1
  O2-  O166  1  0.25034713  0.82016346  0.26232387  1
  O2-  O167  1  0.20859918  0.76566776  0.79885392  1
  O2-  O168  1  0.56572179  0.14212322  0.29262832  1
  O2-  O169  1  0.55807287  0.12266551  0.75355307  1
  O2-  O170  1  0.56032120  0.44885864  0.29885878  1
  O2-  O171  1  0.54423662  0.42512175  0.78648794  1
  O2-  O172  1  0.56590834  0.79206878  0.28660418  1
  O2-  O173  1  0.55296558  0.76563283  0.78191587  1
  O2-  O174  1  0.88463327  0.12064854  0.30877162  1
  O2-  O175  1  0.87950800  0.10069204  0.77924860  1
  O2-  O176  1  0.91751847  0.46402842  0.27822526  1
  O2-  O177  1  0.87279838  0.41846165  0.76723113  1
  O2-  O178  1  0.88965273  0.78195080  0.27951098  1
  O2-  O179  1  0.89453373  0.77851748  0.78313961  1
  O2-  O180  1  0.22451462  0.10851640  0.47075307  1
  O2-  O181  1  0.26547734  0.10272652  0.96614068  1
  O2-  O182  1  0.21101633  0.43092173  0.49269061  1
  O2-  O183  1  0.20334357  0.45685635  0.96848860  1
  O2-  O184  1  0.14980730  0.69633796  0.42825047  1
  O2-  O185  1  0.17179261  0.74977923  0.98049136  1
  O2-  O186  1  0.56143371  0.11660038  0.48063133  1
  O2-  O187  1  0.59952585  0.12835177  0.93345801  1
  O2-  O188  1  0.55989834  0.43748155  0.46663094  1
  O2-  O189  1  0.56332527  0.45109847  0.96972244  1
  O2-  O190  1  0.54641749  0.76884710  0.54181429  1
  O2-  O191  1  0.55991529  0.77071118  0.96963789  1
  O2-  O192  1  0.89229623  0.11904653  0.49547069  1
  O2-  O193  1  0.88708514  0.10751796  0.97480064  1
  O2-  O194  1  0.86887080  0.43989693  0.51176573  1
  O2-  O195  1  0.87108306  0.43220562  0.96365487  1
  O2-  O196  1  0.87604569  0.76570894  0.46447274  1
  O2-  O197  1  0.89324841  0.78831130  0.96896350  1
  O2-  O198  1  0.09745667  0.22239272  0.03158240  1
  O2-  O199  1  0.11283724  0.21908367  0.54204662  1
  O2-  O200  1  0.07436361  0.53226215  0.05308511  1
  O2-  O201  1  0.10913932  0.52961273  0.54824713  1
  O2-  O202  1  0.10535116  0.90013555  0.04499846  1
  O2-  O203  1  0.10304530  0.87255981  0.47211551  1
  O2-  O204  1  0.43854083  0.24375334  0.05817969  1
  O2-  O205  1  0.44933233  0.22605410  0.53032167  1
  O2-  O206  1  0.43764980  0.52372748  0.05833142  1
  O2-  O207  1  0.43163468  0.53741351  0.53599614  1
  O2-  O208  1  0.50368669  0.92698295  0.02001464  1
  O2-  O209  1  0.43910340  0.89279889  0.54035527  1
  O2-  O210  1  0.79688494  0.22629629  0.04420530  1
  O2-  O211  1  0.77316437  0.21611231  0.58064725  1
  O2-  O212  1  0.78055070  0.56155789  0.02682194  1
  O2-  O213  1  0.75631375  0.54747312  0.53022557  1
  O2-  O214  1  0.78306293  0.89362823  0.03973874  1
  O2-  O215  1  0.78884467  0.89001875  0.53996013  1
