# generated using pymatgen
data_H2O
_symmetry_space_group_name_H-M   'P 1'
_cell_length_a   13.49954231
_cell_length_b   13.50560412
_cell_length_c   14.66512682
_cell_angle_alpha   90.11372404
_cell_angle_beta   89.94508940
_cell_angle_gamma   120.12073272
_symmetry_Int_Tables_number   1
_chemical_formula_structural   H2O
_chemical_formula_sum   'H144 O72'
_cell_volume   2312.69848988
_cell_formula_units_Z   72
loop_
 _symmetry_equiv_pos_site_id
 _symmetry_equiv_pos_as_xyz
  1  'x, y, z'
loop_
 _atom_type_symbol
 _atom_type_oxidation_number
  H+  1.0
  O2-  -2.0
loop_
 _atom_site_type_symbol
 _atom_site_label
 _atom_site_symmetry_multiplicity
 _atom_site_fract_x
 _atom_site_fract_y
 _atom_site_fract_z
 _atom_site_occupancy
  H+  H0  1  0.52733640  0.32840890  0.75874699  1
  H+  H1  1  0.83374702  0.64930440  0.53726668  1
  H+  H2  1  0.96325372  0.58866284  0.28959680  1
  H+  H3  1  0.45435495  0.53695356  0.67637214  1
  H+  H4  1  0.27896323  0.52643889  0.47936609  1
  H+  H5  1  0.20307190  0.70955838  0.25747180  1
  H+  H6  1  0.48976391  0.29073329  0.01578428  1
  H+  H7  1  0.80861789  0.65264621  0.76954382  1
  H+  H8  1  0.44687237  0.16440954  0.59763278  1
  H+  H9  1  0.14397798  0.65637953  0.51562569  1
  H+  H10  1  0.88178213  0.45873759  0.41832369  1
  H+  H11  1  0.32408079  0.49135378  0.98834568  1
  H+  H12  1  0.44943699  0.54786901  0.10258706  1
  H+  H13  1  0.05940829  0.51623013  0.23044165  1
  H+  H14  1  0.17695507  0.85719373  0.23793371  1
  H+  H15  1  0.84213226  0.82462849  0.78998302  1
  H+  H16  1  0.10868553  0.52634868  0.50801153  1
  H+  H17  1  0.37166984  0.16896584  0.00695143  1
  H+  H18  1  0.13315135  0.20186351  0.70780359  1
  H+  H19  1  0.65711414  0.15279639  0.25955289  1
  H+  H20  1  0.45753984  0.43848626  0.49021511  1
  H+  H21  1  0.52165771  0.14512622  0.98729514  1
  H+  H22  1  0.69343019  0.51562145  0.75829609  1
  H+  H23  1  0.18942556  0.16068883  0.49376891  1
  H+  H24  1  0.98298613  0.81506157  0.50417366  1
  H+  H25  1  0.58817210  0.67966400  0.42527014  1
  H+  H26  1  0.85875581  0.36622832  0.98921986  1
  H+  H27  1  0.85106627  0.81576191  1.03706926  1
  H+  H28  1  0.50988806  0.16955422  0.74075535  1
  H+  H29  1  0.18193487  0.01365235  0.23652892  1
  H+  H30  1  0.86505482  0.81257442  0.48087991  1
  H+  H31  1  0.83225562  0.63573231  -0.00740689  1
  H+  H32  1  0.51304091  0.81674356  1.01627096  1
  H+  H33  1  -0.02674615  0.82810073  0.01359226  1
  H+  H34  1  0.17624536  0.97558914  0.75620405  1
  H+  H35  1  0.48069559  0.51202812  0.24449252  1
  H+  H36  1  0.88047388  0.78282486  0.87732657  1
  H+  H37  1  0.62275267  0.81596864  0.78845180  1
  H+  H38  1  0.68597653  -0.16057030  1.07111762  1
  H+  H39  1  0.77478035  0.52638373  0.27007379  1
  H+  H40  1  0.23550163  0.14370063  0.77152737  1
  H+  H41  1  0.43998352  0.67153374  0.48713360  1
  H+  H42  1  0.61494668  0.48031015  0.24443968  1
  H+  H43  1  0.16762291  0.51666141  -0.00072566  1
  H+  H44  1  0.17963486  0.50088982  0.75847035  1
  H+  H45  1  0.67581059  0.84589717  0.21440970  1
  H+  H46  1  0.49918927  0.89989774  0.50129920  1
  H+  H47  1  0.30584488  0.14925124  0.23771189  1
  H+  H48  1  0.17409637  0.13987465  0.23449284  1
  H+  H49  1  0.63124942  0.44934363  0.48813337  1
  H+  H50  1  0.44893170  0.48843938  0.49989772  1
  H+  H51  1  0.04573705  0.86381958  0.75928652  1
  H+  H52  1  0.71694785  0.51355020  0.98796154  1
  H+  H53  1  0.80661532  0.64596774  0.23752194  1
  H+  H54  1  1.01766664  0.20023650  0.72594822  1
  H+  H55  1  0.02841286  0.17510081  0.22091944  1
  H+  H56  1  0.06000465  0.19410356  -0.00682218  1
  H+  H57  1  0.53534318  0.02790514  0.76112889  1
  H+  H58  1  0.86436888  0.48779409  0.97005486  1
  H+  H59  1  0.32751749  0.82907484  0.26480791  1
  H+  H60  1  0.19147093  0.69938795  0.98928422  1
  H+  H61  1  0.50485140  0.70021683  0.76952743  1
  H+  H62  1  0.29203982  0.13427493  0.49357192  1
  H+  H63  1  0.18132858  0.34975789  0.25598023  1
  H+  H64  1  0.71166019  0.84505042  0.46333299  1
  H+  H65  1  0.50811171  0.70583803  0.24470651  1
  H+  H66  1  0.81310853  0.18063001  0.03347329  1
  H+  H67  1  0.36273273  0.50985858  0.24020882  1
  H+  H68  1  0.48932818  -0.03189036  1.01521973  1
  H+  H69  1  0.82059569  0.52442662  0.54536779  1
  H+  H70  1  0.17762558  0.38219187  0.75036388  1
  H+  H71  1  0.36586437  0.85312984  0.51286833  1
  H+  H72  1  0.24498272  0.45753044  0.89700960  1
  H+  H73  1  0.57475933  0.31779489  0.45734955  1
  H+  H74  1  0.47903049  0.84642182  0.75103643  1
  H+  H75  1  0.22817419  0.78930406  0.40179659  1
  H+  H76  1  0.75225110  0.40811779  0.44636846  1
  H+  H77  1  0.04522446  0.51103699  -0.00186676  1
  H+  H78  1  0.38487614  0.15810727  0.74647570  1
  H+  H79  1  0.84035657  0.02767748  0.23375901  1
  H+  H80  1  0.49508800  0.63420201  1.01961353  1
  H+  H81  1  0.16328386  0.96828676  0.00684707  1
  H+  H82  1  0.88440918  0.48314887  0.23069175  1
  H+  H83  1  0.83581899  0.18925166  0.50244634  1
  H+  H84  1  0.81136532  0.29347342  0.50792486  1
  H+  H85  1  0.86113529  0.35902253  0.75222729  1
  H+  H86  1  0.50959066  0.13227129  0.42743836  1
  H+  H87  1  0.47157251  0.28993350  0.23454794  1
  H+  H88  1  0.49384873  0.01012077  0.28335216  1
  H+  H89  1  0.71056339  0.18776787  0.73358229  1
  H+  H90  1  0.52543845  0.47705678  0.99868518  1
  H+  H91  1  0.84734677  0.16922427  0.75281060  1
  H+  H92  1  0.98763809  0.81274434  0.26170328  1
  H+  H93  1  0.18460505  0.82041191  0.76476748  1
  H+  H94  1  0.81170227  0.98544950  0.76383652  1
  H+  H95  1  0.14633258  -0.02827294  0.52100463  1
  H+  H96  1  0.14794233  0.64544738  0.74482044  1
  H+  H97  1  0.20620608  0.14595300  0.97683094  1
  H+  H98  1  0.86961570  0.04265862  0.45420229  1
  H+  H99  1  0.49029896  0.12776950  0.27168354  1
  H+  H100  1  0.84043204  0.01865660  1.04162024  1
  H+  H101  1  0.17206907  0.37510492  0.47834010  1
  H+  H102  1  0.83353679  0.14157032  0.24310321  1
  H+  H103  1  0.34488570  0.53128578  0.72467370  1
  H+  H104  1  1.03957804  0.20277306  0.48197195  1
  H+  H105  1  0.77529167  0.26658825  0.27120581  1
  H+  H106  1  0.18701585  0.47239729  0.24516668  1
  H+  H107  1  0.50453240  0.43125261  0.77386565  1
  H+  H108  1  0.38626393  0.61376679  0.58378691  1
  H+  H109  1  0.11860759  0.22222597  0.13775613  1
  H+  H110  1  0.44728462  0.88896054  0.65779226  1
  H+  H111  1  0.25144666  0.09771500  0.89125633  1
  H+  H112  1  0.10377300  0.25032476  0.57790839  1
  H+  H113  1  0.55889672  0.42143526  0.33714724  1
  H+  H114  1  0.11620963  0.89285532  0.61092301  1
  H+  H115  1  0.55715570  0.77861828  0.93036134  1
  H+  H116  1  0.79264516  0.22713682  0.64110181  1
  H+  H117  1  0.58088199  0.10975856  0.84995041  1
  H+  H118  1  0.30327315  0.81932161  0.76098698  1
  H+  H119  1  0.22995072  0.78099666  0.90239012  1
  H+  H120  1  0.78348772  0.57668797  0.66456380  1
  H+  H121  1  0.44773064  0.89530463  0.17558799  1
  H+  H122  1  0.79076457  0.90668933  0.54800720  1
  H+  H123  1  0.76573496  0.22394745  0.11423617  1
  H+  H124  1  0.90425735  0.12600931  0.37069683  1
  H+  H125  1  0.55851017  0.42488532  0.91353627  1
  H+  H126  1  0.12868442  0.54648516  0.13590945  1
  H+  H127  1  0.21092943  0.44719774  0.37863548  1
  H+  H128  1  0.15433769  0.84562963  0.00811616  1
  H+  H129  1  0.89809759  0.14057239  0.84368598  1
  H+  H130  1  0.90238746  0.43409972  0.85379929  1
  H+  H131  1  0.56639916  0.76609832  0.36583798  1
  H+  H132  1  0.10374947  0.57020780  0.65095441  1
  H+  H133  1  0.64218423  0.15199313  0.99530066  1
  H+  H134  1  0.17734756  0.31276141  -0.00312763  1
  H+  H135  1  0.75299569  0.88717749  0.69083393  1
  H+  H136  1  0.91517937  0.76716565  0.35403055  1
  H+  H137  1  -0.01276943  0.49120820  0.75650062  1
  H+  H138  1  0.78448206  0.02766502  0.95488546  1
  H+  H139  1  0.50224444  0.82966941  0.25744057  1
  H+  H140  1  0.44007596  0.20725185  0.14636147  1
  H+  H141  1  0.18994202  0.83128647  0.49195813  1
  H+  H142  1  0.36850050  0.85252549  0.01721307  1
  H+  H143  1  0.12941244  0.88871771  0.14523921  1
  O2-  O144  1  0.11203483  0.21380371  0.20576690  1
  O2-  O145  1  0.09564372  0.24647221  0.69723500  1
  O2-  O146  1  0.13658872  0.54639807  0.20433044  1
  O2-  O147  1  0.10569407  0.56366626  0.72052323  1
  O2-  O148  1  0.13380536  0.89574220  0.21412933  1
  O2-  O149  1  0.12118403  0.89331495  0.73052824  1
  O2-  O150  1  0.43008495  0.20756975  0.21492116  1
  O2-  O151  1  0.46522770  0.20476926  0.71627412  1
  O2-  O152  1  0.44343189  0.55381423  0.21867776  1
  O2-  O153  1  0.42043880  0.58350789  0.69254978  1
  O2-  O154  1  0.44557713  0.88723252  0.24250293  1
  O2-  O155  1  0.44546533  0.89174102  0.72642295  1
  O2-  O156  1  0.73913730  0.19719395  0.23435696  1
  O2-  O157  1  0.79282919  0.23338376  0.71166560  1
  O2-  O158  1  0.75607616  0.56259232  0.22092378  1
  O2-  O159  1  0.77403855  0.57344401  0.73844103  1
  O2-  O160  1  0.76081365  0.88776217  0.19513852  1
  O2-  O161  1  0.76824319  0.89963205  0.75590347  1
  O2-  O162  1  0.21897720  0.10202153  0.25505691  1
  O2-  O163  1  0.26359633  0.09391871  0.79190811  1
  O2-  O164  1  0.22115228  0.43057263  0.27899482  1
  O2-  O165  1  0.22288591  0.46085973  0.77592732  1
  O2-  O166  1  0.23690568  0.78774277  0.28190482  1
  O2-  O167  1  0.22264964  0.77584218  0.78445422  1
  O2-  O168  1  0.53023388  0.09447214  0.30545135  1
  O2-  O169  1  0.58451676  0.10979095  0.78153713  1
  O2-  O170  1  0.53833213  0.42878476  0.27331188  1
  O2-  O171  1  0.56248412  0.41027370  0.78639826  1
  O2-  O172  1  0.55335474  0.78558022  0.26779627  1
  O2-  O173  1  0.54068676  0.77230945  0.80553295  1
  O2-  O174  1  0.88472218  0.10952158  0.25445005  1
  O2-  O175  1  0.88935867  0.12785092  0.77775752  1
  O2-  O176  1  0.93291805  0.50593898  0.28504700  1
  O2-  O177  1  0.90422077  0.43843986  0.78250808  1
  O2-  O178  1  0.91015193  0.76261060  0.28667612  1
  O2-  O179  1  0.87730240  0.77875183  0.80898367  1
  O2-  O180  1  0.21086617  0.10337060  0.47717776  1
  O2-  O181  1  0.24299684  0.10024905  0.96348081  1
  O2-  O182  1  0.20264807  0.45542695  0.44874844  1
  O2-  O183  1  0.24268171  0.45085484  0.96454887  1
  O2-  O184  1  0.22717753  0.78770979  0.47005919  1
  O2-  O185  1  0.22910602  0.78126634  0.97072418  1
  O2-  O186  1  0.52814362  0.18304941  0.48216605  1
  O2-  O187  1  0.56576964  0.10783108  0.96568412  1
  O2-  O188  1  0.62068218  0.39994535  0.43575620  1
  O2-  O189  1  0.56249676  0.43165014  0.98068415  1
  O2-  O190  1  0.57794410  0.74579428  0.43302099  1
  O2-  O191  1  0.55908112  0.77934805  0.99799878  1
  O2-  O192  1  0.90929562  0.12545205  0.43888935  1
  O2-  O193  1  0.85122393  0.07502831  0.99303005  1
  O2-  O194  1  0.82887633  0.42545984  0.46987942  1
  O2-  O195  1  0.90365678  0.44046605  0.95650649  1
  O2-  O196  1  0.90276543  0.76577971  0.47808512  1
  O2-  O197  1  0.89016685  0.78794414  0.99629803  1
  O2-  O198  1  0.13673835  0.23117141  0.01963149  1
  O2-  O199  1  0.11726804  0.25267893  0.51104459  1
  O2-  O200  1  0.12479809  0.55416208  0.02289842  1
  O2-  O201  1  0.09276684  0.57847510  0.54276423  1
  O2-  O202  1  0.11808777  0.88895299  0.03355565  1
  O2-  O203  1  0.11208261  0.89028578  0.54280898  1
  O2-  O204  1  0.45121939  0.20855614  0.03484947  1
  O2-  O205  1  0.42083025  0.13461435  0.53392406  1
  O2-  O206  1  0.45491551  0.55041512  0.03418081  1
  O2-  O207  1  0.36668580  0.62354636  0.52031334  1
  O2-  O208  1  0.44790670  0.88999256  0.04229654  1
  O2-  O209  1  0.44103274  0.88944083  0.54533219  1
  O2-  O210  1  0.78010517  0.23011693  0.04725840  1
  O2-  O211  1  0.79402125  0.22005496  0.53669113  1
  O2-  O212  1  0.80032308  0.55430335  -0.02441612  1
  O2-  O213  1  0.79032109  0.57288026  0.57035227  1
  O2-  O214  1  0.76697297  0.87952942  0.09464497  1
  O2-  O215  1  0.79420122  0.89567645  0.48284888  1
