# generated using pymatgen
data_H2O
_symmetry_space_group_name_H-M   'P 1'
_cell_length_a   13.51083897
_cell_length_b   13.47142155
_cell_length_c   14.67415580
_cell_angle_alpha   90.02090172
_cell_angle_beta   89.95337401
_cell_angle_gamma   119.94057644
_symmetry_Int_Tables_number   1
_chemical_formula_structural   H2O
_chemical_formula_sum   'H144 O72'
_cell_volume   2314.40360768
_cell_formula_units_Z   72
loop_
 _symmetry_equiv_pos_site_id
 _symmetry_equiv_pos_as_xyz
  1  'x, y, z'
loop_
 _atom_type_symbol
 _atom_type_oxidation_number
  H+  1.0
  O2-  -2.0
loop_
 _atom_site_type_symbol
 _atom_site_label
 _atom_site_symmetry_multiplicity
 _atom_site_fract_x
 _atom_site_fract_y
 _atom_site_fract_z
 _atom_site_occupancy
  H+  H0  1  0.76393629  0.56261704  0.13500970  1
  H+  H1  1  0.50648620  0.02986618  0.71716730  1
  H+  H2  1  0.48005357  0.85420645  0.51142533  1
  H+  H3  1  0.30895308  0.49495494  0.49887463  1
  H+  H4  1  0.51298118  0.38865712  0.25854992  1
  H+  H5  1  0.96047205  0.47758629  0.95977368  1
  H+  H6  1  0.12356881  0.26138753  0.07884920  1
  H+  H7  1  0.16187364  0.52667564  0.51212223  1
  H+  H8  1  0.20256572  0.87767374  0.51221672  1
  H+  H9  1  0.68748153  0.88258912  0.22045581  1
  H+  H10  1  0.19361918  0.70692197  -0.01902589  1
  H+  H11  1  0.37428788  0.84745917  0.03248788  1
  H+  H12  1  0.77300581  0.81481262  0.48783857  1
  H+  H13  1  0.70915463  0.84798152  -0.00600210  1
  H+  H14  1  0.86238150  0.82014671  0.98184759  1
  H+  H15  1  0.18817131  0.53389600  0.74177378  1
  H+  H16  1  0.50554749  0.03202154  0.50268704  1
  H+  H17  1  0.45552265  0.58721151  0.14408454  1
  H+  H18  1  0.16355837  0.86148401  0.74244636  1
  H+  H19  1  0.20320946  0.01133582  0.51345327  1
  H+  H20  1  0.32729257  0.50407875  0.74546238  1
  H+  H21  1  0.82493109  0.97511033  0.49598035  1
  H+  H22  1  0.43645638  0.87689048  0.65777019  1
  H+  H23  1  0.82093313  0.97110331  -0.00476950  1
  H+  H24  1  0.22291987  0.11790626  0.84926369  1
  H+  H25  1  0.92529220  0.83236924  0.28918014  1
  H+  H26  1  0.22861377  0.12190480  0.39975100  1
  H+  H27  1  0.51190341  0.37395987  0.99323806  1
  H+  H28  1  0.49289486  0.53754624  0.50672185  1
  H+  H29  1  0.69199508  0.16995337  0.71391819  1
  H+  H30  1  0.82568877  0.18466919  0.49438045  1
  H+  H31  1  0.51209440  0.15719369  0.49729360  1
  H+  H32  1  0.49232888  0.65679312  0.75348417  1
  H+  H33  1  0.47726533  0.80554220  0.95138208  1
  H+  H34  1  0.51168857  0.70992832  0.47729903  1
  H+  H35  1  0.81516641  0.52864773  0.51840764  1
  H+  H36  1  0.51554565  0.03910407  1.05660676  1
  H+  H37  1  0.15573945  0.51822643  -0.02065764  1
  H+  H38  1  0.62389882  0.83307863  0.47238302  1
  H+  H39  1  0.19574114  0.71584693  0.76738534  1
  H+  H40  1  0.33771528  0.80010646  0.27176247  1
  H+  H41  1  0.98116528  0.81666989  0.49775995  1
  H+  H42  1  0.83616936  0.86016303  0.71986407  1
  H+  H43  1  0.91730243  0.46490564  0.70934858  1
  H+  H44  1  -0.00466834  0.85077446  0.45436779  1
  H+  H45  1  0.07437340  0.53430712  0.76291649  1
  H+  H46  1  0.20801745  0.38282103  0.96716843  1
  H+  H47  1  -0.02496435  0.49607528  0.51473404  1
  H+  H48  1  0.36784027  0.19822189  0.50315892  1
  H+  H49  1  0.49740826  0.81856338  0.79435676  1
  H+  H50  1  0.36066334  0.85008772  0.51524479  1
  H+  H51  1  0.49655107  0.55076954  0.23539219  1
  H+  H52  1  0.15736988  0.30869359  0.51056287  1
  H+  H53  1  0.81415204  0.18162382  0.01579869  1
  H+  H54  1  0.09894239  0.86235563  0.23952496  1
  H+  H55  1  0.52543861  0.01489753  0.27155698  1
  H+  H56  1  0.63009373  0.50573815  0.24756184  1
  H+  H57  1  0.69640382  0.52066499  -0.00697209  1
  H+  H58  1  0.79670187  0.64401755  0.22150614  1
  H+  H59  1  0.36177193  0.85830174  0.74807262  1
  H+  H60  1  0.81551606  0.29985395  0.00853366  1
  H+  H61  1  0.49176904  0.19171815  0.24357828  1
  H+  H62  1  0.82037359  0.34175394  0.73701840  1
  H+  H63  1  0.48638387  0.31659420  0.50065520  1
  H+  H64  1  0.49581377  0.71073412  0.24322916  1
  H+  H65  1  0.32361327  0.17703543  0.27001648  1
  H+  H66  1  0.03465728  0.50688261  0.28833993  1
  H+  H67  1  -0.02174366  0.15264063  0.48681315  1
  H+  H68  1  0.63173096  0.15765783  1.05562679  1
  H+  H69  1  -0.02233176  0.81964596  0.74852140  1
  H+  H70  1  0.85684204  0.69905902  0.97781521  1
  H+  H71  1  -0.13634591  0.37607878  0.28624237  1
  H+  H72  1  0.79303116  0.51169483  0.73759382  1
  H+  H73  1  0.83658062  0.97933015  0.72348001  1
  H+  H74  1  0.70425498  0.19519686  0.25506542  1
  H+  H75  1  0.09778715  0.17639392  0.27292740  1
  H+  H76  1  0.21236114  0.05729232  0.26206541  1
  H+  H77  1  0.21318103  0.86371961  0.23085670  1
  H+  H78  1  0.47361497  0.64027774  0.98308621  1
  H+  H79  1  0.50467172  0.37574580  0.75584876  1
  H+  H80  1  0.32130521  0.50316104  0.98307394  1
  H+  H81  1  0.18800151  0.03017790  0.98647716  1
  H+  H82  1  0.36721422  0.19209930  0.01572221  1
  H+  H83  1  0.81441263  0.83058679  0.25165676  1
  H+  H84  1  0.18475591  0.70692029  0.49230938  1
  H+  H85  1  0.85267788  0.15083308  0.75376625  1
  H+  H86  1  0.15507539  0.19114884  0.74088997  1
  H+  H87  1  -0.02370679  0.16151483  0.75597848  1
  H+  H88  1  0.48470413  0.19361952  0.03960765  1
  H+  H89  1  0.95971768  0.13896411  0.99221949  1
  H+  H90  1  0.87111625  1.04801935  0.24542233  1
  H+  H91  1  0.18675011  0.46561034  0.28411335  1
  H+  H92  1  0.54735956  0.10906783  0.63058497  1
  H+  H93  1  0.16344829  0.31383713  0.73525462  1
  H+  H94  1  0.49639299  0.54055670  0.74015225  1
  H+  H95  1  0.05906123  0.14464882  0.12704826  1
  H+  H96  1  0.20699810  0.69329621  0.27709054  1
  H+  H97  1  0.62437643  0.49313411  0.76051425  1
  H+  H98  1  0.47823616  0.19278345  0.72082394  1
  H+  H99  1  0.62973742  0.49101715  0.48601132  1
  H+  H100  1  0.85724832  0.37476425  0.51113091  1
  H+  H101  1  0.30112358  0.16038127  0.75860505  1
  H+  H102  1  0.81162307  0.51390610  0.99115387  1
  H+  H103  1  0.49135574  0.53092930  1.00150057  1
  H+  H104  1  0.18196152  0.15691456  0.49121263  1
  H+  H105  1  0.77154320  0.67275162  0.48384641  1
  H+  H106  1  0.17755186  0.14090642  0.99822609  1
  H+  H107  1  0.89215549  0.11161297  0.89584500  1
  H+  H108  1  0.45952826  0.86078195  0.11454969  1
  H+  H109  1  0.91196914  0.11450023  0.39229683  1
  H+  H110  1  0.54470521  0.44793781  0.89994092  1
  H+  H111  1  0.09598671  0.55020377  0.05709478  1
  H+  H112  1  0.19594247  0.82640189  0.99222130  1
  H+  H113  1  0.58236622  0.08582412  0.86702125  1
  H+  H114  1  0.78728093  0.90115656  0.59531197  1
  H+  H115  1  0.23588599  0.78599515  0.40111970  1
  H+  H116  1  0.25029364  0.46289853  0.83573131  1
  H+  H117  1  0.79140391  0.74492474  0.38676302  1
  H+  H118  1  0.23289983  0.44341163  0.40946021  1
  H+  H119  1  0.89940463  0.45368762  0.37686399  1
  H+  H120  1  0.53926144  0.04782983  0.90175650  1
  H+  H121  1  0.70701041  0.18518297  0.50307504  1
  H+  H122  1  0.78920700  0.24236159  0.17236226  1
  H+  H123  1  0.90152991  0.78540622  0.83885238  1
  H+  H124  1  0.44992481  0.23737601  0.16022313  1
  H+  H125  1  0.16574870  0.92293493  0.61437848  1
  H+  H126  1  0.23237446  0.79693074  0.85660960  1
  H+  H127  1  0.13096956  0.89241593  0.09146179  1
  H+  H128  1  0.11336801  0.53207302  0.20055743  1
  H+  H129  1  0.77009600  0.90280913  0.13542408  1
  H+  H130  1  0.55367445  0.46260483  0.39499427  1
  H+  H131  1  0.86902992  0.42908238  0.88050668  1
  H+  H132  1  0.78636215  0.21527916  0.63733601  1
  H+  H133  1  0.46330125  0.58823245  0.59567449  1
  H+  H134  1  0.53136967  0.79537239  0.33928436  1
  H+  H135  1  0.30585656  0.47525735  0.26850157  1
  H+  H136  1  0.76335947  0.56404085  0.60230855  1
  H+  H137  1  0.81276294  0.64030401  0.74101988  1
  H+  H138  1  0.54988496  0.09664410  0.35675135  1
  H+  H139  1  0.11461114  0.22709569  0.59805977  1
  H+  H140  1  0.43609655  0.24140376  0.64376967  1
  H+  H141  1  0.16156356  0.98072344  0.74090155  1
  H+  H142  1  0.13337687  0.57261689  0.60319573  1
  H+  H143  1  0.04022075  0.84787282  0.00655449  1
  O2-  O144  1  0.03390215  0.11234904  0.24032567  1
  O2-  O145  1  0.11636682  0.23225223  0.71596492  1
  O2-  O146  1  0.12119679  0.54599460  0.26586423  1
  O2-  O147  1  0.14449877  0.57603410  0.72755726  1
  O2-  O148  1  0.17210893  0.90393530  0.20832360  1
  O2-  O149  1  0.12750139  0.90274724  0.71151568  1
  O2-  O150  1  0.45567831  0.23811544  0.22830736  1
  O2-  O151  1  0.43677947  0.23598199  0.71194480  1
  O2-  O152  1  0.45737726  0.59339607  0.21200142  1
  O2-  O153  1  0.46140947  0.58598328  0.71591976  1
  O2-  O154  1  0.47105226  0.85538140  0.23592381  1
  O2-  O155  1  0.44179798  0.88751378  0.72546499  1
  O2-  O156  1  0.78578529  0.24372034  0.23946248  1
  O2-  O157  1  0.77712348  0.21303435  0.70564772  1
  O2-  O158  1  0.75379651  0.56366633  0.20185127  1
  O2-  O159  1  0.76025087  0.56018035  0.71881413  1
  O2-  O160  1  0.76755703  0.90974571  0.20348558  1
  O2-  O161  1  0.80183221  0.90344888  0.69236603  1
  O2-  O162  1  0.24161148  0.13262467  0.29091412  1
  O2-  O163  1  0.22023855  0.11626636  0.78094644  1
  O2-  O164  1  0.23119893  0.42634090  0.29729752  1
  O2-  O165  1  0.24555912  0.45976402  0.76797800  1
  O2-  O166  1  0.25605423  0.77738597  0.28928015  1
  O2-  O167  1  0.22713782  0.79659577  0.78787673  1
  O2-  O168  1  0.54953223  0.09473479  0.28962506  1
  O2-  O169  1  0.54827176  0.11290295  0.69744429  1
  O2-  O170  1  0.55087811  0.47081428  0.27660324  1
  O2-  O171  1  0.54317623  0.45482255  0.78207840  1
  O2-  O172  1  0.53396966  0.79716437  0.26895457  1
  O2-  O173  1  0.53208713  0.78043045  0.83091603  1
  O2-  O174  1  0.93448027  0.11963417  0.27280556  1
  O2-  O175  1  0.89602779  0.11480205  0.77865604  1
  O2-  O176  1  0.91405215  0.45547931  0.31067798  1
  O2-  O177  1  0.85761083  0.42633289  0.75503783  1
  O2-  O178  1  0.84299009  0.78313204  0.28364047  1
  O2-  O179  1  0.89749762  0.78102946  0.77070860  1
  O2-  O180  1  0.22623757  0.11928172  0.46932830  1
  O2-  O181  1  0.22380625  0.11251531  0.96752116  1
  O2-  O182  1  0.22810370  0.45081396  0.47781097  1
  O2-  O183  1  0.24173216  0.46417686  0.95393366  1
  O2-  O184  1  0.22699802  0.78812308  0.46943238  1
  O2-  O185  1  0.24102741  0.79036508  0.96979521  1
  O2-  O186  1  0.55517185  0.11517271  0.48782889  1
  O2-  O187  1  0.54851997  0.12197375  1.06682118  1
  O2-  O188  1  0.54967639  0.45605296  0.46324257  1
  O2-  O189  1  0.55144470  0.45406964  0.96788039  1
  O2-  O190  1  0.54426633  0.78964239  0.45008322  1
  O2-  O191  1  0.45660616  0.73722809  0.91169142  1
  O2-  O192  1  0.89961734  0.10987193  0.45953522  1
  O2-  O193  1  0.88294150  0.10361346  0.96392611  1
  O2-  O194  1  0.89205414  0.45860151  0.49994965  1
  O2-  O195  1  0.87717293  0.43600305  0.94753057  1
  O2-  O196  1  0.75668020  0.72946643  0.44971377  1
  O2-  O197  1  0.90390761  0.78172001  0.95861807  1
  O2-  O198  1  0.08350468  0.17987420  0.06467958  1
  O2-  O199  1  0.11518130  0.22598465  0.52978937  1
  O2-  O200  1  0.10781602  0.55481269  -0.00856849  1
  O2-  O201  1  0.12456908  0.57019315  0.53596858  1
  O2-  O202  1  0.12305304  0.89110134  0.02397256  1
  O2-  O203  1  0.19929972  0.94163289  0.54836800  1
  O2-  O204  1  0.44483185  0.24044224  0.04151475  1
  O2-  O205  1  0.44799634  0.23676259  0.52631870  1
  O2-  O206  1  0.44897777  0.57120561  0.02221120  1
  O2-  O207  1  0.45684814  0.58306575  0.52785933  1
  O2-  O208  1  0.45558635  0.87618545  0.04820750  1
  O2-  O209  1  0.44003054  0.89141507  0.54058493  1
  O2-  O210  1  0.78370432  0.22768728  0.04386052  1
  O2-  O211  1  0.78812268  0.22436149  0.52338402  1
  O2-  O212  1  0.77834298  0.56112335  0.01251598  1
  O2-  O213  1  0.76634539  0.56272303  0.53405929  1
  O2-  O214  1  0.78506576  0.89022851  0.02125440  1
  O2-  O215  1  0.77273915  0.89687539  0.52340711  1
