# generated using pymatgen
data_H2O
_symmetry_space_group_name_H-M   'P 1'
_cell_length_a   13.49409650
_cell_length_b   13.48441603
_cell_length_c   14.69783402
_cell_angle_alpha   89.89473874
_cell_angle_beta   90.08081850
_cell_angle_gamma   119.95582949
_symmetry_Int_Tables_number   1
_chemical_formula_structural   H2O
_chemical_formula_sum   'H144 O72'
_cell_volume   2317.13987358
_cell_formula_units_Z   72
loop_
 _symmetry_equiv_pos_site_id
 _symmetry_equiv_pos_as_xyz
  1  'x, y, z'
loop_
 _atom_type_symbol
 _atom_type_oxidation_number
  H+  1.0
  O2-  -2.0
loop_
 _atom_site_type_symbol
 _atom_site_label
 _atom_site_symmetry_multiplicity
 _atom_site_fract_x
 _atom_site_fract_y
 _atom_site_fract_z
 _atom_site_occupancy
  H+  H0  1  0.85210994  0.36160237  0.99615989  1
  H+  H1  1  0.95403922  0.65194419  0.18762303  1
  H+  H2  1  0.48367069  0.69830676  0.70519845  1
  H+  H3  1  1.01076166  0.49441428  0.25020861  1
  H+  H4  1  1.01904970  0.78667321  0.97381764  1
  H+  H5  1  0.05167617  0.21714547  0.51611812  1
  H+  H6  1  0.03028619  0.84719828  -0.02919275  1
  H+  H7  1  0.35616452  0.18122423  0.52440791  1
  H+  H8  1  0.84957487  0.15992059  0.24867399  1
  H+  H9  1  0.63470729  0.83644475  0.25612482  1
  H+  H10  1  0.84328940  0.04448046  0.51716295  1
  H+  H11  1  0.86281684  0.35037319  0.47710055  1
  H+  H12  1  0.15363162  0.67809440  0.27492101  1
  H+  H13  1  0.48946865  0.48531471  0.25508335  1
  H+  H14  1  0.38276607  0.20278528  0.98825936  1
  H+  H15  1  0.62333236  0.48925149  0.97179946  1
  H+  H16  1  -0.00818688  0.17154511  0.66034408  1
  H+  H17  1  0.84062283  0.82757036  0.28167819  1
  H+  H18  1  0.45870437  0.85677009  0.23635759  1
  H+  H19  1  0.64548960  0.16023560  0.97907614  1
  H+  H20  1  0.86139088  0.71965754  0.27159766  1
  H+  H21  1  0.32476322  0.84839732  0.48366527  1
  H+  H22  1  0.82029796  0.18488701  0.01773011  1
  H+  H23  1  0.85104305  0.81690464  0.51026757  1
  H+  H24  1  0.48410953  0.13105430  0.28773415  1
  H+  H25  1  0.12157447  0.22292098  0.15335270  1
  H+  H26  1  0.45701936  0.58105737  0.58061108  1
  H+  H27  1  0.52841443  0.70521956  0.47472492  1
  H+  H28  1  0.84254673  0.42199102  0.86140765  1
  H+  H29  1  0.47753001  0.29952251  0.51997660  1
  H+  H30  1  0.82452892  -0.01075146  0.24732188  1
  H+  H31  1  0.69608088  0.85770778  0.50979763  1
  H+  H32  1  0.14535429  0.30555292  0.00892052  1
  H+  H33  1  0.80724006  0.61227982  0.50187269  1
  H+  H34  1  0.49152176  0.97274682  -0.01852607  1
  H+  H35  1  0.19153950  0.80924069  0.96383328  1
  H+  H36  1  0.02395256  0.86430707  0.27779507  1
  H+  H37  1  0.52973866  0.16466367  0.97091480  1
  H+  H38  1  0.43088296  0.85644823  0.59382266  1
  H+  H39  1  0.37084418  0.15404698  0.74153854  1
  H+  H40  1  0.50355476  0.82065897  0.95704587  1
  H+  H41  1  0.30260494  0.15169275  0.26944634  1
  H+  H42  1  0.17615101  0.48842109  0.25289052  1
  H+  H43  1  0.55951146  0.48700643  0.83101596  1
  H+  H44  1  0.20147178  1.02165568  0.75846050  1
  H+  H45  1  0.79267040  0.48801302  0.75827296  1
  H+  H46  1  0.51638686  0.71850148  0.24625871  1
  H+  H47  1  0.22091330  0.21498725  0.72321712  1
  H+  H48  1  0.22430954  0.07749200  1.00946573  1
  H+  H49  1  -0.03347223  0.48753967  -0.00715312  1
  H+  H50  1  0.21812839  0.83259914  0.11314020  1
  H+  H51  1  0.56312618  0.79180302  0.39007237  1
  H+  H52  1  0.69618530  0.20624421  0.22845319  1
  H+  H53  1  0.45347377  0.22493499  0.08017871  1
  H+  H54  1  0.47149101  0.63790001  -0.01871152  1
  H+  H55  1  0.13828685  0.51324929  0.01054862  1
  H+  H56  1  0.20432322  0.80335311  0.75158425  1
  H+  H57  1  0.78597901  0.77006950  0.98175203  1
  H+  H58  1  0.94214678  0.11459873  0.77826961  1
  H+  H59  1  0.87298184  0.80693939  0.75559523  1
  H+  H60  1  0.73942809  0.12379139  0.49732212  1
  H+  H61  1  0.80601716  0.48280966  0.02093274  1
  H+  H62  1  0.18625638  0.27002107  0.64015824  1
  H+  H63  1  1.05444418  0.83727829  0.74637989  1
  H+  H64  1  0.18289287  0.04070638  0.28952389  1
  H+  H65  1  0.24136348  0.10856701  0.84469451  1
  H+  H66  1  0.78976557  0.18709939  0.65480750  1
  H+  H67  1  0.28827592  0.48761685  0.99637283  1
  H+  H68  1  0.81140824  0.94390598  0.76001299  1
  H+  H69  1  1.03411258  0.18080774  1.01482794  1
  H+  H70  1  0.37390960  0.85262019  -0.01348729  1
  H+  H71  1  0.71528380  0.81144794  0.76125057  1
  H+  H72  1  0.31914211  0.50239097  0.47353019  1
  H+  H73  1  0.19842942  0.17357661  -0.02261542  1
  H+  H74  1  0.18715069  0.37489567  0.25044673  1
  H+  H75  1  1.03309455  0.51735693  0.49535090  1
  H+  H76  1  0.60474983  0.20092975  0.40545915  1
  H+  H77  1  0.19689908  0.85708468  0.48578076  1
  H+  H78  1  0.47449734  0.52154709  -0.00841254  1
  H+  H79  1  0.61049362  0.90001199  0.71997353  1
  H+  H80  1  0.50968571  0.37095983  0.97097950  1
  H+  H81  1  0.49318038  0.52142579  0.50200694  1
  H+  H82  1  0.99349845  0.22758878  0.66572744  1
  H+  H83  1  0.51372319  0.00450643  0.74790946  1
  H+  H84  1  0.65892479  0.84368750  -0.00947544  1
  H+  H85  1  0.30055528  1.07340465  0.13749036  1
  H+  H86  1  0.10694378  0.59969597  0.73739527  1
  H+  H87  1  0.83390012  0.63213044  0.74376783  1
  H+  H88  1  0.36284447  0.53590480  0.22181834  1
  H+  H89  1  0.82554268  0.32208250  0.24098931  1
  H+  H90  1  0.83089839  0.02504906  1.00821659  1
  H+  H91  1  0.15609946  0.18951436  0.24860237  1
  H+  H92  1  0.82368191  0.35587931  0.76715966  1
  H+  H93  1  0.69617312  0.15495778  0.73337344  1
  H+  H94  1  0.14615322  0.63394965  1.00762409  1
  H+  H95  1  0.48771216  0.16161931  0.45208895  1
  H+  H96  1  0.15611321  0.78916498  1.11655623  1
  H+  H97  1  0.39558857  0.56814189  0.73260866  1
  H+  H98  1  0.96769700  0.15856338  0.25128186  1
  H+  H99  1  0.47158896  0.82940285  0.49758217  1
  H+  H100  1  0.15377158  0.52741739  0.50435229  1
  H+  H101  1  0.86421933  0.47912695  0.26400011  1
  H+  H102  1  0.54460463  0.55248440  0.74383206  1
  H+  H103  1  0.14563205  0.97148945  0.51960800  1
  H+  H104  1  0.62506275  0.46868911  0.48322994  1
  H+  H105  1  0.25806348  0.38636220  0.76350498  1
  H+  H106  1  0.43059257  -0.04458496  0.21011848  1
  H+  H107  1  0.18483015  0.16240393  0.50271786  1
  H+  H108  1  0.27110542  0.79941004  0.26116519  1
  H+  H109  1  0.82894415  0.58435388  0.14947777  1
  H+  H110  1  0.17070665  0.97520876  0.14876501  1
  H+  H111  1  0.32079182  0.79938860  0.75248640  1
  H+  H112  1  0.36062533  0.43848318  0.83116219  1
  H+  H113  1  0.17297164  0.32959874  0.49536280  1
  H+  H114  1  0.52902840  0.42732902  0.40473479  1
  H+  H115  1  0.88993350  0.42514373  0.38495457  1
  H+  H116  1  0.49616271  0.14770822  0.73421909  1
  H+  H117  1  0.22831745  0.12101947  0.41874141  1
  H+  H118  1  0.06551704  0.53934662  0.64509064  1
  H+  H119  1  0.78352697  0.65311769  0.98402436  1
  H+  H120  1  0.82774530  0.11907582  0.77116325  1
  H+  H121  1  0.22712801  0.80381264  0.38888833  1
  H+  H122  1  0.13486660  0.84864290  0.27207820  1
  H+  H123  1  0.66830536  0.90451557  0.08063998  1
  H+  H124  1  0.69274981  0.43943241  0.08125908  1
  H+  H125  1  0.88568485  0.77908883  0.42041054  1
  H+  H126  1  0.03130554  0.84634440  0.51653653  1
  H+  H127  1  0.49621707  0.37103602  0.25001181  1
  H+  H128  1  0.44423187  0.57348482  0.13442244  1
  H+  H129  1  0.23242314  0.75998782  0.88271482  1
  H+  H130  1  0.69486573  0.53344906  0.73912182  1
  H+  H131  1  0.80478846  0.49387856  0.48824720  1
  H+  H132  1  0.56004475  0.09862609  0.83546575  1
  H+  H133  1  0.88208744  0.75170159  0.84635936  1
  H+  H134  1  0.53857457  0.78836532  0.86359523  1
  H+  H135  1  0.12459805  0.87943600  0.65380660  1
  H+  H136  1  0.76586477  0.88365576  0.60441552  1
  H+  H137  1  0.78609159  0.89407095  0.16786688  1
  H+  H138  1  0.77726232  0.23126675  0.10130178  1
  H+  H139  1  0.23528140  0.45992295  0.38693793  1
  H+  H140  1  0.44972234  0.20183132  0.64402472  1
  H+  H141  1  0.22569690  0.44735004  0.90447144  1
  H+  H142  1  0.87802494  0.09686122  0.91832645  1
  H+  H143  1  0.09702063  0.55301530  0.16125165  1
  O2-  O144  1  0.11617236  0.22745960  0.22063150  1
  O2-  O145  1  0.20287667  0.27494970  0.70640732  1
  O2-  O146  1  0.09729198  0.54915842  0.22853971  1
  O2-  O147  1  0.04224140  0.53229326  0.71000737  1
  O2-  O148  1  0.10636307  0.90285966  0.25990871  1
  O2-  O149  1  0.13336654  0.88113526  0.72157662  1
  O2-  O150  1  0.41662454  0.17839503  0.18892505  1
  O2-  O151  1  0.45232529  0.19150477  0.71398640  1
  O2-  O152  1  0.44494904  0.57667094  0.20210435  1
  O2-  O153  1  0.46518395  0.61805377  0.69583477  1
  O2-  O154  1  0.39785983  0.87213886  0.21571356  1
  O2-  O155  1  0.45857071  0.88457861  0.71292069  1
  O2-  O156  1  0.77574086  0.23681854  0.21054066  1
  O2-  O157  1  0.78013418  0.19036824  0.72117291  1
  O2-  O158  1  0.87418249  0.61895480  0.20565397  1
  O2-  O159  1  0.77741944  0.55072936  0.72489776  1
  O2-  O160  1  0.78152761  0.90170353  0.23365743  1
  O2-  O161  1  0.78400688  0.86732574  0.72933512  1
  O2-  O162  1  0.22909140  0.12504745  0.30302367  1
  O2-  O163  1  0.24882608  0.10401917  0.77699564  1
  O2-  O164  1  0.22785165  0.45699783  0.26906536  1
  O2-  O165  1  0.30419444  0.45546510  0.80507965  1
  O2-  O166  1  0.19461792  0.76151543  0.29382730  1
  O2-  O167  1  0.23995279  0.75957499  0.77576744  1
  O2-  O168  1  0.48009392  0.12012617  0.22027694  1
  O2-  O169  1  0.55607247  0.09173813  0.76713941  1
  O2-  O170  1  0.51551680  0.43773401  0.28792828  1
  O2-  O171  1  0.57388832  0.50193072  0.76473021  1
  O2-  O172  1  0.55212723  0.79693382  0.27317843  1
  O2-  O173  1  0.53632392  0.84180739  0.74435072  1
  O2-  O174  1  0.88602443  0.11591508  0.26998104  1
  O2-  O175  1  0.86347252  0.07494958  0.80069913  1
  O2-  O176  1  0.89419477  0.42868670  0.28063488  1
  O2-  O177  1  0.79749074  0.39937691  0.80360975  1
  O2-  O178  1  0.88264674  0.79006115  0.30728580  1
  O2-  O179  1  0.90780693  0.76321095  0.78174798  1
  O2-  O180  1  0.22102534  0.11500086  0.48682007  1
  O2-  O181  1  0.24135596  0.13449713  0.95826559  1
  O2-  O182  1  0.23698462  0.45870353  0.45499606  1
  O2-  O183  1  0.20900326  0.44558716  0.97076557  1
  O2-  O184  1  0.25766459  0.85188382  0.44807493  1
  O2-  O185  1  0.22890866  0.76466029  0.95213828  1
  O2-  O186  1  0.52434229  0.14250565  0.40158180  1
  O2-  O187  1  0.56855887  0.12252697  0.94914369  1
  O2-  O188  1  0.53911435  0.42961214  0.47226926  1
  O2-  O189  1  0.54481063  0.45261258  0.94784636  1
  O2-  O190  1  0.56588027  0.78877887  0.45821883  1
  O2-  O191  1  0.53933050  0.77488420  0.92945011  1
  O2-  O192  1  0.88578663  0.12836035  0.49999111  1
  O2-  O193  1  0.88387886  0.10385876  0.98579057  1
  O2-  O194  1  0.88720238  0.42770003  0.45540493  1
  O2-  O195  1  0.88333501  0.44302000  0.97417778  1
  O2-  O196  1  0.89143189  0.77713347  0.48840761  1
  O2-  O197  1  0.78921430  0.71308575  0.94287712  1
  O2-  O198  1  0.11659069  0.22543557  0.03091302  1
  O2-  O199  1  0.13477808  0.25108082  0.52525867  1
  O2-  O200  1  0.09975432  0.55525941  0.03351558  1
  O2-  O201  1  0.10912671  0.56309865  0.52460963  1
  O2-  O202  1  0.23003690  1.01739578  0.10260096  1
  O2-  O203  1  0.11395052  0.88908464  0.53672001  1
  O2-  O204  1  0.46331293  0.24137885  0.01211326  1
  O2-  O205  1  0.43938370  0.21726922  0.54213032  1
  O2-  O206  1  0.43554376  0.56311905  0.01401980  1
  O2-  O207  1  0.45865736  0.57133192  0.51362405  1
  O2-  O208  1  0.45721090  0.89123599  -0.00050188  1
  O2-  O209  1  0.42136193  0.85539817  0.52653000  1
  O2-  O210  1  0.78033202  0.22836550  0.03203358  1
  O2-  O211  1  0.81078366  0.17272546  0.53028752  1
  O2-  O212  1  0.75215896  0.50764823  0.05050656  1
  O2-  O213  1  0.75859742  0.52877542  0.50776356  1
  O2-  O214  1  0.71577069  0.88768265  0.04047743  1
  O2-  O215  1  0.77459885  0.89937294  0.53838087  1
