# generated using pymatgen
data_H2O
_symmetry_space_group_name_H-M   'P 1'
_cell_length_a   13.52356249
_cell_length_b   13.51848769
_cell_length_c   14.71037771
_cell_angle_alpha   90.00521945
_cell_angle_beta   89.96594083
_cell_angle_gamma   120.04693434
_symmetry_Int_Tables_number   1
_chemical_formula_structural   H2O
_chemical_formula_sum   'H144 O72'
_cell_volume   2327.91971566
_cell_formula_units_Z   72
loop_
 _symmetry_equiv_pos_site_id
 _symmetry_equiv_pos_as_xyz
  1  'x, y, z'
loop_
 _atom_type_symbol
 _atom_type_oxidation_number
  H+  1.0
  O2-  -2.0
loop_
 _atom_site_type_symbol
 _atom_site_label
 _atom_site_symmetry_multiplicity
 _atom_site_fract_x
 _atom_site_fract_y
 _atom_site_fract_z
 _atom_site_occupancy
  H+  H0  1  0.81148007  0.53863219  0.74469801  1
  H+  H1  1  -0.07356152  0.50549817  0.01185723  1
  H+  H2  1  0.15631343  0.59402304  0.51909811  1
  H+  H3  1  0.35767335  0.50684241  0.24118394  1
  H+  H4  1  0.87877097  0.71701089  0.20257717  1
  H+  H5  1  0.14382140  0.50449396  0.75253839  1
  H+  H6  1  0.40843817  0.24624127  0.11749375  1
  H+  H7  1  0.52294046  0.04745277  0.78827207  1
  H+  H8  1  0.07780163  0.50240311  0.02129263  1
  H+  H9  1  0.17481284  0.33308237  0.49790894  1
  H+  H10  1  0.18627829  0.80759009  0.77708304  1
  H+  H11  1  0.28163833  0.15614156  0.76498002  1
  H+  H12  1  0.15403496  0.30022514  0.24384557  1
  H+  H13  1  0.79410470  0.81618274  0.51727807  1
  H+  H14  1  0.48964661  0.31791275  0.51769711  1
  H+  H15  1  0.76839318  0.56458892  0.65137599  1
  H+  H16  1  0.52344448  0.69992608  0.00221858  1
  H+  H17  1  0.51866734  0.69169346  0.24980729  1
  H+  H18  1  0.19590017  0.76960963  0.50144067  1
  H+  H19  1  0.15332831  0.62721182  0.74994042  1
  H+  H20  1  0.46298775  0.89515706  0.53795093  1
  H+  H21  1  0.86491870  0.13156993  0.49861536  1
  H+  H22  1  0.50586658  0.34693540  0.75052636  1
  H+  H23  1  0.30195939  0.47460395  0.76104864  1
  H+  H24  1  0.71624779  0.51140913  0.11005820  1
  H+  H25  1  0.03398613  0.50022722  0.25282394  1
  H+  H26  1  0.50701596  0.48022736  0.75740713  1
  H+  H27  1  0.69956793  0.84891310  0.23961712  1
  H+  H28  1  0.46710709  0.18950903  0.51391748  1
  H+  H29  1  0.44963474  0.23533209  0.65441441  1
  H+  H30  1  0.82899766  0.87763023  0.74163398  1
  H+  H31  1  0.52042232  0.38572076  1.01339597  1
  H+  H32  1  0.50465523  0.48356782  0.26287618  1
  H+  H33  1  0.31876362  0.84900883  0.46071975  1
  H+  H34  1  0.48512574  0.63040671  0.74731042  1
  H+  H35  1  0.86044310  0.01363956  0.26540326  1
  H+  H36  1  0.51297060  0.53084616  0.02063821  1
  H+  H37  1  -0.03371095  0.47316001  0.49631006  1
  H+  H38  1  0.16434108  0.85582375  0.25754458  1
  H+  H39  1  0.74458727  0.17630874  0.51478573  1
  H+  H40  1  0.29245105  0.79879900  0.25332676  1
  H+  H41  1  0.10340780  0.13292519  0.74707962  1
  H+  H42  1  0.67864669  0.19936004  0.23062520  1
  H+  H43  1  0.82770893  0.63981004  0.51078829  1
  H+  H44  1  0.50402855  0.85741077  0.78986277  1
  H+  H45  1  0.94624739  0.08575383  0.73737731  1
  H+  H46  1  0.34829264  0.20780864  0.02067424  1
  H+  H47  1  0.17634827  0.46737322  0.26686213  1
  H+  H48  1  0.77130051  0.56239003  0.27712825  1
  H+  H49  1  0.15308024  0.28548360  0.01918311  1
  H+  H50  1  -0.01274746  0.83782191  0.22684714  1
  H+  H51  1  -0.02232322  0.83369438  0.49653763  1
  H+  H52  1  0.96393558  0.81457690  0.98253477  1
  H+  H53  1  0.50993223  0.17580001  0.24926178  1
  H+  H54  1  0.43419066  0.87453651  0.15585337  1
  H+  H55  1  0.85324086  0.04755229  0.99730326  1
  H+  H56  1  0.84116940  0.39702288  0.76833029  1
  H+  H57  1  0.47007414  0.82633297  0.23971149  1
  H+  H58  1  0.31680360  0.18216584  0.46666871  1
  H+  H59  1  0.02140430  0.17812349  0.02138580  1
  H+  H60  1  0.63341500  0.48629862  0.75319375  1
  H+  H61  1  0.35538795  0.49500972  0.51599401  1
  H+  H62  1  0.37325279  0.84968509  0.00628569  1
  H+  H63  1  0.80052157  0.31228212  0.00221220  1
  H+  H64  1  0.80820477  0.07225109  0.74612253  1
  H+  H65  1  0.60331752  0.45534037  0.23927969  1
  H+  H66  1  0.14621411  0.16864302  0.51859755  1
  H+  H67  1  0.17518869  1.02096217  -0.01191970  1
  H+  H68  1  0.64076442  0.82330817  0.00015832  1
  H+  H69  1  0.83576086  0.71662631  0.75374479  1
  H+  H70  1  0.30580947  0.80911272  0.78702607  1
  H+  H71  1  0.88287212  0.13872978  0.29123537  1
  H+  H72  1  0.16328970  0.13231449  0.99703796  1
  H+  H73  1  0.15061702  0.83736526  0.00356219  1
  H+  H74  1  1.02029240  0.15112884  0.51946921  1
  H+  H75  1  0.48986950  0.02840234  0.45415699  1
  H+  H76  1  0.34955633  0.18287692  0.27434525  1
  H+  H77  1  0.51449760  0.00419502  1.00070935  1
  H+  H78  1  0.49342318  0.84720211  1.00780605  1
  H+  H79  1  0.45509251  0.89907054  0.71219256  1
  H+  H80  1  0.82046290  0.85156044  0.22012264  1
  H+  H81  1  0.49099977  0.84006505  0.45665034  1
  H+  H82  1  0.82061613  0.51782754  0.51423503  1
  H+  H83  1  0.16396320  0.90669665  0.50754346  1
  H+  H84  1  0.64201065  0.49276592  0.49205285  1
  H+  H85  1  0.64273702  0.14649800  0.00235757  1
  H+  H86  1  0.76980304  0.16011077  0.21222242  1
  H+  H87  1  0.90086676  0.79088439  0.40697168  1
  H+  H88  1  0.17098821  0.44733464  0.49856931  1
  H+  H89  1  0.58696201  0.14260330  0.49237203  1
  H+  H90  1  0.38743038  0.51191030  1.01023399  1
  H+  H91  1  0.14933003  0.62369935  0.25021679  1
  H+  H92  1  1.04054645  0.16538827  0.24702096  1
  H+  H93  1  0.85937096  0.16848014  0.99579598  1
  H+  H94  1  0.21674118  0.47211406  0.99671717  1
  H+  H95  1  0.85218961  0.24348690  0.75940771  1
  H+  H96  1  0.96854702  0.50083090  0.76580348  1
  H+  H97  1  0.75901236  0.87686568  0.59274351  1
  H+  H98  1  0.64061873  0.82204435  0.77249889  1
  H+  H99  1  0.11004658  0.21611834  0.14409765  1
  H+  H100  1  0.81854669  0.86438178  1.01063183  1
  H+  H101  1  0.83937449  0.70694742  0.98276287  1
  H+  H102  1  0.49384084  0.68060094  0.48027876  1
  H+  H103  1  0.85113016  0.35278333  0.26152124  1
  H+  H104  1  0.18711087  0.70051718  0.00769402  1
  H+  H105  1  0.63955632  0.16280581  0.77824597  1
  H+  H106  1  0.18824512  0.03756172  0.35605409  1
  H+  H107  1  0.48988966  0.19730969  0.74801115  1
  H+  H108  1  0.09502129  0.86512599  0.08715271  1
  H+  H109  1  0.84051110  0.30694154  0.51842003  1
  H+  H110  1  0.79578722  0.20791926  0.66106880  1
  H+  H111  1  0.44273475  0.55332260  0.65550325  1
  H+  H112  1  0.55351829  0.10973346  0.91594561  1
  H+  H113  1  0.11614135  0.90944520  0.60463938  1
  H+  H114  1  0.55713984  0.76656331  0.33909790  1
  H+  H115  1  0.15291119  0.96011898  0.76278867  1
  H+  H116  1  0.55744500  0.14290653  0.33492317  1
  H+  H117  1  0.87696034  0.79123843  0.84406110  1
  H+  H118  1  0.09644178  0.55753514  0.11980304  1
  H+  H119  1  0.48080886  0.51138914  0.51491289  1
  H+  H120  1  0.55958591  0.44946316  0.40466885  1
  H+  H121  1  0.18277583  0.35666763  0.76154395  1
  H+  H122  1  0.20809896  0.11061261  0.85702995  1
  H+  H123  1  0.18489472  0.97299807  0.21414478  1
  H+  H124  1  0.56689017  0.77242335  0.86434576  1
  H+  H125  1  0.45989889  0.30315003  0.25692698  1
  H+  H126  1  0.03524472  0.84476919  0.75554254  1
  H+  H127  1  0.06779798  0.16793913  0.65065272  1
  H+  H128  1  0.44049858  0.54883402  0.15262210  1
  H+  H129  1  0.77062464  0.23644748  0.09219361  1
  H+  H130  1  0.86594041  0.47676587  0.26238831  1
  H+  H131  1  0.10564317  0.53152164  0.61287298  1
  H+  H132  1  0.36036440  0.89653090  0.62541730  1
  H+  H133  1  0.61788773  0.78917195  0.48631943  1
  H+  H134  1  0.22548481  0.76600511  0.91189395  1
  H+  H135  1  0.58444727  0.45893182  0.92654137  1
  H+  H136  1  0.35322372  0.83700334  0.62656153  1
  H+  H137  1  0.21348615  0.41893821  0.35349953  1
  H+  H138  1  0.23500017  0.42526477  0.90389567  1
  H+  H139  1  0.88797586  0.43185807  0.40693556  1
  H+  H140  1  0.89834240  0.07518279  0.41840304  1
  H+  H141  1  0.87282602  0.47076830  0.91413989  1
  H+  H142  1  0.77850706  0.90247709  0.10013343  1
  H+  H143  1  0.21454583  0.77359026  0.34252617  1
  O2-  O144  1  0.11666772  0.21855844  0.21647623  1
  O2-  O145  1  0.04841635  0.15434903  0.71895994  1
  O2-  O146  1  0.11367917  0.54232214  0.22760438  1
  O2-  O147  1  0.10655230  0.54628228  0.72769753  1
  O2-  O148  1  0.13231559  0.90912827  0.25223020  1
  O2-  O149  1  0.11771627  0.87979871  0.74078709  1
  O2-  O150  1  0.41712058  0.22253396  0.23396957  1
  O2-  O151  1  0.45206448  0.23961065  0.72391315  1
  O2-  O152  1  0.43856603  0.54897333  0.22084054  1
  O2-  O153  1  0.44387936  0.55002080  0.72424077  1
  O2-  O154  1  0.42027365  0.85749217  0.22109366  1
  O2-  O155  1  0.46362958  0.90258178  0.77843902  1
  O2-  O156  1  0.76203225  0.22763891  0.20550853  1
  O2-  O157  1  0.78317182  0.18748083  0.72766888  1
  O2-  O158  1  0.81049396  0.56017505  0.22113651  1
  O2-  O159  1  0.76067122  0.56579039  0.71944880  1
  O2-  O160  1  0.78037729  0.89717326  0.21663930  1
  O2-  O161  1  0.78759628  0.91930158  0.71877658  1
  O2-  O162  1  0.23358102  0.12144814  0.35008123  1
  O2-  O163  1  0.20346641  0.10753012  0.78806211  1
  O2-  O164  1  0.21327594  0.42169334  0.28527771  1
  O2-  O165  1  0.22261181  0.43385942  0.78748154  1
  O2-  O166  1  0.20953607  0.76277238  0.27554615  1
  O2-  O167  1  0.22229097  0.76185775  0.79772256  1
  O2-  O168  1  0.56376880  0.14895258  0.26824094  1
  O2-  O169  1  0.56057314  0.13162470  0.80121510  1
  O2-  O170  1  0.54392320  0.44178414  0.28580128  1
  O2-  O171  1  0.55001072  0.43875496  0.77593878  1
  O2-  O172  1  0.56128418  0.77273636  0.27127256  1
  O2-  O173  1  0.56169467  0.77482698  0.79587629  1
  O2-  O174  1  0.91717293  0.09039577  0.29561058  1
  O2-  O175  1  0.84954562  0.03050803  0.76439826  1
  O2-  O176  1  0.89686071  0.43023541  0.28974991  1
  O2-  O177  1  0.88884061  0.47659163  0.78681515  1
  O2-  O178  1  0.90789691  0.79975278  0.20290603  1
  O2-  O179  1  0.88145001  0.79641488  0.77630033  1
  O2-  O180  1  0.24009635  0.16203527  0.44299070  1
  O2-  O181  1  0.20852799  0.10143877  0.96741348  1
  O2-  O182  1  0.21408075  0.41252936  0.47246748  1
  O2-  O183  1  0.24234996  0.42196869  0.97154392  1
  O2-  O184  1  0.23604385  0.82647355  0.45429381  1
  O2-  O185  1  0.23223748  0.77791240  0.97958796  1
  O2-  O186  1  0.51815058  0.11254078  0.45566182  1
  O2-  O187  1  0.55813042  0.09556091  0.98254466  1
  O2-  O188  1  0.56033867  0.45033911  0.47259307  1
  O2-  O189  1  0.58172380  0.46430603  0.99262554  1
  O2-  O190  1  0.54163450  0.75836780  0.45366597  1
  O2-  O191  1  0.55982954  0.77966667  0.97658034  1
  O2-  O192  1  0.89474290  0.08005235  0.48530047  1
  O2-  O193  1  0.90247025  0.12934445  0.98003219  1
  O2-  O194  1  0.88551346  0.43354717  0.47515904  1
  O2-  O195  1  0.85505199  0.45444666  0.97933731  1
  O2-  O196  1  0.89757368  0.78160971  0.47283876  1
  O2-  O197  1  0.88338222  0.78598032  0.96184202  1
  O2-  O198  1  0.10352974  0.20874660  0.04670746  1
  O2-  O199  1  0.09949525  0.19761947  0.54819487  1
  O2-  O200  1  0.08554557  0.56926513  0.05300702  1
  O2-  O201  1  0.10175114  0.51998933  0.54488581  1
  O2-  O202  1  0.10263214  0.87244872  0.02100223  1
  O2-  O203  1  0.10716476  0.91936474  0.53932514  1
  O2-  O204  1  0.41140123  0.27139704  0.05369009  1
  O2-  O205  1  0.44121351  0.23867571  0.54365535  1
  O2-  O206  1  0.46246066  0.56355116  0.03844727  1
  O2-  O207  1  0.43481098  0.54491168  0.53918585  1
  O2-  O208  1  0.45536796  0.89251278  0.02655239  1
  O2-  O209  1  0.45805042  0.89228732  0.47163267  1
  O2-  O210  1  0.76958750  0.23125675  0.02395816  1
  O2-  O211  1  0.81404035  0.22902608  0.54725329  1
  O2-  O212  1  0.71140948  0.47328871  0.16855209  1
  O2-  O213  1  0.78275265  0.56048198  0.53572187  1
  O2-  O214  1  0.77683489  0.90311015  0.03190994  1
  O2-  O215  1  0.72888996  0.81935431  0.54432705  1
