# generated using pymatgen
data_H2O
_symmetry_space_group_name_H-M   'P 1'
_cell_length_a   13.52922033
_cell_length_b   13.53926414
_cell_length_c   14.70350987
_cell_angle_alpha   89.99546232
_cell_angle_beta   90.06040681
_cell_angle_gamma   120.02368162
_symmetry_Int_Tables_number   1
_chemical_formula_structural   H2O
_chemical_formula_sum   'H144 O72'
_cell_volume   2331.92991737
_cell_formula_units_Z   72
loop_
 _symmetry_equiv_pos_site_id
 _symmetry_equiv_pos_as_xyz
  1  'x, y, z'
loop_
 _atom_type_symbol
 _atom_type_oxidation_number
  H+  1.0
  O2-  -2.0
loop_
 _atom_site_type_symbol
 _atom_site_label
 _atom_site_symmetry_multiplicity
 _atom_site_fract_x
 _atom_site_fract_y
 _atom_site_fract_z
 _atom_site_occupancy
  H+  H0  1  0.67161613  0.16283522  0.80969954  1
  H+  H1  1  0.57532774  0.82038312  0.53461359  1
  H+  H2  1  0.27420654  0.48176307  0.26227925  1
  H+  H3  1  0.15517525  0.97441739  0.01419216  1
  H+  H4  1  1.04325999  0.18197372  0.50652610  1
  H+  H5  1  0.81557694  0.30915200  0.99045326  1
  H+  H6  1  0.56092957  0.88237076  0.97712274  1
  H+  H7  1  0.87435025  0.04977373  0.24651072  1
  H+  H8  1  0.13963771  0.50476165  0.01327390  1
  H+  H9  1  0.35075649  0.85597543  0.49753339  1
  H+  H10  1  0.30328865  0.16333137  0.25049710  1
  H+  H11  1  0.57104631  0.74343846  0.27499296  1
  H+  H12  1  0.76113038  0.54814757  0.59948117  1
  H+  H13  1  0.81784109  0.52013880  0.74048088  1
  H+  H14  1  0.63411276  0.16227006  0.48954028  1
  H+  H15  1  -0.00906490  0.83368289  0.49198955  1
  H+  H16  1  0.81370929  0.27667019  0.20834258  1
  H+  H17  1  0.21188966  0.77721627  0.40267497  1
  H+  H18  1  0.46356021  0.55163421  0.24706905  1
  H+  H19  1  0.62072237  0.61995115  0.55102727  1
  H+  H20  1  0.51612890  0.04139708  0.48865217  1
  H+  H21  1  0.51824439  0.16843363  -0.03661132  1
  H+  H22  1  0.10048063  0.20164664  0.60652201  1
  H+  H23  1  0.48402991  0.98600217  -0.00523900  1
  H+  H24  1  0.29836235  0.14024690  0.51923307  1
  H+  H25  1  0.18078399  0.81771801  0.26158814  1
  H+  H26  1  0.25189962  0.43676426  0.50143749  1
  H+  H27  1  0.51948246  0.35852502  0.76475355  1
  H+  H28  1  0.91501883  0.85419544  0.77276594  1
  H+  H29  1  0.83395778  0.17326713  0.19889326  1
  H+  H30  1  0.12820488  0.29310481  0.74063464  1
  H+  H31  1  0.37411210  0.83870248  0.71220529  1
  H+  H32  1  0.17817203  1.01286957  0.52361863  1
  H+  H33  1  0.47554502  0.17171973  0.52276732  1
  H+  H34  1  0.85237043  0.48459303  0.99080266  1
  H+  H35  1  0.45962444  0.15719686  0.24620559  1
  H+  H36  1  0.44214126  0.89040902  0.14357094  1
  H+  H37  1  0.88699619  0.85579305  0.48449029  1
  H+  H38  1  0.84509743  1.01676756  0.76861306  1
  H+  H39  1  0.17378809  0.15985770  0.75871180  1
  H+  H40  1  0.17495553  0.70015817  0.49321934  1
  H+  H41  1  1.04165184  0.18991944  0.22734159  1
  H+  H42  1  0.01748792  0.82686751  0.77251617  1
  H+  H43  1  -0.04437207  0.46438148  0.25455967  1
  H+  H44  1  -0.03269870  0.47737796  -0.00797958  1
  H+  H45  1  0.87323610  0.58419213  0.25004490  1
  H+  H46  1  0.83506702  0.12523940  0.79247239  1
  H+  H47  1  1.04097827  0.86513687  0.24725414  1
  H+  H48  1  -0.03706336  0.49739472  0.48633529  1
  H+  H49  1  0.16381859  0.13897568  0.98102193  1
  H+  H50  1  0.17711733  0.81936712  1.01568402  1
  H+  H51  1  0.85819519  0.70351265  -0.00767274  1
  H+  H52  1  0.63719489  0.47929447  0.75644114  1
  H+  H53  1  0.53103878  0.65043005  1.02494936  1
  H+  H54  1  0.16092807  0.85137282  0.52661160  1
  H+  H55  1  0.85751405  0.72840268  0.26265460  1
  H+  H56  1  0.13296370  0.62830049  0.24518962  1
  H+  H57  1  0.48503671  0.85280675  0.23134977  1
  H+  H58  1  0.00404536  0.49822366  0.73543027  1
  H+  H59  1  0.46448838  0.85247554  0.48166823  1
  H+  H60  1  0.69164788  0.84510058  0.72211323  1
  H+  H61  1  0.27745311  0.48062676  0.75356550  1
  H+  H62  1  0.52711658  0.71883577  0.76341621  1
  H+  H63  1  0.48668642  0.17649883  0.78121408  1
  H+  H64  1  0.87674661  0.43576526  0.84779955  1
  H+  H65  1  0.49661664  0.33700473  0.49490607  1
  H+  H66  1  0.83921789  0.87365545  0.23547014  1
  H+  H67  1  0.18587038  0.80175198  0.74543780  1
  H+  H68  1  0.48290268  0.28222966  0.24870413  1
  H+  H69  1  0.86918917  0.18177380  0.47446755  1
  H+  H70  1  0.82780562  0.84694261  0.00257754  1
  H+  H71  1  0.55941740  0.45642268  0.26094136  1
  H+  H72  1  0.37440279  0.86236803  1.00203778  1
  H+  H73  1  0.35306249  0.34270420  0.04560224  1
  H+  H74  1  0.72690392  0.88586974  0.23387067  1
  H+  H75  1  0.16827476  0.13882201  0.51711759  1
  H+  H76  1  0.79845537  0.51404915  0.50775340  1
  H+  H77  1  0.03600574  0.85686945  0.01784024  1
  H+  H78  1  0.48811343  0.52477855  0.75138903  1
  H+  H79  1  0.15570580  0.30853931  0.24028745  1
  H+  H80  1  0.47607779  0.65153686  0.02138422  1
  H+  H81  1  0.90754607  0.80848510  0.35190078  1
  H+  H82  1  0.53856384  0.70219617  0.49040603  1
  H+  H83  1  0.37206159  0.19025026  -0.01359490  1
  H+  H84  1  0.17323294  1.04374372  0.74693768  1
  H+  H85  1  0.10445540  0.27894642  0.97492260  1
  H+  H86  1  0.01510364  0.16900738  0.74965582  1
  H+  H87  1  0.82259077  0.42637438  0.24527275  1
  H+  H88  1  0.49483580  0.30756192  0.98451205  1
  H+  H89  1  0.49699485  1.02033605  0.26273411  1
  H+  H90  1  0.51827940  0.51698267  0.50838223  1
  H+  H91  1  0.71548727  0.88306707  0.99187993  1
  H+  H92  1  0.26111341  0.43465123  -0.01467161  1
  H+  H93  1  0.43105768  0.61521279  0.17386712  1
  H+  H94  1  0.73500975  0.87348437  0.48315406  1
  H+  H95  1  0.83324951  0.64493337  0.74222147  1
  H+  H96  1  0.82434239  0.34449750  0.76926708  1
  H+  H97  1  0.82186994  0.32337614  0.49931931  1
  H+  H98  1  0.13681128  0.52274956  0.50712925  1
  H+  H99  1  0.19483867  0.93202180  0.77963822  1
  H+  H100  1  0.12899546  0.61476816  0.72981483  1
  H+  H101  1  0.73623484  0.52612379  0.25554065  1
  H+  H102  1  0.71310195  0.52405173  1.00759534  1
  H+  H103  1  0.29178286  0.80549170  0.25743656  1
  H+  H104  1  0.52356609  0.47328076  0.98489830  1
  H+  H105  1  0.91014349  0.12351730  0.96999913  1
  H+  H106  1  0.68816197  0.18749892  0.98239926  1
  H+  H107  1  0.15481084  0.47264058  0.75035758  1
  H+  H108  1  0.38520441  0.45332571  0.10186089  1
  H+  H109  1  0.60407542  0.84877265  0.88461726  1
  H+  H110  1  0.20139692  0.44124255  0.40443652  1
  H+  H111  1  0.14476363  0.62638409  0.02234630  1
  H+  H112  1  0.13251302  0.88693383  0.62498214  1
  H+  H113  1  0.61991023  0.45234966  0.49584612  1
  H+  H114  1  0.79441821  0.24410748  0.58521886  1
  H+  H115  1  0.90755592  0.13656494  0.33152731  1
  H+  H116  1  0.79179755  0.90877702  0.58133026  1
  H+  H117  1  0.57434078  0.45396160  0.89245333  1
  H+  H118  1  0.45773914  0.89603218  0.63055809  1
  H+  H119  1  0.21375189  0.10577685  0.89832486  1
  H+  H120  1  0.47181825  0.57292851  0.66035731  1
  H+  H121  1  0.44202080  0.20730087  0.61760725  1
  H+  H122  1  0.77667185  0.80109888  0.69773050  1
  H+  H123  1  0.52875757  0.83672958  0.74193690  1
  H+  H124  1  0.58026386  0.42141586  0.35869683  1
  H+  H125  1  0.37007685  0.17726342  0.75905900  1
  H+  H126  1  0.15381095  0.47458234  0.26556513  1
  H+  H127  1  0.19583130  0.43483229  0.89362739  1
  H+  H128  1  0.25715176  0.75746679  0.81076032  1
  H+  H129  1  0.90787443  0.78645004  0.90469045  1
  H+  H130  1  0.11887230  0.89862914  0.15825394  1
  H+  H131  1  0.79383308  0.56540131  0.09690247  1
  H+  H132  1  0.77717265  0.21426816  0.07950118  1
  H+  H133  1  0.88202679  0.44620758  0.39794595  1
  H+  H134  1  0.09762325  0.54733787  0.15605794  1
  H+  H135  1  0.08975134  0.55411160  0.59520215  1
  H+  H136  1  0.86751660  0.06376422  0.47445845  1
  H+  H137  1  0.17399091  0.17586850  0.23861458  1
  H+  H138  1  0.17701326  0.04371018  0.24960838  1
  H+  H139  1  0.71935057  0.15380110  0.71275126  1
  H+  H140  1  0.79354849  0.89912247  0.09439549  1
  H+  H141  1  0.58597987  0.82222810  0.35614202  1
  H+  H142  1  0.18621172  0.76348504  0.92681414  1
  H+  H143  1  0.54031026  0.10543062  0.34772067  1
  O2-  O144  1  0.12548115  0.23212424  0.21073371  1
  O2-  O145  1  0.09337322  0.21176323  0.72136961  1
  O2-  O146  1  0.09093830  0.54681018  0.22415113  1
  O2-  O147  1  0.08289854  0.53317726  0.70948031  1
  O2-  O148  1  0.12220245  0.90261084  0.22631506  1
  O2-  O149  1  0.13754306  0.87444251  0.73938121  1
  O2-  O150  1  0.42511639  0.20605303  0.22815336  1
  O2-  O151  1  0.45148226  0.21212027  0.74148567  1
  O2-  O152  1  0.40633811  0.54104489  0.20184625  1
  O2-  O153  1  0.45382404  0.56891414  0.72583206  1
  O2-  O154  1  0.43064235  0.87621028  0.21037571  1
  O2-  O155  1  0.45632479  0.88517974  0.69724448  1
  O2-  O156  1  0.78839201  0.20637656  0.17279673  1
  O2-  O157  1  0.74988765  0.18949012  0.77150704  1
  O2-  O158  1  0.80696588  0.58195147  0.22128524  1
  O2-  O159  1  0.78319302  0.56624879  0.71946935  1
  O2-  O160  1  0.80219341  0.91386656  0.20439286  1
  O2-  O161  1  0.76963660  0.86926024  0.69327013  1
  O2-  O162  1  0.21635702  0.12719213  0.26586385  1
  O2-  O163  1  0.21512904  0.11797016  0.77749587  1
  O2-  O164  1  0.19688807  0.43670155  0.28800832  1
  O2-  O165  1  0.19853980  0.43662492  0.77643578  1
  O2-  O166  1  0.21271493  0.76901740  0.28267436  1
  O2-  O167  1  0.22744717  0.75141934  0.74949351  1
  O2-  O168  1  0.53307145  0.10119931  0.28075701  1
  O2-  O169  1  0.55966937  0.12708085  0.84432321  1
  O2-  O170  1  0.60481630  0.42957394  0.29244689  1
  O2-  O171  1  0.55837912  0.44148957  0.78167735  1
  O2-  O172  1  0.59160330  0.82180394  0.28893498  1
  O2-  O173  1  0.57403548  0.80297752  0.77167362  1
  O2-  O174  1  0.91095938  0.13188785  0.26375591  1
  O2-  O175  1  0.88479293  0.09075648  0.79966205  1
  O2-  O176  1  0.87629269  0.41253677  0.27944348  1
  O2-  O177  1  0.86759933  0.42863104  0.78037679  1
  O2-  O178  1  0.90125395  0.80888039  0.28247528  1
  O2-  O179  1  0.93124370  0.79450982  0.79121464  1
  O2-  O180  1  0.21540927  0.09589614  0.49827701  1
  O2-  O181  1  0.21530980  0.10817879  0.96610558  1
  O2-  O182  1  0.19463944  0.44829517  0.47130973  1
  O2-  O183  1  0.18802769  0.42492563  0.96141059  1
  O2-  O184  1  0.21658719  0.78145709  0.47054823  1
  O2-  O185  1  0.21078754  0.77301263  0.99012223  1
  O2-  O186  1  0.55246456  0.12351690  0.47118040  1
  O2-  O187  1  0.56293763  0.12797671  0.94531267  1
  O2-  O188  1  0.54152609  0.41346555  0.46528132  1
  O2-  O189  1  0.58078011  0.45527400  0.96107352  1
  O2-  O190  1  0.55992695  0.78327181  0.47506065  1
  O2-  O191  1  0.62572082  0.87951345  0.94764523  1
  O2-  O192  1  0.91021693  0.14321616  0.45075672  1
  O2-  O193  1  0.96358930  0.14788645  1.02149350  1
  O2-  O194  1  0.88095514  0.45399253  0.46499933  1
  O2-  O195  1  0.88768886  0.44003627  0.96673194  1
  O2-  O196  1  0.91846715  0.80954278  0.45933319  1
  O2-  O197  1  0.89650307  0.78540974  0.97255913  1
  O2-  O198  1  0.07230649  0.19432384  -0.02722888  1
  O2-  O199  1  0.11418769  0.19880097  0.53981346  1
  O2-  O200  1  0.10102850  0.54470506  0.04077588  1
  O2-  O201  1  0.09676048  0.56462212  0.52750119  1
  O2-  O202  1  0.11597229  0.89566974  0.04152366  1
  O2-  O203  1  0.12575342  0.89284992  0.55696001  1
  O2-  O204  1  0.45349438  0.22635678  0.00358740  1
  O2-  O205  1  0.43067054  0.20553916  0.55041391  1
  O2-  O206  1  0.37444733  0.42281219  0.03942512  1
  O2-  O207  1  0.53931166  0.59111257  0.54013049  1
  O2-  O208  1  0.45446020  0.90904118  0.02255393  1
  O2-  O209  1  0.43564227  0.89778826  0.51140370  1
  O2-  O210  1  0.77082987  0.22417891  0.00676514  1
  O2-  O211  1  0.78546194  0.24035524  0.51929077  1
  O2-  O212  1  0.79454955  0.56418357  0.02954495  1
  O2-  O213  1  0.74467798  0.53673191  0.53327211  1
  O2-  O214  1  0.79295940  0.89436379  0.02540202  1
  O2-  O215  1  0.80716527  0.92364702  0.51448074  1
