# generated using pymatgen
data_H2O
_symmetry_space_group_name_H-M   'P 1'
_cell_length_a   13.53048024
_cell_length_b   13.53414980
_cell_length_c   14.70195769
_cell_angle_alpha   89.96348559
_cell_angle_beta   90.06090748
_cell_angle_gamma   120.03653139
_symmetry_Int_Tables_number   1
_chemical_formula_structural   H2O
_chemical_formula_sum   'H144 O72'
_cell_volume   2330.71812858
_cell_formula_units_Z   72
loop_
 _symmetry_equiv_pos_site_id
 _symmetry_equiv_pos_as_xyz
  1  'x, y, z'
loop_
 _atom_type_symbol
 _atom_type_oxidation_number
  H+  1.0
  O2-  -2.0
loop_
 _atom_site_type_symbol
 _atom_site_label
 _atom_site_symmetry_multiplicity
 _atom_site_fract_x
 _atom_site_fract_y
 _atom_site_fract_z
 _atom_site_occupancy
  H+  H0  1  0.43735596  0.82320197  0.49762546  1
  H+  H1  1  0.66684254  0.81904549  0.49993660  1
  H+  H2  1  0.87959086  0.09132504  0.37972368  1
  H+  H3  1  0.30207288  0.80971294  0.94360383  1
  H+  H4  1  0.84360236  0.69936568  0.76223689  1
  H+  H5  1  0.96796071  0.47523435  0.26997742  1
  H+  H6  1  0.84738607  0.35246890  0.49886782  1
  H+  H7  1  0.13931511  0.62065173  0.50533472  1
  H+  H8  1  0.75961194  0.76643805  0.97334776  1
  H+  H9  1  0.82433357  0.95910287  0.49806977  1
  H+  H10  1  0.29380938  0.46704642  0.75631788  1
  H+  H11  1  0.14185702  0.51737762  0.00230438  1
  H+  H12  1  0.78612900  0.60999336  0.01014717  1
  H+  H13  1  0.51892521  0.35161694  0.76597025  1
  H+  H14  1  0.83964941  0.81624237  0.75465612  1
  H+  H15  1  0.02358563  0.50001407  0.51319097  1
  H+  H16  1  0.51167637  1.01978865  0.75814520  1
  H+  H17  1  0.14921588  0.62395662  0.23392534  1
  H+  H18  1  0.17513573  0.48127406  0.48773620  1
  H+  H19  1  0.18331904  1.02398829  0.26250058  1
  H+  H20  1  0.51207967  0.70112212  0.29181846  1
  H+  H21  1  0.57454941  0.84662547  0.53231485  1
  H+  H22  1  0.13653793  0.17759814  0.72875425  1
  H+  H23  1  0.98791011  0.50329363  0.99577806  1
  H+  H24  1  0.85276305  0.48954422  0.77404659  1
  H+  H25  1  0.53705735  0.82806897  1.00373726  1
  H+  H26  1  0.83489075  0.84367140  0.49046953  1
  H+  H27  1  0.27964944  0.80832323  0.48204521  1
  H+  H28  1  0.85322925  0.04669021  0.99551556  1
  H+  H29  1  0.12851544  0.03584690  0.96183441  1
  H+  H30  1  0.47656335  0.83037271  0.74190752  1
  H+  H31  1  -0.00002948  0.85813028  0.00412809  1
  H+  H32  1  0.85447619  0.49501811  0.99646049  1
  H+  H33  1  0.79683039  0.26555788  0.24933479  1
  H+  H34  1  0.13604113  0.19738282  0.00036987  1
  H+  H35  1  0.95287128  0.14178298  0.76103058  1
  H+  H36  1  0.13536806  0.29431554  0.73338467  1
  H+  H37  1  0.82580898  0.64368505  0.24044322  1
  H+  H38  1  0.88799138  0.43847476  0.41382300  1
  H+  H39  1  0.68502946  0.84592573  0.23350816  1
  H+  H40  1  0.82206060  0.13492556  0.24782094  1
  H+  H41  1  0.29986471  0.81085089  0.25088001  1
  H+  H42  1  0.99346942  0.81075363  0.49380137  1
  H+  H43  1  0.29636103  0.14811445  0.75835602  1
  H+  H44  1  0.01169597  0.73804206  0.56320459  1
  H+  H45  1  0.48204240  0.49581964  0.74903350  1
  H+  H46  1  0.50549303  0.47163329  0.26096992  1
  H+  H47  1  0.85645504  0.48482818  0.27270327  1
  H+  H48  1  0.18802530  0.35985749  0.25730361  1
  H+  H49  1  0.80175503  0.17815137  0.75717315  1
  H+  H50  1  0.15079194  0.18011349  0.23518788  1
  H+  H51  1  0.80347771  0.29622982  0.76558688  1
  H+  H52  1  0.29193443  0.48982211  0.97021129  1
  H+  H53  1  0.47407638  0.63868540  0.52914708  1
  H+  H54  1  0.20569359  0.83585324  0.81595226  1
  H+  H55  1  0.52510212  0.47602812  0.97742694  1
  H+  H56  1  0.70342905  0.16981020  0.50090397  1
  H+  H57  1  0.64803050  0.13502459  0.25521400  1
  H+  H58  1  0.62977426  0.45827966  0.99674607  1
  H+  H59  1  0.69886714  0.85154440  0.08275111  1
  H+  H60  1  0.35993963  0.16677074  0.24160901  1
  H+  H61  1  0.09879234  0.87512522  0.66151857  1
  H+  H62  1  0.51019885  0.12100882  0.48052305  1
  H+  H63  1  0.35737866  0.51141376  0.25693752  1
  H+  H64  1  0.82014266  0.17217581  0.49053958  1
  H+  H65  1  0.36382488  0.05671263  0.57226362  1
  H+  H66  1  0.03827518  0.84957942  0.22392378  1
  H+  H67  1  0.31875407  0.83439658  0.79166153  1
  H+  H68  1  0.80454855  0.96133957  0.73481324  1
  H+  H69  1  0.84464343  0.64033062  0.52347525  1
  H+  H70  1  0.17357015  0.37241659  0.98641772  1
  H+  H71  1  -0.03806533  0.13831975  0.46825186  1
  H+  H72  1  0.82411019  0.74252825  0.89322593  1
  H+  H73  1  0.13770904  0.50259016  0.74216092  1
  H+  H74  1  0.16624670  0.15431103  0.49366318  1
  H+  H75  1  -0.05311563  0.13713583  0.24224340  1
  H+  H76  1  0.02345153  0.85071608  0.74938723  1
  H+  H77  1  0.29037379  1.01741798  0.05057813  1
  H+  H78  1  0.48619670  -0.03352629  0.23712650  1
  H+  H79  1  0.89756542  0.79514903  0.33189827  1
  H+  H80  1  0.69945459  0.51150420  0.74881643  1
  H+  H81  1  1.02454037  0.85319362  0.95962075  1
  H+  H82  1  0.57532658  0.38973854  0.49506086  1
  H+  H83  1  0.62831200  0.14384858  0.76546815  1
  H+  H84  1  0.17427683  0.03089190  0.75209154  1
  H+  H85  1  0.47701202  0.28138249  0.22290294  1
  H+  H86  1  0.57303209  0.57673895  0.47554487  1
  H+  H87  1  0.24954445  0.87205994  0.04251311  1
  H+  H88  1  0.15075378  0.50673471  0.23609443  1
  H+  H89  1  0.79785974  0.96187516  0.21310698  1
  H+  H90  1  0.43884603  0.54398376  0.60526640  1
  H+  H91  1  0.32749876  0.15652545  1.00735869  1
  H+  H92  1  0.29355766  0.48107897  0.49080434  1
  H+  H93  1  0.13969390  0.30140813  0.50370877  1
  H+  H94  1  0.69995094  0.16370824  1.01835035  1
  H+  H95  1  0.84157364  0.16034530  0.00484566  1
  H+  H96  1  0.70886086  0.52301590  0.24685889  1
  H+  H97  1  -0.03051694  0.48299777  0.76777935  1
  H+  H98  1  0.55439620  0.33083505  0.47608073  1
  H+  H99  1  0.62993764  0.80590913  0.75687215  1
  H+  H100  1  0.47675545  0.16381450  0.75580312  1
  H+  H101  1  0.15246357  0.83966531  0.23852923  1
  H+  H102  1  0.49485997  0.63881587  -0.00302933  1
  H+  H103  1  0.52038661  0.13150028  0.25625348  1
  H+  H104  1  0.85561175  0.82463047  0.23693368  1
  H+  H105  1  0.47934774  0.84535740  0.24275408  1
  H+  H106  1  0.87885195  0.10549886  0.85251089  1
  H+  H107  1  0.51509687  0.00821930  0.98627544  1
  H+  H108  1  0.89880905  0.45970041  0.89812930  1
  H+  H109  1  0.20929796  0.43278288  0.84145364  1
  H+  H110  1  0.21523364  0.10409683  0.35064276  1
  H+  H111  1  0.56074285  0.42851978  0.85512664  1
  H+  H112  1  0.19358727  0.11710624  0.87902386  1
  H+  H113  1  0.78080721  0.54678559  0.10539612  1
  H+  H114  1  0.39993246  0.16335472  0.09861061  1
  H+  H115  1  0.61590243  0.58737496  0.37555600  1
  H+  H116  1  0.09302369  0.21952370  0.59192243  1
  H+  H117  1  0.56081043  0.08665673  0.89851455  1
  H+  H118  1  0.33392344  0.13922833  0.52214540  1
  H+  H119  1  0.55271344  0.08613153  0.38917461  1
  H+  H120  1  0.80457140  0.71325335  0.43410758  1
  H+  H121  1  0.42808029  0.86643698  0.65546594  1
  H+  H122  1  0.79840014  0.56461772  0.66980535  1
  H+  H123  1  0.47216710  0.95510040  0.49894301  1
  H+  H124  1  0.14967390  0.02953334  0.49463850  1
  H+  H125  1  0.02154872  0.20041960  0.01327784  1
  H+  H126  1  0.09744098  0.54347501  0.65702557  1
  H+  H127  1  0.21555746  0.76649499  0.33762803  1
  H+  H128  1  0.10183544  0.54576140  0.09713848  1
  H+  H129  1  0.86751031  0.53616064  0.53347107  1
  H+  H130  1  0.76851908  0.19792862  0.11367098  1
  H+  H131  1  0.56393815  0.77555044  0.85109622  1
  H+  H132  1  0.15288799  0.78954076  0.47850599  1
  H+  H133  1  0.17487405  0.90731764  0.11500108  1
  H+  H134  1  0.22078612  0.43925216  0.34774811  1
  H+  H135  1  0.11461619  0.22846530  0.14873710  1
  H+  H136  1  0.42978747  0.87036283  0.10433140  1
  H+  H137  1  0.77625899  0.88432651  0.64384916  1
  H+  H138  1  0.43362479  0.52720462  0.05767236  1
  H+  H139  1  0.48057667  0.61324649  0.74965906  1
  H+  H140  1  0.45456223  0.59107890  0.18508794  1
  H+  H141  1  0.43695209  0.20052086  0.66683678  1
  H+  H142  1  0.53550511  0.40884575  0.33809165  1
  H+  H143  1  0.56427896  0.79658427  0.36806038  1
  O2-  O144  1  0.11490049  0.22554937  0.21684912  1
  O2-  O145  1  0.09190686  0.21416800  0.70879776  1
  O2-  O146  1  0.10632783  0.54247661  0.21420448  1
  O2-  O147  1  0.09411060  0.54057741  0.72427133  1
  O2-  O148  1  0.12300907  0.88896863  0.21222032  1
  O2-  O149  1  0.10472549  0.89000171  0.72751144  1
  O2-  O150  1  0.43482858  0.19891779  0.20902535  1
  O2-  O151  1  0.43814395  0.20773758  0.73379341  1
  O2-  O152  1  0.44460251  0.55798152  0.24552407  1
  O2-  O153  1  0.44013628  0.53428240  0.72507957  1
  O2-  O154  1  0.44039335  0.88333794  0.21411892  1
  O2-  O155  1  0.43708198  0.87240060  0.72218909  1
  O2-  O156  1  0.75710688  0.18720382  0.22601919  1
  O2-  O157  1  0.75791278  0.21693298  0.74327283  1
  O2-  O158  1  0.78806645  0.56051476  0.22429339  1
  O2-  O159  1  0.78340669  0.55871937  0.73664950  1
  O2-  O160  1  0.75195528  0.87934298  0.19233425  1
  O2-  O161  1  0.76524259  0.88105283  0.71130763  1
  O2-  O162  1  0.22216905  0.10522999  0.28331377  1
  O2-  O163  1  0.21243323  0.11338252  0.77102447  1
  O2-  O164  1  0.22873457  0.44147241  0.27960382  1
  O2-  O165  1  0.21148867  0.42845874  0.77347306  1
  O2-  O166  1  0.21754085  0.76775017  0.26948273  1
  O2-  O167  1  0.26113264  0.81626608  0.84020425  1
  O2-  O168  1  0.55663501  0.08894506  0.27974848  1
  O2-  O169  1  0.54374081  0.09785279  0.78330148  1
  O2-  O170  1  0.54818806  0.43059645  0.27392023  1
  O2-  O171  1  0.55934339  0.43288481  0.78641938  1
  O2-  O172  1  0.55275461  0.78476767  0.30135785  1
  O2-  O173  1  0.55181943  0.76416196  0.78488637  1
  O2-  O174  1  0.86779439  0.08997334  0.26387953  1
  O2-  O175  1  0.87335753  0.09794236  0.78483971  1
  O2-  O176  1  0.89059375  0.44045171  0.29740619  1
  O2-  O177  1  0.89103865  0.44788826  0.79810915  1
  O2-  O178  1  0.89988255  0.79034906  0.26127522  1
  O2-  O179  1  0.88219428  0.78112943  0.78264200  1
  O2-  O180  1  0.20254368  0.10715412  0.47405660  1
  O2-  O181  1  0.18289883  0.11552696  0.94755046  1
  O2-  O182  1  0.21587497  0.44135377  0.46322409  1
  O2-  O183  1  0.20937345  0.44928123  0.95578688  1
  O2-  O184  1  0.20348959  0.76145276  0.45335593  1
  O2-  O185  1  0.30747837  0.80025529  1.01236568  1
  O2-  O186  1  0.54885353  0.08014500  0.45869461  1
  O2-  O187  1  0.57356506  0.08354920  0.96480773  1
  O2-  O188  1  0.63964572  0.59025003  0.43839141  1
  O2-  O189  1  0.55294286  0.42228847  0.96799391  1
  O2-  O190  1  0.57978284  0.79230546  0.49183109  1
  O2-  O191  1  0.57574016  0.78478634  0.98432130  1
  O2-  O192  1  0.88137472  0.09151866  0.44827205  1
  O2-  O193  1  0.88933908  0.12516682  0.97353430  1
  O2-  O194  1  0.88946928  0.43653790  0.48198786  1
  O2-  O195  1  0.90252743  0.46338087  0.96932388  1
  O2-  O196  1  0.88014762  0.78244302  0.43814885  1
  O2-  O197  1  0.78363058  0.71287201  0.95200121  1
  O2-  O198  1  0.10464104  0.24066748  0.03254401  1
  O2-  O199  1  0.09959421  0.21978413  0.52377349  1
  O2-  O200  1  0.09982381  0.55308621  0.02965534  1
  O2-  O201  1  0.10674536  0.54324574  0.53233093  1
  O2-  O202  1  0.21817133  0.92564506  0.05439095  1
  O2-  O203  1  0.05713381  0.81465960  0.53506923  1
  O2-  O204  1  0.36888954  0.12364489  0.03879402  1
  O2-  O205  1  0.39896183  0.13545832  0.55108770  1
  O2-  O206  1  0.44204097  0.55443164  -0.00455539  1
  O2-  O207  1  0.43815315  0.55535286  0.53787738  1
  O2-  O208  1  0.42988038  0.86486132  0.03462008  1
  O2-  O209  1  0.41974239  0.87670263  0.52791918  1
  O2-  O210  1  0.77811069  0.20662786  0.04525360  1
  O2-  O211  1  0.78483384  0.21474667  0.51691111  1
  O2-  O212  1  0.77373419  0.53655271  0.03798027  1
  O2-  O213  1  0.86769358  0.60078255  0.56723876  1
  O2-  O214  1  0.69604332  0.85339665  0.01338390  1
  O2-  O215  1  0.79187034  0.88069948  0.52459181  1
