# generated using pymatgen
data_H2O
_symmetry_space_group_name_H-M   'P 1'
_cell_length_a   13.49378324
_cell_length_b   13.50904924
_cell_length_c   14.67131860
_cell_angle_alpha   89.96872225
_cell_angle_beta   90.02738383
_cell_angle_gamma   120.00968750
_symmetry_Int_Tables_number   1
_chemical_formula_structural   H2O
_chemical_formula_sum   'H144 O72'
_cell_volume   2315.87873237
_cell_formula_units_Z   72
loop_
 _symmetry_equiv_pos_site_id
 _symmetry_equiv_pos_as_xyz
  1  'x, y, z'
loop_
 _atom_type_symbol
 _atom_type_oxidation_number
  H+  1.0
  O2-  -2.0
loop_
 _atom_site_type_symbol
 _atom_site_label
 _atom_site_symmetry_multiplicity
 _atom_site_fract_x
 _atom_site_fract_y
 _atom_site_fract_z
 _atom_site_occupancy
  H+  H0  1  -0.03905030  0.80612006  0.49651822  1
  H+  H1  1  0.43791716  0.23418128  0.10223587  1
  H+  H2  1  0.33684435  0.54003913  0.02645630  1
  H+  H3  1  0.15188151  -0.02716763  1.00526656  1
  H+  H4  1  0.53625697  0.17341949  0.50837042  1
  H+  H5  1  0.01038277  0.16257431  0.73581667  1
  H+  H6  1  0.96647487  0.48857151  0.97810691  1
  H+  H7  1  0.82329387  0.16690791  0.72902431  1
  H+  H8  1  0.03643372  0.85192848  0.00482417  1
  H+  H9  1  0.03465840  0.51102513  0.50138727  1
  H+  H10  1  0.04058260  0.84387861  0.23983305  1
  H+  H11  1  0.82177386  0.97332855  0.71940291  1
  H+  H12  1  0.98186980  0.15435698  1.01013773  1
  H+  H13  1  0.49358005  0.19357743  0.24751434  1
  H+  H14  1  0.49836145  0.51164804  -0.01715838  1
  H+  H15  1  0.83335989  0.53050467  0.02300369  1
  H+  H16  1  0.30955675  0.80991558  0.28553516  1
  H+  H17  1  0.81649703  0.96671547  0.00138688  1
  H+  H18  1  0.64735258  0.15385045  0.73945317  1
  H+  H19  1  0.81361366  0.84637829  -0.00330415  1
  H+  H20  1  0.79982066  0.83184520  0.50315683  1
  H+  H21  1  0.64904917  0.15226904  0.98123957  1
  H+  H22  1  0.86162089  0.19431869  0.46550744  1
  H+  H23  1  0.36996178  0.86814483  -0.05226359  1
  H+  H24  1  0.18531682  0.67123893  0.75905085  1
  H+  H25  1  0.14805613  0.28640693  0.02338161  1
  H+  H26  1  0.30666399  0.48323496  0.48551952  1
  H+  H27  1  0.57358037  0.44521787  0.40621803  1
  H+  H28  1  0.19103628  0.80772577  0.27131105  1
  H+  H29  1  0.14120519  0.61677817  0.25204132  1
  H+  H30  1  0.52248729  0.36662590  0.27054031  1
  H+  H31  1  0.13735437  0.43526087  0.97825056  1
  H+  H32  1  0.16343383  0.29927917  0.50986344  1
  H+  H33  1  0.76788430  0.87973059  0.59067666  1
  H+  H34  1  0.29301853  0.15358380  -0.00872253  1
  H+  H35  1  0.49284068  0.97134852  0.72971698  1
  H+  H36  1  0.52006416  0.70443094  0.48518860  1
  H+  H37  1  0.53117061  0.66708409  0.22929900  1
  H+  H38  1  0.24251314  0.44600189  0.32997240  1
  H+  H39  1  1.02916318  0.17839640  0.26731523  1
  H+  H40  1  0.84698009  0.80282675  0.26035608  1
  H+  H41  1  0.49152755  0.85081711  0.73351764  1
  H+  H42  1  0.84487804  0.68819374  0.50852713  1
  H+  H43  1  0.36667002  0.18404888  0.51346759  1
  H+  H44  1  0.71057331  0.19645777  0.50731083  1
  H+  H45  1  0.18925300  0.57752056  0.04506829  1
  H+  H46  1  0.87315449  0.43899154  0.82326732  1
  H+  H47  1  0.82678648  0.04756625  0.35953407  1
  H+  H48  1  0.50404445  0.86820163  0.27627869  1
  H+  H49  1  0.19444526  0.83773703  0.97834453  1
  H+  H50  1  0.16421090  0.33954024  0.76011351  1
  H+  H51  1  0.58661084  0.13052243  0.88114268  1
  H+  H52  1  0.88078484  0.76805143  0.89834007  1
  H+  H53  1  0.14528551  0.84113153  0.51081483  1
  H+  H54  1  0.13581385  0.48814012  0.73762515  1
  H+  H55  1  0.48900033  0.28992602  1.00508296  1
  H+  H56  1  0.47425522  0.50746649  0.74698366  1
  H+  H57  1  0.19971857  0.48559649  0.24805953  1
  H+  H58  1  0.17922951  0.15317255  0.76046472  1
  H+  H59  1  0.48917911  0.71299919  0.99687204  1
  H+  H60  1  0.36155604  0.17876531  0.74542546  1
  H+  H61  1  0.18024869  1.03570742  0.75896308  1
  H+  H62  1  0.85222721  0.36911846  0.98961893  1
  H+  H63  1  0.50741652  0.99611986  -0.05497798  1
  H+  H64  1  0.53391273  0.05476856  0.29301426  1
  H+  H65  1  0.80494350  0.49822501  0.68795661  1
  H+  H66  1  0.30035868  0.79380728  0.75740644  1
  H+  H67  1  0.18357777  0.68599961  0.49871071  1
  H+  H68  1  0.52669631  0.15421401  0.74659626  1
  H+  H69  1  0.65384880  0.84208622  0.26236246  1
  H+  H70  1  0.48004878  0.29772112  0.74219484  1
  H+  H71  1  0.83164228  0.31720526  0.50437698  1
  H+  H72  1  0.64536435  0.47877878  0.26918907  1
  H+  H73  1  0.34715889  0.82436605  0.51350023  1
  H+  H74  1  0.62681780  0.48036073  0.72939761  1
  H+  H75  1  0.70143081  0.85011101  0.72907113  1
  H+  H76  1  0.52504478  0.52480816  0.51208746  1
  H+  H77  1  0.63725413  0.82422674  0.49242990  1
  H+  H78  1  0.67663571  0.47681119  0.97680766  1
  H+  H79  1  0.84835766  0.70038816  -0.00582023  1
  H+  H80  1  0.50601709  0.68990003  0.75454772  1
  H+  H81  1  0.49199814  0.85783100  -0.05291887  1
  H+  H82  1  0.81648366  0.49764118  0.25360136  1
  H+  H83  1  0.58175168  0.63300191  0.57388602  1
  H+  H84  1  0.65070614  0.17409512  0.27453105  1
  H+  H85  1  0.37259277  0.18812314  0.24765134  1
  H+  H86  1  0.03190941  0.86080842  0.73971233  1
  H+  H87  1  0.45096999  0.91702080  0.20605769  1
  H+  H88  1  0.84124579  0.81497870  0.74943173  1
  H+  H89  1  0.81844089  0.32461174  0.26092370  1
  H+  H90  1  0.82230612  0.20512505  0.26425647  1
  H+  H91  1  0.94573871  0.47353604  0.27664129  1
  H+  H92  1  0.85655696  0.48655322  0.49884085  1
  H+  H93  1  0.62353709  0.81680971  0.98552666  1
  H+  H94  1  0.18712890  0.47859835  0.48745694  1
  H+  H95  1  0.45446925  0.45554836  1.00298460  1
  H+  H96  1  0.04468369  0.18865717  0.49794570  1
  H+  H97  1  0.18275071  0.14267067  0.27150759  1
  H+  H98  1  0.88506514  0.76655246  0.35158142  1
  H+  H99  1  0.18530568  0.14285551  0.49552945  1
  H+  H100  1  0.84435532  0.69973395  0.73948496  1
  H+  H101  1  0.52069252  0.36441918  0.49631645  1
  H+  H102  1  0.14529012  0.16707927  0.01997192  1
  H+  H103  1  0.69394362  0.50048974  0.54086071  1
  H+  H104  1  0.84169661  0.35026693  0.74109516  1
  H+  H105  1  0.82778114  0.19309513  0.02795250  1
  H+  H106  1  0.48075651  0.83410968  0.50999219  1
  H+  H107  1  0.09797890  0.20505181  0.17333691  1
  H+  H108  1  0.57550118  0.14022515  0.41793559  1
  H+  H109  1  0.43588045  0.54347098  0.65784620  1
  H+  H110  1  0.15831205  0.66556925  0.00776647  1
  H+  H111  1  0.10880193  0.89799148  0.65144381  1
  H+  H112  1  0.88027462  0.44605956  0.39674311  1
  H+  H113  1  0.22528437  0.76694582  0.41029713  1
  H+  H114  1  0.08770738  0.55272431  0.16021349  1
  H+  H115  1  0.51695986  0.54462012  0.22423055  1
  H+  H116  1  0.19350976  0.03041133  0.26566494  1
  H+  H117  1  0.44728844  0.90731603  0.09432575  1
  H+  H118  1  0.79239378  0.21873197  0.64054020  1
  H+  H119  1  0.85894279  0.06456446  0.81647324  1
  H+  H120  1  0.78246639  0.55561102  0.11340194  1
  H+  H121  1  0.78332421  0.23567515  0.11180241  1
  H+  H122  1  0.84235749  0.96458399  0.21570876  1
  H+  H123  1  0.39017028  0.85276421  0.09855071  1
  H+  H124  1  0.02223391  0.49796521  0.72836443  1
  H+  H125  1  0.20433199  0.41682056  0.89898656  1
  H+  H126  1  0.28423824  0.46015342  0.76299259  1
  H+  H127  1  0.81885780  0.62028593  0.24677213  1
  H+  H128  1  0.44139705  0.22683481  0.60510122  1
  H+  H129  1  0.21493872  0.11233795  0.90003265  1
  H+  H130  1  0.42617291  0.59859645  0.10846669  1
  H+  H131  1  0.12340966  0.88503976  0.15363558  1
  H+  H132  1  0.11009824  0.54005683  0.59253408  1
  H+  H133  1  0.91573563  0.15123472  0.92010358  1
  H+  H134  1  0.55085868  0.77136378  0.84087832  1
  H+  H135  1  0.66656947  0.37722840  0.91668391  1
  H+  H136  1  0.10120388  0.21135494  0.65218710  1
  H+  H137  1  0.57623113  0.79699813  0.35456873  1
  H+  H138  1  0.14691645  0.96033931  0.50624714  1
  H+  H139  1  0.44090193  0.87770696  0.60705978  1
  H+  H140  1  0.77630256  0.88034471  0.13559944  1
  H+  H141  1  0.22081423  0.77586270  0.89132253  1
  H+  H142  1  0.58388876  0.44645498  0.83202185  1
  H+  H143  1  0.22768057  0.10537455  0.40702010  1
  O2-  O144  1  0.10259956  0.19724140  0.23999627  1
  O2-  O145  1  0.09669972  0.21012768  0.71988017  1
  O2-  O146  1  0.09276515  0.53969498  0.22565535  1
  O2-  O147  1  0.10413415  0.53411199  0.70981774  1
  O2-  O148  1  0.12253888  0.88288466  0.22146012  1
  O2-  O149  1  0.11158817  0.90751092  0.71851238  1
  O2-  O150  1  0.45166306  0.23117179  0.22230259  1
  O2-  O151  1  0.44220179  0.21696860  0.72123541  1
  O2-  O152  1  0.52414134  0.60792070  0.18610262  1
  O2-  O153  1  0.42834344  0.54251836  0.72500413  1
  O2-  O154  1  0.45476308  0.90577245  0.27160722  1
  O2-  O155  1  0.45101361  0.88993603  0.70800533  1
  O2-  O156  1  0.78312186  0.23975012  0.23204914  1
  O2-  O157  1  0.78643631  0.21489551  0.70849863  1
  O2-  O158  1  0.77839024  0.54142978  0.22206923  1
  O2-  O159  1  0.76406681  0.53929338  0.66659319  1
  O2-  O160  1  0.78431834  0.88546704  0.20416445  1
  O2-  O161  1  0.77959149  0.88499273  0.70340837  1
  O2-  O162  1  0.23119233  0.10894089  0.29125472  1
  O2-  O163  1  0.22302192  0.11676608  0.78411148  1
  O2-  O164  1  0.26488591  0.47774458  0.26848167  1
  O2-  O165  1  0.20423814  0.42003680  0.78641029  1
  O2-  O166  1  0.22557527  0.76405175  0.29794217  1
  O2-  O167  1  0.22722050  0.74703912  0.78923566  1
  O2-  O168  1  0.57091097  0.13881069  0.30084476  1
  O2-  O169  1  0.56784807  0.11355512  0.76626291  1
  O2-  O170  1  0.56693917  0.44543427  0.29682324  1
  O2-  O171  1  0.55757042  0.44709160  0.76813097  1
  O2-  O172  1  0.57457588  0.80429079  0.28676908  1
  O2-  O173  1  0.55051117  0.77190799  0.77292997  1
  O2-  O174  1  0.87926839  0.12783397  0.34369366  1
  O2-  O175  1  0.87889214  0.09306136  0.75453705  1
  O2-  O176  1  0.86627474  0.43629726  0.29947380  1
  O2-  O177  1  0.87356144  0.43417145  0.75606852  1
  O2-  O178  1  0.89175287  0.76862800  0.28397141  1
  O2-  O179  1  0.87698492  0.77062330  0.77503725  1
  O2-  O180  1  0.22591653  0.10165692  0.47546182  1
  O2-  O181  1  0.21165455  0.10777176  0.96857244  1
  O2-  O182  1  0.22674585  0.43584807  0.46822668  1
  O2-  O183  1  0.19801535  0.41722336  0.96786061  1
  O2-  O184  1  0.22725517  0.76899651  0.47927059  1
  O2-  O185  1  0.23549045  0.79622621  0.95899654  1
  O2-  O186  1  0.58050124  0.13787480  0.48568849  1
  O2-  O187  1  0.57459957  0.11481549  0.94836297  1
  O2-  O188  1  0.57183858  0.44603990  0.47613772  1
  O2-  O189  1  0.62363465  0.41489424  0.93337795  1
  O2-  O190  1  0.55290971  0.78619582  0.46833163  1
  O2-  O191  1  0.54516065  0.78229036  0.95907891  1
  O2-  O192  1  0.92181242  0.17612710  0.43490298  1
  O2-  O193  1  0.90136139  0.12366748  0.98295506  1
  O2-  O194  1  0.89527787  0.44988268  0.46926603  1
  O2-  O195  1  0.88577853  0.44533723  0.95866261  1
  O2-  O196  1  0.87911963  0.76180906  0.47565725  1
  O2-  O197  1  0.88560379  0.77832085  0.96578196  1
  O2-  O198  1  0.10623899  0.20703446  0.04822140  1
  O2-  O199  1  0.11849429  0.21757316  0.53006214  1
  O2-  O200  1  0.12201713  0.58527157  0.03307623  1
  O2-  O201  1  0.11585692  0.54773046  0.52450810  1
  O2-  O202  1  0.11689957  0.89118506  0.02688609  1
  O2-  O203  1  0.10165621  0.87926292  0.52845577  1
  O2-  O204  1  0.42077397  0.23020850  0.03593857  1
  O2-  O205  1  0.44655860  0.23211296  0.53702284  1
  O2-  O206  1  0.38640607  0.61375019  0.05654579  1
  O2-  O207  1  0.50856464  0.58274812  0.54422654  1
  O2-  O208  1  0.45486788  0.90612934  -0.07052424  1
  O2-  O209  1  0.43241576  0.86725307  0.53622335  1
  O2-  O210  1  0.78461986  0.23270375  0.04331745  1
  O2-  O211  1  0.79646577  0.23364046  0.52168164  1
  O2-  O212  1  0.78842369  0.56584682  0.04405377  1
  O2-  O213  1  0.77513250  0.54396015  0.56612552  1
  O2-  O214  1  0.77165184  0.88538942  0.02045941  1
  O2-  O215  1  0.75834446  0.87182573  0.52250124  1
