# generated using pymatgen
data_H2O
_symmetry_space_group_name_H-M   'P 1'
_cell_length_a   13.51006488
_cell_length_b   13.52677421
_cell_length_c   14.68377273
_cell_angle_alpha   89.99531750
_cell_angle_beta   90.07146373
_cell_angle_gamma   120.01007019
_symmetry_Int_Tables_number   1
_chemical_formula_structural   H2O
_chemical_formula_sum   'H144 O72'
_cell_volume   2323.67539705
_cell_formula_units_Z   72
loop_
 _symmetry_equiv_pos_site_id
 _symmetry_equiv_pos_as_xyz
  1  'x, y, z'
loop_
 _atom_type_symbol
 _atom_type_oxidation_number
  H+  1.0
  O2-  -2.0
loop_
 _atom_site_type_symbol
 _atom_site_label
 _atom_site_symmetry_multiplicity
 _atom_site_fract_x
 _atom_site_fract_y
 _atom_site_fract_z
 _atom_site_occupancy
  H+  H0  1  0.42356554  0.57370058  0.01765859  1
  H+  H1  1  0.52348866  0.42441516  0.38728264  1
  H+  H2  1  0.48185107  0.18029865  0.48671483  1
  H+  H3  1  0.85692658  0.50649718  0.76947702  1
  H+  H4  1  0.07799518  0.35140696  0.42802052  1
  H+  H5  1  0.82380892  0.86230742  0.01506833  1
  H+  H6  1  0.49224868  0.64659490  0.73922274  1
  H+  H7  1  0.16424531  0.53721897  0.23780269  1
  H+  H8  1  0.19165245  0.82045153  0.48586257  1
  H+  H9  1  0.16569674  0.65660389  0.24360222  1
  H+  H10  1  0.83422999  0.80386778  0.77040095  1
  H+  H11  1  0.80819524  0.63017486  0.74610412  1
  H+  H12  1  0.81957134  -0.04056097  0.74269610  1
  H+  H13  1  0.27686048  0.17642984  0.28595955  1
  H+  H14  1  0.52908767  0.70243808  0.49693887  1
  H+  H15  1  0.12449976  0.16438828  0.24437344  1
  H+  H16  1  0.00410591  0.81288283  0.51103549  1
  H+  H17  1  0.46201052  0.90437116  0.59792009  1
  H+  H18  1  -0.03096463  0.13008871  0.74936954  1
  H+  H19  1  0.37165473  0.19771282  0.75963494  1
  H+  H20  1  0.66131233  0.15259292  0.25471069  1
  H+  H21  1  0.52838185  0.49359168  0.75704561  1
  H+  H22  1  0.53022690  0.83470125  0.98627757  1
  H+  H23  1  -0.02146509  0.49897919  0.26153117  1
  H+  H24  1  0.27647082  0.47684473  0.04295444  1
  H+  H25  1  0.98024506  0.82388483  0.27068852  1
  H+  H26  1  0.65892253  0.17291335  0.76627103  1
  H+  H27  1  0.08649225  0.34321491  0.98569007  1
  H+  H28  1  0.77849616  0.22477946  0.14692512  1
  H+  H29  1  0.81827966  0.84375319  0.24945966  1
  H+  H30  1  0.70808733  0.82833178  0.51283143  1
  H+  H31  1  0.83762473  0.00319827  0.27682184  1
  H+  H32  1  0.80551249  0.29461874  0.00935557  1
  H+  H33  1  0.82549529  0.52735138  0.23997458  1
  H+  H34  1  0.64806688  0.50919673  0.99520047  1
  H+  H35  1  0.49305078  0.46259585  0.48839788  1
  H+  H36  1  0.21139735  0.70542527  0.71494554  1
  H+  H37  1  0.50377542  0.35957909  0.25210125  1
  H+  H38  1  0.48355065  0.32691600  0.48016565  1
  H+  H39  1  0.62836849  0.14506841  -0.04183936  1
  H+  H40  1  0.13992279  0.49490657  0.50932509  1
  H+  H41  1  0.83871180  0.51691652  0.52049681  1
  H+  H42  1  0.00652696  0.84109640  0.75603764  1
  H+  H43  1  0.15292299  0.97474872  0.24415068  1
  H+  H44  1  0.51127833  0.97606452  0.24776876  1
  H+  H45  1  0.53080293  0.55297681  0.00982508  1
  H+  H46  1  0.37906673  0.52370358  0.74600510  1
  H+  H47  1  0.17951704  0.14306920  -0.00944314  1
  H+  H48  1  0.93910253  0.48736527  1.00757670  1
  H+  H49  1  0.31100401  0.83024125  0.26373017  1
  H+  H50  1  0.01239045  0.46144650  0.74701345  1
  H+  H51  1  0.21262040  0.88372300  0.77314146  1
  H+  H52  1  0.82802915  0.64550447  0.24653811  1
  H+  H53  1  0.79618594  0.04958221  0.49742945  1
  H+  H54  1  0.83623507  0.93385885  0.50425836  1
  H+  H55  1  0.85611199  0.65169455  0.52487692  1
  H+  H56  1  0.53910213  1.05782086  0.76206513  1
  H+  H57  1  0.85041534  0.37373307  0.49279301  1
  H+  H58  1  0.80713772  0.52204179  0.02069264  1
  H+  H59  1  0.20782644  0.30170537  0.03685636  1
  H+  H60  1  0.36244887  0.83941640  1.01169693  1
  H+  H61  1  0.17614610  1.03847293  0.76438710  1
  H+  H62  1  0.36529141  0.15960710  0.01253484  1
  H+  H63  1  0.13849440  0.30907794  0.49535875  1
  H+  H64  1  0.85885471  0.03671961  0.99220331  1
  H+  H65  1  0.87537328  0.80242558  0.50972936  1
  H+  H66  1  0.39191993  0.89524037  0.74356242  1
  H+  H67  1  0.27122786  0.52968903  1.04795385  1
  H+  H68  1  0.50189216  0.47960981  0.25793567  1
  H+  H69  1  0.16877306  0.12415586  0.49899850  1
  H+  H70  1  0.17744310  0.00584440  0.49315398  1
  H+  H71  1  1.01668854  0.14867174  0.51976842  1
  H+  H72  1  0.51935989  0.36947210  0.76760239  1
  H+  H73  1  0.81690831  0.18247437  0.00378272  1
  H+  H74  1  0.94835053  0.13111655  0.27282076  1
  H+  H75  1  0.35478479  0.16854553  0.49093040  1
  H+  H76  1  0.17257327  0.70992052  0.98624990  1
  H+  H77  1  0.63510699  0.81772909  0.75628885  1
  H+  H78  1  0.47492648  0.64901345  0.24293415  1
  H+  H79  1  0.69064358  0.50857170  0.74118610  1
  H+  H80  1  0.38520024  0.85864997  0.50762749  1
  H+  H81  1  0.82523889  0.17543893  0.73701218  1
  H+  H82  1  0.15285035  0.69832260  0.72308240  1
  H+  H83  1  0.36310226  0.51599121  0.51461190  1
  H+  H84  1  0.57110068  0.47338544  0.90392569  1
  H+  H85  1  0.49214157  0.20226850  0.75774477  1
  H+  H86  1  0.17378867  0.15390000  0.75793174  1
  H+  H87  1  0.82343804  0.20548610  0.50254407  1
  H+  H88  1  0.13617586  0.55907290  0.73985276  1
  H+  H89  1  0.52934199  0.04065761  0.48674008  1
  H+  H90  1  0.86783205  0.44592414  0.91677635  1
  H+  H91  1  0.84474629  0.70268459  1.00180321  1
  H+  H92  1  0.49334944  0.86500399  0.73950884  1
  H+  H93  1  0.14524189  -0.03044208  1.00818564  1
  H+  H94  1  0.96484050  0.82069641  0.99527165  1
  H+  H95  1  0.54216977  0.14975385  0.25107958  1
  H+  H96  1  0.48344410  0.15972778  -0.00137553  1
  H+  H97  1  0.10536954  0.27392424  0.71008336  1
  H+  H98  1  0.97502781  0.15473268  0.98311568  1
  H+  H99  1  -0.02571727  0.48995345  0.49536071  1
  H+  H100  1  0.55723142  0.73365636  0.98966388  1
  H+  H101  1  0.39643218  0.15684411  0.22831178  1
  H+  H102  1  0.30767940  0.47561776  0.25774781  1
  H+  H103  1  0.81970637  0.30863798  0.23342535  1
  H+  H104  1  0.54019868  0.82518362  0.50008356  1
  H+  H105  1  0.16017007  0.86032195  0.24238870  1
  H+  H106  1  0.97033893  0.57821168  0.82336824  1
  H+  H107  1  0.17940494  0.43571916  0.76565500  1
  H+  H108  1  0.78206928  0.88982213  0.16279872  1
  H+  H109  1  0.71299861  0.87560926  0.01124004  1
  H+  H110  1  0.89192017  0.09933501  0.84156955  1
  H+  H111  1  0.44366448  0.55120933  0.60200412  1
  H+  H112  1  0.09637911  0.18878244  0.61372499  1
  H+  H113  1  0.20037499  0.09813811  0.36741415  1
  H+  H114  1  0.18253235  0.83068876  0.99559210  1
  H+  H115  1  0.56181660  0.78843290  0.84682491  1
  H+  H116  1  0.10889284  0.89470664  0.10042413  1
  H+  H117  1  0.77990582  0.57160540  0.11154003  1
  H+  H118  1  0.87428509  0.76603116  0.86182509  1
  H+  H119  1  0.06838416  0.88825426  0.66137855  1
  H+  H120  1  0.15264956  0.42291361  0.90407927  1
  H+  H121  1  0.47334582  0.58573879  0.15252114  1
  H+  H122  1  0.14060178  0.28928230  0.23927282  1
  H+  H123  1  0.78308229  0.87476624  0.65592267  1
  H+  H124  1  0.09679170  0.51537604  0.00619421  1
  H+  H125  1  0.22425784  0.35079285  0.79404050  1
  H+  H126  1  0.57050169  0.11433440  0.39472291  1
  H+  H127  1  0.17091470  0.89489311  0.58567830  1
  H+  H128  1  0.79154468  0.55704819  0.61620663  1
  H+  H129  1  0.11312644  0.22267543  0.10816646  1
  H+  H130  1  0.21577956  0.10804933  0.89775768  1
  H+  H131  1  0.70180016  0.19909941  0.50337835  1
  H+  H132  1  0.78880466  0.22748856  0.65545942  1
  H+  H133  1  0.10410716  0.52788489  0.60081333  1
  H+  H134  1  0.87344777  0.09444560  0.40312542  1
  H+  H135  1  0.22381645  0.42271024  0.34373863  1
  H+  H136  1  0.19611218  0.70340253  0.48890273  1
  H+  H137  1  0.89756207  0.45643434  0.34874064  1
  H+  H138  1  0.46245612  0.21021231  0.13569042  1
  H+  H139  1  0.44261152  0.87183335  0.09915628  1
  H+  H140  1  0.23144086  0.78757505  0.35164128  1
  H+  H141  1  0.90977606  0.77787752  0.36319966  1
  H+  H142  1  0.09640789  0.57515046  0.10064439  1
  H+  H143  1  0.25870762  0.84892052  0.85979310  1
  O2-  O144  1  0.09325908  0.20986537  0.21523146  1
  O2-  O145  1  0.09450935  0.19742047  0.70757007  1
  O2-  O146  1  0.12217994  0.57604432  0.21950799  1
  O2-  O147  1  0.08782508  0.47952834  0.72043485  1
  O2-  O148  1  0.11536785  0.89593364  0.21953907  1
  O2-  O149  1  0.08369787  0.88972772  0.72667866  1
  O2-  O150  1  0.46921049  0.21944046  0.20730983  1
  O2-  O151  1  0.45215120  0.24431168  0.74024623  1
  O2-  O152  1  0.45068404  0.57259415  0.21883238  1
  O2-  O153  1  0.45390578  0.56544961  0.71498176  1
  O2-  O154  1  0.45587328  0.89281956  0.22719660  1
  O2-  O155  1  0.46558004  0.91413715  0.71244330  1
  O2-  O156  1  0.78118061  0.22766314  0.21483269  1
  O2-  O157  1  0.79342582  0.22583230  0.72234090  1
  O2-  O158  1  0.78703810  0.56888797  0.21779192  1
  O2-  O159  1  0.77453883  0.55121155  0.71913255  1
  O2-  O160  1  0.77708410  0.88348584  0.23010151  1
  O2-  O161  1  0.77638628  0.87594745  0.72321025  1
  O2-  O162  1  0.20189549  0.11011680  0.29709188  1
  O2-  O163  1  0.21674203  0.11824307  0.78669016  1
  O2-  O164  1  0.22586390  0.43072529  0.27676446  1
  O2-  O165  1  0.23863999  0.42895166  0.80158089  1
  O2-  O166  1  0.22966668  0.79126245  0.28301779  1
  O2-  O167  1  0.28161379  0.88954026  0.80048839  1
  O2-  O168  1  0.57784154  0.10745245  0.27822933  1
  O2-  O169  1  0.57568584  0.13879394  0.78229723  1
  O2-  O170  1  0.52008093  0.42648033  0.29027666  1
  O2-  O171  1  0.56897188  0.45578624  0.78264831  1
  O2-  O172  1  0.49992792  0.82548321  0.25532163  1
  O2-  O173  1  0.55439428  0.77974357  0.77850520  1
  O2-  O174  1  0.88047310  0.08048926  0.30905393  1
  O2-  O175  1  0.88698527  0.09125202  0.77398408  1
  O2-  O176  1  0.89733796  0.45533609  0.28128457  1
  O2-  O177  1  0.91852790  0.50007769  0.80345625  1
  O2-  O178  1  0.90155690  0.78296879  0.29676042  1
  O2-  O179  1  0.87298839  0.76127963  0.79293165  1
  O2-  O180  1  0.21165952  0.08994956  0.46918896  1
  O2-  O181  1  0.21589237  0.10105570  0.96644032  1
  O2-  O182  1  0.15128783  0.38070504  0.45927556  1
  O2-  O183  1  0.09081205  0.40515790  0.94792902  1
  O2-  O184  1  0.23622055  0.78157147  0.46422511  1
  O2-  O185  1  0.22263700  0.79158626  0.96985074  1
  O2-  O186  1  0.56590137  0.12071533  0.46257790  1
  O2-  O187  1  0.54775113  0.10796570  0.93687234  1
  O2-  O188  1  0.52699524  0.41931128  0.45922922  1
  O2-  O189  1  0.56869745  0.47971143  0.97117545  1
  O2-  O190  1  0.58118333  0.78371740  0.48362670  1
  O2-  O191  1  0.58400980  0.80950425  0.96025904  1
  O2-  O192  1  0.87170076  0.10624888  0.47555785  1
  O2-  O193  1  0.89590211  0.11431465  0.96155340  1
  O2-  O194  1  0.89380596  0.45721861  0.47323677  1
  O2-  O195  1  0.85940275  0.43852770  0.98383193  1
  O2-  O196  1  0.91870801  0.76375079  0.49075665  1
  O2-  O197  1  0.88356769  0.78173494  0.97363335  1
  O2-  O198  1  0.12981075  0.23744525  0.04006388  1
  O2-  O199  1  0.09788910  0.18925902  0.53861500  1
  O2-  O200  1  0.08001192  0.57285758  0.03425491  1
  O2-  O201  1  0.11317216  0.54566998  0.53486388  1
  O2-  O202  1  0.10388643  0.88931769  0.03266142  1
  O2-  O203  1  0.13146969  0.88643688  0.52808660  1
  O2-  O204  1  0.44347036  0.19183618  0.03689082  1
  O2-  O205  1  0.43823918  0.21943145  0.50395053  1
  O2-  O206  1  0.50099024  0.60396943  0.04109041  1
  O2-  O207  1  0.44221929  0.54520692  0.53321449  1
  O2-  O208  1  0.44012637  0.86036374  0.03319718  1
  O2-  O209  1  0.46557658  0.90142783  0.52939881  1
  O2-  O210  1  0.76947485  0.21327522  0.02851049  1
  O2-  O211  1  0.78292712  0.24445791  0.52627867  1
  O2-  O212  1  0.77801252  0.57311657  0.04171900  1
  O2-  O213  1  0.80390793  0.56434197  0.54630381  1
  O2-  O214  1  0.79173526  0.90967821  0.03875166  1
  O2-  O215  1  0.79107685  0.86038860  0.53488320  1
