# generated using pymatgen
data_H2O
_symmetry_space_group_name_H-M   'P 1'
_cell_length_a   13.48826407
_cell_length_b   13.48969776
_cell_length_c   14.67834162
_cell_angle_alpha   90.00227580
_cell_angle_beta   90.00726457
_cell_angle_gamma   119.98654714
_symmetry_Int_Tables_number   1
_chemical_formula_structural   H2O
_chemical_formula_sum   'H144 O72'
_cell_volume   2313.26161970
_cell_formula_units_Z   72
loop_
 _symmetry_equiv_pos_site_id
 _symmetry_equiv_pos_as_xyz
  1  'x, y, z'
loop_
 _atom_type_symbol
 _atom_type_oxidation_number
  H+  1.0
  O2-  -2.0
loop_
 _atom_site_type_symbol
 _atom_site_label
 _atom_site_symmetry_multiplicity
 _atom_site_fract_x
 _atom_site_fract_y
 _atom_site_fract_z
 _atom_site_occupancy
  H+  H0  1  0.81979715  0.64404366  0.02089801  1
  H+  H1  1  0.81971900  0.86939498  0.26427926  1
  H+  H2  1  0.35960991  0.85073362  0.23886536  1
  H+  H3  1  0.13622106  -0.03003399  1.00567913  1
  H+  H4  1  0.19834452  0.82399940  0.48694777  1
  H+  H5  1  0.64017606  0.14234890  0.99777633  1
  H+  H6  1  0.70829007  0.84854262  0.51894897  1
  H+  H7  1  0.52118030  0.02154562  0.99661208  1
  H+  H8  1  0.56259903  0.10316991  0.86343792  1
  H+  H9  1  0.49708428  0.19566819  0.23259133  1
  H+  H10  1  0.82322074  0.52626949  0.51228025  1
  H+  H11  1  0.45600827  0.90083150  0.64624813  1
  H+  H12  1  0.64540065  0.49947980  0.75210727  1
  H+  H13  1  0.50122274  0.18257655  0.77287313  1
  H+  H14  1  0.32804145  0.50767778  0.72772066  1
  H+  H15  1  0.64231574  0.15912556  0.47872424  1
  H+  H16  1  0.52553145  0.83203080  -0.01757240  1
  H+  H17  1  0.91358133  0.15247588  0.32363921  1
  H+  H18  1  -0.02504735  0.82913326  0.25602421  1
  H+  H19  1  0.97118963  0.73138104  0.82859205  1
  H+  H20  1  0.49112641  0.52642086  0.74057872  1
  H+  H21  1  0.30970844  0.82225426  0.74349553  1
  H+  H22  1  0.52841996  0.38294766  0.77345198  1
  H+  H23  1  0.18296821  0.38053138  0.97308422  1
  H+  H24  1  0.48738578  0.53064439  0.22191164  1
  H+  H25  1  0.64668865  0.83366652  0.97956697  1
  H+  H26  1  0.89853727  0.78671484  0.40018112  1
  H+  H27  1  0.69660489  0.85902247  0.25803327  1
  H+  H28  1  0.32771726  0.16968188  0.23809516  1
  H+  H29  1  0.13756495  0.64464551  0.23954037  1
  H+  H30  1  0.53329293  0.71080647  0.48945245  1
  H+  H31  1  0.22262239  0.77676684  0.39400046  1
  H+  H32  1  0.96139297  0.48853683  0.24804316  1
  H+  H33  1  0.13342724  0.23902180  0.08583395  1
  H+  H34  1  0.19460811  0.37848005  0.73601921  1
  H+  H35  1  0.85805213  0.16047695  0.99926997  1
  H+  H36  1  0.80334975  0.29351688  0.01618738  1
  H+  H37  1  0.66815849  0.18746948  0.24620808  1
  H+  H38  1  0.25129343  0.79321084  0.89236637  1
  H+  H39  1  0.48981613  0.85512277  0.73548897  1
  H+  H40  1  0.11852430  0.22984639  0.38212223  1
  H+  H41  1  0.31393325  0.14624670  0.46277183  1
  H+  H42  1  0.85414138  0.71239279  0.25765756  1
  H+  H43  1  0.16069272  0.65111907  0.50256753  1
  H+  H44  1  0.36503660  0.16757229  0.01031604  1
  H+  H45  1  0.14639753  0.84534373  0.24095372  1
  H+  H46  1  0.14551314  0.52989799  0.22777534  1
  H+  H47  1  0.04198489  0.85397087  0.50113333  1
  H+  H48  1  0.19257651  0.82520361  0.74289045  1
  H+  H49  1  0.81622115  0.97481299  0.00788777  1
  H+  H50  1  0.86019691  0.82150497  0.49366960  1
  H+  H51  1  0.37779567  0.85699645  0.50222736  1
  H+  H52  1  0.82218229  0.84724097  0.75252852  1
  H+  H53  1  0.83880329  0.37044083  0.25633246  1
  H+  H54  1  0.81778849  0.18188831  0.73889138  1
  H+  H55  1  0.22998874  0.44195382  0.57629446  1
  H+  H56  1  0.04046186  0.19163315  0.00562917  1
  H+  H57  1  0.20631796  0.71578664  -0.01837614  1
  H+  H58  1  0.04730250  0.85771430  0.72979985  1
  H+  H59  1  0.81018813  0.85346646  0.00887768  1
  H+  H60  1  0.16765059  0.19470632  0.74008792  1
  H+  H61  1  0.51935002  0.03198256  0.76762704  1
  H+  H62  1  0.16161870  -0.02906707  0.49361960  1
  H+  H63  1  0.55608770  0.11021352  0.38580760  1
  H+  H64  1  0.52951743  0.82863531  0.49268794  1
  H+  H65  1  0.52674241  0.36459600  0.23499991  1
  H+  H66  1  0.85553343  1.03274274  0.76356874  1
  H+  H67  1  -0.03261427  0.48034468  0.76048283  1
  H+  H68  1  0.49742918  0.17377182  0.48022014  1
  H+  H69  1  0.15382791  0.52905671  0.50620963  1
  H+  H70  1  0.81632105  0.50983710  0.73674715  1
  H+  H71  1  0.84950236  0.36128107  0.75565000  1
  H+  H72  1  0.31467313  0.16026151  0.75778671  1
  H+  H73  1  0.04895438  0.21100286  0.21425762  1
  H+  H74  1  0.52973012  0.52042113  0.98222512  1
  H+  H75  1  0.48326179  0.16513647  1.01171111  1
  H+  H76  1  0.19350766  0.04367449  0.74655038  1
  H+  H77  1  0.55653447  0.78437115  0.84659541  1
  H+  H78  1  0.82074837  0.47046248  -0.00575415  1
  H+  H79  1  0.81071076  0.31091756  0.50463134  1
  H+  H80  1  0.16673035  0.32678561  0.23687449  1
  H+  H81  1  0.63616409  0.81919756  0.75818448  1
  H+  H82  1  0.69986459  0.18141810  0.74583789  1
  H+  H83  1  0.16240834  0.64445287  0.73427059  1
  H+  H84  1  0.31483630  0.50475571  0.24711334  1
  H+  H85  1  0.69563363  0.53241910  1.01500356  1
  H+  H86  1  0.43591364  0.07201092  0.30680267  1
  H+  H87  1  0.65727963  0.49719719  0.24184762  1
  H+  H88  1  0.39359907  0.52492879  0.50775416  1
  H+  H89  1  0.83339832  0.64854202  0.51580520  1
  H+  H90  1  0.81352131  0.52108365  0.23770388  1
  H+  H91  1  0.22659707  0.11228610  0.89572561  1
  H+  H92  1  0.53326609  0.48362243  0.46676384  1
  H+  H93  1  0.86717234  0.67851425  0.76028568  1
  H+  H94  1  0.49579515  0.97680523  0.50095981  1
  H+  H95  1  0.19804224  0.36522817  0.48756262  1
  H+  H96  1  0.17125775  0.18258848  0.45338360  1
  H+  H97  1  0.18863199  0.50834623  0.72556145  1
  H+  H98  1  0.37530498  0.85216669  0.00307024  1
  H+  H99  1  0.18983866  0.15712049  0.98217968  1
  H+  H100  1  0.81152539  0.02689768  0.30229986  1
  H+  H101  1  0.51861028  0.35785080  0.45764221  1
  H+  H102  1  0.97148811  0.15282844  0.76341636  1
  H+  H103  1  -0.03720734  0.82760973  -0.00066916  1
  H+  H104  1  0.77643035  0.17581498  0.26643262  1
  H+  H105  1  0.55973868  0.44376424  0.33391418  1
  H+  H106  1  0.47458236  0.97267134  0.24285118  1
  H+  H107  1  0.15423377  0.53588082  0.99490318  1
  H+  H108  1  0.48528807  0.64771711  0.23449278  1
  H+  H109  1  0.23652044  0.10525983  0.37371807  1
  H+  H110  1  0.11771461  0.57866504  0.08348653  1
  H+  H111  1  0.44799967  0.88688747  0.09846998  1
  H+  H112  1  0.48925582  0.65976791  0.98996972  1
  H+  H113  1  0.47671142  0.56730229  0.59138046  1
  H+  H114  1  0.16195603  0.97224962  0.23133962  1
  H+  H115  1  0.55172173  0.78157547  0.34993668  1
  H+  H116  1  -0.02099894  0.13746841  0.49613002  1
  H+  H117  1  0.20560298  0.16333716  0.24206476  1
  H+  H118  1  0.44093645  0.57799883  0.07681715  1
  H+  H119  1  0.12275009  0.90228439  0.63805075  1
  H+  H120  1  0.43855961  0.20795592  0.56067838  1
  H+  H121  1  0.87827250  0.77493379  0.91303383  1
  H+  H122  1  0.09393296  0.72073110  0.32113669  1
  H+  H123  1  0.78554679  0.87995860  0.65885771  1
  H+  H124  1  0.88864389  0.45518300  0.39422613  1
  H+  H125  1  0.29617958  0.49943634  0.96673287  1
  H+  H126  1  0.89544971  0.12236893  0.90785473  1
  H+  H127  1  0.76923975  0.22743256  0.59066223  1
  H+  H128  1  0.96934558  0.49469271  0.48239785  1
  H+  H129  1  0.77396207  0.56278972  0.14627741  1
  H+  H130  1  0.45908216  0.23052681  0.13517944  1
  H+  H131  1  0.57989100  0.48363489  0.89963447  1
  H+  H132  1  0.09854062  0.89124065  0.09486994  1
  H+  H133  1  0.50011298  0.24950805  0.68703771  1
  H+  H134  1  0.77080669  0.21644906  0.10749773  1
  H+  H135  1  0.85916083  0.42936993  0.90546476  1
  H+  H136  1  0.78784134  0.56312903  0.64708928  1
  H+  H137  1  0.83054040  0.96237172  0.53387476  1
  H+  H138  1  0.49047353  0.64743610  0.74011299  1
  H+  H139  1  0.10992739  0.22025753  0.65610198  1
  H+  H140  1  0.85694042  0.11292491  0.47028346  1
  H+  H141  1  0.23670819  0.47366528  0.33623927  1
  H+  H142  1  0.50798044  0.82049521  0.26178106  1
  H+  H143  1  0.11582308  0.56620975  0.64372869  1
  O2-  O144  1  0.13098505  0.24248926  0.22221679  1
  O2-  O145  1  0.12508106  0.23614250  0.72103392  1
  O2-  O146  1  0.09957019  0.56455898  0.20917149  1
  O2-  O147  1  0.12346932  0.56176625  0.71182539  1
  O2-  O148  1  0.11161641  0.89128381  0.21389013  1
  O2-  O149  1  0.12667777  0.90582081  0.70662634  1
  O2-  O150  1  0.46577837  0.24495911  0.20578549  1
  O2-  O151  1  0.46734808  0.23074928  0.74791260  1
  O2-  O152  1  0.44334662  0.56859106  0.20638060  1
  O2-  O153  1  0.44989087  0.56589907  0.71509071  1
  O2-  O154  1  0.44005921  0.88952170  0.22038646  1
  O2-  O155  1  0.45092832  0.89768683  0.71440010  1
  O2-  O156  1  0.75013061  0.22211097  0.23137903  1
  O2-  O157  1  0.77770441  0.22288932  0.71776621  1
  O2-  O158  1  0.77046904  0.56044775  0.21716573  1
  O2-  O159  1  0.78251229  0.55796187  0.71732166  1
  O2-  O160  1  0.78010144  0.91356193  0.25446494  1
  O2-  O161  1  0.78479066  0.88737705  0.72768503  1
  O2-  O162  1  0.24664618  0.12351930  0.26157113  1
  O2-  O163  1  0.23138376  0.12390683  0.77122676  1
  O2-  O164  1  0.23265595  0.46200237  0.27051498  1
  O2-  O165  1  0.23670905  0.46352677  0.72328421  1
  O2-  O166  1  0.17129685  0.75619234  0.29598847  1
  O2-  O167  1  0.22746049  0.77891949  0.76318880  1
  O2-  O168  1  0.51329315  0.09796152  0.28463399  1
  O2-  O169  1  0.56151726  0.11074281  0.79414070  1
  O2-  O170  1  0.56634376  0.44927087  0.26115406  1
  O2-  O171  1  0.56548408  0.46736160  0.77702553  1
  O2-  O172  1  0.54620429  0.77668343  0.28199648  1
  O2-  O173  1  0.55424863  0.77904347  0.77678726  1
  O2-  O174  1  0.83124569  0.10504416  0.33013384  1
  O2-  O175  1  0.89129519  0.11380753  0.78446080  1
  O2-  O176  1  0.88200913  0.45273957  0.27477524  1
  O2-  O177  1  0.88605941  0.44238470  0.77814808  1
  O2-  O178  1  0.89600118  0.79063222  0.28348746  1
  O2-  O179  1  0.92500100  0.75353832  0.79189537  1
  O2-  O180  1  0.23196804  0.10664646  0.44226763  1
  O2-  O181  1  0.22541001  0.11080944  0.96319104  1
  O2-  O182  1  0.23634684  0.44668022  0.50961762  1
  O2-  O183  1  0.21528153  0.45772678  0.94619361  1
  O2-  O184  1  0.23735092  0.78255714  0.46414208  1
  O2-  O185  1  0.25816922  0.79676008  0.95900239  1
  O2-  O186  1  0.55984907  0.11231264  0.45635138  1
  O2-  O187  1  0.56084468  0.10260734  0.97143336  1
  O2-  O188  1  0.55533721  0.43571373  0.43050970  1
  O2-  O189  1  0.57788906  0.48579564  0.96680237  1
  O2-  O190  1  0.57284791  0.79173123  0.46832938  1
  O2-  O191  1  0.56454338  0.79283602  0.95364855  1
  O2-  O192  1  0.89978531  0.10038081  0.51892354  1
  O2-  O193  1  0.90219991  0.12406011  0.97531282  1
  O2-  O194  1  0.88827574  0.45344791  0.46230253  1
  O2-  O195  1  0.84032725  0.41355688  0.97055206  1
  O2-  O196  1  0.90473721  0.78672832  0.46827775  1
  O2-  O197  1  0.87754608  0.77924373  0.97981364  1
  O2-  O198  1  0.12515100  0.23310792  0.01935109  1
  O2-  O199  1  0.12942619  0.22784645  0.44794917  1
  O2-  O200  1  0.12603727  0.58720541  0.01667240  1
  O2-  O201  1  0.11485899  0.56998886  0.52774314  1
  O2-  O202  1  0.08585043  0.89091992  0.02815711  1
  O2-  O203  1  0.12358780  0.89447756  0.52364992  1
  O2-  O204  1  0.44366537  0.20517930  0.03598343  1
  O2-  O205  1  0.45081440  0.21529559  0.49519445  1
  O2-  O206  1  0.44377226  0.57699957  0.00969858  1
  O2-  O207  1  0.47605026  0.56626478  0.52366030  1
  O2-  O208  1  0.45664538  0.89177646  0.03114791  1
  O2-  O209  1  0.45739438  0.89767320  0.52780112  1
  O2-  O210  1  0.77589027  0.21307693  0.04023718  1
  O2-  O211  1  0.76602648  0.22935358  0.52340143  1
  O2-  O212  1  0.77540741  0.56295164  0.04311961  1
  O2-  O213  1  0.79146280  0.57036064  0.54241792  1
  O2-  O214  1  0.76633505  0.89296286  0.02324908  1
  O2-  O215  1  0.78542253  0.87743080  0.54724400  1
