# generated using pymatgen
data_H2O
_symmetry_space_group_name_H-M   'P 1'
_cell_length_a   13.50858994
_cell_length_b   13.52373419
_cell_length_c   14.67508984
_cell_angle_alpha   89.98974099
_cell_angle_beta   90.03630356
_cell_angle_gamma   119.99672802
_symmetry_Int_Tables_number   1
_chemical_formula_structural   H2O
_chemical_formula_sum   'H144 O72'
_cell_volume   2321.83990201
_cell_formula_units_Z   72
loop_
 _symmetry_equiv_pos_site_id
 _symmetry_equiv_pos_as_xyz
  1  'x, y, z'
loop_
 _atom_type_symbol
 _atom_type_oxidation_number
  H+  1.0
  O2-  -2.0
loop_
 _atom_site_type_symbol
 _atom_site_label
 _atom_site_symmetry_multiplicity
 _atom_site_fract_x
 _atom_site_fract_y
 _atom_site_fract_z
 _atom_site_occupancy
  H+  H0  1  0.14786620  0.94612749  0.01922883  1
  H+  H1  1  0.33051040  0.02834024  0.76724788  1
  H+  H2  1  0.89180957  0.78754180  0.84763195  1
  H+  H3  1  0.47390575  -0.04304899  0.50684347  1
  H+  H4  1  0.71068193  0.18466699  0.23487848  1
  H+  H5  1  0.85898492  0.03767961  0.98982052  1
  H+  H6  1  0.32228695  0.50497207  0.00017534  1
  H+  H7  1  0.85294126  0.70158982  0.74454352  1
  H+  H8  1  0.82151589  0.51563837  0.24385179  1
  H+  H9  1  0.27993958  0.48706654  0.76955760  1
  H+  H10  1  0.14892107  -0.03168540  0.49481974  1
  H+  H11  1  0.80561858  0.81844402  0.23146548  1
  H+  H12  1  0.36634345  0.84956172  0.01179595  1
  H+  H13  1  0.52426502  0.70409712  0.99603737  1
  H+  H14  1  0.52409991  0.82341299  -0.01299085  1
  H+  H15  1  0.51477635  0.14469807  0.47055505  1
  H+  H16  1  0.36577541  0.52126754  0.50545807  1
  H+  H17  1  0.13943625  0.17779450  0.75319531  1
  H+  H18  1  0.28929364  0.81754250  0.49528120  1
  H+  H19  1  0.52909526  0.53894007  0.26065173  1
  H+  H20  1  0.78385978  0.21176854  0.64534075  1
  H+  H21  1  0.48152591  0.80764086  0.72610689  1
  H+  H22  1  0.47854262  0.86276297  0.31835074  1
  H+  H23  1  0.45850722  0.61402191  0.73990941  1
  H+  H24  1  0.70298757  0.52472998  0.50734302  1
  H+  H25  1  0.18315346  0.68925540  0.27119406  1
  H+  H26  1  0.02507358  0.83131860  0.00946018  1
  H+  H27  1  0.85453596  0.83272305  0.75436618  1
  H+  H28  1  0.84780730  0.47936153  0.49035314  1
  H+  H29  1  0.18303652  0.38086208  0.48781002  1
  H+  H30  1  0.29363995  0.13653000  0.46506053  1
  H+  H31  1  0.95461583  0.47377242  0.76842686  1
  H+  H32  1  0.54141429  0.52578305  0.77434513  1
  H+  H33  1  0.30860358  0.79902075  0.76138463  1
  H+  H34  1  0.52439612  0.27769194  0.17425851  1
  H+  H35  1  0.04545796  0.20704064  -0.00773205  1
  H+  H36  1  0.97601950  0.81329646  0.26050755  1
  H+  H37  1  0.16556202  0.32318255  0.23041515  1
  H+  H38  1  0.21209577  0.77667136  0.40455697  1
  H+  H39  1  0.85770807  0.82714845  0.48216722  1
  H+  H40  1  0.45144590  0.22747184  0.37796338  1
  H+  H41  1  0.32781241  0.16975376  0.22339840  1
  H+  H42  1  0.18555682  0.81279426  -0.00577634  1
  H+  H43  1  0.15306327  0.95797599  0.22779127  1
  H+  H44  1  0.10719155  0.86870112  0.14586723  1
  H+  H45  1  0.49171301  0.33254545  0.76031759  1
  H+  H46  1  0.48587074  0.73938000  0.22955384  1
  H+  H47  1  0.85323638  0.82058397  0.98088423  1
  H+  H48  1  0.17793625  0.53375919  0.03599882  1
  H+  H49  1  0.12561047  0.56957431  0.16514304  1
  H+  H50  1  0.55080186  0.36053121  0.74008645  1
  H+  H51  1  0.50019899  0.03018451  0.99251205  1
  H+  H52  1  0.52015236  1.01207303  0.25457514  1
  H+  H53  1  0.14387472  0.84121298  0.50096792  1
  H+  H54  1  0.14391743  0.52583544  0.75587315  1
  H+  H55  1  0.52244010  0.08998500  0.76506137  1
  H+  H56  1  0.72167457  0.57167314  0.74592101  1
  H+  H57  1  0.40902761  0.08461342  0.85395420  1
  H+  H58  1  0.70305739  0.85004057  0.48965011  1
  H+  H59  1  0.16706311  0.03383265  0.78713509  1
  H+  H60  1  0.15836687  0.52395286  0.25453420  1
  H+  H61  1  0.84508625  0.35030514  0.76333921  1
  H+  H62  1  0.80814571  0.17956556  0.00763988  1
  H+  H63  1  0.84539574  0.14195027  0.48353037  1
  H+  H64  1  0.85481123  0.36706157  0.25673212  1
  H+  H65  1  0.28098030  0.14314805  0.80133422  1
  H+  H66  1  0.23264930  0.77720356  -0.09388929  1
  H+  H67  1  0.85984601  0.69217333  0.26470641  1
  H+  H68  1  0.53528877  0.75013031  0.38531025  1
  H+  H69  1  0.17467307  0.64938270  1.03187491  1
  H+  H70  1  0.70751274  0.85194523  0.00032325  1
  H+  H71  1  0.86466057  0.16635625  0.26262983  1
  H+  H72  1  0.29655492  0.13033909  0.01891399  1
  H+  H73  1  0.71088423  0.53304080  0.24463853  1
  H+  H74  1  0.81432559  0.29511096  0.50337247  1
  H+  H75  1  0.50107543  0.93450330  0.72944036  1
  H+  H76  1  0.18971369  0.81215694  0.26268850  1
  H+  H77  1  0.51603895  0.12324871  0.22752436  1
  H+  H78  1  0.01452543  0.20049729  0.51100948  1
  H+  H79  1  0.82953318  0.47153340  0.99143043  1
  H+  H80  1  0.15868418  0.20292592  0.21777930  1
  H+  H81  1  0.82367923  0.63975048  0.50250684  1
  H+  H82  1  0.50462323  0.80988983  0.46931156  1
  H+  H83  1  0.18635280  0.85707125  0.74742271  1
  H+  H84  1  0.96631501  0.14298364  0.75795965  1
  H+  H85  1  0.02712574  0.51060904  0.50909601  1
  H+  H86  1  0.69697097  0.17511987  0.50231280  1
  H+  H87  1  0.69797962  0.53910604  0.00808047  1
  H+  H88  1  0.84847987  0.69875119  0.98077568  1
  H+  H89  1  0.52511011  0.41765255  0.26089183  1
  H+  H90  1  0.88683377  0.10987316  0.89885547  1
  H+  H91  1  0.01374454  0.84407898  0.49559032  1
  H+  H92  1  0.60486616  0.68663807  0.80312549  1
  H+  H93  1  0.82402662  0.17165993  0.73539590  1
  H+  H94  1  0.51330313  0.54168302  0.01058945  1
  H+  H95  1  0.04758934  0.30180670  0.57844079  1
  H+  H96  1  0.84578052  1.02476640  0.75471936  1
  H+  H97  1  0.48614513  0.31521099  0.45855493  1
  H+  H98  1  0.19042567  0.50010586  0.48501333  1
  H+  H99  1  0.14025990  0.63288636  0.51177482  1
  H+  H100  1  0.70031556  0.83813568  0.73393962  1
  H+  H101  1  0.51780032  0.49259636  0.49157195  1
  H+  H102  1  0.47979475  0.16841245  1.03406179  1
  H+  H103  1  0.48505749  0.63782026  0.50785055  1
  H+  H104  1  0.80017210  0.29469555  0.00893545  1
  H+  H105  1  0.19965604  0.38692258  0.99330949  1
  H+  H106  1  0.82109415  0.96919543  0.49504657  1
  H+  H107  1  0.17983016  0.69250676  0.76358538  1
  H+  H108  1  0.77341386  0.88196452  0.63964887  1
  H+  H109  1  0.88677172  0.43948976  0.40088217  1
  H+  H110  1  0.78411618  0.22587353  0.14420513  1
  H+  H111  1  0.22348084  0.47724627  0.86728823  1
  H+  H112  1  0.56857042  0.47796746  0.39751133  1
  H+  H113  1  0.46658730  0.18295442  0.63810218  1
  H+  H114  1  0.14612905  0.90629029  0.66452172  1
  H+  H115  1  0.97259608  0.48667136  0.26462018  1
  H+  H116  1  0.36116974  0.82829030  0.27052771  1
  H+  H117  1  -0.01575520  0.17206506  0.26182232  1
  H+  H118  1  0.10453585  0.55717693  0.66089178  1
  H+  H119  1  0.46784783  0.58031360  0.10295550  1
  H+  H120  1  0.10413441  0.21572911  0.65973019  1
  H+  H121  1  0.11848054  0.24506085  0.08148589  1
  H+  H122  1  0.86590569  0.42454179  0.90581698  1
  H+  H123  1  0.67578469  0.78379650  0.21957771  1
  H+  H124  1  0.64972421  0.11459679  0.74313327  1
  H+  H125  1  0.78567817  0.57277070  0.09444527  1
  H+  H126  1  0.21179518  0.09846535  0.93289216  1
  H+  H127  1  0.29925886  0.23587234  0.29536838  1
  H+  H128  1  0.89969210  0.11740810  0.39432662  1
  H+  H129  1  0.23856582  0.45643069  0.34698798  1
  H+  H130  1  0.20505922  0.08779347  0.38666113  1
  H+  H131  1  0.42645433  0.54304864  0.64888460  1
  H+  H132  1  0.45074055  0.88723801  0.09752703  1
  H+  H133  1  0.90120806  0.78386535  0.39383771  1
  H+  H134  1  0.43938484  0.86786457  0.59072813  1
  H+  H135  1  0.53602507  0.41417540  0.97617407  1
  H+  H136  1  0.77993490  0.87415740  0.09016882  1
  H+  H137  1  0.61259586  0.14958244  0.98115863  1
  H+  H138  1  0.32262743  0.50807497  0.26025901  1
  H+  H139  1  0.79146259  0.58789693  0.64933409  1
  H+  H140  1  0.57265263  0.76721888  0.85788985  1
  H+  H141  1  0.59869922  0.53203511  0.87506013  1
  H+  H142  1  0.55491875  0.09640510  0.39103214  1
  H+  H143  1  0.49922247  0.23369094  0.60746512  1
  O2-  O144  1  0.11748947  0.24415071  0.20559180  1
  O2-  O145  1  0.09279125  0.20818112  0.72597362  1
  O2-  O146  1  0.11671254  0.56433423  0.23596792  1
  O2-  O147  1  0.10216002  0.56484838  0.72760337  1
  O2-  O148  1  0.11489623  0.87620921  0.21563882  1
  O2-  O149  1  0.17633823  0.92278260  0.72654526  1
  O2-  O150  1  0.45760503  0.20160709  0.16427449  1
  O2-  O151  1  0.39526689  0.09973759  0.79136626  1
  O2-  O152  1  0.46202402  0.58445190  0.22769642  1
  O2-  O153  1  0.41781908  0.53513504  0.71638248  1
  O2-  O154  1  0.44651193  0.86293388  0.25876890  1
  O2-  O155  1  0.44668394  0.85232509  0.70581401  1
  O2-  O156  1  0.79004097  0.23153997  0.21328209  1
  O2-  O157  1  0.78017791  0.20934280  0.71284478  1
  O2-  O158  1  0.79041877  0.56482817  0.22175271  1
  O2-  O159  1  0.79917145  0.60113636  0.71647373  1
  O2-  O160  1  0.75401686  0.84002711  0.20085779  1
  O2-  O161  1  0.77897668  0.88473454  0.70732803  1
  O2-  O162  1  0.26676545  0.16112007  0.26624887  1
  O2-  O163  1  0.19864723  0.11148055  0.81340371  1
  O2-  O164  1  0.24025591  0.45806459  0.27885668  1
  O2-  O165  1  0.20913619  0.47336026  0.80013158  1
  O2-  O166  1  0.22630368  0.77295671  0.29388000  1
  O2-  O167  1  0.23149106  0.77349758  0.78739080  1
  O2-  O168  1  0.55563322  0.09530596  0.26756838  1
  O2-  O169  1  0.57150866  0.05519894  0.76483559  1
  O2-  O170  1  0.57306054  0.49442284  0.28460771  1
  O2-  O171  1  0.61517142  0.56615436  0.80699365  1
  O2-  O172  1  0.52317923  0.70348099  0.26272549  1
  O2-  O173  1  0.58169011  0.74636891  0.79315081  1
  O2-  O174  1  0.90732099  0.13166492  0.29019745  1
  O2-  O175  1  0.88333969  0.10326158  0.77993908  1
  O2-  O176  1  0.89069301  0.44526074  0.28482621  1
  O2-  O177  1  0.87548623  0.42680622  0.79098609  1
  O2-  O178  1  0.89819875  0.77372230  0.28819065  1
  O2-  O179  1  0.89615366  0.79290780  0.77752394  1
  O2-  O180  1  0.21082013  0.08499426  0.45321814  1
  O2-  O181  1  0.22103379  0.07443614  0.99465496  1
  O2-  O182  1  0.23158363  0.45996524  0.46324710  1
  O2-  O183  1  0.24114816  0.47198251  0.98065242  1
  O2-  O184  1  0.20786575  0.78096052  0.47339766  1
  O2-  O185  1  0.23710893  0.78355204  0.97401994  1
  O2-  O186  1  0.55102167  0.09789251  0.45869943  1
  O2-  O187  1  0.52803667  0.11071945  0.97313490  1
  O2-  O188  1  0.56123633  0.45733971  0.46412560  1
  O2-  O189  1  0.57879389  0.49678551  0.96920336  1
  O2-  O190  1  0.55051751  0.77409395  0.45005624  1
  O2-  O191  1  0.56516456  0.78361929  0.96694654  1
  O2-  O192  1  0.89211650  0.10709106  0.46424148  1
  O2-  O193  1  0.89185017  0.11709500  0.96667191  1
  O2-  O194  1  0.88655645  0.43724317  0.46947474  1
  O2-  O195  1  0.85866533  0.42016730  0.97393298  1
  O2-  O196  1  0.90310722  0.78897234  0.46401069  1
  O2-  O197  1  0.89255435  0.77968005  0.95536532  1
  O2-  O198  1  0.12545747  0.25060833  0.01443414  1
  O2-  O199  1  0.08174764  0.26372840  0.54525856  1
  O2-  O200  1  0.14183345  0.57555980  0.06436087  1
  O2-  O201  1  0.10805904  0.55245802  0.53146179  1
  O2-  O202  1  0.10221799  0.86251404  0.03843108  1
  O2-  O203  1  0.10256601  0.88553973  0.52093047  1
  O2-  O204  1  0.44088742  0.20972631  0.06571100  1
  O2-  O205  1  0.44411345  0.23030882  0.44381280  1
  O2-  O206  1  0.46513472  0.57906044  0.03539272  1
  O2-  O207  1  0.44572552  0.55779818  0.53057167  1
  O2-  O208  1  0.44991279  0.89310782  0.03142337  1
  O2-  O209  1  0.43137297  0.87419107  0.52285602  1
  O2-  O210  1  0.76124523  0.21176879  0.03209902  1
  O2-  O211  1  0.77737013  0.21368220  0.52386473  1
  O2-  O212  1  0.78282806  0.57293384  0.02720986  1
  O2-  O213  1  0.78366393  0.56236734  0.53001515  1
  O2-  O214  1  0.78819331  0.88817497  0.02252464  1
  O2-  O215  1  0.78127829  0.88667358  0.51561500  1
