# generated using pymatgen
data_H2O
_symmetry_space_group_name_H-M   'P 1'
_cell_length_a   13.50675670
_cell_length_b   13.52642260
_cell_length_c   14.70916632
_cell_angle_alpha   90.03225876
_cell_angle_beta   90.06047830
_cell_angle_gamma   119.90568583
_symmetry_Int_Tables_number   1
_chemical_formula_structural   H2O
_chemical_formula_sum   'H144 O72'
_cell_volume   2329.50738400
_cell_formula_units_Z   72
loop_
 _symmetry_equiv_pos_site_id
 _symmetry_equiv_pos_as_xyz
  1  'x, y, z'
loop_
 _atom_type_symbol
 _atom_type_oxidation_number
  H+  1.0
  O2-  -2.0
loop_
 _atom_site_type_symbol
 _atom_site_label
 _atom_site_symmetry_multiplicity
 _atom_site_fract_x
 _atom_site_fract_y
 _atom_site_fract_z
 _atom_site_occupancy
  H+  H0  1  0.74073536  0.85204374  0.02082684  1
  H+  H1  1  0.53103263  0.38720255  0.01811256  1
  H+  H2  1  0.14453006  0.62920556  0.01087105  1
  H+  H3  1  1.06121718  0.86182707  1.02355635  1
  H+  H4  1  0.46922903  0.84293307  0.01812015  1
  H+  H5  1  0.36838508  0.52796729  0.49743816  1
  H+  H6  1  0.14763436  0.84900208  0.24189450  1
  H+  H7  1  0.18573755  0.36665493  0.98385551  1
  H+  H8  1  0.86359262  0.69592951  1.04765397  1
  H+  H9  1  0.49180763  0.65470288  0.49558641  1
  H+  H10  1  0.14338196  0.51064931  1.01292554  1
  H+  H11  1  0.08530477  0.20575044  0.50977693  1
  H+  H12  1  0.05831324  0.50934193  0.67610447  1
  H+  H13  1  0.52079736  0.35763835  0.30874712  1
  H+  H14  1  0.64364135  0.12501699  0.24054309  1
  H+  H15  1  0.83425811  0.40455488  0.81888749  1
  H+  H16  1  0.98131568  0.16033974  0.73987220  1
  H+  H17  1  0.18759340  0.37462879  0.76093642  1
  H+  H18  1  0.30343196  0.15758253  0.77506595  1
  H+  H19  1  0.71884579  0.85187499  0.25192077  1
  H+  H20  1  0.48023389  0.30028726  0.76328715  1
  H+  H21  1  0.98461735  0.63783421  0.33794603  1
  H+  H22  1  0.50255560  0.20634683  0.26537055  1
  H+  H23  1  0.23764393  0.45295926  0.39668716  1
  H+  H24  1  0.50472011  0.00129908  0.95191569  1
  H+  H25  1  0.81204517  0.18547271  -0.07156519  1
  H+  H26  1  0.19153295  0.81648599  0.98883568  1
  H+  H27  1  0.66956065  0.82895423  0.74158046  1
  H+  H28  1  0.45543160  0.94844395  0.71787781  1
  H+  H29  1  0.39930352  0.20064593  1.03688218  1
  H+  H30  1  0.35946883  0.84797784  0.25085086  1
  H+  H31  1  0.31519360  0.19220822  0.45587097  1
  H+  H32  1  0.81278412  0.53309551  0.74063904  1
  H+  H33  1  0.77355502  0.33486974  0.28770509  1
  H+  H34  1  0.79978648  0.63738002  0.71174462  1
  H+  H35  1  1.00607510  0.21143926  0.22029595  1
  H+  H36  1  0.87078359  0.83687401  0.31524126  1
  H+  H37  1  0.19161575  0.70415777  0.24921747  1
  H+  H38  1  0.04039873  0.32038990  0.16174223  1
  H+  H39  1  0.89528933  0.00708597  0.97267990  1
  H+  H40  1  0.35919613  0.82564290  -0.03462835  1
  H+  H41  1  0.29811703  0.48826983  0.98853243  1
  H+  H42  1  0.64409024  0.50641103  1.02866009  1
  H+  H43  1  0.79551233  0.64917663  0.29800038  1
  H+  H44  1  0.41910189  0.31636783  0.47806828  1
  H+  H45  1  0.48512378  0.65320822  0.73075263  1
  H+  H46  1  0.17444369  0.81566940  0.47482916  1
  H+  H47  1  0.53064161  0.03475040  0.47398975  1
  H+  H48  1  0.20581545  0.38266856  0.49320714  1
  H+  H49  1  0.83042989  0.16643486  0.96998698  1
  H+  H50  1  0.51461960  0.82050753  0.46992860  1
  H+  H51  1  0.82784678  0.33620019  0.27417472  1
  H+  H52  1  0.81154844  0.15904804  0.71767432  1
  H+  H53  1  1.06344719  0.17425983  0.99147337  1
  H+  H54  1  0.18235124  -0.01950148  1.01682607  1
  H+  H55  1  0.83764495  0.30030198  0.48983124  1
  H+  H56  1  0.85546124  0.85478720  0.03763109  1
  H+  H57  1  0.57291594  0.45020273  0.86598284  1
  H+  H58  1  0.81565004  0.54701265  0.28914403  1
  H+  H59  1  0.84385652  0.82958199  0.71170117  1
  H+  H60  1  0.53282991  0.81007835  0.24260718  1
  H+  H61  1  0.53064389  0.23389311  0.06193690  1
  H+  H62  1  0.18528798  0.38049317  0.25652967  1
  H+  H63  1  0.65028315  0.67728661  0.95366402  1
  H+  H64  1  0.61452828  0.11509680  0.72619470  1
  H+  H65  1  0.19814747  0.50107803  0.26601997  1
  H+  H66  1  0.85970848  0.03703147  0.26068619  1
  H+  H67  1  0.13252762  0.49926685  0.75689011  1
  H+  H68  1  0.16895717  1.00975538  0.27410285  1
  H+  H69  1  0.12341637  0.09505152  0.40065079  1
  H+  H70  1  0.48401276  0.62826023  0.00844390  1
  H+  H71  1  0.17490264  0.52450753  0.50409919  1
  H+  H72  1  0.75636337  0.31760421  0.03932368  1
  H+  H73  1  0.78247486  0.90292351  0.61199338  1
  H+  H74  1  0.02722553  0.85783142  0.70739494  1
  H+  H75  1  0.63108409  0.48130966  0.76803767  1
  H+  H76  1  0.68239780  0.46719628  0.49004145  1
  H+  H77  1  0.95726658  0.48734904  1.02982189  1
  H+  H78  1  0.18432864  0.04062753  0.76805889  1
  H+  H79  1  0.22038575  0.16387738  1.00719270  1
  H+  H80  1  0.50079955  0.02993312  0.26439357  1
  H+  H81  1  0.37995712  0.52244099  0.24474654  1
  H+  H82  1  0.81345608  0.52826581  0.07188812  1
  H+  H83  1  0.96049729  0.50159909  0.79930098  1
  H+  H84  1  0.83114280  0.98297950  0.70309162  1
  H+  H85  1  0.78879924  0.26254212  0.70690490  1
  H+  H86  1  0.35585064  0.54362743  0.72836456  1
  H+  H87  1  0.81695301  0.85445353  0.47826763  1
  H+  H88  1  0.65702616  0.14707748  0.46822457  1
  H+  H89  1  0.84515188  0.46892430  0.49537327  1
  H+  H90  1  0.11350631  0.23442512  0.08724334  1
  H+  H91  1  0.89065691  0.16577963  0.47550618  1
  H+  H92  1  0.47634635  0.51069614  0.01720145  1
  H+  H93  1  -0.04127250  0.81352132  0.46002215  1
  H+  H94  1  0.47096998  0.17970331  0.74037578  1
  H+  H95  1  0.63739964  0.48885196  0.32788629  1
  H+  H96  1  0.43413258  0.82052459  0.71193015  1
  H+  H97  1  0.05143131  0.54876472  0.25216516  1
  H+  H98  1  0.88534243  0.04697557  0.47101265  1
  H+  H99  1  0.58008188  0.84504647  0.79882320  1
  H+  H100  1  0.36069368  0.85355201  0.48296170  1
  H+  H101  1  0.13814596  0.84970049  0.72218257  1
  H+  H102  1  0.70281611  0.86186122  0.48078496  1
  H+  H103  1  0.89870596  0.09703340  0.82185376  1
  H+  H104  1  0.16031667  0.19285921  0.75062207  1
  H+  H105  1  0.15341278  0.68374343  0.75758745  1
  H+  H106  1  0.65583894  0.19240773  1.00899932  1
  H+  H107  1  0.18285938  0.70040830  0.47722537  1
  H+  H108  1  0.54449111  0.08346858  0.81937253  1
  H+  H109  1  0.55762718  0.77526983  0.38374556  1
  H+  H110  1  0.20210557  0.76431067  0.89351524  1
  H+  H111  1  0.90444840  0.12917020  0.34031869  1
  H+  H112  1  0.26902890  0.80274974  0.74699898  1
  H+  H113  1  0.90135545  0.74192958  0.94832618  1
  H+  H114  1  0.22412192  0.45438733  0.84952940  1
  H+  H115  1  0.78866297  0.20672698  0.56921888  1
  H+  H116  1  0.22063208  0.78094993  0.33933855  1
  H+  H117  1  0.56609890  0.11335240  0.35355693  1
  H+  H118  1  0.62155946  0.75458394  0.89225319  1
  H+  H119  1  0.75525020  0.51866162  0.58311790  1
  H+  H120  1  0.78663915  0.13911277  0.22474573  1
  H+  H121  1  0.12423797  0.90117424  0.15595952  1
  H+  H122  1  0.45932897  0.87912378  0.31770546  1
  H+  H123  1  0.25312113  0.12322013  0.91751415  1
  H+  H124  1  0.97451643  0.48538174  0.50527695  1
  H+  H125  1  0.11062021  0.89528926  0.57210376  1
  H+  H126  1  0.99159673  0.02943062  0.90166923  1
  H+  H127  1  0.44023115  0.58383467  0.59633565  1
  H+  H128  1  0.46631918  0.26479606  0.18832307  1
  H+  H129  1  0.87938070  0.79483061  0.80285345  1
  H+  H130  1  0.22385747  0.25089476  0.52380759  1
  H+  H131  1  0.44641734  0.55692749  0.15150996  1
  H+  H132  1  0.76692612  0.57121010  0.15674278  1
  H+  H133  1  0.43217633  0.88612585  0.57332010  1
  H+  H134  1  0.18611036  0.60151018  0.58778405  1
  H+  H135  1  0.14072016  0.95416874  0.47258035  1
  H+  H136  1  0.87716337  0.47663173  0.94893958  1
  H+  H137  1  0.13677013  0.24069202  0.65717527  1
  H+  H138  1  0.81173050  0.89581697  0.17396258  1
  H+  H139  1  0.52826798  0.68896681  0.24855882  1
  H+  H140  1  0.93098220  0.51177431  0.37520571  1
  H+  H141  1  0.11472658  0.55926270  0.15547450  1
  H+  H142  1  0.72579084  0.18191306  0.14214078  1
  H+  H143  1  0.47481570  0.09999858  0.94328609  1
  O2-  O144  1  0.07213120  0.27471711  0.18572215  1
  O2-  O145  1  0.12245259  0.23441726  0.72445163  1
  O2-  O146  1  0.12501675  0.56526022  0.22318089  1
  O2-  O147  1  0.08176990  0.53274612  0.73902146  1
  O2-  O148  1  0.10811013  0.89059527  0.22202504  1
  O2-  O149  1  0.11039705  0.89834598  0.69401741  1
  O2-  O150  1  0.47269843  0.25912170  0.25505328  1
  O2-  O151  1  0.42869776  0.22125270  0.73994946  1
  O2-  O152  1  0.45776563  0.56269476  0.21841026  1
  O2-  O153  1  0.42298558  0.59782192  0.69144119  1
  O2-  O154  1  0.44663478  0.88913292  0.25386165  1
  O2-  O155  1  0.40331276  0.86868641  0.69239773  1
  O2-  O156  1  0.71506071  0.12872486  0.19409354  1
  O2-  O157  1  0.75956764  0.18364278  0.68834932  1
  O2-  O158  1  0.75715565  0.56890151  0.27345014  1
  O2-  O159  1  0.76360572  0.55338020  0.70508439  1
  O2-  O160  1  0.80317193  0.89777583  0.24084190  1
  O2-  O161  1  0.78608408  0.90217904  0.68095337  1
  O2-  O162  1  0.21265207  0.09049129  0.30070221  1
  O2-  O163  1  0.22050181  0.11582185  0.79871856  1
  O2-  O164  1  0.23416405  0.45552595  0.28610442  1
  O2-  O165  1  0.22054257  0.45600832  0.78114498  1
  O2-  O166  1  0.22630961  0.78501900  0.27119128  1
  O2-  O167  1  0.19184729  0.76543002  0.77550708  1
  O2-  O168  1  0.55577002  0.11193326  0.28056517  1
  O2-  O169  1  0.53610185  0.07869721  0.75176586  1
  O2-  O170  1  0.55467173  0.43648987  0.34725141  1
  O2-  O171  1  0.55727635  0.43810689  0.80033463  1
  O2-  O172  1  0.57222815  0.77284640  0.27051004  1
  O2-  O173  1  0.60120361  0.78792536  0.78329982  1
  O2-  O174  1  0.88799225  0.12040100  0.27308389  1
  O2-  O175  1  0.89738327  0.11259002  0.75607464  1
  O2-  O176  1  0.94821415  0.55874046  0.31736074  1
  O2-  O177  1  0.88611194  0.48610314  0.82670154  1
  O2-  O178  1  0.89062686  0.77971337  0.33906119  1
  O2-  O179  1  0.87971966  0.78484776  0.73728577  1
  O2-  O180  1  0.18170016  0.07221692  0.39743869  1
  O2-  O181  1  0.26207379  0.12463268  0.98524797  1
  O2-  O182  1  0.24328624  0.46197699  0.46526857  1
  O2-  O183  1  0.21769142  0.44796331  0.96476087  1
  O2-  O184  1  0.21960511  0.77922461  0.45261716  1
  O2-  O185  1  0.21629723  0.76472825  0.96033336  1
  O2-  O186  1  0.57582754  0.11269787  0.44823113  1
  O2-  O187  1  0.53847634  0.08562449  0.93694693  1
  O2-  O188  1  0.55429398  0.40772524  0.44426734  1
  O2-  O189  1  0.57098499  0.46699755  0.99393413  1
  O2-  O190  1  0.55608603  0.77923327  0.45240622  1
  O2-  O191  1  0.62865253  0.73621092  0.95693475  1
  O2-  O192  1  0.93474634  0.12856350  0.45393961  1
  O2-  O193  1  0.94981511  0.06448324  0.92731335  1
  O2-  O194  1  0.90231746  0.44349312  0.47165684  1
  O2-  O195  1  0.87531155  0.46078748  1.01498243  1
  O2-  O196  1  0.87777786  0.77988327  0.43862428  1
  O2-  O197  1  0.91115908  0.76875731  1.01093664  1
  O2-  O198  1  0.13549493  0.22759592  0.02370027  1
  O2-  O199  1  0.15570835  0.26003487  0.54263879  1
  O2-  O200  1  0.10551506  0.55168030  0.03942274  1
  O2-  O201  1  0.13889981  0.56676335  0.53407250  1
  O2-  O202  1  0.14396573  0.89925927  0.03748872  1
  O2-  O203  1  0.10212484  0.88009089  0.50504794  1
  O2-  O204  1  0.47203646  0.25643053  0.06803041  1
  O2-  O205  1  0.34065610  0.25568824  0.49891506  1
  O2-  O206  1  0.43243138  0.55082768  0.03170586  1
  O2-  O207  1  0.44884320  0.57589833  0.52570299  1
  O2-  O208  1  0.44519549  0.86405947  -0.03764759  1
  O2-  O209  1  0.44130753  0.88940843  0.50601191  1
  O2-  O210  1  0.69014562  0.24518035  0.06123055  1
  O2-  O211  1  0.80013836  0.21606059  0.50250379  1
  O2-  O212  1  0.77608383  0.57366536  0.08880130  1
  O2-  O213  1  0.76209216  0.50692888  0.51766122  1
  O2-  O214  1  0.81767800  0.90130831  0.04790495  1
  O2-  O215  1  0.78399786  0.90177916  0.50143756  1
