# generated using pymatgen
data_H2O
_symmetry_space_group_name_H-M   'P 1'
_cell_length_a   13.51237937
_cell_length_b   13.52292761
_cell_length_c   14.70166173
_cell_angle_alpha   89.95762337
_cell_angle_beta   90.02567682
_cell_angle_gamma   119.90861127
_symmetry_Int_Tables_number   1
_chemical_formula_structural   H2O
_chemical_formula_sum   'H144 O72'
_cell_volume   2328.62037257
_cell_formula_units_Z   72
loop_
 _symmetry_equiv_pos_site_id
 _symmetry_equiv_pos_as_xyz
  1  'x, y, z'
loop_
 _atom_type_symbol
 _atom_type_oxidation_number
  H+  1.0
  O2-  -2.0
loop_
 _atom_site_type_symbol
 _atom_site_label
 _atom_site_symmetry_multiplicity
 _atom_site_fract_x
 _atom_site_fract_y
 _atom_site_fract_z
 _atom_site_occupancy
  H+  H0  1  0.70318392  0.36143665  0.17746915  1
  H+  H1  1  0.18460363  0.35716205  0.49130142  1
  H+  H2  1  0.05575498  0.88613111  0.25269349  1
  H+  H3  1  0.93056772  0.80318068  0.52786990  1
  H+  H4  1  0.15335557  0.82958098  0.49161066  1
  H+  H5  1  -0.04863145  0.43974577  0.72053602  1
  H+  H6  1  0.46988825  0.84125096  0.74220754  1
  H+  H7  1  0.68755363  0.92876494  0.01461325  1
  H+  H8  1  0.74359768  0.25609650  0.00918547  1
  H+  H9  1  0.46936384  0.95825151  0.73270830  1
  H+  H10  1  0.15054165  0.51745464  0.24027783  1
  H+  H11  1  0.17360309  0.35875193  0.25861699  1
  H+  H12  1  0.10942435  0.22343560  0.09954065  1
  H+  H13  1  0.84723762  0.79002034  1.00588981  1
  H+  H14  1  0.77788290  0.23749904  0.60103290  1
  H+  H15  1  0.06838882  0.45000571  0.69262493  1
  H+  H16  1  0.15054208  0.30470710  0.00833645  1
  H+  H17  1  0.04690160  0.53720031  0.00096184  1
  H+  H18  1  0.89861468  0.12314329  0.35968717  1
  H+  H19  1  0.31823505  0.50554146  0.76159114  1
  H+  H20  1  0.83422295  0.63035832  0.28124184  1
  H+  H21  1  0.50125248  0.31383667  0.23415936  1
  H+  H22  1  0.15720032  0.85717775  0.23757794  1
  H+  H23  1  0.17842521  0.81862258  0.00585561  1
  H+  H24  1  0.48191875  0.51498889  0.50638584  1
  H+  H25  1  0.46332842  0.50043288  0.01945230  1
  H+  H26  1  0.47718910  0.94770832  0.51734791  1
  H+  H27  1  0.68155868  0.20664616  0.74190661  1
  H+  H28  1  0.84692424  0.47551738  0.48683275  1
  H+  H29  1  0.29365734  0.14045177  0.51934077  1
  H+  H30  1  0.97326979  0.81349470  0.99624414  1
  H+  H31  1  0.29200293  0.47170573  0.99330525  1
  H+  H32  1  0.85042722  0.35971586  0.48543228  1
  H+  H33  1  0.89363063  0.40587285  0.96768107  1
  H+  H34  1  -0.03086346  0.15233711  0.50057599  1
  H+  H35  1  0.62501518  0.47532464  0.98715766  1
  H+  H36  1  0.50976379  0.35683650  0.98687692  1
  H+  H37  1  0.52348226  0.38290132  0.43263642  1
  H+  H38  1  0.50505448  0.69642684  0.76285453  1
  H+  H39  1  0.76965724  0.89977414  -0.03690086  1
  H+  H40  1  0.49184441  0.51656607  0.73752426  1
  H+  H41  1  0.30496489  0.47565056  0.49031357  1
  H+  H42  1  0.48663858  0.28172916  0.54754984  1
  H+  H43  1  0.48402620  0.94520860  0.21829508  1
  H+  H44  1  0.48688899  0.16352833  0.00561645  1
  H+  H45  1  -0.01308901  0.51768304  0.26042341  1
  H+  H46  1  0.36534092  0.83705153  0.24559721  1
  H+  H47  1  0.34506674  0.18034651  0.75425636  1
  H+  H48  1  0.69805071  0.17865847  0.51580599  1
  H+  H49  1  0.84161440  0.87160865  0.75389381  1
  H+  H50  1  0.79810325  0.61631045  0.51375405  1
  H+  H51  1  0.14183045  0.62429493  0.74318929  1
  H+  H52  1  0.42925569  0.86593735  0.60278190  1
  H+  H53  1  0.85525339  0.07612418  0.98935784  1
  H+  H54  1  0.14390660  0.97198396  0.00877960  1
  H+  H55  1  0.06826409  0.86408398  0.44753233  1
  H+  H56  1  0.59579980  0.76094527  1.00238870  1
  H+  H57  1  0.17397753  0.16096465  0.99249744  1
  H+  H58  1  1.04037903  0.51691342  0.48521829  1
  H+  H59  1  0.77797132  0.41784411  0.72264628  1
  H+  H60  1  0.50037866  0.14690892  0.76355483  1
  H+  H61  1  0.47088592  0.66274084  0.00241295  1
  H+  H62  1  0.46241294  0.63585745  0.23499438  1
  H+  H63  1  0.35029345  0.85183342  1.01418086  1
  H+  H64  1  0.63702082  0.46927965  0.75509339  1
  H+  H65  1  0.79639665  0.91752391  0.65818580  1
  H+  H66  1  0.18834689  0.70554963  1.00105503  1
  H+  H67  1  0.61807055  0.10550311  0.96866745  1
  H+  H68  1  -0.01527197  0.17257022  0.75732022  1
  H+  H69  1  0.82684754  0.69584908  0.76328229  1
  H+  H70  1  0.04096414  0.18082610  0.24169820  1
  H+  H71  1  0.17920185  0.02336595  0.50658043  1
  H+  H72  1  0.16194453  1.02393188  0.73988434  1
  H+  H73  1  0.87993738  0.88056313  0.28976728  1
  H+  H74  1  0.02709407  0.84280744  0.72592215  1
  H+  H75  1  0.49093977  -0.00193148  0.98728097  1
  H+  H76  1  0.20638051  0.05167602  0.24332329  1
  H+  H77  1  0.83087456  -0.00142398  0.25567701  1
  H+  H78  1  0.64141602  0.81230157  0.26930053  1
  H+  H79  1  0.50350908  0.79620658  0.49291799  1
  H+  H80  1  0.15887344  0.51608086  0.48243359  1
  H+  H81  1  0.52076481  0.80635816  0.26978265  1
  H+  H82  1  0.84115798  0.56649512  0.71552760  1
  H+  H83  1  0.26532533  0.73576998  0.75156500  1
  H+  H84  1  0.75918171  0.52248613  0.59455382  1
  H+  H85  1  0.85126760  0.15476972  0.50036814  1
  H+  H86  1  0.81053771  0.61492702  0.01260898  1
  H+  H87  1  0.84615364  0.22728530  -0.00057528  1
  H+  H88  1  0.81980463  0.98751176  0.53644186  1
  H+  H89  1  0.79300062  0.85707541  0.54074159  1
  H+  H90  1  0.33354634  0.52471933  0.23741467  1
  H+  H91  1  0.18200932  0.70327130  0.25102889  1
  H+  H92  1  0.32248241  0.17015285  0.24592333  1
  H+  H93  1  0.16581137  0.32738059  0.74289307  1
  H+  H94  1  0.87178210  0.50722777  0.96476720  1
  H+  H95  1  0.72225675  0.18529383  0.22004908  1
  H+  H96  1  0.16447066  0.18818209  0.23055908  1
  H+  H97  1  0.14519520  0.17485989  0.52090163  1
  H+  H98  1  0.98232422  0.18170778  0.98994648  1
  H+  H99  1  0.86844849  0.16822807  0.26620428  1
  H+  H100  1  0.50798444  0.13407523  0.52827444  1
  H+  H101  1  0.46556413  0.84339951  0.01672286  1
  H+  H102  1  0.83775376  0.65015893  0.23255060  1
  H+  H103  1  0.63618685  0.46754583  0.23145990  1
  H+  H104  1  0.15531155  0.51966077  0.00808442  1
  H+  H105  1  0.85474848  0.00602777  0.75701650  1
  H+  H106  1  0.30211439  0.81202132  0.48460710  1
  H+  H107  1  0.53542923  0.15736156  0.23833594  1
  H+  H108  1  0.22227087  0.78144071  0.34050425  1
  H+  H109  1  0.18423482  0.69135529  0.47089690  1
  H+  H110  1  0.81300595  0.46470013  0.22587242  1
  H+  H111  1  0.52385300  0.10098337  0.43100959  1
  H+  H112  1  0.56542279  0.47544552  0.31426898  1
  H+  H113  1  0.28214613  0.19282591  0.93294835  1
  H+  H114  1  0.23057991  0.54818311  0.78269949  1
  H+  H115  1  0.58245142  0.09551131  0.30389011  1
  H+  H116  1  0.09934488  0.88047545  0.63505065  1
  H+  H117  1  0.79506448  0.91703067  0.16839628  1
  H+  H118  1  0.43409379  0.20384417  0.63355984  1
  H+  H119  1  0.90364567  0.46928373  0.34865571  1
  H+  H120  1  0.54805628  0.75757836  0.40676418  1
  H+  H121  1  0.87566307  0.80232266  0.43435604  1
  H+  H122  1  0.10729332  0.90142659  0.10251243  1
  H+  H123  1  0.82347281  0.25209983  0.15104662  1
  H+  H124  1  0.88646867  0.76914081  0.29788046  1
  H+  H125  1  0.15786955  0.20323175  0.74090999  1
  H+  H126  1  0.18494598  0.08665564  0.83626835  1
  H+  H127  1  0.90546235  0.13842961  0.84628848  1
  H+  H128  1  0.36905638  0.16075036  0.02145104  1
  H+  H129  1  0.54275500  0.09827907  0.84320398  1
  H+  H130  1  0.47696592  0.63018881  0.51068620  1
  H+  H131  1  0.11868339  0.56039068  0.14782651  1
  H+  H132  1  0.51860933  0.75975090  0.85599437  1
  H+  H133  1  0.55933230  0.44373843  0.84616516  1
  H+  H134  1  0.88477019  0.76622826  0.85329686  1
  H+  H135  1  0.47036475  0.30024005  0.75496950  1
  H+  H136  1  0.11077220  0.23071108  0.60213724  1
  H+  H137  1  0.46568514  0.22792052  0.14897658  1
  H+  H138  1  0.63887182  0.48617945  0.47548734  1
  H+  H139  1  0.21208834  0.43317982  0.35137122  1
  H+  H140  1  0.41302129  0.54430536  0.10597674  1
  H+  H141  1  0.21931052  0.44254072  0.90075286  1
  H+  H142  1  0.76353826  0.50754283  0.08271333  1
  H+  H143  1  0.44891102  0.55400375  0.64870477  1
  O2-  O144  1  0.11613552  0.22293065  0.21030393  1
  O2-  O145  1  0.12155195  0.24782836  0.71990909  1
  O2-  O146  1  0.11862986  0.56491394  0.21601792  1
  O2-  O147  1  0.02809349  0.49281429  0.69451349  1
  O2-  O148  1  0.12343810  0.90487693  0.21504400  1
  O2-  O149  1  0.10371340  0.89359175  0.70095854  1
  O2-  O150  1  0.47002526  0.23063292  0.21662872  1
  O2-  O151  1  0.42745992  0.21692052  0.73729399  1
  O2-  O152  1  0.40206541  0.57247934  0.19915794  1
  O2-  O153  1  0.45140440  0.55710748  0.71709189  1
  O2-  O154  1  0.44841843  0.86575463  0.23848280  1
  O2-  O155  1  0.42905032  0.87782392  0.71235582  1
  O2-  O156  1  0.80668002  0.23053233  0.21575048  1
  O2-  O157  1  0.75769998  0.25268393  0.71098695  1
  O2-  O158  1  0.74218810  0.44396121  0.18384984  1
  O2-  O159  1  0.76345001  0.50934530  0.69860130  1
  O2-  O160  1  0.79322377  0.91513724  0.23476974  1
  O2-  O161  1  0.80888961  0.91981423  0.73385060  1
  O2-  O162  1  0.24002360  0.13291104  0.26055580  1
  O2-  O163  1  0.19866008  0.10170713  0.77058814  1
  O2-  O164  1  0.20560330  0.43736174  0.28361129  1
  O2-  O165  1  0.23914771  0.47782212  0.78553362  1
  O2-  O166  1  0.22022002  0.78477282  0.27229937  1
  O2-  O167  1  0.21244031  0.66269847  0.78012718  1
  O2-  O168  1  0.57583504  0.11135071  0.24037529  1
  O2-  O169  1  0.54793013  0.11095040  0.77590270  1
  O2-  O170  1  0.55871271  0.45053447  0.25060250  1
  O2-  O171  1  0.55686153  0.43822703  0.77845755  1
  O2-  O172  1  0.56142132  0.76406108  0.28875786  1
  O2-  O173  1  0.53217320  0.77289264  0.79018649  1
  O2-  O174  1  0.90356271  0.12302592  0.29169430  1
  O2-  O175  1  0.90522651  0.12287135  0.78023606  1
  O2-  O176  1  0.91133258  0.49997503  0.28588150  1
  O2-  O177  1  0.80970468  0.36433402  0.75440760  1
  O2-  O178  1  0.92381525  0.84773803  0.32128293  1
  O2-  O179  1  0.88065243  0.77255360  0.78578089  1
  O2-  O180  1  0.21430758  0.10637510  0.49770945  1
  O2-  O181  1  0.22001055  0.12729112  0.96379307  1
  O2-  O182  1  0.22560597  0.43523128  0.46430927  1
  O2-  O183  1  0.21117876  0.43188550  0.96834474  1
  O2-  O184  1  0.22389290  0.77763133  0.45656097  1
  O2-  O185  1  0.22679849  0.78812223  0.98433236  1
  O2-  O186  1  0.54710677  0.09908481  0.49330000  1
  O2-  O187  1  0.53889954  0.08464521  0.95819756  1
  O2-  O188  1  0.56269338  0.46424457  0.44516054  1
  O2-  O189  1  0.54325462  0.43695525  0.96643360  1
  O2-  O190  1  0.54202730  0.75325679  0.47422666  1
  O2-  O191  1  0.52057293  0.74665899  0.98400953  1
  O2-  O192  1  0.88788185  0.11064903  0.47809166  1
  O2-  O193  1  0.90293049  0.15312388  0.96360004  1
  O2-  O194  1  0.89048043  0.43973049  0.46272890  1
  O2-  O195  1  0.92796409  0.48501714  0.94515980  1
  O2-  O196  1  0.85598675  0.77511815  0.49844531  1
  O2-  O197  1  0.89214295  0.76389623  0.97258186  1
  O2-  O198  1  0.10781153  0.22211040  0.03034554  1
  O2-  O199  1  0.10572307  0.21977234  0.53498748  1
  O2-  O200  1  0.12248801  0.56529899  0.03340550  1
  O2-  O201  1  0.12421766  0.56504091  0.49168414  1
  O2-  O202  1  0.10018885  0.89471702  0.03414551  1
  O2-  O203  1  0.10230208  0.86526228  0.50638857  1
  O2-  O204  1  0.45169830  0.20785529  0.03141428  1
  O2-  O205  1  0.44156505  0.20150306  0.56427531  1
  O2-  O206  1  0.41645991  0.53541271  0.03546341  1
  O2-  O207  1  0.43794786  0.54747920  0.53468848  1
  O2-  O208  1  0.43610425  0.89528628  0.03081436  1
  O2-  O209  1  0.43131385  0.86620435  0.53358466  1
  O2-  O210  1  0.81959210  0.27660444  0.03061034  1
  O2-  O211  1  0.77936734  0.22304718  0.53413921  1
  O2-  O212  1  0.76362545  0.53121472  0.01771709  1
  O2-  O213  1  0.76096414  0.53322207  0.52422298  1
  O2-  O214  1  0.75947419  0.92852985  0.02120056  1
  O2-  O215  1  0.77700868  0.91328412  0.57065849  1
