# generated using pymatgen
data_H2O
_symmetry_space_group_name_H-M   'P 1'
_cell_length_a   13.48236859
_cell_length_b   13.47025481
_cell_length_c   14.66524459
_cell_angle_alpha   89.92379920
_cell_angle_beta   90.05306432
_cell_angle_gamma   119.97121075
_symmetry_Int_Tables_number   1
_chemical_formula_structural   H2O
_chemical_formula_sum   'H144 O72'
_cell_volume   2307.21178499
_cell_formula_units_Z   72
loop_
 _symmetry_equiv_pos_site_id
 _symmetry_equiv_pos_as_xyz
  1  'x, y, z'
loop_
 _atom_type_symbol
 _atom_type_oxidation_number
  H+  1.0
  O2-  -2.0
loop_
 _atom_site_type_symbol
 _atom_site_label
 _atom_site_symmetry_multiplicity
 _atom_site_fract_x
 _atom_site_fract_y
 _atom_site_fract_z
 _atom_site_occupancy
  H+  H0  1  0.31142870  0.14728820  0.99217613  1
  H+  H1  1  0.52411908  0.36665661  0.74719701  1
  H+  H2  1  0.76723047  0.94977364  0.79062709  1
  H+  H3  1  0.16047133  0.18739014  0.74011948  1
  H+  H4  1  0.82522668  0.21585006  0.74678929  1
  H+  H5  1  0.49643721  0.47079165  0.31498633  1
  H+  H6  1  0.70313543  0.52119137  0.71408910  1
  H+  H7  1  0.63390309  0.15812053  0.75926562  1
  H+  H8  1  0.79056527  0.79293565  0.70892244  1
  H+  H9  1  0.63526506  0.16288803  0.49504242  1
  H+  H10  1  0.51747274  0.04043458  0.48898766  1
  H+  H11  1  0.89662550  0.48513409  0.83920998  1
  H+  H12  1  0.15819735  0.19148463  0.50080053  1
  H+  H13  1  0.04349803  0.51969560  0.51086348  1
  H+  H14  1  0.87023094  0.79044832  0.97486301  1
  H+  H15  1  0.48314297  0.18056359  0.73881307  1
  H+  H16  1  0.87451710  0.50483717  0.47403712  1
  H+  H17  1  0.56153517  0.78229099  0.80523967  1
  H+  H18  1  0.52791552  0.77509604  0.37322315  1
  H+  H19  1  0.30250945  0.14843584  0.75667346  1
  H+  H20  1  0.79905757  0.18307974  0.51102751  1
  H+  H21  1  0.49056625  0.51163618  0.72433160  1
  H+  H22  1  0.80682525  0.83040613  0.22170790  1
  H+  H23  1  0.13588919  0.23314058  0.09123848  1
  H+  H24  1  0.12389799  0.94550869  0.23483602  1
  H+  H25  1  0.67516597  0.50146746  1.03986754  1
  H+  H26  1  0.49732074  0.68824776  0.48418066  1
  H+  H27  1  0.51774279  0.03518731  0.75239512  1
  H+  H28  1  0.83842205  0.13049404  0.25140926  1
  H+  H29  1  0.47068093  0.60685991  -0.06056178  1
  H+  H30  1  0.18711443  0.69964196  0.49218877  1
  H+  H31  1  0.12195398  0.55840450  0.60095560  1
  H+  H32  1  0.86071458  0.50331179  0.74022324  1
  H+  H33  1  0.86560646  0.74263052  0.33823902  1
  H+  H34  1  0.01934762  0.82347036  0.50359139  1
  H+  H35  1  0.86169435  0.69590840  0.74221804  1
  H+  H36  1  0.18942407  0.36658836  0.48430383  1
  H+  H37  1  0.36451210  0.85512049  0.49953584  1
  H+  H38  1  0.20046110  0.09093651  0.33955152  1
  H+  H39  1  0.99530048  0.81281963  0.97425300  1
  H+  H40  1  0.97595118  0.54373574  0.97943130  1
  H+  H41  1  0.99591730  0.17092148  0.99005684  1
  H+  H42  1  0.18391435  0.69313006  0.98715131  1
  H+  H43  1  0.81173661  0.32465802  0.74167060  1
  H+  H44  1  0.47385404  -0.02488246  0.25379704  1
  H+  H45  1  0.18845937  0.81843670  0.75516710  1
  H+  H46  1  0.04085415  0.52122675  0.74063096  1
  H+  H47  1  0.36510959  0.52200798  0.49360814  1
  H+  H48  1  0.81869752  0.18005173  0.00664158  1
  H+  H49  1  0.75273173  0.87008522  -0.01093164  1
  H+  H50  1  0.60512933  0.45505791  0.32239115  1
  H+  H51  1  0.35648452  0.84830887  0.01807395  1
  H+  H52  1  0.87683343  0.09378210  0.76898105  1
  H+  H53  1  0.15558202  0.12570226  0.25333910  1
  H+  H54  1  0.44268130  0.89635026  0.58926442  1
  H+  H55  1  0.48451814  0.85309944  0.71827087  1
  H+  H56  1  0.79209849  0.46604691  0.27500865  1
  H+  H57  1  0.02608545  0.50290742  0.23494414  1
  H+  H58  1  0.10524011  0.55193592  0.09348278  1
  H+  H59  1  0.62372588  0.78536735  0.71156031  1
  H+  H60  1  0.69568166  0.81823927  0.47885274  1
  H+  H61  1  0.47203111  0.85113093  0.05171308  1
  H+  H62  1  0.82180817  -0.05300798  0.79126803  1
  H+  H63  1  0.50691788  0.81878121  0.48777730  1
  H+  H64  1  0.19182624  1.02778135  -0.00769572  1
  H+  H65  1  0.50719952  0.69722580  1.06422283  1
  H+  H66  1  0.19075663  0.36567759  0.98299022  1
  H+  H67  1  0.75002503  0.58051992  0.46840811  1
  H+  H68  1  -0.04227363  0.13599095  0.26658342  1
  H+  H69  1  0.14883221  0.32608607  0.23669919  1
  H+  H70  1  0.16182539  0.84766014  1.00914015  1
  H+  H71  1  0.05295111  0.20895650  0.74147797  1
  H+  H72  1  0.51206426  0.35788342  0.97796548  1
  H+  H73  1  0.60923761  0.79979498  1.12057196  1
  H+  H74  1  0.54709881  0.10236389  0.89911074  1
  H+  H75  1  0.14065500  0.51023724  1.00308284  1
  H+  H76  1  0.17115491  0.18271799  1.00419130  1
  H+  H77  1  0.36702002  0.85419732  0.73271418  1
  H+  H78  1  0.44173862  0.21927986  0.64986279  1
  H+  H79  1  0.35716342  0.51603541  0.25740603  1
  H+  H80  1  0.35626950  0.52000234  -0.01148756  1
  H+  H81  1  0.48430869  0.81946427  0.26827494  1
  H+  H82  1  0.04010686  0.27206890  0.17483713  1
  H+  H83  1  0.50608286  0.47359284  -0.02436118  1
  H+  H84  1  0.17857264  0.81445638  0.48772065  1
  H+  H85  1  0.15928183  0.51724154  0.74237247  1
  H+  H86  1  0.31377285  0.48871322  0.75319031  1
  H+  H87  1  0.48943480  0.18891555  0.50243947  1
  H+  H88  1  -0.05866328  0.78759924  0.24932956  1
  H+  H89  1  0.13901794  0.62855642  0.23780448  1
  H+  H90  1  0.19094665  0.70054105  0.75713427  1
  H+  H91  1  0.90365923  0.77321298  0.83229397  1
  H+  H92  1  0.50515077  0.31337046  0.24782118  1
  H+  H93  1  0.49922436  0.35983870  0.44765403  1
  H+  H94  1  0.29211981  0.13980476  0.47913080  1
  H+  H95  1  0.61794597  0.35243628  0.19823195  1
  H+  H96  1  0.81002383  0.80692617  0.48310912  1
  H+  H97  1  0.03732875  0.84613373  0.73028323  1
  H+  H98  1  0.85166416  0.33836414  0.25641346  1
  H+  H99  1  0.28276179  0.81013436  0.26229919  1
  H+  H100  1  0.79537616  0.51433416  0.04607111  1
  H+  H101  1  0.15536358  0.96571027  0.73251192  1
  H+  H102  1  0.54901936  0.17358377  0.25707977  1
  H+  H103  1  0.18315055  0.49371994  0.26000381  1
  H+  H104  1  0.49017027  0.69751478  0.26881024  1
  H+  H105  1  0.75862188  0.54924838  0.22616365  1
  H+  H106  1  0.85261865  0.37685243  0.49346026  1
  H+  H107  1  0.78741431  0.57734311  0.62699830  1
  H+  H108  1  0.62231099  0.76499653  0.91372545  1
  H+  H109  1  0.56719210  0.12222098  0.35066867  1
  H+  H110  1  0.12753095  0.82872824  0.23746498  1
  H+  H111  1  0.81719694  1.01251102  0.48652091  1
  H+  H112  1  0.77537402  0.20387405  0.14471000  1
  H+  H113  1  0.84773437  0.08974080  0.39952911  1
  H+  H114  1  0.81564452  0.89729082  0.08507473  1
  H+  H115  1  0.42638698  0.89797730  0.16452079  1
  H+  H116  1  0.10447187  0.87831766  0.59038588  1
  H+  H117  1  0.22486855  0.10597104  0.84615601  1
  H+  H118  1  0.17303550  0.02163480  0.48283847  1
  H+  H119  1  0.13151406  0.23856393  0.59127802  1
  H+  H120  1  0.89608072  0.41888130  0.34697350  1
  H+  H121  1  0.20430432  0.76473156  0.35016401  1
  H+  H122  1  0.49211144  0.18241261  0.00427267  1
  H+  H123  1  0.10840858  0.87890964  0.09604389  1
  H+  H124  1  0.75008257  0.81619153  0.61061202  1
  H+  H125  1  0.69995749  0.16531932  0.23804761  1
  H+  H126  1  0.81386861  0.95239810  0.22237797  1
  H+  H127  1  0.88359443  0.04867428  0.98245610  1
  H+  H128  1  0.22324968  0.44585676  0.89348036  1
  H+  H129  1  0.18754986  0.48650467  0.48773278  1
  H+  H130  1  0.44753136  0.55811853  0.58035131  1
  H+  H131  1  0.77344481  0.23615677  0.60070499  1
  H+  H132  1  0.56634229  0.44793575  0.83400471  1
  H+  H133  1  0.61735154  0.81825670  0.92147669  1
  H+  H134  1  0.48260131  0.62708960  0.71852427  1
  H+  H135  1  0.21917397  0.44920293  0.35224321  1
  H+  H136  1  0.92017058  0.16395764  0.85866848  1
  H+  H137  1  0.47590742  0.24153234  0.09253563  1
  H+  H138  1  0.45455431  0.54689409  0.18301116  1
  H+  H139  1  0.69582437  0.17187473  1.00831661  1
  H+  H140  1  0.50617890  1.02683730  -0.00796960  1
  H+  H141  1  0.91873449  0.61689935  0.94758782  1
  H+  H142  1  0.19691648  0.37008823  0.75547253  1
  H+  H143  1  0.22745314  0.77584212  0.89850943  1
  O2-  O144  1  0.09477761  0.25323038  0.20198086  1
  O2-  O145  1  0.13081719  0.23717917  0.71583726  1
  O2-  O146  1  0.10687270  0.54927503  0.21176617  1
  O2-  O147  1  0.12189473  0.56031922  0.71855988  1
  O2-  O148  1  0.08663532  0.86564416  0.20924651  1
  O2-  O149  1  0.11942593  0.88550140  0.70910709  1
  O2-  O150  1  0.53994800  0.28474565  0.20260890  1
  O2-  O151  1  0.44240200  0.22164812  0.71754674  1
  O2-  O152  1  0.44338655  0.55884420  0.24686999  1
  O2-  O153  1  0.44270276  0.54430323  0.70142839  1
  O2-  O154  1  0.42734135  0.89343599  0.23285453  1
  O2-  O155  1  0.44544961  0.89814957  0.70497764  1
  O2-  O156  1  0.78032770  0.20358807  0.21427014  1
  O2-  O157  1  0.77390987  0.24256074  0.72162150  1
  O2-  O158  1  0.73416210  0.49143994  0.27475133  1
  O2-  O159  1  0.78482968  0.56282148  0.69324749  1
  O2-  O160  1  0.78009114  0.87828992  0.18867113  1
  O2-  O161  1  0.72354541  0.78234251  0.67309686  1
  O2-  O162  1  0.19289088  0.08294390  0.27180390  1
  O2-  O163  1  0.22110875  0.10682933  0.77820838  1
  O2-  O164  1  0.22269148  0.45157780  0.28233783  1
  O2-  O165  1  0.23425100  0.45092322  0.77963911  1
  O2-  O166  1  0.20127981  0.76248250  0.28167805  1
  O2-  O167  1  0.23147608  0.78136158  0.78024980  1
  O2-  O168  1  0.56584714  0.11474777  0.28271050  1
  O2-  O169  1  0.55253427  0.11311012  0.78054858  1
  O2-  O170  1  0.52134093  0.41721855  0.33668244  1
  O2-  O171  1  0.56764661  0.44911248  0.76576116  1
  O2-  O172  1  0.52312084  0.77720517  0.29445283  1
  O2-  O173  1  0.54682703  0.77222686  0.73973141  1
  O2-  O174  1  0.87520011  0.08707294  0.27785902  1
  O2-  O175  1  0.91977189  0.17327006  0.78990761  1
  O2-  O176  1  0.89278442  0.41964164  0.27911149  1
  O2-  O177  1  0.89721240  0.46498463  0.77346730  1
  O2-  O178  1  0.86101068  0.75182553  0.27129507  1
  O2-  O179  1  0.90034386  0.77697919  0.76406944  1
  O2-  O180  1  0.21201813  0.10102252  0.45741507  1
  O2-  O181  1  0.23121888  0.10836725  0.96804402  1
  O2-  O182  1  0.22700699  0.44851235  0.45870419  1
  O2-  O183  1  0.22221181  0.44696938  0.96230832  1
  O2-  O184  1  0.22394490  0.77851635  0.46519088  1
  O2-  O185  1  0.22645080  0.77527964  0.96684937  1
  O2-  O186  1  0.55563907  0.12223037  0.46835092  1
  O2-  O187  1  0.55095669  0.10638826  0.96711370  1
  O2-  O188  1  0.51190378  0.34585091  0.51258884  1
  O2-  O189  1  0.55074897  0.43844357  0.95378170  1
  O2-  O190  1  0.53958399  0.77347381  0.45845574  1
  O2-  O191  1  0.53496652  0.77397571  1.09109778  1
  O2-  O192  1  0.82871487  0.08680699  0.46497372  1
  O2-  O193  1  0.91512036  0.13157257  0.96709208  1
  O2-  O194  1  0.90525679  0.45264157  0.46412075  1
  O2-  O195  1  0.90716828  0.53853791  0.94970314  1
  O2-  O196  1  0.88206605  0.73519629  0.46245528  1
  O2-  O197  1  0.91774842  0.76228942  0.94627502  1
  O2-  O198  1  0.13502667  0.22955409  0.02357818  1
  O2-  O199  1  0.13064066  0.24250324  0.52391583  1
  O2-  O200  1  0.10554427  0.55552192  0.02524323  1
  O2-  O201  1  0.12450204  0.56073806  0.53263881  1
  O2-  O202  1  0.12045876  0.88874115  0.02791588  1
  O2-  O203  1  0.10163475  0.87610669  0.52224092  1
  O2-  O204  1  0.45355281  0.22525655  0.02716703  1
  O2-  O205  1  0.43987924  0.22129418  0.52564462  1
  O2-  O206  1  0.44293334  0.56645585  -0.00271455  1
  O2-  O207  1  0.44685379  0.57007475  0.51339497  1
  O2-  O208  1  0.43260065  0.89691160  0.04836187  1
  O2-  O209  1  0.44635752  0.89572386  0.52084206  1
  O2-  O210  1  0.77333014  0.21029454  0.03618235  1
  O2-  O211  1  0.77114923  0.23591979  0.53264569  1
  O2-  O212  1  0.73731118  0.51885519  0.08357466  1
  O2-  O213  1  0.82384492  0.61560390  0.50022338  1
  O2-  O214  1  0.82936307  0.90615134  0.01583331  1
  O2-  O215  1  0.77423657  0.85392039  0.50327248  1
