# generated using pymatgen
data_H2O
_symmetry_space_group_name_H-M   'P 1'
_cell_length_a   13.50223161
_cell_length_b   13.50315825
_cell_length_c   14.67958087
_cell_angle_alpha   90.01798066
_cell_angle_beta   90.01785262
_cell_angle_gamma   120.04871990
_symmetry_Int_Tables_number   1
_chemical_formula_structural   H2O
_chemical_formula_sum   'H144 O72'
_cell_volume   2316.71011110
_cell_formula_units_Z   72
loop_
 _symmetry_equiv_pos_site_id
 _symmetry_equiv_pos_as_xyz
  1  'x, y, z'
loop_
 _atom_type_symbol
 _atom_type_oxidation_number
  H+  1.0
  O2-  -2.0
loop_
 _atom_site_type_symbol
 _atom_site_label
 _atom_site_symmetry_multiplicity
 _atom_site_fract_x
 _atom_site_fract_y
 _atom_site_fract_z
 _atom_site_occupancy
  H+  H0  1  0.03570558  0.19506464  0.73610389  1
  H+  H1  1  0.30496520  0.16713624  0.25061281  1
  H+  H2  1  -0.01336510  0.81795752  0.26870334  1
  H+  H3  1  0.53796825  0.17491030  0.98151242  1
  H+  H4  1  0.48242743  0.15777549  0.51830741  1
  H+  H5  1  0.85174376  0.69764401  0.76098663  1
  H+  H6  1  0.46969317  0.61967886  0.25389959  1
  H+  H7  1  0.17037606  0.02720472  0.97707043  1
  H+  H8  1  0.67832577  0.52222516  0.52100301  1
  H+  H9  1  0.20128208  -0.05837139  0.60532272  1
  H+  H10  1  0.83458082  0.97126545  0.50169590  1
  H+  H11  1  0.18610928  0.54031422  1.00458476  1
  H+  H12  1  0.50600931  0.98496949  0.00384724  1
  H+  H13  1  0.85698082  0.02956547  0.26815624  1
  H+  H14  1  0.15276965  0.21359187  0.50092483  1
  H+  H15  1  0.26916753  0.50231187  -0.11487237  1
  H+  H16  1  0.54597510  0.48600625  0.26266027  1
  H+  H17  1  0.53334714  0.81589583  0.50207314  1
  H+  H18  1  0.81252385  0.66850050  0.51103331  1
  H+  H19  1  0.88405136  0.48304336  0.24728893  1
  H+  H20  1  0.86846045  0.35733319  0.25104148  1
  H+  H21  1  0.96894021  0.16053395  0.49229372  1
  H+  H22  1  0.47787495  0.50244951  0.49293533  1
  H+  H23  1  0.39010762  0.86603990  0.22542037  1
  H+  H24  1  0.10570296  0.90768939  0.09204971  1
  H+  H25  1  0.82182755  0.51292829  0.74591054  1
  H+  H26  1  0.53272980  0.36717556  -0.00629029  1
  H+  H27  1  0.82024628  0.83283090  0.01846031  1
  H+  H28  1  0.49326084  0.84185410  0.75078085  1
  H+  H29  1  0.88823531  0.51043584  0.99045486  1
  H+  H30  1  0.71867453  0.19559237  1.00687230  1
  H+  H31  1  0.86529298  0.80967505  0.27330497  1
  H+  H32  1  0.14935289  0.64010316  0.74090316  1
  H+  H33  1  0.53885213  0.48710506  1.00334353  1
  H+  H34  1  0.37828195  0.87749750  1.03057348  1
  H+  H35  1  0.70921567  0.18601291  0.24157382  1
  H+  H36  1  1.03623592  0.85171966  0.72803120  1
  H+  H37  1  0.86385289  0.36895679  0.77014285  1
  H+  H38  1  0.85716912  0.81544463  0.48970337  1
  H+  H39  1  0.83960317  0.64003016  0.00442483  1
  H+  H40  1  0.15597155  0.52367534  0.73978588  1
  H+  H41  1  0.95742245  0.50814266  0.48825303  1
  H+  H42  1  0.38415821  0.10984281  0.04207692  1
  H+  H43  1  0.88723875  0.10012639  0.84563975  1
  H+  H44  1  0.49277513  0.18465521  0.24692406  1
  H+  H45  1  0.81398537  0.00348880  0.98590623  1
  H+  H46  1  0.29867387  0.03540892  0.54162441  1
  H+  H47  1  0.38592862  0.84391361  0.53118941  1
  H+  H48  1  0.34931309  0.18586531  0.74255798  1
  H+  H49  1  0.71849557  0.18599802  0.75628950  1
  H+  H50  1  0.85934480  0.15220710  0.75867624  1
  H+  H51  1  0.31201633  0.49243462  0.74402173  1
  H+  H52  1  0.24603573  0.80602985  1.13339321  1
  H+  H53  1  0.80241887  0.16110041  0.52316366  1
  H+  H54  1  0.49733774  0.97025334  0.53047133  1
  H+  H55  1  0.14482757  0.63984932  0.51197499  1
  H+  H56  1  0.14105642  0.32523631  0.49901146  1
  H+  H57  1  0.12863541  0.32505751  -0.01858774  1
  H+  H58  1  -0.02317918  0.11806311  0.02166488  1
  H+  H59  1  0.15555033  0.98128799  0.23680110  1
  H+  H60  1  0.84710589  0.63475348  0.24359962  1
  H+  H61  1  0.98119966  0.49028458  0.76173777  1
  H+  H62  1  0.14756596  0.97443540  0.73450326  1
  H+  H63  1  0.68007329  0.15114786  0.52644751  1
  H+  H64  1  0.53442138  0.82053449  0.26355491  1
  H+  H65  1  0.52994849  0.69386047  0.74041484  1
  H+  H66  1  0.51974340  0.34604923  0.48977405  1
  H+  H67  1  0.50545128  0.30833712  0.24123267  1
  H+  H68  1  0.01730234  0.50757015  -0.00509778  1
  H+  H69  1  0.65143431  0.81585515  0.49280233  1
  H+  H70  1  0.11637670  0.30656602  0.93253988  1
  H+  H71  1  0.20824662  0.72112148  0.22422729  1
  H+  H72  1  0.82278958  0.17664372  0.24283500  1
  H+  H73  1  0.56394706  0.12521055  0.69961257  1
  H+  H74  1  0.85581289  0.81855494  0.75621822  1
  H+  H75  1  0.21291055  0.84069879  0.49191461  1
  H+  H76  1  0.50823432  0.70533303  0.98893425  1
  H+  H77  1  0.10004406  0.12920297  0.01690392  1
  H+  H78  1  0.47182352  0.03997578  0.43899049  1
  H+  H79  1  0.71458406  0.85285638  0.73067245  1
  H+  H80  1  0.97637302  0.82103873  0.98712003  1
  H+  H81  1  0.17568617  0.16189701  0.74271249  1
  H+  H82  1  0.16802160  0.86794787  0.02283516  1
  H+  H83  1  0.53262803  0.03845648  0.26666980  1
  H+  H84  1  0.18544207  0.16748055  0.24653184  1
  H+  H85  1  0.69653598  0.81196782  0.04079010  1
  H+  H86  1  0.19107780  0.37773344  0.75664008  1
  H+  H87  1  0.29488656  0.80899405  0.76461355  1
  H+  H88  1  0.72748794  0.51537007  0.00781572  1
  H+  H89  1  0.17730294  0.50289700  0.47965129  1
  H+  H90  1  0.05046961  0.48393442  0.24673313  1
  H+  H91  1  0.18193764  0.81673523  0.75294784  1
  H+  H92  1  0.96991727  0.15339692  0.26318475  1
  H+  H93  1  0.39925639  0.53014300  0.01363461  1
  H+  H94  1  0.82910465  0.13126754  -0.01152977  1
  H+  H95  1  0.81001199  0.56189734  0.15076457  1
  H+  H96  1  0.30129658  0.18050432  0.47854382  1
  H+  H97  1  0.71495284  0.84397939  0.25544617  1
  H+  H98  1  0.27434996  0.15710439  0.97743736  1
  H+  H99  1  0.57664875  0.12078865  0.35483974  1
  H+  H100  1  0.51293045  0.36343351  0.76510589  1
  H+  H101  1  0.48862461  0.51225720  0.72669621  1
  H+  H102  1  0.13555388  0.75671144  0.41450545  1
  H+  H103  1  0.21669730  0.74583248  1.01304120  1
  H+  H104  1  0.66661126  0.48826004  0.25760455  1
  H+  H105  1  0.35199103  0.62088655  0.93442363  1
  H+  H106  1  0.46198133  0.17644095  0.75425116  1
  H+  H107  1  0.29175599  0.49525695  0.46406226  1
  H+  H108  1  0.49031442  0.62681366  0.49701095  1
  H+  H109  1  0.45706559  0.54980009  0.11160255  1
  H+  H110  1  0.44194992  0.21339443  0.60104768  1
  H+  H111  1  0.57436109  0.13764934  0.89044094  1
  H+  H112  1  0.18710666  0.46481255  0.33048647  1
  H+  H113  1  0.11135422  0.55809370  0.60001265  1
  H+  H114  1  0.92625192  0.46506261  0.89542888  1
  H+  H115  1  0.89272965  0.77840084  0.89976252  1
  H+  H116  1  0.20434010  0.11523844  0.83408886  1
  H+  H117  1  0.89442423  0.46472681  0.39729477  1
  H+  H118  1  0.78082856  0.21642424  0.65953057  1
  H+  H119  1  0.48577221  0.91439554  0.15179243  1
  H+  H120  1  0.79735584  0.88285235  0.16938292  1
  H+  H121  1  0.70075082  0.50962908  0.74913312  1
  H+  H122  1  0.55515136  0.76307173  0.83341374  1
  H+  H123  1  0.79129659  0.21732791  0.09764899  1
  H+  H124  1  0.12802903  0.30707721  0.21992382  1
  H+  H125  1  0.48662656  0.81185981  0.97491903  1
  H+  H126  1  0.79911534  0.89291811  0.59103085  1
  H+  H127  1  0.11086483  0.24430657  0.64421813  1
  H+  H128  1  0.34691331  0.50926086  0.24080979  1
  H+  H129  1  0.76228237  0.56986924  0.61292444  1
  H+  H130  1  0.88889619  0.11334990  0.40422397  1
  H+  H131  1  0.44812869  0.54663592  0.63369413  1
  H+  H132  1  0.51197012  0.01293550  0.75815722  1
  H+  H133  1  0.16383268  0.86697839  0.21953204  1
  H+  H134  1  0.08075013  0.19779169  0.14932366  1
  H+  H135  1  0.45196307  0.88099064  0.66491615  1
  H+  H136  1  0.56672640  0.77651180  0.35380106  1
  H+  H137  1  0.44226647  0.21195161  0.11028831  1
  H+  H138  1  0.55925079  0.44821857  0.85066444  1
  H+  H139  1  0.12984074  0.53452543  0.10336975  1
  H+  H140  1  0.89271135  0.75701697  0.40770677  1
  H+  H141  1  0.22319876  0.14430759  0.39008932  1
  H+  H142  1  0.83245810  0.97318720  0.73363726  1
  H+  H143  1  0.57117577  0.42804033  0.40171469  1
  O2-  O144  1  0.09995081  0.22436724  0.21546632  1
  O2-  O145  1  0.11584261  0.24054618  0.71233885  1
  O2-  O146  1  0.13577113  0.52564938  0.22644454  1
  O2-  O147  1  0.10850546  0.55702349  0.71906118  1
  O2-  O148  1  0.11241502  0.90052840  0.21449160  1
  O2-  O149  1  0.11808155  0.89574071  0.70997565  1
  O2-  O150  1  0.45671254  0.22721384  0.22029469  1
  O2-  O151  1  0.43396474  0.22477379  0.72752916  1
  O2-  O152  1  0.42963577  0.54033743  0.22934725  1
  O2-  O153  1  0.45051140  0.55344407  0.70177994  1
  O2-  O154  1  0.47606220  0.90695286  0.21960012  1
  O2-  O155  1  0.45056345  0.88191365  0.73378669  1
  O2-  O156  1  0.78828597  0.22135544  0.21669915  1
  O2-  O157  1  0.79496311  0.22895907  0.72852469  1
  O2-  O158  1  0.80645344  0.55506810  0.21824355  1
  O2-  O159  1  0.78059336  0.55253126  0.72469614  1
  O2-  O160  1  0.79748090  0.88449503  0.23721654  1
  O2-  O161  1  0.79550913  0.89303907  0.70901151  1
  O2-  O162  1  0.22374638  0.12547445  0.27002977  1
  O2-  O163  1  0.21272281  0.11812526  0.76631252  1
  O2-  O164  1  0.18604828  0.45758019  0.26129005  1
  O2-  O165  1  0.23618220  0.46013672  0.77519977  1
  O2-  O166  1  0.24591392  0.80206741  0.20791001  1
  O2-  O167  1  0.21204995  0.76843694  0.77785092  1
  O2-  O168  1  0.56942992  0.12065770  0.28770299  1
  O2-  O169  1  0.55099681  0.10081992  0.76329427  1
  O2-  O170  1  0.58581812  0.44501166  0.28125089  1
  O2-  O171  1  0.55802245  0.44617788  0.78298212  1
  O2-  O172  1  0.56745743  0.77328485  0.28564623  1
  O2-  O173  1  0.57162539  0.77280537  0.76699742  1
  O2-  O174  1  0.88941298  0.11083266  0.28754874  1
  O2-  O175  1  0.89868900  0.10938111  0.77794080  1
  O2-  O176  1  0.92102360  0.43942067  0.26880824  1
  O2-  O177  1  0.90277578  0.45010014  0.79227114  1
  O2-  O178  1  0.90677534  0.76933189  0.29325506  1
  O2-  O179  1  0.89471391  0.77842969  0.78267896  1
  O2-  O180  1  0.22255360  0.15298081  0.45735069  1
  O2-  O181  1  0.19897662  0.10676870  0.95057333  1
  O2-  O182  1  0.21121889  0.46238760  0.44382740  1
  O2-  O183  1  0.29276886  0.54007596  0.94659441  1
  O2-  O184  1  0.19487251  0.76896784  0.45816707  1
  O2-  O185  1  0.25108208  0.82269708  1.03890883  1
  O2-  O186  1  0.52894906  0.08167861  0.48591086  1
  O2-  O187  1  0.57945338  0.13756364  0.95723694  1
  O2-  O188  1  0.55855677  0.42740968  0.46854065  1
  O2-  O189  1  0.57706918  0.44714163  0.97429024  1
  O2-  O190  1  0.56948154  0.77475945  0.47292976  1
  O2-  O191  1  0.49275130  0.74875803  0.94279143  1
  O2-  O192  1  0.88787775  0.10863267  0.47232662  1
  O2-  O193  1  0.85711690  0.08081733  0.95920798  1
  O2-  O194  1  0.88760178  0.49483688  0.45640472  1
  O2-  O195  1  0.93447114  0.47538182  0.96559089  1
  O2-  O196  1  0.88349024  0.75866939  0.47569960  1
  O2-  O197  1  0.89354784  0.77541488  0.96828426  1
  O2-  O198  1  0.04233002  0.12698435  0.05947818  1
  O2-  O199  1  0.10767676  0.24799382  0.52741515  1
  O2-  O200  1  0.12705485  0.55133958  0.03774655  1
  O2-  O201  1  0.11155756  0.55861886  0.53198143  1
  O2-  O202  1  0.11333343  0.90166491  0.02494294  1
  O2-  O203  1  0.25644955  0.95382992  0.55641939  1
  O2-  O204  1  0.42741915  0.19338902  0.04261774  1
  O2-  O205  1  0.44142898  0.20470556  0.53406290  1
  O2-  O206  1  0.47425112  0.55822864  0.04479770  1
  O2-  O207  1  0.43973824  0.54487261  0.51450445  1
  O2-  O208  1  0.46705704  0.90821427  0.03175653  1
  O2-  O209  1  0.46477285  0.88446798  0.55328279  1
  O2-  O210  1  0.79579367  0.21782665  0.02995206  1
  O2-  O211  1  0.75650705  0.18965197  0.55479066  1
  O2-  O212  1  0.80897478  0.55927672  0.02756016  1
  O2-  O213  1  0.73930235  0.59107641  0.55437559  1
  O2-  O214  1  0.77742402  0.86689471  0.04932716  1
  O2-  O215  1  0.79689616  0.88916472  0.52287903  1
