# generated using pymatgen
data_H2O
_symmetry_space_group_name_H-M   'P 1'
_cell_length_a   13.51534038
_cell_length_b   13.52109673
_cell_length_c   14.68730176
_cell_angle_alpha   90.02612904
_cell_angle_beta   89.95460834
_cell_angle_gamma   119.96669470
_symmetry_Int_Tables_number   1
_chemical_formula_structural   H2O
_chemical_formula_sum   'H144 O72'
_cell_volume   2325.18264936
_cell_formula_units_Z   72
loop_
 _symmetry_equiv_pos_site_id
 _symmetry_equiv_pos_as_xyz
  1  'x, y, z'
loop_
 _atom_type_symbol
 _atom_type_oxidation_number
  H+  1.0
  O2-  -2.0
loop_
 _atom_site_type_symbol
 _atom_site_label
 _atom_site_symmetry_multiplicity
 _atom_site_fract_x
 _atom_site_fract_y
 _atom_site_fract_z
 _atom_site_occupancy
  H+  H0  1  1.03917797  0.19724630  1.00341689  1
  H+  H1  1  0.29786683  0.15431018  0.24534584  1
  H+  H2  1  0.47857380  0.96959215  0.00449699  1
  H+  H3  1  0.80467211  0.17588259  0.25674757  1
  H+  H4  1  0.85533368  0.88495066  -0.01416556  1
  H+  H5  1  0.47974879  0.61324078  0.47018538  1
  H+  H6  1  0.06392174  0.18483271  0.51131782  1
  H+  H7  1  0.53115813  0.71963151  0.26262219  1
  H+  H8  1  0.53578608  0.37408826  0.24003639  1
  H+  H9  1  0.54107666  0.17458835  0.48232502  1
  H+  H10  1  0.87299956  0.15776294  0.50593367  1
  H+  H11  1  0.49387838  0.18991718  0.21542629  1
  H+  H12  1  0.49751473  0.82534993  0.97948620  1
  H+  H13  1  0.37612828  0.31147945  0.96075617  1
  H+  H14  1  0.65177628  0.19228105  0.25584856  1
  H+  H15  1  0.16743884  0.24561238  0.23885324  1
  H+  H16  1  0.82970162  0.64295001  -0.01838773  1
  H+  H17  1  0.56470360  0.45120278  0.38386369  1
  H+  H18  1  0.34583833  0.83487344  0.22539992  1
  H+  H19  1  0.21019487  0.14127526  0.49076279  1
  H+  H20  1  0.04527241  0.26973659  0.70528692  1
  H+  H21  1  0.50889060  0.53333056  0.25402869  1
  H+  H22  1  0.48458882  0.62500690  0.52113196  1
  H+  H23  1  0.16771609  0.88338320  0.73411272  1
  H+  H24  1  0.16611285  0.43398485  0.22187201  1
  H+  H25  1  0.99144743  0.96583883  0.88238575  1
  H+  H26  1  0.85691985  1.04300551  -0.00462965  1
  H+  H27  1  0.84411168  0.97609742  0.52836412  1
  H+  H28  1  0.52232980  1.04155458  0.77371533  1
  H+  H29  1  0.50283214  0.31644974  0.49643842  1
  H+  H30  1  0.90383643  0.77647399  0.36713562  1
  H+  H31  1  0.82918960  0.14542757  0.77007197  1
  H+  H32  1  0.19778684  0.28314418  0.53368706  1
  H+  H33  1  0.83978123  0.51985532  0.27055429  1
  H+  H34  1  0.17579236  0.53873999  0.01689433  1
  H+  H35  1  0.16596201  0.00279077  0.72819641  1
  H+  H36  1  0.84106462  0.31063289  0.24706335  1
  H+  H37  1  0.23007006  0.51184843  0.34880380  1
  H+  H38  1  0.82076406  0.61659857  0.51685328  1
  H+  H39  1  0.78396037  0.88318793  0.60905501  1
  H+  H40  1  0.52048990  0.48279809  0.74846668  1
  H+  H41  1  0.98977686  0.48156965  0.27225034  1
  H+  H42  1  0.19719185  0.04990432  0.99018488  1
  H+  H43  1  0.35723186  0.86454407  0.50394170  1
  H+  H44  1  0.68065607  0.82540809  0.74121312  1
  H+  H45  1  0.83007245  0.29520778  0.51667451  1
  H+  H46  1  0.91197208  0.43802597  0.90870058  1
  H+  H47  1  0.86193047  0.47233010  0.49970907  1
  H+  H48  1  1.00473832  0.49855736  0.98897615  1
  H+  H49  1  0.38299940  0.39763921  0.50545904  1
  H+  H50  1  0.64300818  0.15626778  0.77535987  1
  H+  H51  1  0.03009456  0.85584240  0.24287562  1
  H+  H52  1  0.51891710  0.04850107  0.48043594  1
  H+  H53  1  0.46868341  0.84405836  0.22407447  1
  H+  H54  1  0.85187824  0.80456506  0.50875617  1
  H+  H55  1  0.85303697  0.46708240  0.76475228  1
  H+  H56  1  0.84801744  0.46687642  0.04060856  1
  H+  H57  1  0.46595694  0.52276340  0.01800042  1
  H+  H58  1  0.70049607  0.49010477  0.74803574  1
  H+  H59  1  0.61966761  0.83534448  0.96928162  1
  H+  H60  1  0.47970820  0.30634060  0.72750315  1
  H+  H61  1  0.52550658  0.14994704  1.00290360  1
  H+  H62  1  0.16299797  0.40927770  0.41370655  1
  H+  H63  1  0.15446915  0.65696045  0.50900558  1
  H+  H64  1  0.65451562  0.43665652  -0.00098059  1
  H+  H65  1  0.67165975  0.14713928  0.02306601  1
  H+  H66  1  0.16375190  0.80620785  0.25145619  1
  H+  H67  1  0.15131396  0.86448255  0.00859707  1
  H+  H68  1  0.18313896  0.71510477  0.99195561  1
  H+  H69  1  1.07089421  0.94828375  0.52551772  1
  H+  H70  1  0.19390498  0.37823576  0.99888078  1
  H+  H71  1  0.15717493  0.19337350  0.00316587  1
  H+  H72  1  0.56039167  0.52565352  0.46738539  1
  H+  H73  1  0.29723463  0.83342349  0.98709734  1
  H+  H74  1  0.98638401  0.48491333  0.50103496  1
  H+  H75  1  -0.02960661  0.46233569  0.75950357  1
  H+  H76  1  0.92681118  0.11094281  0.76982374  1
  H+  H77  1  0.16607341  0.68673363  0.25723606  1
  H+  H78  1  0.30456836  0.85199321  0.75918691  1
  H+  H79  1  0.52166860  0.42325442  0.83953754  1
  H+  H80  1  0.66698107  0.86782291  0.48920458  1
  H+  H81  1  0.37425155  0.16774072  0.06676087  1
  H+  H82  1  0.96350996  0.79326228  0.51619463  1
  H+  H83  1  0.88940432  0.10372123  0.41773051  1
  H+  H84  1  0.01070876  0.88970431  -0.04702569  1
  H+  H85  1  0.48318148  0.87963791  0.50378770  1
  H+  H86  1  0.80434805  0.54306019  0.17653246  1
  H+  H87  1  0.17081832  0.55146298  0.48788774  1
  H+  H88  1  0.48430857  0.64911716  0.01826693  1
  H+  H89  1  0.82091399  0.67444826  0.94327147  1
  H+  H90  1  0.66108260  0.48367335  0.26041878  1
  H+  H91  1  0.16014477  0.49984555  0.73413696  1
  H+  H92  1  0.17437601  0.82987319  0.48690584  1
  H+  H93  1  0.87208280  0.88051904  0.25060245  1
  H+  H94  1  0.82024436  1.01211175  0.27840322  1
  H+  H95  1  0.19296695  0.35762812  0.77626685  1
  H+  H96  1  0.30817368  0.45532284  0.48800535  1
  H+  H97  1  0.35116509  0.39579484  0.90836569  1
  H+  H98  1  0.36666543  0.50368888  0.74218520  1
  H+  H99  1  0.86225322  0.70005587  0.27741779  1
  H+  H100  1  0.60806000  0.43838396  0.97214213  1
  H+  H101  1  0.74514297  0.81286721  0.04709336  1
  H+  H102  1  0.39067362  0.19197941  0.49371771  1
  H+  H103  1  0.30578759  0.17694600  0.75171169  1
  H+  H104  1  0.50294380  0.69041872  0.74590358  1
  H+  H105  1  0.70821557  0.49755963  0.50258708  1
  H+  H106  1  0.82244679  0.30055065  0.74541648  1
  H+  H107  1  0.54758150  0.76280463  0.46840115  1
  H+  H108  1  0.80902387  0.15543781  1.02216007  1
  H+  H109  1  0.77710142  0.52705991  0.65972128  1
  H+  H110  1  0.12109876  0.91218753  0.61491932  1
  H+  H111  1  0.87899077  0.11936737  0.90623370  1
  H+  H112  1  0.47508845  0.85394916  0.73367259  1
  H+  H113  1  0.84380484  0.92458737  0.15927531  1
  H+  H114  1  0.23491451  0.11833631  0.34025513  1
  H+  H115  1  0.10672413  0.21641077  0.64992372  1
  H+  H116  1  0.18604150  0.17424591  0.76531010  1
  H+  H117  1  0.12753065  0.57005029  0.10542412  1
  H+  H118  1  0.20723515  0.78430986  0.39690682  1
  H+  H119  1  0.77668254  0.21712233  0.65635655  1
  H+  H120  1  0.31112782  0.50171167  1.00796861  1
  H+  H121  1  0.53532753  0.76853296  0.83573005  1
  H+  H122  1  0.84122106  0.80556937  0.80354166  1
  H+  H123  1  0.23951916  0.12996380  0.90160427  1
  H+  H124  1  0.71841668  0.01132001  0.33319806  1
  H+  H125  1  0.44717344  0.56719075  0.18117361  1
  H+  H126  1  0.74918037  0.39306658  0.10939086  1
  H+  H127  1  0.70983178  0.17971584  0.50780315  1
  H+  H128  1  0.56606027  0.11621874  0.90429380  1
  H+  H129  1  0.91126789  0.43901014  0.36424535  1
  H+  H130  1  0.12688992  0.26459123  0.14442776  1
  H+  H131  1  0.56617460  0.14723561  0.34033873  1
  H+  H132  1  0.44029642  0.90538377  0.65008682  1
  H+  H133  1  0.22449498  0.03288956  0.48466839  1
  H+  H134  1  0.43903300  0.23176931  0.63661142  1
  H+  H135  1  0.21836206  0.81377624  0.84338203  1
  H+  H136  1  0.10410652  0.90415219  0.09387799  1
  H+  H137  1  0.41550339  0.51734787  0.64368198  1
  H+  H138  1  0.76702136  0.19841734  0.12186598  1
  H+  H139  1  0.23395930  0.44644194  0.86187384  1
  H+  H140  1  0.14522542  0.97602910  0.23612435  1
  H+  H141  1  0.12034461  0.53994876  0.64531105  1
  H+  H142  1  0.42982684  0.88344561  0.09126223  1
  H+  H143  1  0.57516906  0.82127893  0.33275821  1
  O2-  O144  1  0.13371968  0.28696712  0.20933627  1
  O2-  O145  1  0.08902691  0.23072570  0.71383916  1
  O2-  O146  1  0.11638946  0.55086433  0.21830702  1
  O2-  O147  1  0.09912602  0.51024404  0.70811312  1
  O2-  O148  1  0.10598328  0.89647310  0.21167404  1
  O2-  O149  1  0.12767487  0.92333234  0.70468560  1
  O2-  O150  1  0.44243323  0.21964129  0.18672656  1
  O2-  O151  1  0.42306629  0.23032005  0.70255687  1
  O2-  O152  1  0.46544313  0.57366010  0.24656332  1
  O2-  O153  1  0.43986473  0.54309504  0.70648897  1
  O2-  O154  1  0.42219121  0.87522912  0.19676867  1
  O2-  O155  1  0.44361518  0.90413920  0.71784543  1
  O2-  O156  1  0.79109667  0.23142098  0.22151994  1
  O2-  O157  1  0.77637475  0.21770496  0.72424157  1
  O2-  O158  1  0.80044620  0.55907174  0.24365099  1
  O2-  O159  1  0.78036911  0.52461760  0.72663241  1
  O2-  O160  1  0.86880513  0.94560714  0.22239991  1
  O2-  O161  1  0.76386104  0.85876321  0.72419690  1
  O2-  O162  1  0.22186594  0.12184564  0.27412429  1
  O2-  O163  1  0.22832331  0.13673982  0.78464591  1
  O2-  O164  1  0.20180915  0.51597011  0.24050090  1
  O2-  O165  1  0.24331011  0.43794144  0.79478819  1
  O2-  O166  1  0.20093347  0.76744746  0.28160787  1
  O2-  O167  1  0.22319975  0.82075894  0.77631097  1
  O2-  O168  1  0.57198149  0.16637693  0.27438015  1
  O2-  O169  1  0.56687200  0.11564797  0.80589812  1
  O2-  O170  1  0.57661348  0.44576508  0.27513750  1
  O2-  O171  1  0.55338035  0.43892269  0.77729738  1
  O2-  O172  1  0.56352656  0.80408472  0.26736701  1
  O2-  O173  1  0.54169998  0.77065204  0.76794587  1
  O2-  O174  1  0.79832916  0.06152786  0.31660173  1
  O2-  O175  1  0.85952136  0.10017897  0.80301423  1
  O2-  O176  1  0.90844808  0.44107061  0.29598180  1
  O2-  O177  1  0.89284620  0.42527114  0.78790858  1
  O2-  O178  1  0.90281830  0.78077395  0.29964395  1
  O2-  O179  1  0.78583733  0.76774533  0.75377963  1
  O2-  O180  1  0.25621253  0.11148905  0.46025388  1
  O2-  O181  1  0.23989480  0.13190780  0.96989461  1
  O2-  O182  1  0.22734623  0.48717573  0.41476646  1
  O2-  O183  1  0.23669740  0.45819946  0.97436701  1
  O2-  O184  1  0.21560354  0.79128567  0.46516484  1
  O2-  O185  1  0.21476468  0.79487983  0.96883180  1
  O2-  O186  1  0.57311183  0.12703583  0.45791904  1
  O2-  O187  1  0.56479929  0.11177394  0.97694575  1
  O2-  O188  1  0.56073319  0.45534406  0.45295174  1
  O2-  O189  1  0.41348822  0.38881288  0.93540775  1
  O2-  O190  1  0.59167222  0.84562626  0.45956509  1
  O2-  O191  1  0.53897801  0.78435275  0.95525881  1
  O2-  O192  1  0.91684210  0.12126031  0.48188093  1
  O2-  O193  1  0.88941851  0.12309873  0.97610849  1
  O2-  O194  1  0.90581728  0.43440628  0.47956146  1
  O2-  O195  1  0.92363943  0.44128103  0.97567499  1
  O2-  O196  1  0.88599217  0.75757133  0.48846538  1
  O2-  O197  1  0.95105353  0.89216312  0.91288846  1
  O2-  O198  1  0.12025632  0.23789272  0.02347746  1
  O2-  O199  1  0.13642704  0.20193305  0.54276806  1
  O2-  O200  1  0.13664706  0.58055298  0.03700298  1
  O2-  O201  1  0.12643020  0.57554747  0.52675317  1
  O2-  O202  1  0.11469870  0.91125807  0.02606641  1
  O2-  O203  1  0.10816208  0.90403385  0.53902924  1
  O2-  O204  1  0.45448847  0.21415358  0.08653194  1
  O2-  O205  1  0.46934983  0.23793133  0.52019742  1
  O2-  O206  1  0.44525138  0.57398550  0.04989164  1
  O2-  O207  1  0.32567281  0.41177683  0.53400302  1
  O2-  O208  1  0.43421493  0.88726333  0.02110835  1
  O2-  O209  1  0.43643153  0.91091120  0.52885202  1
  O2-  O210  1  0.74910054  0.16787081  0.05605255  1
  O2-  O211  1  0.78695093  0.21357090  0.53697551  1
  O2-  O212  1  0.79177092  0.47038437  0.08565317  1
  O2-  O213  1  0.78392862  0.53338276  0.53177934  1
  O2-  O214  1  0.79865732  0.89070144  0.02775371  1
  O2-  O215  1  0.79323831  0.89326401  0.54111277  1
