# generated using pymatgen
data_H2O
_symmetry_space_group_name_H-M   'P 1'
_cell_length_a   13.52021145
_cell_length_b   13.51262522
_cell_length_c   14.68509189
_cell_angle_alpha   90.01729201
_cell_angle_beta   89.95914535
_cell_angle_gamma   120.01613962
_symmetry_Int_Tables_number   1
_chemical_formula_structural   H2O
_chemical_formula_sum   'H144 O72'
_cell_volume   2323.05638113
_cell_formula_units_Z   72
loop_
 _symmetry_equiv_pos_site_id
 _symmetry_equiv_pos_as_xyz
  1  'x, y, z'
loop_
 _atom_type_symbol
 _atom_type_oxidation_number
  H+  1.0
  O2-  -2.0
loop_
 _atom_site_type_symbol
 _atom_site_label
 _atom_site_symmetry_multiplicity
 _atom_site_fract_x
 _atom_site_fract_y
 _atom_site_fract_z
 _atom_site_occupancy
  H+  H0  1  0.17298567  0.49012243  0.74707638  1
  H+  H1  1  0.98639601  0.51499920  0.50720871  1
  H+  H2  1  0.20622960  0.75278811  0.92141708  1
  H+  H3  1  0.82811955  0.32539306  0.51860534  1
  H+  H4  1  0.36227404  0.18031565  0.01538555  1
  H+  H5  1  0.14322839  0.18380128  1.02051216  1
  H+  H6  1  0.51538463  0.48381031  0.26595764  1
  H+  H7  1  0.17942027  0.05077442  0.25696452  1
  H+  H8  1  0.01370674  0.83957619  0.24649039  1
  H+  H9  1  0.97804922  0.80500936  1.02295238  1
  H+  H10  1  0.84268259  0.46728213  0.24356352  1
  H+  H11  1  0.11788495  0.89410228  0.67379988  1
  H+  H12  1  0.17303753  0.37893621  0.48174194  1
  H+  H13  1  0.81157509  0.61922198  1.02411397  1
  H+  H14  1  0.46793380  0.49795314  0.52086745  1
  H+  H15  1  0.84329330  0.80383923  0.22000651  1
  H+  H16  1  -0.01031919  0.15978118  -0.00410760  1
  H+  H17  1  0.80759036  0.52393331  0.52450340  1
  H+  H18  1  0.51677722  0.33338139  0.74723109  1
  H+  H19  1  0.52054610  0.50132909  0.77424136  1
  H+  H20  1  0.15578235  0.63943461  0.23089535  1
  H+  H21  1  0.51596459  0.14826507  0.25234488  1
  H+  H22  1  0.69692578  0.84815204  0.20965081  1
  H+  H23  1  0.17106255  0.82599618  0.77223036  1
  H+  H24  1  0.00824516  0.18444006  0.73603261  1
  H+  H25  1  0.84604319  0.13470844  0.24342992  1
  H+  H26  1  0.52381235  0.15713183  0.75752055  1
  H+  H27  1  0.68847148  0.16970013  0.98647158  1
  H+  H28  1  0.21105153  0.13717774  0.78363555  1
  H+  H29  1  0.44770354  0.22633881  0.14970192  1
  H+  H30  1  0.86329913  0.81719025  0.01857867  1
  H+  H31  1  0.70429763  0.53418374  0.75260921  1
  H+  H32  1  0.03839598  0.18725597  0.23342363  1
  H+  H33  1  0.62288487  0.47817428  0.49841236  1
  H+  H34  1  0.51350229  0.36378379  0.26157210  1
  H+  H35  1  0.51268781  0.82084923  0.20038147  1
  H+  H36  1  0.84956351  0.97630672  -0.00200114  1
  H+  H37  1  0.17619480  0.00066341  0.77867388  1
  H+  H38  1  0.22682283  0.09763858  0.91686562  1
  H+  H39  1  0.50775969  0.36071453  0.99389758  1
  H+  H40  1  0.63563614  0.14635010  0.76147784  1
  H+  H41  1  0.08594030  0.88791265  0.33647461  1
  H+  H42  1  0.27087340  0.16047656  0.48729561  1
  H+  H43  1  0.50660318  0.81259526  0.77424178  1
  H+  H44  1  0.83043831  0.86298154  0.75222389  1
  H+  H45  1  0.18354080  0.48771779  0.24708612  1
  H+  H46  1  0.54271814  0.69073402  0.51427633  1
  H+  H47  1  0.36154178  0.51670210  0.24848200  1
  H+  H48  1  0.18635013  0.71272571  0.76384851  1
  H+  H49  1  0.48864245  0.81415570  0.00493862  1
  H+  H50  1  0.98575671  0.83934305  0.76237394  1
  H+  H51  1  0.35828074  0.51414548  0.51589674  1
  H+  H52  1  0.55103242  0.77422896  0.11619009  1
  H+  H53  1  0.04024722  0.51994426  0.21749417  1
  H+  H54  1  0.73765514  0.19479121  0.50922668  1
  H+  H55  1  0.81261687  0.61867709  0.22739193  1
  H+  H56  1  0.51563659  0.82176275  0.51179275  1
  H+  H57  1  0.36619891  0.19002513  0.23741347  1
  H+  H58  1  0.01653397  0.84646784  0.50879765  1
  H+  H59  1  0.46996680  0.63686893  0.75480409  1
  H+  H60  1  0.19196192  0.02744228  1.00821033  1
  H+  H61  1  0.18174165  0.17152043  0.24552780  1
  H+  H62  1  0.05006013  0.53667612  0.75020087  1
  H+  H63  1  0.81080709  0.28206891  0.20878486  1
  H+  H64  1  0.86026813  0.72614298  0.75538408  1
  H+  H65  1  0.84219413  0.70549882  0.50147868  1
  H+  H66  1  0.82058923  0.33919160  0.96175546  1
  H+  H67  1  0.85614475  0.03668637  0.76655818  1
  H+  H68  1  0.46290250  0.91568651  0.13435178  1
  H+  H69  1  0.15678014  0.53167103  0.50878147  1
  H+  H70  1  0.48444237  0.18641668  0.00723800  1
  H+  H71  1  0.17883541  0.81409196  0.26648741  1
  H+  H72  1  0.15925233  0.65270879  0.51639026  1
  H+  H73  1  0.46651519  0.68120800  0.00397559  1
  H+  H74  1  0.70671229  0.85595344  0.75677273  1
  H+  H75  1  0.30112410  0.48571283  0.75367029  1
  H+  H76  1  0.46132755  0.83233388  0.51764307  1
  H+  H77  1  0.79290292  0.90457328  0.61096687  1
  H+  H78  1  0.51669960  0.04113553  0.99199983  1
  H+  H79  1  0.17154351  0.36089875  0.74227286  1
  H+  H80  1  0.13059824  0.19479002  0.49446637  1
  H+  H81  1  0.15453967  0.52254558  -0.00621729  1
  H+  H82  1  0.42302772  0.16433129  0.53517209  1
  H+  H83  1  0.81329775  0.18086388  0.75023251  1
  H+  H84  1  0.47940289  0.63380116  0.22274202  1
  H+  H85  1  0.18063791  0.36709901  0.25153326  1
  H+  H86  1  0.94867924  0.14872563  0.46956286  1
  H+  H87  1  0.81060577  0.45244643  0.97676927  1
  H+  H88  1  0.41390029  0.94959907  0.60786148  1
  H+  H89  1  0.98712640  0.61447856  0.83096064  1
  H+  H90  1  0.54540710  0.11171557  0.89482165  1
  H+  H91  1  0.35756979  0.85337299  0.75744320  1
  H+  H92  1  0.13489771  -0.03307622  0.50335707  1
  H+  H93  1  0.43103078  0.53503861  0.11072231  1
  H+  H94  1  0.28728961  0.84649049  0.49559422  1
  H+  H95  1  0.89073871  0.76137085  0.14000091  1
  H+  H96  1  0.58048859  0.96711192  0.05815733  1
  H+  H97  1  0.77997112  0.22790829  0.66367590  1
  H+  H98  1  0.86057844  0.14464006  0.97929041  1
  H+  H99  1  0.46440413  0.01923906  0.51579160  1
  H+  H100  1  0.46107222  0.29701500  0.51253125  1
  H+  H101  1  0.70739764  0.84537154  0.52587733  1
  H+  H102  1  0.37200073  0.85799964  0.22815511  1
  H+  H103  1  0.15816081  0.82663733  0.01872060  1
  H+  H104  1  0.69107532  0.16720387  0.22121630  1
  H+  H105  1  0.58809217  0.20004778  0.46122054  1
  H+  H106  1  0.85274918  0.82793048  0.50433489  1
  H+  H107  1  0.69278413  0.50225667  0.24896964  1
  H+  H108  1  0.16332705  0.35220127  0.00682837  1
  H+  H109  1  0.76175506  0.56128020  0.60938001  1
  H+  H110  1  0.47884600  0.96704400  0.75196891  1
  H+  H111  1  0.22102948  0.46031171  0.39535679  1
  H+  H112  1  0.28411719  0.46764693  0.00727147  1
  H+  H113  1  0.20537605  0.12569154  0.39178402  1
  H+  H114  1  0.10880827  0.22580287  0.13443347  1
  H+  H115  1  0.91678823  0.51949507  0.42334865  1
  H+  H116  1  0.57851420  0.76980357  0.34085182  1
  H+  H117  1  0.12201696  0.18404358  0.70317178  1
  H+  H118  1  0.90996546  0.12008314  0.85474411  1
  H+  H119  1  0.81872568  0.96342012  0.23424432  1
  H+  H120  1  0.08589358  0.23676053  0.57958732  1
  H+  H121  1  0.84463661  0.02214010  0.47915675  1
  H+  H122  1  0.54783874  0.43935270  0.40652424  1
  H+  H123  1  0.51333539  0.02624916  0.25022303  1
  H+  H124  1  0.11971787  0.55998699  0.65326117  1
  H+  H125  1  0.62662644  0.47873824  0.99783279  1
  H+  H126  1  0.57482475  0.11700743  0.38134464  1
  H+  H127  1  0.47262727  0.50639034  0.01780106  1
  H+  H128  1  0.88620521  0.40612029  0.31356275  1
  H+  H129  1  0.43581771  0.55568564  0.66420018  1
  H+  H130  1  0.76786516  0.20099887  0.07399369  1
  H+  H131  1  0.90501567  0.48289934  0.85507098  1
  H+  H132  1  0.13258747  0.88431937  0.10465308  1
  H+  H133  1  0.11976875  0.57643849  0.07300001  1
  H+  H134  1  0.59340002  0.77414490  0.39522133  1
  H+  H135  1  0.55970554  0.45940006  0.86236169  1
  H+  H136  1  0.53763930  0.76880073  0.86502626  1
  H+  H137  1  0.44814688  0.24926812  0.66544895  1
  H+  H138  1  0.76263406  0.52665167  0.10211610  1
  H+  H139  1  0.22320051  0.77449402  0.34902693  1
  H+  H140  1  0.80043779  0.90114436  0.08795558  1
  H+  H141  1  0.88194550  0.09561957  0.33619798  1
  H+  H142  1  0.16234412  0.81786221  0.48761664  1
  H+  H143  1  0.83055732  0.54832364  0.74748892  1
  O2-  O144  1  0.11795487  0.23202477  0.21021412  1
  O2-  O145  1  0.08780230  0.23246901  0.70101629  1
  O2-  O146  1  0.12214615  0.56269684  0.20136858  1
  O2-  O147  1  0.12561439  0.55512728  0.72101256  1
  O2-  O148  1  0.09534789  0.88709588  0.27060707  1
  O2-  O149  1  0.11223003  0.88766284  0.74015653  1
  O2-  O150  1  0.44822120  0.22662665  0.21862534  1
  O2-  O151  1  0.49044367  0.25618093  0.72150893  1
  O2-  O152  1  0.44280062  0.54888503  0.22805300  1
  O2-  O153  1  0.42886160  0.55474523  0.73222364  1
  O2-  O154  1  0.45307782  0.90267713  0.21043072  1
  O2-  O155  1  0.43474376  0.88671800  0.72829367  1
  O2-  O156  1  0.76924030  0.19951886  0.19397244  1
  O2-  O157  1  0.76831518  0.21647856  0.73049823  1
  O2-  O158  1  0.77136303  0.53293879  0.22271024  1
  O2-  O159  1  0.77935723  0.57322276  0.71995696  1
  O2-  O160  1  0.78156360  0.88326352  0.20902591  1
  O2-  O161  1  0.78501490  0.90218560  0.73262949  1
  O2-  O162  1  0.22366279  0.13221909  0.27390430  1
  O2-  O163  1  0.22675228  0.08158325  0.81093026  1
  O2-  O164  1  0.21992772  0.44736034  0.27721753  1
  O2-  O165  1  0.21393431  0.44180513  0.76690652  1
  O2-  O166  1  0.22161616  0.77419270  0.28099448  1
  O2-  O167  1  0.21453236  0.78466782  0.79728046  1
  O2-  O168  1  0.55863184  0.10960192  0.27261953  1
  O2-  O169  1  0.55259092  0.10689792  0.78134609  1
  O2-  O170  1  0.55551441  0.44286739  0.28820081  1
  O2-  O171  1  0.56870616  0.46911128  0.79418330  1
  O2-  O172  1  0.55114875  0.77533310  0.18374479  1
  O2-  O173  1  0.54353409  0.76905682  0.79689578  1
  O2-  O174  1  0.88873149  0.09791522  0.26678149  1
  O2-  O175  1  0.90144005  0.11982216  0.78499640  1
  O2-  O176  1  0.88889036  0.42725601  0.24989411  1
  O2-  O177  1  0.94572541  0.53974537  0.80158616  1
  O2-  O178  1  0.88638013  0.76168650  0.20986066  1
  O2-  O179  1  0.89997607  0.80512221  0.77867825  1
  O2-  O180  1  0.19318413  0.11879738  0.45940269  1
  O2-  O181  1  0.22913595  0.10727287  0.98588637  1
  O2-  O182  1  0.21977456  0.46172195  0.46365662  1
  O2-  O183  1  0.20472171  0.43454531  0.98473446  1
  O2-  O184  1  0.21338254  0.78515303  0.47001953  1
  O2-  O185  1  0.20965401  0.75299362  0.98950719  1
  O2-  O186  1  0.58471643  0.12744010  0.45014286  1
  O2-  O187  1  0.55000004  0.12072899  0.96298297  1
  O2-  O188  1  0.54255270  0.43357501  0.47454384  1
  O2-  O189  1  0.54663990  0.44294464  0.97369953  1
  O2-  O190  1  0.58698296  0.77101276  0.49375396  1
  O2-  O191  1  0.51826252  0.76173411  0.98607508  1
  O2-  O192  1  0.87404253  0.09389321  0.44270829  1
  O2-  O193  1  0.91021036  0.11349665  0.96025985  1
  O2-  O194  1  0.90588485  0.48157927  0.48179765  1
  O2-  O195  1  0.83623842  0.41296651  0.93421840  1
  O2-  O196  1  0.88879265  0.78430072  0.47817196  1
  O2-  O197  1  0.89353101  0.76282512  1.03289446  1
  O2-  O198  1  0.09866679  0.21900878  0.04181881  1
  O2-  O199  1  0.09421303  0.24123077  0.51234559  1
  O2-  O200  1  0.11050425  0.56484082  0.00627492  1
  O2-  O201  1  0.11864640  0.57113045  0.53869385  1
  O2-  O202  1  0.12301861  0.87686035  0.03890551  1
  O2-  O203  1  0.10187540  0.88677676  0.52338721  1
  O2-  O204  1  0.44542865  0.22608731  0.03541584  1
  O2-  O205  1  0.40122648  0.22310300  0.54046663  1
  O2-  O206  1  0.42722818  0.53973533  0.04322826  1
  O2-  O207  1  0.43203070  0.54001323  0.54809112  1
  O2-  O208  1  0.49864543  0.93405580  0.04809731  1
  O2-  O209  1  0.39351824  0.97649822  0.55205871  1
  O2-  O210  1  0.77057504  0.20280043  0.00630121  1
  O2-  O211  1  0.80225682  0.25035830  0.54625439  1
  O2-  O212  1  0.76246353  0.53490835  0.03481385  1
  O2-  O213  1  0.75788368  0.55559759  0.54064410  1
  O2-  O214  1  0.80970081  0.89591068  0.02145031  1
  O2-  O215  1  0.79230307  0.89908585  0.54341686  1
