# generated using pymatgen
data_H2O
_symmetry_space_group_name_H-M   'P 1'
_cell_length_a   13.51313238
_cell_length_b   13.51639287
_cell_length_c   14.68078134
_cell_angle_alpha   89.98547600
_cell_angle_beta   89.99462958
_cell_angle_gamma   120.00691560
_symmetry_Int_Tables_number   1
_chemical_formula_structural   H2O
_chemical_formula_sum   'H144 O72'
_cell_volume   2322.02206966
_cell_formula_units_Z   72
loop_
 _symmetry_equiv_pos_site_id
 _symmetry_equiv_pos_as_xyz
  1  'x, y, z'
loop_
 _atom_type_symbol
 _atom_type_oxidation_number
  H+  1.0
  O2-  -2.0
loop_
 _atom_site_type_symbol
 _atom_site_label
 _atom_site_symmetry_multiplicity
 _atom_site_fract_x
 _atom_site_fract_y
 _atom_site_fract_z
 _atom_site_occupancy
  H+  H0  1  0.98068679  0.48436234  0.27002297  1
  H+  H1  1  0.52101406  0.37224586  0.50483062  1
  H+  H2  1  0.19023369  0.12987125  0.98383751  1
  H+  H3  1  0.19556702  0.15504994  0.26404899  1
  H+  H4  1  0.36874807  0.86581055  0.53824095  1
  H+  H5  1  0.84421758  0.48832780  0.50029832  1
  H+  H6  1  1.00579440  0.16436518  0.76432640  1
  H+  H7  1  0.71046098  0.90165867  0.27198356  1
  H+  H8  1  0.83712668  0.68276565  0.49533775  1
  H+  H9  1  0.76858295  0.77944427  0.79499430  1
  H+  H10  1  0.50690800  0.52825520  0.74485473  1
  H+  H11  1  0.63362048  0.15950849  0.49552597  1
  H+  H12  1  0.14851767  0.63833273  0.75214102  1
  H+  H13  1  0.46898481  0.63437281  0.50827026  1
  H+  H14  1  0.15745584  0.63252578  0.22888462  1
  H+  H15  1  0.67053228  0.50310062  0.74665275  1
  H+  H16  1  0.57782003  0.12525700  0.72697334  1
  H+  H17  1  0.31530147  0.82024880  0.23711532  1
  H+  H18  1  0.49723036  0.29900088  0.22840701  1
  H+  H19  1  0.21228175  0.99441120  0.72353104  1
  H+  H20  1  0.87853751  0.04408442  0.27162687  1
  H+  H21  1  0.64365924  0.77451686  0.23650996  1
  H+  H22  1  0.03047564  0.20002587  0.49460793  1
  H+  H23  1  0.21568854  0.09823185  0.36553897  1
  H+  H24  1  0.92587964  0.21204758  0.92894017  1
  H+  H25  1  0.13586891  0.83326308  0.01429499  1
  H+  H26  1  0.94951536  0.13059408  0.98236250  1
  H+  H27  1  0.82553328  0.51378183  0.25684852  1
  H+  H28  1  0.78718098  0.94588217  0.46023094  1
  H+  H29  1  0.19341974  0.02890575  0.26172594  1
  H+  H30  1  0.22965579  0.43744158  0.09906145  1
  H+  H31  1  0.48037023  -0.02953434  0.99796883  1
  H+  H32  1  0.51756637  0.38624311  0.76588602  1
  H+  H33  1  0.06278521  0.19065815  0.25209176  1
  H+  H34  1  0.51682352  0.69284298  0.98906771  1
  H+  H35  1  0.19117241  0.48572772  0.23814509  1
  H+  H36  1  0.22765340  0.09024355  0.85744096  1
  H+  H37  1  0.86347259  0.08033645  0.82303581  1
  H+  H38  1  0.46245079  0.96003821  0.24462869  1
  H+  H39  1  0.95075913  0.82541217  1.02351545  1
  H+  H40  1  0.14837013  0.52121706  0.52220947  1
  H+  H41  1  0.49375879  0.81385842  0.49593754  1
  H+  H42  1  0.15651606  0.28903364  -0.00576551  1
  H+  H43  1  0.17850445  0.47695483  1.02090858  1
  H+  H44  1  0.47107317  0.23323961  0.13267215  1
  H+  H45  1  0.83565697  0.35990032  0.00403500  1
  H+  H46  1  0.82647823  0.80688213  0.77194196  1
  H+  H47  1  1.02846294  0.51758791  0.75467410  1
  H+  H48  1  0.47485724  -0.03089115  0.75526914  1
  H+  H49  1  0.17531116  0.68464393  0.51835768  1
  H+  H50  1  0.72571828  0.18729314  0.76190479  1
  H+  H51  1  0.82543652  0.30692441  0.24881808  1
  H+  H52  1  0.03292254  0.84527425  0.73022281  1
  H+  H53  1  0.78588642  0.48587911  0.73536466  1
  H+  H54  1  0.79903468  0.18040287  0.02343248  1
  H+  H55  1  0.97827597  0.79487426  0.74736052  1
  H+  H56  1  0.16050864  1.01316896  0.48261591  1
  H+  H57  1  0.51796569  0.48952637  0.49384977  1
  H+  H58  1  0.82574293  0.63066263  0.25373597  1
  H+  H59  1  0.81025700  0.59182154  -0.05870413  1
  H+  H60  1  0.83608764  0.17499795  0.73929820  1
  H+  H61  1  0.37687550  0.18280732  -0.00492206  1
  H+  H62  1  0.82166498  0.31610052  0.51936187  1
  H+  H63  1  0.62711216  0.14703289  -0.02137585  1
  H+  H64  1  0.47001028  0.17677530  0.75500252  1
  H+  H65  1  0.18489795  1.00933450  -0.00332455  1
  H+  H66  1  0.81371924  0.99815014  0.70549086  1
  H+  H67  1  0.82892506  0.19238783  0.24394934  1
  H+  H68  1  0.55385897  0.42788890  0.35164670  1
  H+  H69  1  0.85885599  0.35966790  0.76832052  1
  H+  H70  1  0.16448426  0.13624697  0.47686287  1
  H+  H71  1  0.66496907  0.82992613  0.02135554  1
  H+  H72  1  0.49213540  0.51801765  -0.00503276  1
  H+  H73  1  0.59704543  0.79975186  0.46316333  1
  H+  H74  1  0.16504520  0.85340234  0.23360962  1
  H+  H75  1  1.02243066  0.51119637  1.00767655  1
  H+  H76  1  0.49219373  0.20116254  0.52312340  1
  H+  H77  1  0.48614033  0.85122870  0.75573347  1
  H+  H78  1  0.21764313  0.77643842  0.90448891  1
  H+  H79  1  0.83159525  0.62613430  0.79901305  1
  H+  H80  1  0.10453679  0.54649516  0.14597229  1
  H+  H81  1  0.68930720  0.51450495  0.51133502  1
  H+  H82  1  0.30825686  0.80725412  0.77100017  1
  H+  H83  1  0.37264077  0.51908104  0.01484462  1
  H+  H84  1  0.18080391  0.30413052  0.23494897  1
  H+  H85  1  0.48062639  0.85258358  1.00497890  1
  H+  H86  1  0.19286269  0.38620459  0.78850112  1
  H+  H87  1  0.38722501  0.53201472  0.74037761  1
  H+  H88  1  0.63179982  0.82792832  0.75229841  1
  H+  H89  1  0.20667537  0.82697542  0.75586282  1
  H+  H90  1  1.02054504  0.83298084  0.50635078  1
  H+  H91  1  0.18877839  0.39598722  0.45941421  1
  H+  H92  1  0.84006917  0.48065112  -0.00244663  1
  H+  H93  1  1.12337671  0.21802611  0.90328646  1
  H+  H94  1  0.16951411  0.13310950  0.78500122  1
  H+  H95  1  0.36204920  0.19288029  0.75005728  1
  H+  H96  1  0.96493230  0.49071331  0.50836370  1
  H+  H97  1  0.48688767  0.13407247  0.25571339  1
  H+  H98  1  0.29552475  0.81615920  -0.00624259  1
  H+  H99  1  0.87171383  0.07760847  0.55041506  1
  H+  H100  1  0.51730703  0.04221122  0.50636819  1
  H+  H101  1  0.19095485  0.49730908  0.75709327  1
  H+  H102  1  0.83066060  0.70694062  1.02279436  1
  H+  H103  1  0.14336241  0.63019851  1.00587954  1
  H+  H104  1  0.52617528  0.69960739  0.76142634  1
  H+  H105  1  0.85288663  0.81342407  0.26939423  1
  H+  H106  1  0.83567844  0.80099747  0.48293120  1
  H+  H107  1  0.51643013  0.37590732  0.97329742  1
  H+  H108  1  0.69239917  0.52195458  -0.00542881  1
  H+  H109  1  0.04788641  0.85757932  0.24665626  1
  H+  H110  1  0.44756829  0.56212497  0.60054961  1
  H+  H111  1  0.78282708  0.23332276  0.60811539  1
  H+  H112  1  0.11139640  0.88416554  0.10500226  1
  H+  H113  1  0.30428817  0.50446771  0.49130824  1
  H+  H114  1  0.79883763  0.84103152  0.04047247  1
  H+  H115  1  0.90255903  0.44821898  0.36121669  1
  H+  H116  1  0.13281275  0.24234400  0.71650481  1
  H+  H117  1  0.49617013  0.19035784  0.98388383  1
  H+  H118  1  0.28561470  0.47850164  0.29605541  1
  H+  H119  1  0.22012421  0.77539316  0.32097016  1
  H+  H120  1  0.51970844  0.09875795  0.35232328  1
  H+  H121  1  0.76345240  0.22254173  0.11244576  1
  H+  H122  1  0.63796309  0.47215753  0.26790859  1
  H+  H123  1  0.87486747  0.73191892  0.86912999  1
  H+  H124  1  0.90278606  0.11631200  0.36137557  1
  H+  H125  1  0.56858276  0.78035743  0.90308345  1
  H+  H126  1  0.84438556  0.16976563  0.50906403  1
  H+  H127  1  0.26599994  0.75095903  0.44224549  1
  H+  H128  1  0.76563650  0.55077318  0.60352945  1
  H+  H129  1  0.73249026  0.86725728  0.12688488  1
  H+  H130  1  0.79216497  0.87266601  0.68556898  1
  H+  H131  1  0.13963999  0.26260005  0.55692512  1
  H+  H132  1  0.88253293  0.43852586  0.85641683  1
  H+  H133  1  0.45308811  0.89790310  0.62113117  1
  H+  H134  1  0.89866504  0.77745721  0.35535961  1
  H+  H135  1  0.10600771  0.55208455  0.61804486  1
  H+  H136  1  0.45701166  0.24172104  0.61378069  1
  H+  H137  1  0.55739147  0.46246624  0.88390326  1
  H+  H138  1  0.14227756  0.83845373  0.50032101  1
  H+  H139  1  0.48466264  0.58009010  0.13368854  1
  H+  H140  1  0.55110504  0.10499664  0.88343584  1
  H+  H141  1  0.43956584  0.89141388  0.14882163  1
  H+  H142  1  0.16737283  0.91561748  0.63463016  1
  H+  H143  1  0.75018570  0.89112630  0.55768027  1
  O2-  O144  1  0.13989102  0.21928709  0.22681245  1
  O2-  O145  1  0.09752260  0.21291406  0.77545518  1
  O2-  O146  1  0.11400413  0.54902298  0.21381497  1
  O2-  O147  1  0.10808035  0.55714572  0.72924904  1
  O2-  O148  1  0.12656047  0.89968536  0.22026628  1
  O2-  O149  1  0.21247482  0.93028075  0.69070531  1
  O2-  O150  1  0.46036065  0.22174756  0.19904058  1
  O2-  O151  1  0.44372308  0.23044402  0.73204381  1
  O2-  O152  1  0.50968187  0.58922145  0.20005525  1
  O2-  O153  1  0.46784011  0.57359737  0.71899648  1
  O2-  O154  1  0.43028987  0.88053952  0.21565742  1
  O2-  O155  1  0.44060341  0.88421374  0.73112202  1
  O2-  O156  1  0.78630953  0.22867697  0.22199501  1
  O2-  O157  1  0.79609313  0.22351434  0.72579348  1
  O2-  O158  1  0.78077385  0.54972038  0.23672627  1
  O2-  O159  1  0.75604653  0.53661921  0.71794110  1
  O2-  O160  1  0.72685991  0.84977733  0.23746439  1
  O2-  O161  1  0.76088086  0.92157107  0.66892266  1
  O2-  O162  1  0.22821974  0.10655490  0.29196401  1
  O2-  O163  1  0.22261860  0.10304639  0.79042881  1
  O2-  O164  1  0.23884530  0.44786214  0.24131319  1
  O2-  O165  1  0.24225036  0.46614195  0.77147093  1
  O2-  O166  1  0.22399800  0.77448790  0.25489714  1
  O2-  O167  1  0.22541211  0.77314376  0.78951184  1
  O2-  O168  1  0.49807062  0.07493698  0.28871663  1
  O2-  O169  1  0.52744639  0.09231250  0.77896432  1
  O2-  O170  1  0.55579685  0.42385923  0.28452069  1
  O2-  O171  1  0.56284143  0.46730510  0.78418842  1
  O2-  O172  1  0.52462540  0.69044138  0.22945465  1
  O2-  O173  1  0.56232470  0.78047572  0.78830613  1
  O2-  O174  1  0.91308898  0.12213796  0.29487590  1
  O2-  O175  1  0.88500936  0.10143380  0.75904660  1
  O2-  O176  1  0.90081170  0.44410520  0.29351570  1
  O2-  O177  1  0.88900022  0.44003043  0.78865628  1
  O2-  O178  1  0.90738368  0.78891062  0.28762529  1
  O2-  O179  1  0.88000843  0.66432026  0.85468704  1
  O2-  O180  1  0.20156740  0.09277513  0.45714529  1
  O2-  O181  1  0.23157432  0.08811126  0.97023440  1
  O2-  O182  1  0.22804064  0.47981030  0.46164830  1
  O2-  O183  1  0.22245093  0.43629140  1.03238170  1
  O2-  O184  1  0.22299916  0.76381087  0.48937160  1
  O2-  O185  1  0.21390122  0.77311643  0.97303537  1
  O2-  O186  1  0.55216532  0.11948549  0.47796247  1
  O2-  O187  1  0.54874683  0.10385689  0.95334028  1
  O2-  O188  1  0.56214965  0.45185095  0.47591816  1
  O2-  O189  1  0.55340406  0.45851278  0.95627041  1
  O2-  O190  1  0.51315063  0.76213993  0.46193892  1
  O2-  O191  1  0.56125567  0.77704533  0.97147490  1
  O2-  O192  1  0.88397709  0.12240663  0.49481462  1
  O2-  O193  1  0.88493142  0.13660967  0.95721113  1
  O2-  O194  1  0.88665823  0.44801751  0.48121450  1
  O2-  O195  1  0.88064507  0.43896817  0.97814084  1
  O2-  O196  1  0.88167056  0.76394342  0.47016069  1
  O2-  O197  1  0.86694990  0.79186545  1.01271426  1
  O2-  O198  1  0.11863894  0.20947926  -0.02996478  1
  O2-  O199  1  0.11578116  0.23696907  0.49469960  1
  O2-  O200  1  0.10397434  0.54948378  0.02870136  1
  O2-  O201  1  0.10337348  0.55520360  0.54921428  1
  O2-  O202  1  0.09874066  0.87681549  0.03755213  1
  O2-  O203  1  0.10391918  0.88053788  0.52073992  1
  O2-  O204  1  0.45968358  0.23474231  0.00605791  1
  O2-  O205  1  0.46078968  0.24879995  0.54616998  1
  O2-  O206  1  0.45690580  0.56365664  0.02374954  1
  O2-  O207  1  0.43666463  0.55441092  0.53292645  1
  O2-  O208  1  0.43887352  0.89133779  0.02513782  1
  O2-  O209  1  0.45107507  0.90316224  0.55212995  1
  O2-  O210  1  0.75945146  0.22136163  0.04326294  1
  O2-  O211  1  0.78328507  0.23350070  0.54002735  1
  O2-  O212  1  0.77730197  0.56447676  0.00448491  1
  O2-  O213  1  0.77184411  0.55453650  0.53500152  1
  O2-  O214  1  0.74414954  0.87346914  0.05820707  1
  O2-  O215  1  0.75310455  0.87235116  0.49170840  1
