# generated using pymatgen
data_H2O
_symmetry_space_group_name_H-M   'P 1'
_cell_length_a   13.54577852
_cell_length_b   13.53793564
_cell_length_c   14.73044002
_cell_angle_alpha   90.02774960
_cell_angle_beta   89.97093188
_cell_angle_gamma   120.01688550
_symmetry_Int_Tables_number   1
_chemical_formula_structural   H2O
_chemical_formula_sum   'H144 O72'
_cell_volume   2338.99221235
_cell_formula_units_Z   72
loop_
 _symmetry_equiv_pos_site_id
 _symmetry_equiv_pos_as_xyz
  1  'x, y, z'
loop_
 _atom_type_symbol
 _atom_type_oxidation_number
  H+  1.0
  O2-  -2.0
loop_
 _atom_site_type_symbol
 _atom_site_label
 _atom_site_symmetry_multiplicity
 _atom_site_fract_x
 _atom_site_fract_y
 _atom_site_fract_z
 _atom_site_occupancy
  H+  H0  1  0.00967405  0.49398395  0.52797829  1
  H+  H1  1  0.66258452  0.79976019  0.50456953  1
  H+  H2  1  0.36876395  0.84997215  0.73466524  1
  H+  H3  1  0.10096218  0.56003253  0.64589498  1
  H+  H4  1  0.81380637  0.50284558  0.52009016  1
  H+  H5  1  0.50857945  0.61906369  0.52384243  1
  H+  H6  1  0.44276586  0.18728728  0.72639371  1
  H+  H7  1  0.84728389  0.98254539  0.19278430  1
  H+  H8  1  0.54764648  0.19623241  0.29757762  1
  H+  H9  1  0.17869973  0.70212328  0.74703059  1
  H+  H10  1  0.15852174  0.85196473  0.73601114  1
  H+  H11  1  0.49399528  0.31084454  0.50001011  1
  H+  H12  1  0.84214017  0.45769884  0.98891552  1
  H+  H13  1  0.62461453  0.88079409  0.30450736  1
  H+  H14  1  0.02792096  0.50411199  0.00927405  1
  H+  H15  1  0.89181256  0.77963754  0.41631640  1
  H+  H16  1  0.06471151  0.23017828  0.78989966  1
  H+  H17  1  0.18063918  0.15529932  0.27212658  1
  H+  H18  1  -0.03046191  0.14393771  0.49781743  1
  H+  H19  1  0.85675042  1.02091842  0.49740593  1
  H+  H20  1  0.28514327  0.45909414  -0.02503534  1
  H+  H21  1  0.63516450  0.47361335  0.75266225  1
  H+  H22  1  0.68489202  0.48342579  1.00422073  1
  H+  H23  1  0.04440791  0.18538944  0.03131695  1
  H+  H24  1  0.52774230  1.00482025  0.75134562  1
  H+  H25  1  0.44114182  0.59169833  -0.00549776  1
  H+  H26  1  0.37751770  0.52245307  0.74683131  1
  H+  H27  1  0.31130302  0.16056243  0.49538399  1
  H+  H28  1  0.49513946  0.31349687  0.26303436  1
  H+  H29  1  0.82054534  0.19204966  0.68662756  1
  H+  H30  1  0.54190408  0.12744206  0.77213375  1
  H+  H31  1  0.58562842  0.12421328  0.44482556  1
  H+  H32  1  0.16994439  0.36879322  0.50231027  1
  H+  H33  1  0.38028320  0.19282240  0.27144871  1
  H+  H34  1  0.53053950  0.49606965  0.26797765  1
  H+  H35  1  0.15881284  0.97525639  0.51429065  1
  H+  H36  1  0.86168008  0.69219082  0.50108971  1
  H+  H37  1  0.82356615  0.29113801  0.02066096  1
  H+  H38  1  0.17448195  0.45894639  0.26824223  1
  H+  H39  1  0.66525187  0.26320149  0.34884510  1
  H+  H40  1  0.37212591  0.16719667  0.94329960  1
  H+  H41  1  0.51333159  0.34777882  0.95797713  1
  H+  H42  1  0.03231626  0.83244538  0.00110726  1
  H+  H43  1  0.77308426  0.51334367  0.15324759  1
  H+  H44  1  0.82847338  0.27125236  0.24423550  1
  H+  H45  1  0.72889539  0.83245704  0.10765917  1
  H+  H46  1  0.16186850  0.18135623  -0.00872433  1
  H+  H47  1  0.70451850  0.18170763  0.71598110  1
  H+  H48  1  0.48005847  0.79266677  0.99099105  1
  H+  H49  1  0.49358058  0.83520735  0.49696378  1
  H+  H50  1  0.15112953  0.53115561  0.73433137  1
  H+  H51  1  0.48403210  0.95759130  0.00331898  1
  H+  H52  1  -0.21875105  0.08312547  0.26852279  1
  H+  H53  1  0.87713733  0.16887571  1.05211440  1
  H+  H54  1  0.70146974  0.17802320  0.25392620  1
  H+  H55  1  0.13878120  0.18007782  0.74824967  1
  H+  H56  1  0.00177898  0.13399852  0.26670443  1
  H+  H57  1  0.64523816  0.13645988  0.99050902  1
  H+  H58  1  0.87040152  0.86811684  0.30052274  1
  H+  H59  1  0.95444649  0.14518181  0.68861058  1
  H+  H60  1  0.14745972  0.84984059  0.26938155  1
  H+  H61  1  0.47720733  0.63630467  0.26890339  1
  H+  H62  1  0.87260287  0.10492551  0.60146879  1
  H+  H63  1  0.82110031  0.86048629  0.74355741  1
  H+  H64  1  0.16299423  0.46078444  -0.01710276  1
  H+  H65  1  0.16987228  0.34215786  0.28563802  1
  H+  H66  1  0.52270258  0.48773907  0.75799562  1
  H+  H67  1  0.34430574  0.84305622  0.23228207  1
  H+  H68  1  -0.03307170  0.83636481  0.29508518  1
  H+  H69  1  0.87846722  1.05124880  0.05073423  1
  H+  H70  1  0.16207837  0.18653515  0.51381544  1
  H+  H71  1  0.17371018  1.02805403  -0.02807109  1
  H+  H72  1  0.28102304  0.15788040  0.74796758  1
  H+  H73  1  0.45208897  0.47923755  0.98981393  1
  H+  H74  1  0.03845105  0.85505093  0.51555745  1
  H+  H75  1  0.17166182  0.02901604  0.74515221  1
  H+  H76  1  0.14091778  0.67412634  0.48360072  1
  H+  H77  1  0.16312851  0.70441038  0.25672351  1
  H+  H78  1  0.82176221  0.50355325  0.74428045  1
  H+  H79  1  0.84437594  0.44811194  0.25362690  1
  H+  H80  1  0.63401962  0.81687750  0.76648142  1
  H+  H81  1  0.70711066  0.49583003  0.24537337  1
  H+  H82  1  0.85040616  0.36188150  0.74861292  1
  H+  H83  1  0.18726088  0.04167837  0.28053971  1
  H+  H84  1  0.15873294  0.80173766  0.48651896  1
  H+  H85  1  -0.03683383  0.45617310  0.27785917  1
  H+  H86  1  0.19675740  0.39092717  0.74250114  1
  H+  H87  1  0.64756148  0.48244610  0.48998595  1
  H+  H88  1  0.37040726  0.51297040  0.26395239  1
  H+  H89  1  0.80773795  0.59552972  0.00929027  1
  H+  H90  1  0.19617904  0.76644368  0.35506325  1
  H+  H91  1  0.96810648  0.48178061  0.75635115  1
  H+  H92  1  0.58395123  0.76923631  0.99796152  1
  H+  H93  1  0.48006192  0.83775588  0.73748459  1
  H+  H94  1  0.84779014  0.77872396  0.99154613  1
  H+  H95  1  0.46838507  0.31401680  0.73835201  1
  H+  H96  1  0.83579660  0.83764701  0.51839062  1
  H+  H97  1  0.23127107  0.61097213  0.21102609  1
  H+  H98  1  0.18463237  0.80450221  -0.02706127  1
  H+  H99  1  0.49794637  0.63779497  0.74769432  1
  H+  H100  1  0.81066320  0.96966301  0.71146776  1
  H+  H101  1  0.51582405  0.14153478  0.51871246  1
  H+  H102  1  0.48928630  0.16627659  -0.05717930  1
  H+  H103  1  0.46449154  0.84822536  0.23561350  1
  H+  H104  1  0.81891981  0.62013468  0.74541946  1
  H+  H105  1  0.69502718  0.92257032  0.08108128  1
  H+  H106  1  0.99748918  0.84158599  0.76173742  1
  H+  H107  1  0.42824687  0.87662267  0.09313904  1
  H+  H108  1  0.82395682  0.13896187  0.85285356  1
  H+  H109  1  0.52815035  0.48147105  0.49814036  1
  H+  H110  1  0.13549411  0.50877443  0.51723045  1
  H+  H111  1  0.22403478  0.77503580  0.83794833  1
  H+  H112  1  0.20380484  0.10511778  0.88214194  1
  H+  H113  1  0.22554215  0.12008618  0.41153496  1
  H+  H114  1  0.77471309  0.21039029  0.11145856  1
  H+  H115  1  0.95475492  0.89989477  0.82985226  1
  H+  H116  1  0.58310767  0.08718023  0.89489541  1
  H+  H117  1  0.11564704  0.89041200  0.64565399  1
  H+  H118  1  0.13779451  0.89060089  0.06975949  1
  H+  H119  1  0.15888306  0.31300342  -0.01123734  1
  H+  H120  1  0.83105173  0.11509831  0.89684583  1
  H+  H121  1  0.77803787  0.55415095  0.60094958  1
  H+  H122  1  0.46462589  0.53953041  0.61018148  1
  H+  H123  1  0.88936474  0.42465515  0.90135754  1
  H+  H124  1  0.47568678  0.19877348  0.12412990  1
  H+  H125  1  0.08602976  0.89026423  0.19694133  1
  H+  H126  1  0.49647495  0.95251278  0.47905297  1
  H+  H127  1  0.14879308  0.62107402  0.00275480  1
  H+  H128  1  0.11832244  0.22791320  0.59804419  1
  H+  H129  1  0.21863604  0.45073157  0.83763754  1
  H+  H130  1  0.05708609  0.20319975  0.18009078  1
  H+  H131  1  0.51518453  0.84991972  0.36623183  1
  H+  H132  1  0.12772083  0.55421653  0.14422105  1
  H+  H133  1  0.54425383  0.76817579  0.85073285  1
  H+  H134  1  0.49157361  0.17499894  0.08412382  1
  H+  H135  1  0.78414268  0.87578792  0.60147256  1
  H+  H136  1  0.89872525  0.75670028  0.90346231  1
  H+  H137  1  0.57039663  0.45449085  0.35512333  1
  H+  H138  1  0.57335788  0.75597206  0.42349146  1
  H+  H139  1  0.78085386  0.27484664  0.57671216  1
  H+  H140  1  0.43788415  0.24201875  0.59116519  1
  H+  H141  1  0.21213714  0.44987212  0.41799017  1
  H+  H142  1  0.30294786  0.80666317  0.98084663  1
  H+  H143  1  0.56214385  0.44843817  0.89250120  1
  O2-  O144  1  0.07496157  0.19701874  0.24329389  1
  O2-  O145  1  0.10480401  0.23051643  0.73473381  1
  O2-  O146  1  0.14815507  0.56682345  0.21052859  1
  O2-  O147  1  0.10397644  0.56494432  0.71567067  1
  O2-  O148  1  0.10830122  0.89878195  0.26026352  1
  O2-  O149  1  0.11574719  0.89163185  0.71521514  1
  O2-  O150  1  0.46113502  0.22926273  0.25365277  1
  O2-  O151  1  0.41287343  0.23683934  0.71004007  1
  O2-  O152  1  0.44919912  0.56113875  0.24147653  1
  O2-  O153  1  0.45915352  0.55506688  0.73011899  1
  O2-  O154  1  0.41639935  0.86924868  0.19843823  1
  O2-  O155  1  0.44998324  0.88708443  0.71570603  1
  O2-  O156  1  0.77393236  0.18978465  0.22378302  1
  O2-  O157  1  0.77951967  0.23669880  0.68857515  1
  O2-  O158  1  0.78335290  0.51756076  0.21961593  1
  O2-  O159  1  0.77844726  0.54241052  0.72222594  1
  O2-  O160  1  0.86614555  0.99806039  0.25779491  1
  O2-  O161  1  0.76857749  0.88401706  0.71870711  1
  O2-  O162  1  0.22745429  0.12426800  0.29682828  1
  O2-  O163  1  0.20067204  0.10806469  0.77074097  1
  O2-  O164  1  0.21618211  0.42498585  0.29727724  1
  O2-  O165  1  0.23308403  0.46680888  0.77136762  1
  O2-  O166  1  0.20466228  0.78094700  0.28432350  1
  O2-  O167  1  0.22259004  0.78288312  0.77072753  1
  O2-  O168  1  0.61250837  0.18752103  0.32475872  1
  O2-  O169  1  0.58316323  0.08627122  0.77772825  1
  O2-  O170  1  0.57011130  0.45401954  0.28674431  1
  O2-  O171  1  0.55587533  0.43818271  0.77680926  1
  O2-  O172  1  0.54480155  0.82055198  0.31393794  1
  O2-  O173  1  0.55179909  0.77159848  0.78346793  1
  O2-  O174  1  0.77013672  0.00779398  0.29394468  1
  O2-  O175  1  0.87300465  0.10457546  0.67297260  1
  O2-  O176  1  0.88187829  0.40288741  0.27380317  1
  O2-  O177  1  0.88823308  0.43737399  0.78098520  1
  O2-  O178  1  0.88516058  0.80475073  0.30998067  1
  O2-  O179  1  0.92716789  0.82604720  0.80028638  1
  O2-  O180  1  0.22722664  0.11706724  0.47950589  1
  O2-  O181  1  0.21013311  0.10831079  0.95050727  1
  O2-  O182  1  0.20147847  0.44953792  0.48435945  1
  O2-  O183  1  0.19828041  0.41856794  0.95355786  1
  O2-  O184  1  0.17611004  0.74946579  0.45208896  1
  O2-  O185  1  0.22266984  0.76085001  0.95660813  1
  O2-  O186  1  0.55674708  0.09929511  0.50697325  1
  O2-  O187  1  0.56915196  0.09238948  0.96099932  1
  O2-  O188  1  0.56758656  0.44208681  0.46683916  1
  O2-  O189  1  0.55159236  0.43319212  0.95943049  1
  O2-  O190  1  0.57899665  0.75113397  0.48966371  1
  O2-  O191  1  0.51093356  0.74241065  0.96750301  1
  O2-  O192  1  0.88512175  0.10426257  0.50110582  1
  O2-  O193  1  0.92592110  0.13238640  1.06556276  1
  O2-  O194  1  0.86797771  0.42093189  0.51951490  1
  O2-  O195  1  0.89125052  0.42515124  0.96924564  1
  O2-  O196  1  0.90249292  0.77524541  0.48403497  1
  O2-  O197  1  0.89425067  0.74638118  0.97113552  1
  O2-  O198  1  0.13197458  0.23010904  0.02108168  1
  O2-  O199  1  0.11620140  0.22368653  0.53187462  1
  O2-  O200  1  0.10997269  0.54236909  0.02903586  1
  O2-  O201  1  0.09228785  0.54792821  0.54050478  1
  O2-  O202  1  0.11708713  0.88513845  0.00593278  1
  O2-  O203  1  0.11917389  0.89544638  0.53868087  1
  O2-  O204  1  0.45081211  0.20745839  -0.07993334  1
  O2-  O205  1  0.44568410  0.23092249  0.52579467  1
  O2-  O206  1  0.40002021  0.50862289  0.00643540  1
  O2-  O207  1  0.46736301  0.53708106  0.54327878  1
  O2-  O208  1  0.43469777  0.87655477  0.02380069  1
  O2-  O209  1  0.46832607  0.87428548  0.45460729  1
  O2-  O210  1  0.78525796  0.21071560  0.04356737  1
  O2-  O211  1  0.79636773  0.30482183  0.51227373  1
  O2-  O212  1  0.76508660  0.51468838  0.02723248  1
  O2-  O213  1  0.78302343  0.55611213  0.53375698  1
  O2-  O214  1  0.74749292  0.89525924  0.06559017  1
  O2-  O215  1  0.79336691  0.87926249  0.53443269  1
