# generated using pymatgen
data_H2O
_symmetry_space_group_name_H-M   'P 1'
_cell_length_a   13.50477200
_cell_length_b   13.50532085
_cell_length_c   14.69416009
_cell_angle_alpha   89.92800331
_cell_angle_beta   90.01671870
_cell_angle_gamma   119.96847285
_symmetry_Int_Tables_number   1
_chemical_formula_structural   H2O
_chemical_formula_sum   'H144 O72'
_cell_volume   2321.69447909
_cell_formula_units_Z   72
loop_
 _symmetry_equiv_pos_site_id
 _symmetry_equiv_pos_as_xyz
  1  'x, y, z'
loop_
 _atom_type_symbol
 _atom_type_oxidation_number
  H+  1.0
  O2-  -2.0
loop_
 _atom_site_type_symbol
 _atom_site_label
 _atom_site_symmetry_multiplicity
 _atom_site_fract_x
 _atom_site_fract_y
 _atom_site_fract_z
 _atom_site_occupancy
  H+  H0  1  0.83954338  0.48136942  0.77624736  1
  H+  H1  1  0.97012466  0.49049973  1.01200201  1
  H+  H2  1  0.88204352  0.78092912  0.85651953  1
  H+  H3  1  0.44117417  0.16163293  0.24670840  1
  H+  H4  1  0.30536715  0.48707215  -0.00457680  1
  H+  H5  1  0.09069534  0.16563549  0.25017108  1
  H+  H6  1  0.65288445  0.50306772  0.28243079  1
  H+  H7  1  0.04459022  0.92770862  0.78269608  1
  H+  H8  1  0.49556549  0.28777497  0.73707271  1
  H+  H9  1  0.14792039  0.64032908  0.24915105  1
  H+  H10  1  0.85570864  0.69980918  0.99819265  1
  H+  H11  1  0.53310400  0.04725086  0.48416698  1
  H+  H12  1  0.17252662  0.82869979  0.44832510  1
  H+  H13  1  0.90562362  0.11808728  0.22869405  1
  H+  H14  1  0.70523276  0.52278831  1.02546656  1
  H+  H15  1  0.82833286  0.32442821  0.46686249  1
  H+  H16  1  -0.04930989  0.13966112  0.76162753  1
  H+  H17  1  0.38901268  0.61454120  0.71991797  1
  H+  H18  1  0.84724742  0.03085161  0.47610730  1
  H+  H19  1  0.82072513  0.63749679  0.51137712  1
  H+  H20  1  0.82285563  -0.02327310  0.74385380  1
  H+  H21  1  0.02709503  0.17707116  0.48545620  1
  H+  H22  1  0.52896649  0.70766746  0.48811023  1
  H+  H23  1  0.24794420  0.17361758  0.21754812  1
  H+  H24  1  0.19774095  0.65720148  0.75713198  1
  H+  H25  1  0.19043470  0.96743366  0.21723181  1
  H+  H26  1  0.64906877  0.16986538  0.47391670  1
  H+  H27  1  0.46480445  0.70286448  0.29376835  1
  H+  H28  1  0.37061462  0.49820080  0.23566492  1
  H+  H29  1  0.84828517  0.48985974  0.48266559  1
  H+  H30  1  0.11277675  0.55046854  0.11325978  1
  H+  H31  1  0.10939535  0.54485338  0.37164399  1
  H+  H32  1  0.30441670  0.15588432  0.48027426  1
  H+  H33  1  0.15181042  0.51400403  0.02268456  1
  H+  H34  1  0.52379476  0.03163456  1.00948652  1
  H+  H35  1  0.04271729  0.84441241  0.00070240  1
  H+  H36  1  0.16852171  0.94718400  0.78799289  1
  H+  H37  1  0.66408290  0.85044915  0.76096148  1
  H+  H38  1  0.93805058  0.44517552  0.78501686  1
  H+  H39  1  0.36873769  0.51253254  0.49614562  1
  H+  H40  1  0.55839786  0.73300838  0.79063031  1
  H+  H41  1  0.70507094  0.85408639  0.50267458  1
  H+  H42  1  0.14541845  0.29526872  0.49793989  1
  H+  H43  1  0.31846952  0.81817669  0.00963261  1
  H+  H44  1  0.79538467  0.29794679  0.78631309  1
  H+  H45  1  0.61744447  0.13792976  0.78003310  1
  H+  H46  1  0.02466706  0.18879403  0.02818807  1
  H+  H47  1  0.18789081  0.15659835  0.47418253  1
  H+  H48  1  0.42868558  0.88716817  0.43009459  1
  H+  H49  1  0.08230903  0.46826736  0.69299244  1
  H+  H50  1  0.18438718  0.46794682  0.25926125  1
  H+  H51  1  0.49333527  0.63474992  0.01018512  1
  H+  H52  1  0.14274220  0.31234312  1.02734164  1
  H+  H53  1  0.50151956  1.01871069  0.76554879  1
  H+  H54  1  0.32281410  0.15050996  0.00733718  1
  H+  H55  1  0.52358786  0.47953658  0.99005274  1
  H+  H56  1  0.09312259  0.39750740  0.77300344  1
  H+  H57  1  0.03724033  0.86190859  0.43842347  1
  H+  H58  1  0.84877809  0.14731551  1.00732311  1
  H+  H59  1  0.23519544  0.43147824  0.39412303  1
  H+  H60  1  0.36118830  0.84017497  0.24544779  1
  H+  H61  1  0.15853480  0.98174144  0.43335082  1
  H+  H62  1  0.82394900  0.30538917  1.02569384  1
  H+  H63  1  0.81890651  0.85595792  0.74159080  1
  H+  H64  1  0.85043970  0.15205841  0.46210348  1
  H+  H65  1  0.82204621  0.21836628  0.26611029  1
  H+  H66  1  0.18815232  0.48080374  0.46661280  1
  H+  H67  1  0.70697925  0.18638817  0.02503352  1
  H+  H68  1  0.64982385  0.82117951  1.00635349  1
  H+  H69  1  0.49941604  0.60214956  0.23419136  1
  H+  H70  1  0.20269698  1.03494535  -0.00662272  1
  H+  H71  1  0.14710770  0.63403488  0.45079193  1
  H+  H72  1  0.50305974  0.18781927  0.02538781  1
  H+  H73  1  0.11758804  0.26234961  0.72499635  1
  H+  H74  1  0.69768020  0.51401214  0.74355421  1
  H+  H75  1  0.19860840  0.69953521  0.00483220  1
  H+  H76  1  0.22513375  0.29489399  0.82200099  1
  H+  H77  1  0.19633590  0.35496854  0.25460087  1
  H+  H78  1  0.77946212  0.92344817  0.24469599  1
  H+  H79  1  0.21487875  0.64334482  0.80189877  1
  H+  H80  1  0.83700079  0.14086960  0.79062253  1
  H+  H81  1  0.27610449  0.42474879  0.77239838  1
  H+  H82  1  0.50156743  0.18991107  0.50848944  1
  H+  H83  1  0.21733694  0.42554986  0.91392249  1
  H+  H84  1  0.19517235  0.13653766  0.79851657  1
  H+  H85  1  0.52016035  0.47842276  0.49464844  1
  H+  H86  1  0.46871152  0.56525384  0.74435457  1
  H+  H87  1  0.47888734  0.41745555  0.78471318  1
  H+  H88  1  0.85289434  0.71066534  0.76404828  1
  H+  H89  1  0.56002746  0.78193431  0.39189013  1
  H+  H90  1  0.50075536  0.31304390  0.51383173  1
  H+  H91  1  0.48632475  0.85164448  0.26057675  1
  H+  H92  1  0.82257420  0.96537782  0.02683202  1
  H+  H93  1  0.18142431  0.81311867  0.23882090  1
  H+  H94  1  0.16253067  0.84410657  1.00322623  1
  H+  H95  1  0.65847240  0.81006348  0.24632241  1
  H+  H96  1  0.30385073  0.87033968  0.77251668  1
  H+  H97  1  0.84669548  0.81410065  0.47268740  1
  H+  H98  1  0.50046976  0.85636387  0.03171641  1
  H+  H99  1  0.82354435  0.52472716  1.03487366  1
  H+  H100  1  0.23831067  0.83019255  0.86521805  1
  H+  H101  1  0.86037956  0.81956629  0.99867175  1
  H+  H102  1  0.27880642  0.81656598  0.49025927  1
  H+  H103  1  0.48395784  0.16246354  0.73227987  1
  H+  H104  1  0.80481205  0.26522111  0.17503315  1
  H+  H105  1  0.49371532  0.85372161  0.73810262  1
  H+  H106  1  0.48450429  0.02741066  0.26446063  1
  H+  H107  1  0.78876665  0.89736363  0.58909602  1
  H+  H108  1  0.79634087  0.75882243  0.24287332  1
  H+  H109  1  0.88895819  0.10324577  0.92038049  1
  H+  H110  1  0.77341264  0.22142744  0.69998012  1
  H+  H111  1  0.88277360  0.45152772  0.92778099  1
  H+  H112  1  0.44461074  0.88289719  0.64889240  1
  H+  H113  1  0.80914113  0.24862067  0.55385159  1
  H+  H114  1  0.44953030  0.22523249  0.10871485  1
  H+  H115  1  0.54806731  0.10281368  0.91735081  1
  H+  H116  1  0.13172108  0.60539844  0.61478931  1
  H+  H117  1  0.77131490  0.87168770  0.10870672  1
  H+  H118  1  0.12762019  0.22533416  0.14844011  1
  H+  H119  1  0.07679754  0.60691291  0.61871439  1
  H+  H120  1  0.96242279  0.49011776  0.44954288  1
  H+  H121  1  0.52921010  0.11818782  0.34564139  1
  H+  H122  1  0.57310234  0.80206769  0.91905282  1
  H+  H123  1  0.79124016  0.60349045  0.16527004  1
  H+  H124  1  0.94257829  0.42885343  0.24987379  1
  H+  H125  1  0.46399676  0.22380414  0.61917731  1
  H+  H126  1  0.43929292  0.55147978  0.58704352  1
  H+  H127  1  0.07075731  0.19767612  0.63025327  1
  H+  H128  1  0.21601073  0.77489132  0.33389525  1
  H+  H129  1  0.11850089  0.93746313  0.63538612  1
  H+  H130  1  0.45766406  0.89582871  0.11978632  1
  H+  H131  1  0.52862612  0.36303426  1.00192937  1
  H+  H132  1  0.86658151  0.08880718  0.33319439  1
  H+  H133  1  0.86070191  0.74881545  0.38657350  1
  H+  H134  1  0.24545285  0.17738280  0.89619483  1
  H+  H135  1  0.50510512  0.85481002  0.48771372  1
  H+  H136  1  0.78042961  0.55637768  0.65675276  1
  H+  H137  1  0.70399474  0.51810323  0.51682366  1
  H+  H138  1  0.56744235  0.43866925  0.40930160  1
  H+  H139  1  0.12872608  0.88475696  0.13434123  1
  H+  H140  1  0.11369174  0.92782262  0.58450011  1
  H+  H141  1  0.52068172  0.45274814  0.27174973  1
  H+  H142  1  0.44995641  0.54403472  0.09188796  1
  H+  H143  1  0.55773491  0.42001786  0.86397177  1
  O2-  O144  1  0.15448023  0.22604048  0.21673610  1
  O2-  O145  1  0.05697544  0.19174699  0.69719035  1
  O2-  O146  1  0.10701689  0.54994593  0.24171717  1
  O2-  O147  1  0.03916880  0.41606004  0.74227391  1
  O2-  O148  1  0.13804913  0.88674006  0.20238750  1
  O2-  O149  1  0.12480638  0.98631736  0.77381833  1
  O2-  O150  1  0.40577014  0.20740704  0.21809904  1
  O2-  O151  1  0.45916604  0.21452012  0.70196983  1
  O2-  O152  1  0.44863298  0.52594830  0.20923791  1
  O2-  O153  1  0.40068734  0.54958475  0.70995395  1
  O2-  O154  1  0.44483177  0.89091530  0.23403786  1
  O2-  O155  1  0.44574637  0.88572904  0.71534294  1
  O2-  O156  1  0.82838060  0.28756372  0.23884276  1
  O2-  O157  1  0.76019398  0.21523740  0.76528282  1
  O2-  O158  1  0.77872964  0.60420681  0.23280770  1
  O2-  O159  1  0.77881737  0.55474676  0.72522802  1
  O2-  O160  1  0.73936041  0.84348712  0.22190068  1
  O2-  O161  1  0.78133077  0.89831433  0.71540736  1
  O2-  O162  1  0.28386159  0.12444703  0.21980373  1
  O2-  O163  1  0.24716997  0.20872857  0.83165448  1
  O2-  O164  1  0.23304835  0.43614620  0.27806845  1
  O2-  O165  1  0.21042245  0.36849122  0.80788111  1
  O2-  O166  1  0.21565418  0.76483405  0.26664570  1
  O2-  O167  1  0.23787024  0.86369167  0.80555903  1
  O2-  O168  1  0.51041354  0.10859960  0.28020337  1
  O2-  O169  1  0.53321378  0.09705822  0.79161166  1
  O2-  O170  1  0.57769709  0.44151417  0.30486518  1
  O2-  O171  1  0.54828697  0.41382305  0.79452486  1
  O2-  O172  1  0.53773066  0.77333257  0.29883950  1
  O2-  O173  1  0.58362538  0.81408356  0.79093055  1
  O2-  O174  1  0.83956928  0.07488014  0.26799054  1
  O2-  O175  1  0.87919794  0.09958072  0.80125108  1
  O2-  O176  1  0.98554230  0.51498284  0.25188337  1
  O2-  O177  1  0.86400796  0.43271694  0.81027318  1
  O2-  O178  1  0.84382528  0.72368678  0.26184281  1
  O2-  O179  1  0.88077285  0.78830001  0.78859756  1
  O2-  O180  1  0.23350389  0.12592341  0.44526256  1
  O2-  O181  1  0.24319846  0.11912448  0.98593474  1
  O2-  O182  1  0.23052639  0.43780782  0.46179128  1
  O2-  O183  1  0.22252560  0.44865116  0.97923233  1
  O2-  O184  1  0.21066928  0.77742598  0.45221224  1
  O2-  O185  1  0.24117705  0.77897363  0.98100969  1
  O2-  O186  1  0.56382366  0.12874432  0.46628049  1
  O2-  O187  1  0.56319199  0.11130551  0.98367626  1
  O2-  O188  1  0.56248560  0.43753623  0.47943236  1
  O2-  O189  1  0.56780292  0.44138208  0.97206619  1
  O2-  O190  1  0.57052284  0.78776666  0.46625139  1
  O2-  O191  1  0.56762272  0.78434462  0.98467512  1
  O2-  O192  1  0.88778700  0.10719229  0.44446841  1
  O2-  O193  1  0.88790010  0.10397807  0.98838232  1
  O2-  O194  1  0.87759096  0.44741475  0.44675711  1
  O2-  O195  1  0.88721546  0.45106949  0.99542387  1
  O2-  O196  1  0.88013294  0.76688443  0.45183558  1
  O2-  O197  1  0.89684908  0.77824612  0.97095192  1
  O2-  O198  1  0.10152684  0.23568190  0.05622588  1
  O2-  O199  1  0.10305163  0.21326955  0.51627762  1
  O2-  O200  1  0.11289212  0.55542917  0.04610973  1
  O2-  O201  1  0.11210093  0.54998005  0.43863963  1
  O2-  O202  1  0.12321180  0.88662731  0.02258980  1
  O2-  O203  1  0.11959266  0.89685470  0.42499469  1
  O2-  O204  1  0.46550321  0.23315484  0.04155722  1
  O2-  O205  1  0.46148449  0.22954984  0.53745165  1
  O2-  O206  1  0.45066502  0.55120175  0.02413071  1
  O2-  O207  1  0.44910930  0.55350351  0.52065535  1
  O2-  O208  1  0.45908406  0.89655361  0.05124937  1
  O2-  O209  1  0.45992560  0.89759162  0.49164337  1
  O2-  O210  1  0.78722527  0.22465004  0.04765746  1
  O2-  O211  1  0.79272151  0.23903785  0.48905178  1
  O2-  O212  1  0.78375699  0.56831868  0.05122341  1
  O2-  O213  1  0.78438732  0.55956260  0.53977255  1
  O2-  O214  1  0.78243408  0.88153687  0.04122243  1
  O2-  O215  1  0.78806840  0.89688342  0.52149950  1
