# generated using pymatgen
data_H2O
_symmetry_space_group_name_H-M   'P 1'
_cell_length_a   13.50322957
_cell_length_b   13.50003480
_cell_length_c   14.68522932
_cell_angle_alpha   89.98401550
_cell_angle_beta   90.01396610
_cell_angle_gamma   119.99205833
_symmetry_Int_Tables_number   1
_chemical_formula_structural   H2O
_chemical_formula_sum   'H144 O72'
_cell_volume   2318.56156694
_cell_formula_units_Z   72
loop_
 _symmetry_equiv_pos_site_id
 _symmetry_equiv_pos_as_xyz
  1  'x, y, z'
loop_
 _atom_type_symbol
 _atom_type_oxidation_number
  H+  1.0
  O2-  -2.0
loop_
 _atom_site_type_symbol
 _atom_site_label
 _atom_site_symmetry_multiplicity
 _atom_site_fract_x
 _atom_site_fract_y
 _atom_site_fract_z
 _atom_site_occupancy
  H+  H0  1  0.16422084  0.18871320  0.03217108  1
  H+  H1  1  0.81787609  0.30557199  0.99583630  1
  H+  H2  1  0.51944389  0.48971147  0.76496833  1
  H+  H3  1  0.21118000  0.50826765  0.48622416  1
  H+  H4  1  0.98306988  0.81059579  0.99973035  1
  H+  H5  1  0.49949325  0.84451634  0.49610645  1
  H+  H6  1  0.84928647  0.35844558  0.24550676  1
  H+  H7  1  0.63467458  0.49919605  0.48773523  1
  H+  H8  1  0.48275144  0.18892201  0.74149222  1
  H+  H9  1  0.63317402  0.82449993  1.00595888  1
  H+  H10  1  0.77382643  0.90058073  0.10222357  1
  H+  H11  1  0.85288319  0.14701848  0.48887558  1
  H+  H12  1  0.71606726  0.19882143  0.71681791  1
  H+  H13  1  0.77525290  0.54849796  0.15085371  1
  H+  H14  1  0.16339679  0.53075173  0.75137596  1
  H+  H15  1  1.01339190  0.49341692  0.23062485  1
  H+  H16  1  0.23089245  0.74044489  0.29037907  1
  H+  H17  1  0.85751641  0.49890773  0.75210016  1
  H+  H18  1  0.20341599  0.67505531  0.51796824  1
  H+  H19  1  0.69851945  0.51548768  0.24110929  1
  H+  H20  1  0.19271387  0.37679002  0.76505068  1
  H+  H21  1  0.18636384  0.03672315  1.00478797  1
  H+  H22  1  0.78842699  0.51238919  0.50304795  1
  H+  H23  1  0.18953000  0.16283473  0.77128711  1
  H+  H24  1  0.52184084  0.37576628  0.48934352  1
  H+  H25  1  0.85748452  0.69647342  0.26130201  1
  H+  H26  1  0.90374125  0.13422023  0.84975053  1
  H+  H27  1  0.04631157  0.20094323  0.74467315  1
  H+  H28  1  0.86748015  0.82245706  0.77674298  1
  H+  H29  1  0.45153748  0.85410699  0.71541974  1
  H+  H30  1  0.36427236  0.84545220  0.50010676  1
  H+  H31  1  0.63191131  0.83546499  0.49066661  1
  H+  H32  1  0.49356115  0.19267071  0.24898318  1
  H+  H33  1  0.29528700  0.83583951  0.75027664  1
  H+  H34  1  0.30501137  0.16964736  0.50068246  1
  H+  H35  1  0.18416681  0.70053594  0.98636874  1
  H+  H36  1  0.28959032  0.15609718  0.23534856  1
  H+  H37  1  0.86661204  0.05098885  0.76374953  1
  H+  H38  1  0.36312299  0.18768231  0.75263862  1
  H+  H39  1  -0.03091769  0.48223839  -0.02196798  1
  H+  H40  1  0.78531815  0.34230100  0.46931405  1
  H+  H41  1  0.03053727  0.85653151  0.75489797  1
  H+  H42  1  0.53502659  0.68195644  0.76265998  1
  H+  H43  1  0.49524011  0.81526027  0.26629526  1
  H+  H44  1  0.86051151  0.16410101  0.98894224  1
  H+  H45  1  0.68616548  0.16562559  0.50468703  1
  H+  H46  1  0.98322129  0.43747782  0.54367749  1
  H+  H47  1  0.80437084  0.84717632  0.50794326  1
  H+  H48  1  0.82290331  0.64200853  0.74813829  1
  H+  H49  1  -0.03543042  0.48136985  0.54257507  1
  H+  H50  1  0.14950310  0.30856576  0.51468417  1
  H+  H51  1  0.97630446  0.16095738  0.99962922  1
  H+  H52  1  0.18423057  0.35772614  0.21630694  1
  H+  H53  1  0.15408866  0.51770518  0.00015796  1
  H+  H54  1  0.18217992  0.04064046  0.77295277  1
  H+  H55  1  0.19618282  0.37394944  1.00438793  1
  H+  H56  1  0.15032619  0.86246242  0.74821055  1
  H+  H57  1  0.70283873  0.52415571  0.74617720  1
  H+  H58  1  0.81454241  0.50260774  0.00822202  1
  H+  H59  1  0.15681446  0.18259789  0.17440143  1
  H+  H60  1  0.84096109  0.86152802  0.22897481  1
  H+  H61  1  0.49263960  0.01510047  0.49562719  1
  H+  H62  1  0.48162043  0.49810841  0.24529247  1
  H+  H63  1  0.51359002  0.37085919  0.99719015  1
  H+  H64  1  0.86603854  0.68914394  0.99986408  1
  H+  H65  1  0.49436868  0.52221756  1.01731929  1
  H+  H66  1  0.71500236  0.18306026  0.22477305  1
  H+  H67  1  0.50508105  1.02160670  0.01510058  1
  H+  H68  1  0.18609773  0.71099234  0.76134150  1
  H+  H69  1  0.83476187  0.20087602  0.72962721  1
  H+  H70  1  0.48206755  0.84599098  0.01725152  1
  H+  H71  1  0.44837836  0.54852379  0.14361960  1
  H+  H72  1  0.51018820  0.36698783  0.26500851  1
  H+  H73  1  0.44893698  0.24250321  0.60883287  1
  H+  H74  1  0.69928733  0.51021966  0.01105679  1
  H+  H75  1  0.84729586  0.47809665  0.24684332  1
  H+  H76  1  0.14055558  0.86905070  0.51585675  1
  H+  H77  1  0.79313162  0.89976215  0.65815396  1
  H+  H78  1  0.36141456  0.50572828  0.51823440  1
  H+  H79  1  0.87684527  0.15807186  0.25951711  1
  H+  H80  1  0.18121700  0.47244628  0.23506836  1
  H+  H81  1  0.16665952  0.86033236  0.01579833  1
  H+  H82  1  0.36281056  0.84618736  0.01331922  1
  H+  H83  1  0.37257184  0.52305101  0.74797749  1
  H+  H84  1  0.36111131  0.19011047  0.02507471  1
  H+  H85  1  0.12634301  0.61278468  0.21838063  1
  H+  H86  1  0.15850683  0.19481901  0.51775195  1
  H+  H87  1  0.55643236  0.80833102  0.76870206  1
  H+  H88  1  0.17349125  0.03681909  0.22516531  1
  H+  H89  1  0.34927455  0.49342863  0.23023009  1
  H+  H90  1  0.48663756  0.19353864  0.52527070  1
  H+  H91  1  0.96239101  0.83153493  0.49667377  1
  H+  H92  1  0.47812281  0.18749214  0.03122132  1
  H+  H93  1  0.16675307  0.86164170  0.24982250  1
  H+  H94  1  0.31296288  0.49287625  1.00065118  1
  H+  H95  1  0.43178947  0.89694943  0.61751047  1
  H+  H96  1  0.80329366  0.97345222  0.00944432  1
  H+  H97  1  0.36774126  0.87498741  0.25673166  1
  H+  H98  1  0.48097413  0.51071147  0.51795810  1
  H+  H99  1  0.84814270  0.70767681  0.49375129  1
  H+  H100  1  0.10023143  0.72053228  0.44864027  1
  H+  H101  1  0.49438385  0.64381772  1.02335301  1
  H+  H102  1  1.04010538  0.84769526  0.24413646  1
  H+  H103  1  0.52705077  1.03244415  0.25392593  1
  H+  H104  1  0.51738501  0.03662208  0.72244428  1
  H+  H105  1  0.18506935  0.05378126  0.50122565  1
  H+  H106  1  0.73099680  0.85462813  0.75288626  1
  H+  H107  1  0.69978163  0.18528791  1.00773565  1
  H+  H108  1  0.10103879  0.54583854  0.08542381  1
  H+  H109  1  0.51905678  0.37147741  0.76753692  1
  H+  H110  1  0.04532552  0.53158448  0.73985072  1
  H+  H111  1  0.81524085  0.96954993  0.51090480  1
  H+  H112  1  0.10480527  0.90645227  0.60873789  1
  H+  H113  1  0.78015158  0.22449304  0.58326655  1
  H+  H114  1  0.83068950  0.42469250  0.38411110  1
  H+  H115  1  0.12641947  0.23791341  0.65665631  1
  H+  H116  1  0.90038910  0.77130168  0.86566180  1
  H+  H117  1  0.49536231  0.09954347  0.41845324  1
  H+  H118  1  0.23190720  0.45238619  0.85596281  1
  H+  H119  1  0.84878382  0.98283118  0.23405358  1
  H+  H120  1  0.54272324  0.78750399  0.40057361  1
  H+  H121  1  0.58583688  0.10389263  0.80948418  1
  H+  H122  1  0.51549914  0.10139001  0.93325124  1
  H+  H123  1  0.12471855  0.89448019  0.10725872  1
  H+  H124  1  0.86222399  0.38260669  0.74531498  1
  H+  H125  1  0.43860927  0.89491132  0.16015614  1
  H+  H126  1  0.17755080  0.59848839  0.60705760  1
  H+  H127  1  0.22045362  0.44526752  0.39555980  1
  H+  H128  1  0.60536720  0.11457272  0.33408273  1
  H+  H129  1  0.22265230  0.11908442  0.91653879  1
  H+  H130  1  0.22834397  0.78679349  0.90134897  1
  H+  H131  1  0.44496795  0.55092573  0.65382613  1
  H+  H132  1  0.49077245  0.69435437  0.27011055  1
  H+  H133  1  0.55649762  0.76559421  0.91638924  1
  H+  H134  1  0.55489376  0.44911054  0.90629369  1
  H+  H135  1  0.77551546  0.56475355  0.59936738  1
  H+  H136  1  -0.02711591  0.15045630  0.50024089  1
  H+  H137  1  0.90748067  0.11430028  0.34920937  1
  H+  H138  1  0.55006744  0.45369929  0.35152942  1
  H+  H139  1  0.21512735  0.80484306  0.39106318  1
  H+  H140  1  0.45110081  0.23347988  0.16276623  1
  H+  H141  1  0.89008576  0.44771951  0.88924669  1
  H+  H142  1  0.79684347  0.22695485  0.13866418  1
  H+  H143  1  0.89393489  0.77817113  0.34903593  1
  O2-  O144  1  0.12478444  0.23490597  0.15101304  1
  O2-  O145  1  0.12815616  0.23908878  0.72550850  1
  O2-  O146  1  0.09475848  0.53221442  0.20363116  1
  O2-  O147  1  0.12876290  0.57503051  0.72542301  1
  O2-  O148  1  0.11991538  0.89178763  0.21956338  1
  O2-  O149  1  0.11010485  0.90417195  0.72906536  1
  O2-  O150  1  0.45192326  0.23273727  0.23113271  1
  O2-  O151  1  0.44284304  0.23160810  0.72709026  1
  O2-  O152  1  0.43690399  0.53814256  0.21555368  1
  O2-  O153  1  0.45236109  0.55795557  0.72376675  1
  O2-  O154  1  0.44798255  0.90493041  0.22730616  1
  O2-  O155  1  0.42813272  0.90620640  0.69111525  1
  O2-  O156  1  0.79673802  0.22740176  0.20670100  1
  O2-  O157  1  0.79830099  0.24214920  0.70059724  1
  O2-  O158  1  0.77837243  0.55077996  0.21933027  1
  O2-  O159  1  0.78172214  0.56340104  0.72022330  1
  O2-  O160  1  0.80442171  0.90462464  0.20712564  1
  O2-  O161  1  0.80720571  0.90459793  0.72528564  1
  O2-  O162  1  0.20707108  0.12166286  0.22383768  1
  O2-  O163  1  0.22712292  0.12098464  0.79705501  1
  O2-  O164  1  0.22325530  0.43167252  0.25128651  1
  O2-  O165  1  0.23237890  0.45768451  0.78832970  1
  O2-  O166  1  0.24977485  0.81907645  0.30081869  1
  O2-  O167  1  0.22196982  0.79232469  0.78388294  1
  O2-  O168  1  0.57608117  0.11674198  0.27373755  1
  O2-  O169  1  0.56791389  0.11673168  0.74792686  1
  O2-  O170  1  0.54557199  0.45056109  0.28214794  1
  O2-  O171  1  0.56121447  0.45175355  0.79074454  1
  O2-  O172  1  0.52740699  0.77110315  0.29630730  1
  O2-  O173  1  0.58610427  0.76073048  0.79166108  1
  O2-  O174  1  0.91589331  0.11786781  0.28215538  1
  O2-  O175  1  0.90163805  0.13309887  0.78137383  1
  O2-  O176  1  0.88944795  0.43936542  0.26965193  1
  O2-  O177  1  0.90068033  0.46028275  0.77332166  1
  O2-  O178  1  0.90216013  0.77729271  0.28152804  1
  O2-  O179  1  0.89978570  0.77389277  0.79561493  1
  O2-  O180  1  0.22502005  0.13413580  0.47937118  1
  O2-  O181  1  0.22475264  0.11945916  0.98474726  1
  O2-  O182  1  0.22326013  0.44522790  0.46227051  1
  O2-  O183  1  0.23328669  0.45186509  0.97664824  1
  O2-  O184  1  0.17900001  0.78004169  0.46047219  1
  O2-  O185  1  0.22939061  0.78323576  0.96945982  1
  O2-  O186  1  0.53101448  0.10039410  0.47651220  1
  O2-  O187  1  0.54166403  0.10545355  0.99559595  1
  O2-  O188  1  0.55547174  0.45393046  0.46197491  1
  O2-  O189  1  0.55572232  0.45151399  0.97487851  1
  O2-  O190  1  0.55010321  0.80060904  0.46980923  1
  O2-  O191  1  0.54864548  0.77122581  0.98291877  1
  O2-  O192  1  0.89392674  0.10504397  0.47423574  1
  O2-  O193  1  0.90293036  0.12600252  0.96630686  1
  O2-  O194  1  0.78358622  0.40741027  0.43975505  1
  O2-  O195  1  0.88748886  0.44129441  0.95749491  1
  O2-  O196  1  0.88482045  0.78712396  0.46843006  1
  O2-  O197  1  0.90612954  0.76610909  0.97183728  1
  O2-  O198  1  0.12720853  0.23548256  0.05064547  1
  O2-  O199  1  0.11317305  0.23100900  0.54258538  1
  O2-  O200  1  0.10900638  0.55512594  0.01802180  1
  O2-  O201  1  0.21536632  0.61566849  0.54674455  1
  O2-  O202  1  0.12686089  0.90065867  0.03866857  1
  O2-  O203  1  0.10196434  0.90994126  0.54087174  1
  O2-  O204  1  0.44251293  0.23410574  0.04743182  1
  O2-  O205  1  0.45394108  0.24283324  0.54099986  1
  O2-  O206  1  0.45422937  0.56081593  0.04588296  1
  O2-  O207  1  0.43689167  0.54200608  0.54858602  1
  O2-  O208  1  0.44230395  0.88754316  0.03955092  1
  O2-  O209  1  0.44221596  0.88973243  0.52379915  1
  O2-  O210  1  0.78239573  0.22619514  0.02210859  1
  O2-  O211  1  0.76929042  0.21202740  0.51608155  1
  O2-  O212  1  0.77774634  0.54326625  0.03694059  1
  O2-  O213  1  0.77094666  0.56964511  0.53185855  1
  O2-  O214  1  0.75164497  0.89771726  0.03567316  1
  O2-  O215  1  0.76705552  0.88897428  0.53431375  1
