# generated using pymatgen
data_H2O
_symmetry_space_group_name_H-M   'P 1'
_cell_length_a   13.48161341
_cell_length_b   13.46372645
_cell_length_c   14.64076656
_cell_angle_alpha   90.02846767
_cell_angle_beta   89.98325361
_cell_angle_gamma   119.97912894
_symmetry_Int_Tables_number   1
_chemical_formula_structural   H2O
_chemical_formula_sum   'H144 O72'
_cell_volume   2301.93385659
_cell_formula_units_Z   72
loop_
 _symmetry_equiv_pos_site_id
 _symmetry_equiv_pos_as_xyz
  1  'x, y, z'
loop_
 _atom_type_symbol
 _atom_type_oxidation_number
  H+  1.0
  O2-  -2.0
loop_
 _atom_site_type_symbol
 _atom_site_label
 _atom_site_symmetry_multiplicity
 _atom_site_fract_x
 _atom_site_fract_y
 _atom_site_fract_z
 _atom_site_occupancy
  H+  H0  1  0.01919840  0.82571440  0.75549172  1
  H+  H1  1  0.75485578  0.54545003  0.20579432  1
  H+  H2  1  0.88841265  0.43663300  0.64050014  1
  H+  H3  1  0.04112215  0.51838399  0.74292079  1
  H+  H4  1  0.85762628  0.70122447  0.50320006  1
  H+  H5  1  0.50657424  0.32944139  0.25654732  1
  H+  H6  1  0.15230084  0.30992346  -0.00464165  1
  H+  H7  1  0.13249671  -0.03925728  0.25916050  1
  H+  H8  1  0.51728479  0.14554726  0.50773725  1
  H+  H9  1  0.16009868  0.84313311  0.53331190  1
  H+  H10  1  0.84462281  0.82350029  0.27334258  1
  H+  H11  1  0.51083621  0.03229684  0.26171241  1
  H+  H12  1  0.84961689  0.69953464  0.75707410  1
  H+  H13  1  0.31361163  0.18129513  -0.00876729  1
  H+  H14  1  0.89407276  0.15961996  0.71404472  1
  H+  H15  1  1.01891481  0.18449318  0.24254423  1
  H+  H16  1  0.76365745  0.87992911  0.59342827  1
  H+  H17  1  0.87181828  0.39398017  0.29773006  1
  H+  H18  1  0.18471723  0.37550111  0.25873980  1
  H+  H19  1  0.31106378  0.82395636  0.50261899  1
  H+  H20  1  0.47123130  0.09024175  0.72929876  1
  H+  H21  1  0.29372478  0.81779064  -0.04529668  1
  H+  H22  1  0.77050210  0.16683733  0.77815609  1
  H+  H23  1  0.50405926  0.69589163  0.48864719  1
  H+  H24  1  0.67837819  0.15984238  0.23484347  1
  H+  H25  1  0.38125827  0.18465834  0.71690696  1
  H+  H26  1  0.80320163  0.63267767  -0.06520515  1
  H+  H27  1  0.31964701  0.50107889  0.76098268  1
  H+  H28  1  0.49294453  0.53249477  0.73663622  1
  H+  H29  1  0.16357639  0.53355903  0.23980384  1
  H+  H30  1  0.16098756  0.87817623  -0.02405690  1
  H+  H31  1  0.30623274  0.49154735  0.25551206  1
  H+  H32  1  0.50908100  0.36968088  0.98122017  1
  H+  H33  1  0.22335539  0.17565824  0.74586627  1
  H+  H34  1  0.14912991  0.82843165  0.77540362  1
  H+  H35  1  0.17826779  0.48416273  0.98449952  1
  H+  H36  1  0.14768211  0.13836911  0.26590350  1
  H+  H37  1  0.50493625  0.82134889  0.98497302  1
  H+  H38  1  1.05976219  0.90670363  0.98520196  1
  H+  H39  1  0.53102671  0.16162794  0.26098205  1
  H+  H40  1  0.80811375  0.51435526  0.72864106  1
  H+  H41  1  0.62242768  0.81222443  0.48875674  1
  H+  H42  1  0.81577639  0.51756638  0.52429039  1
  H+  H43  1  0.52717735  0.72362106  0.75313443  1
  H+  H44  1  0.63268359  0.47274231  0.51294312  1
  H+  H45  1  0.51907405  0.36241778  0.74006034  1
  H+  H46  1  0.86240779  0.82536305  0.74575755  1
  H+  H47  1  0.80767988  0.27696201  1.01348630  1
  H+  H48  1  0.26397526  0.14045323  0.27938000  1
  H+  H49  1  0.36683328  0.51351420  0.51140432  1
  H+  H50  1  0.19218632  0.69854682  0.81203382  1
  H+  H51  1  0.14342037  0.83850476  0.26675282  1
  H+  H52  1  1.02207442  0.18403401  0.98070453  1
  H+  H53  1  0.83751847  0.70072198  0.28708017  1
  H+  H54  1  0.19661521  0.49309233  0.76351978  1
  H+  H55  1  0.46728422  -0.03315150  0.99402459  1
  H+  H56  1  0.82888495  0.35226593  0.72108498  1
  H+  H57  1  0.01039070  0.16558994  0.74183456  1
  H+  H58  1  0.40637496  0.18596491  0.21880391  1
  H+  H59  1  0.18367342  0.03022994  0.51769607  1
  H+  H60  1  0.62246798  0.13749851  -0.04097691  1
  H+  H61  1  0.47581296  0.85361719  0.23235918  1
  H+  H62  1  0.84194260  0.14729488  0.25481325  1
  H+  H63  1  0.84751112  0.03231925  0.26116181  1
  H+  H64  1  0.69476014  0.85126814  0.25151659  1
  H+  H65  1  0.86200650  0.15975982  -0.03237864  1
  H+  H66  1  0.87974582  0.88484761  -0.02039662  1
  H+  H67  1  0.45132785  0.57153425  0.64989153  1
  H+  H68  1  0.85267523  0.50067275  0.29844417  1
  H+  H69  1  0.84921320  0.36056775  0.50898852  1
  H+  H70  1  0.48339647  0.50899651  0.51910221  1
  H+  H71  1  0.14917572  0.63824473  -0.00732373  1
  H+  H72  1  0.19516294  0.70251889  0.50109671  1
  H+  H73  1  0.84050051  -0.02424556  0.73110196  1
  H+  H74  1  0.47528726  0.64074630  1.00259835  1
  H+  H75  1  0.71680197  0.86276997  0.74239633  1
  H+  H76  1  0.19208852  0.36933732  0.49283197  1
  H+  H77  1  1.03976974  0.84137536  0.53841173  1
  H+  H78  1  0.13209287  0.58054841  0.09192587  1
  H+  H79  1  0.78025145  0.27273736  0.18823296  1
  H+  H80  1  0.51315569  0.70681264  0.25780279  1
  H+  H81  1  0.48671001  0.96945777  0.51509891  1
  H+  H82  1  0.66912080  0.55983308  -0.04631715  1
  H+  H83  1  0.68990073  0.51656965  0.74135327  1
  H+  H84  1  0.16312632  0.18896867  0.51633101  1
  H+  H85  1  0.76802669  0.86646204  0.16227130  1
  H+  H86  1  0.18294930  0.70874100  0.26806958  1
  H+  H87  1  0.86716252  0.16789086  0.49553855  1
  H+  H88  1  0.52402470  0.08509076  0.88138006  1
  H+  H89  1  0.67651648  0.50623910  0.29218707  1
  H+  H90  1  0.48710600  0.28912958  0.57130729  1
  H+  H91  1  0.48366303  0.84950431  0.52198802  1
  H+  H92  1  0.04884788  0.20008640  0.51399805  1
  H+  H93  1  0.80284995  0.83732523  0.50920357  1
  H+  H94  1  0.67905544  0.81688922  1.02116146  1
  H+  H95  1  0.77225733  0.56419394  0.60630399  1
  H+  H96  1  0.35668469  0.52046222  0.00620625  1
  H+  H97  1  1.00944751  0.83433077  0.26414943  1
  H+  H98  1  0.49282453  0.48080553  -0.02430129  1
  H+  H99  1  0.46064378  0.40534745  0.32595546  1
  H+  H100  1  0.85203962  0.46018750  1.04821491  1
  H+  H101  1  0.48906363  0.52119649  0.23006280  1
  H+  H102  1  1.04827253  0.52120273  0.53010940  1
  H+  H103  1  0.97060669  0.46707120  1.03311831  1
  H+  H104  1  0.66186048  0.11075202  0.71675639  1
  H+  H105  1  0.48772173  0.19258445  0.00055916  1
  H+  H106  1  0.20017998  0.05797815  -0.02064387  1
  H+  H107  1  0.17830537  0.31534102  0.73875319  1
  H+  H108  1  0.85019589  0.44765394  0.87860782  1
  H+  H109  1  0.69584935  0.17962708  0.51040260  1
  H+  H110  1  0.74200562  0.74662331  0.02832905  1
  H+  H111  1  0.54702462  0.40737374  0.43255381  1
  H+  H112  1  1.04786376  0.53794046  0.24310544  1
  H+  H113  1  0.13528337  0.57495414  0.66814360  1
  H+  H114  1  0.54319546  0.78251135  0.34880299  1
  H+  H115  1  0.14086921  0.23943253  0.64616373  1
  H+  H116  1  0.22357253  0.78512341  0.36151829  1
  H+  H117  1  0.22494251  0.44674580  0.89603969  1
  H+  H118  1  0.53825139  0.43250487  0.83391425  1
  H+  H119  1  0.44648376  0.56194433  0.14324849  1
  H+  H120  1  0.90738560  0.12984848  0.40764343  1
  H+  H121  1  0.26831597  0.14308380  0.83414934  1
  H+  H122  1  0.74856606  0.16757670  0.07305018  1
  H+  H123  1  0.15987034  0.18802783  -0.00782858  1
  H+  H124  1  0.54398509  0.85146607  0.75724308  1
  H+  H125  1  0.16655510  0.52188367  0.52117988  1
  H+  H126  1  0.91749412  0.13752050  0.87561174  1
  H+  H127  1  0.90461367  0.45997047  0.43372554  1
  H+  H128  1  0.10097194  0.22035890  0.15482274  1
  H+  H129  1  0.84661071  0.61115118  0.09830901  1
  H+  H130  1  0.90581165  0.78948712  0.42020018  1
  H+  H131  1  0.79551504  0.55161548  0.09011616  1
  H+  H132  1  0.55635707  0.78815767  0.89956255  1
  H+  H133  1  0.90939760  0.49899449  0.87604121  1
  H+  H134  1  0.42453535  0.88848465  0.08322095  1
  H+  H135  1  0.49224184  0.95022483  0.65529695  1
  H+  H136  1  0.47468142  0.24326797  0.09654914  1
  H+  H137  1  0.19892090  0.08859788  0.42143197  1
  H+  H138  1  0.55025736  0.11300102  0.40905266  1
  H+  H139  1  0.11921209  0.86610577  0.66949309  1
  H+  H140  1  0.76816393  0.20735566  0.60171234  1
  H+  H141  1  0.22770136  0.45214457  0.40436937  1
  H+  H142  1  0.91716518  0.85057208  0.88849376  1
  H+  H143  1  0.35989023  0.85753666  0.23624986  1
  O2-  O144  1  0.10226935  0.22252950  0.22203752  1
  O2-  O145  1  0.14140606  0.23486689  0.71550200  1
  O2-  O146  1  0.12638011  0.57791512  0.21783611  1
  O2-  O147  1  0.12491936  0.56640186  0.73597606  1
  O2-  O148  1  0.09518210  0.87589370  0.24363925  1
  O2-  O149  1  0.10769213  0.86148223  0.73995574  1
  O2-  O150  1  0.48732153  0.24128911  0.21243051  1
  O2-  O151  1  0.46638327  0.21494639  0.69248570  1
  O2-  O152  1  0.44752707  0.56129022  0.21207978  1
  O2-  O153  1  0.45552748  0.57722637  0.71850693  1
  O2-  O154  1  0.43730862  0.89566756  0.20871148  1
  O2-  O155  1  0.53482113  0.98507750  0.71477451  1
  O2-  O156  1  0.75415416  0.19211854  0.20013011  1
  O2-  O157  1  0.73971634  0.18140874  0.72272383  1
  O2-  O158  1  0.75910672  0.55034540  0.27275012  1
  O2-  O159  1  0.77203055  0.56256858  0.72032428  1
  O2-  O160  1  0.77574790  0.88546245  0.22922431  1
  O2-  O161  1  0.79419394  0.89343389  0.71431031  1
  O2-  O162  1  0.18238664  0.09236258  0.29125569  1
  O2-  O163  1  0.27202203  0.14343703  0.76673586  1
  O2-  O164  1  0.22630886  0.45644265  0.27988950  1
  O2-  O165  1  0.23867266  0.45336958  0.78384281  1
  O2-  O166  1  0.21539368  0.78868826  0.29321228  1
  O2-  O167  1  0.22473014  0.77989499  0.83222056  1
  O2-  O168  1  0.55896128  0.11036486  0.28882909  1
  O2-  O169  1  0.46350687  0.02253300  0.76473930  1
  O2-  O170  1  0.53048594  0.41579733  0.29732167  1
  O2-  O171  1  0.55039504  0.44065145  0.76590329  1
  O2-  O172  1  0.54928917  0.78718324  0.28023493  1
  O2-  O173  1  0.57351646  0.80214352  0.78000688  1
  O2-  O174  1  0.88839060  0.11483912  0.27975287  1
  O2-  O175  1  0.92459376  0.12586633  0.75683402  1
  O2-  O176  1  0.90915792  0.47512740  0.31370481  1
  O2-  O177  1  0.87913005  0.43408135  0.70692028  1
  O2-  O178  1  0.88785950  0.78477188  0.29718145  1
  O2-  O179  1  0.89960975  0.78274549  0.77267544  1
  O2-  O180  1  0.21458848  0.10504757  0.48677018  1
  O2-  O181  1  0.23599915  0.14325657  0.96243957  1
  O2-  O182  1  0.22964288  0.45212465  0.47222541  1
  O2-  O183  1  0.21622447  0.43991051  0.96487054  1
  O2-  O184  1  0.23080333  0.78298738  0.47754140  1
  O2-  O185  1  0.21161054  0.77307016  0.93279724  1
  O2-  O186  1  0.55656067  0.10918918  0.47692513  1
  O2-  O187  1  0.53891896  0.10268258  0.94747381  1
  O2-  O188  1  0.54920921  0.42166386  0.49887098  1
  O2-  O189  1  0.53365216  0.44345267  0.94782016  1
  O2-  O190  1  0.53995490  0.77672966  0.46700188  1
  O2-  O191  1  0.54639319  0.78002837  0.96715151  1
  O2-  O192  1  0.91971653  0.14174698  0.47403118  1
  O2-  O193  1  0.91955016  0.13948348  0.94365118  1
  O2-  O194  1  0.89542659  0.44669683  0.50097678  1
  O2-  O195  1  0.88975069  0.41447261  1.05217944  1
  O2-  O196  1  0.90677334  0.78424296  0.48770752  1
  O2-  O197  1  0.94627472  0.90539126  0.93951455  1
  O2-  O198  1  0.10995366  0.22470650  0.01375041  1
  O2-  O199  1  0.13110341  0.23919676  0.53636560  1
  O2-  O200  1  0.11938615  0.56379559  0.02543413  1
  O2-  O201  1  0.13021162  0.56508780  0.54772372  1
  O2-  O202  1  0.13810026  0.92745566  0.00846410  1
  O2-  O203  1  0.11869543  0.87751751  0.56561098  1
  O2-  O204  1  0.45704780  0.23864443  0.02914875  1
  O2-  O205  1  0.45652618  0.20834372  0.59156329  1
  O2-  O206  1  0.43787714  0.56025099  0.02725137  1
  O2-  O207  1  0.44744547  0.55586207  0.53488643  1
  O2-  O208  1  0.42396938  0.88529743  0.01532535  1
  O2-  O209  1  0.44810844  0.89408560  0.54766667  1
  O2-  O210  1  0.76323270  0.19130232  0.00807450  1
  O2-  O211  1  0.77604697  0.22243993  0.53539556  1
  O2-  O212  1  0.73807108  0.63786584  -0.04298897  1
  O2-  O213  1  0.77402063  0.55941837  0.53764582  1
  O2-  O214  1  0.74730490  0.81932656  0.04985852  1
  O2-  O215  1  0.75143066  0.86632691  0.52691635  1
