# generated using pymatgen
data_H2O
_symmetry_space_group_name_H-M   'P 1'
_cell_length_a   13.51614314
_cell_length_b   13.51347027
_cell_length_c   14.68388312
_cell_angle_alpha   90.07421988
_cell_angle_beta   89.95221368
_cell_angle_gamma   120.00358557
_symmetry_Int_Tables_number   1
_chemical_formula_structural   H2O
_chemical_formula_sum   'H144 O72'
_cell_volume   2322.60393169
_cell_formula_units_Z   72
loop_
 _symmetry_equiv_pos_site_id
 _symmetry_equiv_pos_as_xyz
  1  'x, y, z'
loop_
 _atom_type_symbol
 _atom_type_oxidation_number
  H+  1.0
  O2-  -2.0
loop_
 _atom_site_type_symbol
 _atom_site_label
 _atom_site_symmetry_multiplicity
 _atom_site_fract_x
 _atom_site_fract_y
 _atom_site_fract_z
 _atom_site_occupancy
  H+  H0  1  0.13206395  0.49139792  0.27800595  1
  H+  H1  1  0.70265183  0.85273260  0.24905758  1
  H+  H2  1  0.11677898  0.20536984  0.13271095  1
  H+  H3  1  0.18569053  0.53642485  0.25409411  1
  H+  H4  1  0.18929054  0.49170016  0.76182133  1
  H+  H5  1  0.49756373  0.62853551  0.01614325  1
  H+  H6  1  0.16244259  -0.02581148  1.01071809  1
  H+  H7  1  0.12604977  0.67307751  0.22188805  1
  H+  H8  1  0.18995379  0.48847689  -0.00280808  1
  H+  H9  1  0.14876607  0.10450815  0.79708772  1
  H+  H10  1  0.19245396  0.82288036  0.98800158  1
  H+  H11  1  0.46997981  0.17345639  0.02530307  1
  H+  H12  1  0.37934535  0.50799117  0.01841270  1
  H+  H13  1  0.65645229  0.50343368  0.48240875  1
  H+  H14  1  -0.00417523  0.18149521  0.75065910  1
  H+  H15  1  -0.02106807  0.14693259  0.24522803  1
  H+  H16  1  0.52137267  0.17459042  0.48871869  1
  H+  H17  1  0.37486328  0.20860490  0.75369310  1
  H+  H18  1  0.82058762  0.29932562  0.74802905  1
  H+  H19  1  0.62729267  0.15883446  0.73960832  1
  H+  H20  1  0.48086430  0.29559320  0.01899464  1
  H+  H21  1  0.15337920  0.53252817  0.50995103  1
  H+  H22  1  0.46356685  0.87442099  0.48524734  1
  H+  H23  1  0.10532373  0.59431256  0.75520821  1
  H+  H24  1  0.19065556  0.15240511  0.99257353  1
  H+  H25  1  0.55404198  0.81176470  0.53803606  1
  H+  H26  1  0.15689088  0.17790346  0.49935407  1
  H+  H27  1  0.20401901  0.38385141  0.75812337  1
  H+  H28  1  0.82297914  0.85340125  0.01637789  1
  H+  H29  1  0.19081534  0.22164241  0.71232457  1
  H+  H30  1  0.17406777  0.70950203  0.49208105  1
  H+  H31  1  0.78715964  0.51041914  0.71013414  1
  H+  H32  1  0.18264329  1.02030844  0.27303443  1
  H+  H33  1  0.84168348  0.37857205  0.49310519  1
  H+  H34  1  0.04321751  0.85646981  0.00534487  1
  H+  H35  1  0.82491585  0.51414158  0.23761069  1
  H+  H36  1  0.51290411  0.64723003  0.50453198  1
  H+  H37  1  0.37196730  0.18817300  0.51654028  1
  H+  H38  1  0.82864754  0.50736015  0.00459659  1
  H+  H39  1  0.00836347  0.55351633  0.22550181  1
  H+  H40  1  0.71239237  0.19340120  0.24605332  1
  H+  H41  1  0.37696644  0.87568555  0.71932351  1
  H+  H42  1  0.15159783  0.95950267  0.74939492  1
  H+  H43  1  0.83319812  0.68889488  0.75067290  1
  H+  H44  1  0.31065384  0.83385774  0.25992630  1
  H+  H45  1  0.53694816  0.48912088  0.25338934  1
  H+  H46  1  0.85687376  0.03360764  0.25144335  1
  H+  H47  1  0.79462087  0.17373471  0.71957151  1
  H+  H48  1  0.65107939  0.48236151  0.25434935  1
  H+  H49  1  0.16957654  0.27382392  0.22559840  1
  H+  H50  1  0.50887848  0.15860060  0.74168841  1
  H+  H51  1  0.22500994  0.42628896  0.54652106  1
  H+  H52  1  0.15210009  0.30004094  0.00362918  1
  H+  H53  1  0.89697302  0.43648048  0.90779861  1
  H+  H54  1  0.18186789  0.03995235  0.49750895  1
  H+  H55  1  0.77005615  0.22852829  0.10205378  1
  H+  H56  1  0.82532428  -0.02329866  0.74045830  1
  H+  H57  1  0.50799626  0.23647754  0.24320767  1
  H+  H58  1  0.82894188  0.18800693  0.24338902  1
  H+  H59  1  0.81867029  0.84656957  0.24615434  1
  H+  H60  1  0.63646372  0.80109094  0.00095625  1
  H+  H61  1  0.15080961  0.85100831  0.23823644  1
  H+  H62  1  0.95535692  0.80422598  0.75795585  1
  H+  H63  1  0.87586857  0.46053592  0.78079988  1
  H+  H64  1  0.51536127  0.83086050  0.72601592  1
  H+  H65  1  0.22017033  0.43676919  0.29196998  1
  H+  H66  1  0.15539774  0.63748042  -0.00077750  1
  H+  H67  1  0.85539681  0.02927356  0.99750143  1
  H+  H68  1  0.96136438  0.49782370  0.49151394  1
  H+  H69  1  0.58274837  0.46040904  0.90259194  1
  H+  H70  1  0.49126464  0.98215969  0.23867718  1
  H+  H71  1  0.18757299  0.82611334  0.75048349  1
  H+  H72  1  0.84901401  0.69833134  0.49005407  1
  H+  H73  1  0.49324482  0.86525867  0.24597945  1
  H+  H74  1  0.53049964  0.49966058  0.76959521  1
  H+  H75  1  0.55811017  0.13430736  0.35373912  1
  H+  H76  1  0.65082050  0.50518704  0.75569254  1
  H+  H77  1  0.50385530  1.02964948  -0.00253050  1
  H+  H78  1  0.80723443  0.52138110  0.50961173  1
  H+  H79  1  0.57447740  0.45818622  0.37730245  1
  H+  H80  1  0.69157129  0.50410367  0.00551036  1
  H+  H81  1  0.22479197  0.73129645  0.73702720  1
  H+  H82  1  0.14602115  0.85934195  0.51312080  1
  H+  H83  1  0.70276752  0.20895108  0.50365045  1
  H+  H84  1  0.85597914  0.70444796  0.98925433  1
  H+  H85  1  0.61331910  0.15283725  1.00173047  1
  H+  H86  1  0.37176648  0.84026906  0.00775521  1
  H+  H87  1  0.67065780  0.83152547  0.49830536  1
  H+  H88  1  0.82106019  0.85623761  0.74013709  1
  H+  H89  1  0.96810588  0.81416461  0.25491988  1
  H+  H90  1  0.80222656  0.30759417  0.01623447  1
  H+  H91  1  0.82487830  0.63411496  0.23306425  1
  H+  H92  1  0.85508686  0.36977659  0.26486845  1
  H+  H93  1  0.14305069  0.28892972  0.48419845  1
  H+  H94  1  0.83489967  -0.02488068  0.49705658  1
  H+  H95  1  0.85616480  0.81989633  0.48740513  1
  H+  H96  1  0.52909089  0.49989504  0.47337118  1
  H+  H97  1  0.39748439  0.51108265  0.24445860  1
  H+  H98  1  0.02739832  0.85582399  0.51443199  1
  H+  H99  1  0.52428926  0.70620798  0.26687036  1
  H+  H100  1  1.03337582  0.17617642  1.00177487  1
  H+  H101  1  0.51703893  0.05537708  0.48068175  1
  H+  H102  1  0.53820422  0.49116803  0.99608057  1
  H+  H103  1  0.10953864  0.89068719  0.65433693  1
  H+  H104  1  -0.03126732  0.13877600  0.47878695  1
  H+  H105  1  0.88555882  0.45217434  0.35356781  1
  H+  H106  1  0.49222754  0.64694871  0.71802741  1
  H+  H107  1  0.31367070  0.15742732  1.00321182  1
  H+  H108  1  0.56037695  0.78486170  0.35621772  1
  H+  H109  1  0.22162932  0.11130131  0.40318599  1
  H+  H110  1  0.22539894  0.79251199  0.34718123  1
  H+  H111  1  0.89128761  0.77248951  0.34530729  1
  H+  H112  1  0.00426865  0.46367175  0.75663631  1
  H+  H113  1  0.27446195  0.38449490  0.35464807  1
  H+  H114  1  0.10391766  0.55188011  0.60259119  1
  H+  H115  1  0.33019543  0.50778779  0.49022965  1
  H+  H116  1  0.45312044  0.23280830  0.60337741  1
  H+  H117  1  0.28890509  0.83254356  0.48818931  1
  H+  H118  1  0.89559979  0.10240883  0.90647325  1
  H+  H119  1  0.17866007  0.13279998  0.26216112  1
  H+  H120  1  0.77442720  0.24928184  0.59554702  1
  H+  H121  1  0.11119779  0.89048127  0.14999983  1
  H+  H122  1  0.88565831  0.77734182  0.89850922  1
  H+  H123  1  0.46372260  0.56033272  0.58944748  1
  H+  H124  1  0.43878093  0.91047277  0.58587638  1
  H+  H125  1  0.75866429  0.56073891  0.60149733  1
  H+  H126  1  0.37795757  0.52704894  0.72802728  1
  H+  H127  1  0.45135987  0.88340982  0.09532799  1
  H+  H128  1  0.78111250  0.88961821  0.10614938  1
  H+  H129  1  0.49332655  0.99605908  0.71201265  1
  H+  H130  1  0.10073792  0.57459336  0.09142888  1
  H+  H131  1  0.49632831  0.32509393  0.75030589  1
  H+  H132  1  0.51680496  0.79540220  0.99575455  1
  H+  H133  1  0.79867776  0.90289708  0.59362268  1
  H+  H134  1  0.92323201  0.22158449  0.80503733  1
  H+  H135  1  0.63064524  0.82709018  0.73882774  1
  H+  H136  1  0.23485095  0.45583610  0.90823733  1
  H+  H137  1  -0.02327707  0.49590631  -0.00436872  1
  H+  H138  1  0.23190938  0.10442995  0.87037596  1
  H+  H139  1  0.89489194  0.09999313  0.38785093  1
  H+  H140  1  0.78452819  0.54724564  0.10169904  1
  H+  H141  1  0.23423915  0.78752046  0.89799361  1
  H+  H142  1  0.46852369  0.56171184  0.15273894  1
  H+  H143  1  0.12519207  0.23805723  0.63039426  1
  O2-  O144  1  0.11399035  0.19772644  0.20157939  1
  O2-  O145  1  0.13437480  0.24464941  0.69915141  1
  O2-  O146  1  0.06468358  0.61280266  0.18409497  1
  O2-  O147  1  0.09133949  0.52529710  0.72325945  1
  O2-  O148  1  0.10453961  0.88614754  0.21775662  1
  O2-  O149  1  0.11024651  0.88142261  0.72255752  1
  O2-  O150  1  0.46693224  0.15530083  0.25979879  1
  O2-  O151  1  0.44988325  0.24631448  0.72374524  1
  O2-  O152  1  0.47451840  0.56723083  0.22146465  1
  O2-  O153  1  0.45609554  0.56293576  0.70137618  1
  O2-  O154  1  0.45095097  0.90086976  0.21948736  1
  O2-  O155  1  0.45194777  0.91124525  0.68793249  1
  O2-  O156  1  0.79245992  0.23382422  0.22514471  1
  O2-  O157  1  0.76687011  0.22747778  0.71103259  1
  O2-  O158  1  0.78583029  0.55389782  0.20816815  1
  O2-  O159  1  0.75917564  0.56323586  0.69963509  1
  O2-  O160  1  0.78165477  0.89029972  0.22386443  1
  O2-  O161  1  0.78762373  0.90080715  0.71239763  1
  O2-  O162  1  0.21695175  0.09919480  0.29770240  1
  O2-  O163  1  0.21848855  0.10005509  0.80029982  1
  O2-  O164  1  0.26777547  0.40055687  0.29074257  1
  O2-  O165  1  0.24076767  0.46229533  0.78287836  1
  O2-  O166  1  0.22900138  0.79488026  0.27951360  1
  O2-  O167  1  0.24085883  0.79831156  0.77297053  1
  O2-  O168  1  0.55857306  0.13122194  0.28322846  1
  O2-  O169  1  0.54404239  0.11031781  0.75179376  1
  O2-  O170  1  0.57156308  0.44480278  0.27950255  1
  O2-  O171  1  0.57348804  0.46292756  0.79215775  1
  O2-  O172  1  0.55989733  0.78685618  0.28914378  1
  O2-  O173  1  0.54679181  0.78101165  0.74327099  1
  O2-  O174  1  0.90033309  0.11519124  0.27154628  1
  O2-  O175  1  0.91934351  0.15305753  0.77897225  1
  O2-  O176  1  0.88638118  0.45091024  0.28510053  1
  O2-  O177  1  0.90566828  0.41120501  0.79923738  1
  O2-  O178  1  0.88663420  0.77064798  0.27726035  1
  O2-  O179  1  0.87529768  0.76863990  0.77954802  1
  O2-  O180  1  0.22319325  0.11947709  0.47304638  1
  O2-  O181  1  0.23271953  0.11171119  0.97462286  1
  O2-  O182  1  0.24387798  0.45963103  0.48555519  1
  O2-  O183  1  0.23043685  0.44776534  0.97563261  1
  O2-  O184  1  0.20794916  0.78802073  0.46643409  1
  O2-  O185  1  0.23012647  0.77991176  0.96503311  1
  O2-  O186  1  0.56182812  0.13564640  0.45921252  1
  O2-  O187  1  0.53113435  0.11074275  0.98358487  1
  O2-  O188  1  0.57443266  0.46440707  0.44940862  1
  O2-  O189  1  0.58466390  0.45681312  0.97200321  1
  O2-  O190  1  0.58301231  0.78989589  0.48550339  1
  O2-  O191  1  0.55605941  0.75159632  0.98112782  1
  O2-  O192  1  0.89007104  0.09159977  0.45555658  1
  O2-  O193  1  0.90403579  0.10800784  0.97277467  1
  O2-  O194  1  0.88223030  0.46118201  0.46807779  1
  O2-  O195  1  0.89441969  0.45678660  0.97420919  1
  O2-  O196  1  0.89547388  0.77796466  0.46547920  1
  O2-  O197  1  0.89445631  0.78348444  0.96649699  1
  O2-  O198  1  0.11684158  0.21843771  0.02241171  1
  O2-  O199  1  0.11250254  0.21874905  0.52021109  1
  O2-  O200  1  0.11335246  0.55894935  0.02594332  1
  O2-  O201  1  0.11040753  0.56735959  0.53556634  1
  O2-  O202  1  0.12203738  0.89171786  0.02998535  1
  O2-  O203  1  0.10695967  0.89906393  0.54011911  1
  O2-  O204  1  0.43260649  0.21969811  0.04550741  1
  O2-  O205  1  0.45262991  0.22552186  0.53618486  1
  O2-  O206  1  0.45999129  0.54513190  0.03956119  1
  O2-  O207  1  0.46592406  0.56394863  0.52001977  1
  O2-  O208  1  0.45275969  0.87749378  0.02808850  1
  O2-  O209  1  0.42833652  0.91299078  0.51574317  1
  O2-  O210  1  0.75250828  0.22852939  0.03677389  1
  O2-  O211  1  0.78127083  0.25586549  0.52810994  1
  O2-  O212  1  0.78155024  0.54573645  0.03113919  1
  O2-  O213  1  0.76294554  0.55990211  0.52778682  1
  O2-  O214  1  0.78014301  0.89088359  0.03805615  1
  O2-  O215  1  0.79474668  0.89386006  0.52603276  1
