# generated using pymatgen
data_H2O
_symmetry_space_group_name_H-M   'P 1'
_cell_length_a   13.53778316
_cell_length_b   13.52845416
_cell_length_c   14.71210199
_cell_angle_alpha   90.03404093
_cell_angle_beta   89.96122072
_cell_angle_gamma   119.96569331
_symmetry_Int_Tables_number   1
_chemical_formula_structural   H2O
_chemical_formula_sum   'H144 O72'
_cell_volume   2334.26951669
_cell_formula_units_Z   72
loop_
 _symmetry_equiv_pos_site_id
 _symmetry_equiv_pos_as_xyz
  1  'x, y, z'
loop_
 _atom_type_symbol
 _atom_type_oxidation_number
  H+  1.0
  O2-  -2.0
loop_
 _atom_site_type_symbol
 _atom_site_label
 _atom_site_symmetry_multiplicity
 _atom_site_fract_x
 _atom_site_fract_y
 _atom_site_fract_z
 _atom_site_occupancy
  H+  H0  1  0.17372576  0.46704389  0.48360556  1
  H+  H1  1  0.43796819  0.88244439  0.14584096  1
  H+  H2  1  0.18713006  0.06666321  0.77887884  1
  H+  H3  1  0.85604043  0.15208677  -0.00063917  1
  H+  H4  1  0.53002269  0.82781628  0.48550532  1
  H+  H5  1  0.95041978  0.12294592  0.76657771  1
  H+  H6  1  0.01113306  0.82515284  0.72846602  1
  H+  H7  1  0.96688735  0.84098419  0.25039708  1
  H+  H8  1  0.15602327  0.62944109  0.23968684  1
  H+  H9  1  0.81278510  0.29220655  0.51641693  1
  H+  H10  1  0.20241872  0.69760907  0.49333904  1
  H+  H11  1  0.47713642  0.79946393  0.77085199  1
  H+  H12  1  0.38831088  0.85955547  0.51303709  1
  H+  H13  1  0.50359621  0.98034725  0.51080072  1
  H+  H14  1  0.18395516  1.01953074  0.48141805  1
  H+  H15  1  0.80452715  0.85344139  0.22760349  1
  H+  H16  1  0.82291678  0.83750692  0.74561476  1
  H+  H17  1  0.86694268  0.15630168  0.26338122  1
  H+  H18  1  0.62860482  0.81836298  0.25010731  1
  H+  H19  1  0.64267423  0.14347736  0.77689455  1
  H+  H20  1  0.50675190  0.47478929  0.49426517  1
  H+  H21  1  0.36428597  0.20676885  0.73566907  1
  H+  H22  1  0.19815680  0.37807217  1.00192255  1
  H+  H23  1  0.51296916  0.37880990  0.99528306  1
  H+  H24  1  0.53720829  0.48768750  0.75688524  1
  H+  H25  1  0.80541530  0.60219872  0.51701856  1
  H+  H26  1  0.28433899  0.45428041  0.47084329  1
  H+  H27  1  0.76850866  0.53413128  0.65678081  1
  H+  H28  1  0.37347163  0.20195158  0.01240849  1
  H+  H29  1  0.96239895  0.77619398  0.48232039  1
  H+  H30  1  0.48432552  0.84685502  0.23605527  1
  H+  H31  1  0.69314322  0.85742069  0.00946949  1
  H+  H32  1  0.18249023  0.82878021  0.74461224  1
  H+  H33  1  0.63916187  0.15498479  0.49161433  1
  H+  H34  1  0.51707359  0.69470348  1.00676932  1
  H+  H35  1  0.18243109  0.36130972  0.24577513  1
  H+  H36  1  0.90045677  0.84788453  0.33655761  1
  H+  H37  1  0.13481085  0.87483006  0.18500501  1
  H+  H38  1  0.18600531  0.71376732  0.76355068  1
  H+  H39  1  0.38429352  0.57584803  0.55856973  1
  H+  H40  1  0.15397273  0.83495245  0.49466046  1
  H+  H41  1  0.21230240  0.43601216  0.33467423  1
  H+  H42  1  0.15294651  0.86931481  -0.00973791  1
  H+  H43  1  0.34270015  0.50863464  0.72321300  1
  H+  H44  1  0.84080124  0.46949126  0.75440101  1
  H+  H45  1  0.50485003  0.64548934  0.74160127  1
  H+  H46  1  0.36716268  0.51613834  0.23714355  1
  H+  H47  1  0.18219085  0.15363602  0.25651280  1
  H+  H48  1  0.06864995  0.28209552  0.74368090  1
  H+  H49  1  0.51934491  0.36090212  0.75548061  1
  H+  H50  1  0.83713561  0.46413150  0.50108292  1
  H+  H51  1  0.81421412  0.80270516  0.98046052  1
  H+  H52  1  0.18837742  1.04912646  -0.01816526  1
  H+  H53  1  0.29889455  0.14897182  0.25566606  1
  H+  H54  1  0.09681991  0.86234769  0.57777753  1
  H+  H55  1  0.49131285  0.52319770  1.01214143  1
  H+  H56  1  0.35825376  0.17328964  0.50283373  1
  H+  H57  1  0.70522913  0.85108382  0.51995203  1
  H+  H58  1  0.84970109  0.67262943  0.75800091  1
  H+  H59  1  0.15737788  0.19148439  1.01702629  1
  H+  H60  1  0.12015055  0.55089349  0.84875879  1
  H+  H61  1  0.10448852  0.53267293  0.59556258  1
  H+  H62  1  0.81728258  0.97046969  0.52358353  1
  H+  H63  1  0.12886470  0.28495242  0.51621745  1
  H+  H64  1  0.81469250  0.62253868  0.02401975  1
  H+  H65  1  0.69445571  0.49860251  0.74938852  1
  H+  H66  1  0.08655005  0.22604990  0.64900153  1
  H+  H67  1  0.83868530  0.32143165  0.26214331  1
  H+  H68  1  0.81245614  0.29190828  0.01228624  1
  H+  H69  1  0.16610815  0.65228827  1.00350520  1
  H+  H70  1  0.47027168  0.83394335  1.02093983  1
  H+  H71  1  0.74924882  0.20300557  0.30297342  1
  H+  H72  1  0.51351652  0.48304662  0.26153763  1
  H+  H73  1  1.00665400  0.17202701  0.52189777  1
  H+  H74  1  0.20260252  0.49767732  -0.00522357  1
  H+  H75  1  0.80870315  0.63725221  0.25881147  1
  H+  H76  1  0.17477094  0.17654475  0.76498556  1
  H+  H77  1  0.51260251  0.69627612  0.25511695  1
  H+  H78  1  0.11386308  0.22128106  0.15046573  1
  H+  H79  1  0.81891415  0.28722899  0.73946641  1
  H+  H80  1  0.83453343  1.00345593  0.77145233  1
  H+  H81  1  0.08829750  0.94870154  0.68750007  1
  H+  H82  1  0.14483181  0.99056347  0.22415809  1
  H+  H83  1  0.88543228  0.75713265  0.84401807  1
  H+  H84  1  0.77881553  0.88229741  0.66415372  1
  H+  H85  1  0.22737373  0.39203020  0.72979231  1
  H+  H86  1  0.36885608  0.86101219  0.73206674  1
  H+  H87  1  0.47843874  0.30033615  0.24830503  1
  H+  H88  1  0.50656447  1.02174482  0.25108138  1
  H+  H89  1  0.81386504  0.16508357  0.74358596  1
  H+  H90  1  0.76805309  0.89699843  0.13988589  1
  H+  H91  1  0.32209664  0.81677642  0.25798943  1
  H+  H92  1  0.20412177  0.81272851  0.27967180  1
  H+  H93  1  0.81754440  0.97486187  0.00788239  1
  H+  H94  1  0.52709884  0.02782441  0.77567519  1
  H+  H95  1  0.03760661  0.17959128  0.24230373  1
  H+  H96  1  0.47392810  0.17928022  0.24491331  1
  H+  H97  1  0.14589014  0.50807225  0.23222175  1
  H+  H98  1  0.44996205  0.23781813  0.09972052  1
  H+  H99  1  0.68262001  0.48878638  0.51660059  1
  H+  H100  1  0.49227044  0.65402721  0.49726960  1
  H+  H101  1  0.61322277  0.14344922  0.23277010  1
  H+  H102  1  0.50067137  0.35284834  0.49147396  1
  H+  H103  1  0.30475387  0.83127195  0.99021950  1
  H+  H104  1  -0.03905841  0.47337607  0.76683973  1
  H+  H105  1  0.69403895  0.51521810  0.25888117  1
  H+  H106  1  0.85602189  0.49270752  0.27270972  1
  H+  H107  1  0.84946173  0.03069745  0.25474922  1
  H+  H108  1  0.56133985  0.78343433  0.39377836  1
  H+  H109  1  0.88698810  0.43839919  0.41037518  1
  H+  H110  1  0.23242588  0.80131385  0.89771137  1
  H+  H111  1  0.02396342  0.50299592  0.51037799  1
  H+  H112  1  0.37262138  0.52462629  0.01891225  1
  H+  H113  1  0.45220311  0.55829241  0.15168165  1
  H+  H114  1  0.56090939  0.11474362  0.40104974  1
  H+  H115  1  0.54847729  0.44920189  0.90307911  1
  H+  H116  1  0.48194274  0.18343703  0.50694405  1
  H+  H117  1  0.54679170  0.44011921  0.35263553  1
  H+  H118  1  0.25051854  0.77537424  0.40523268  1
  H+  H119  1  0.73659862  0.68757576  0.93112099  1
  H+  H120  1  0.56604352  0.08830012  0.91760711  1
  H+  H121  1  0.11631813  0.56297120  0.08412751  1
  H+  H122  1  0.40203965  0.68542352  0.82484117  1
  H+  H123  1  0.79216476  0.55481187  0.11704583  1
  H+  H124  1  0.54020707  0.77054045  0.91706559  1
  H+  H125  1  0.17465025  0.52776134  0.76231574  1
  H+  H126  1  0.49968708  0.58612671  0.64483847  1
  H+  H127  1  0.48834236  0.96180441  0.01734819  1
  H+  H128  1  0.08438431  0.90399764  0.05892701  1
  H+  H129  1  0.79149793  0.22451100  0.10740627  1
  H+  H130  1  0.03661368  0.18773736  0.01588520  1
  H+  H131  1  0.88877855  0.10681818  0.90875685  1
  H+  H132  1  0.43876638  0.23230246  0.64575262  1
  H+  H133  1  0.77161732  0.20722401  0.60304260  1
  H+  H134  1  0.87330605  0.71326000  0.40337287  1
  H+  H135  1  0.83813978  0.14411068  0.48935266  1
  H+  H136  1  0.85576196  0.41305674  0.90150747  1
  H+  H137  1  0.23481644  0.14921991  0.90828299  1
  H+  H138  1  0.46138504  0.89551365  0.65199493  1
  H+  H139  1  0.97672364  0.49439384  0.26567211  1
  H+  H140  1  0.88550524  0.10501385  0.40308280  1
  H+  H141  1  0.22348467  0.10312222  0.39741250  1
  H+  H142  1  0.83616847  0.46125028  -0.00416744  1
  H+  H143  1  0.64167319  0.12339839  0.00830413  1
  O2-  O144  1  0.11776428  0.22261131  0.21965004  1
  O2-  O145  1  0.09321693  0.22994368  0.72160713  1
  O2-  O146  1  0.10601639  0.55138285  0.21593537  1
  O2-  O147  1  0.12477420  0.55907959  0.78243161  1
  O2-  O148  1  0.09066710  0.91278244  0.19402811  1
  O2-  O149  1  0.08741500  0.87682403  0.69559567  1
  O2-  O150  1  0.43401288  0.22019625  0.22514825  1
  O2-  O151  1  0.44291482  0.24011725  0.71288544  1
  O2-  O152  1  0.44977892  0.55754260  0.22094292  1
  O2-  O153  1  0.48799904  0.57266809  0.71086962  1
  O2-  O154  1  0.44189245  0.88658125  0.21606558  1
  O2-  O155  1  0.45096293  0.88881439  0.71943918  1
  O2-  O156  1  0.79726279  0.23590708  0.24943196  1
  O2-  O157  1  0.77864158  0.20730640  0.71544039  1
  O2-  O158  1  0.77761661  0.55645489  0.24327549  1
  O2-  O159  1  0.77605046  0.53953562  0.72450292  1
  O2-  O160  1  0.76576818  0.89598367  0.20902360  1
  O2-  O161  1  0.78129867  0.87836599  0.73231502  1
  O2-  O162  1  0.21635161  0.10534898  0.27519683  1
  O2-  O163  1  0.22558593  0.14872431  0.78869605  1
  O2-  O164  1  0.22005584  0.44286882  0.26751462  1
  O2-  O165  1  0.25794070  0.47402845  0.72094427  1
  O2-  O166  1  0.24377637  0.77038501  0.28951409  1
  O2-  O167  1  0.22869724  0.79796214  0.77114371  1
  O2-  O168  1  0.54734024  0.10364833  0.27303884  1
  O2-  O169  1  0.56805496  0.10149534  0.80777845  1
  O2-  O170  1  0.55243200  0.44138779  0.28479000  1
  O2-  O171  1  0.56747955  0.44067229  0.78312050  1
  O2-  O172  1  0.54991039  0.77786813  0.27663664  1
  O2-  O173  1  0.48065549  0.73639190  0.80600215  1
  O2-  O174  1  0.89865770  0.10749209  0.28324965  1
  O2-  O175  1  0.87280012  0.08706872  0.79232762  1
  O2-  O176  1  0.89793538  0.45315343  0.29322807  1
  O2-  O177  1  0.87824359  0.42506236  0.77591420  1
  O2-  O178  1  0.89017507  0.80316005  0.28157111  1
  O2-  O179  1  0.89665485  0.75535926  0.77725993  1
  O2-  O180  1  0.22965159  0.10080886  0.46440702  1
  O2-  O181  1  0.23003642  0.13514208  0.97464414  1
  O2-  O182  1  0.20331481  0.41973359  0.45533144  1
  O2-  O183  1  0.24413563  0.45656871  0.97775052  1
  O2-  O184  1  0.24532123  0.77801921  0.47305825  1
  O2-  O185  1  0.22523953  0.79591758  0.96472660  1
  O2-  O186  1  0.55825224  0.11461743  0.46817068  1
  O2-  O187  1  0.56245511  0.07716927  0.98566232  1
  O2-  O188  1  0.54564306  0.43540706  0.47032649  1
  O2-  O189  1  0.54621382  0.45836107  0.96972094  1
  O2-  O190  1  0.56205028  0.78012451  0.46179160  1
  O2-  O191  1  0.55376883  0.77696276  0.98366285  1
  O2-  O192  1  0.88154223  0.10544762  0.47066645  1
  O2-  O193  1  0.89607423  0.11086949  0.97659075  1
  O2-  O194  1  0.88559962  0.43177862  0.47816198  1
  O2-  O195  1  0.85784568  0.40738633  0.96815590  1
  O2-  O196  1  0.87923966  0.72710857  0.46866545  1
  O2-  O197  1  0.81561855  0.73711335  0.94972118  1
  O2-  O198  1  0.11522192  0.22974338  0.04189958  1
  O2-  O199  1  0.08299672  0.21526516  0.55255311  1
  O2-  O200  1  0.13426560  0.57042075  0.01854808  1
  O2-  O201  1  0.10678657  0.54116804  0.52962171  1
  O2-  O202  1  0.11147878  0.91273132  -0.00400522  1
  O2-  O203  1  0.10193635  0.86466549  0.51023542  1
  O2-  O204  1  0.45369243  0.24620670  0.03314464  1
  O2-  O205  1  0.43929582  0.22202758  0.52622075  1
  O2-  O206  1  0.45441527  0.56617197  0.04176941  1
  O2-  O207  1  0.44541563  0.57368039  0.52509631  1
  O2-  O208  1  0.43267104  0.87786186  0.04077725  1
  O2-  O209  1  0.46893528  0.90000709  0.53428446  1
  O2-  O210  1  0.78500447  0.21259770  0.04170862  1
  O2-  O211  1  0.76921673  0.20997304  0.53429101  1
  O2-  O212  1  0.80938974  0.55424582  0.05216077  1
  O2-  O213  1  0.76167866  0.52162585  0.54114070  1
  O2-  O214  1  0.77468775  0.89344581  0.03026227  1
  O2-  O215  1  0.77918213  0.89332353  0.55119211  1
