# generated using pymatgen
data_H2O
_symmetry_space_group_name_H-M   'P 1'
_cell_length_a   13.47651346
_cell_length_b   13.50503718
_cell_length_c   14.68002804
_cell_angle_alpha   89.90849202
_cell_angle_beta   90.17974871
_cell_angle_gamma   120.01650333
_symmetry_Int_Tables_number   1
_chemical_formula_structural   H2O
_chemical_formula_sum   'H144 O72'
_cell_volume   2313.43054937
_cell_formula_units_Z   72
loop_
 _symmetry_equiv_pos_site_id
 _symmetry_equiv_pos_as_xyz
  1  'x, y, z'
loop_
 _atom_type_symbol
 _atom_type_oxidation_number
  H+  1.0
  O2-  -2.0
loop_
 _atom_site_type_symbol
 _atom_site_label
 _atom_site_symmetry_multiplicity
 _atom_site_fract_x
 _atom_site_fract_y
 _atom_site_fract_z
 _atom_site_occupancy
  H+  H0  1  0.74271275  0.75490808  0.24228812  1
  H+  H1  1  0.85218405  0.48408564  0.49206613  1
  H+  H2  1  0.59678111  0.69970953  0.13364589  1
  H+  H3  1  0.85139035  0.69910954  0.99140505  1
  H+  H4  1  0.82996111  0.53124989  0.76593281  1
  H+  H5  1  0.81227692  0.26519150  0.72910486  1
  H+  H6  1  0.86507209  0.16075334  0.98866602  1
  H+  H7  1  1.00916739  0.51494179  0.74630482  1
  H+  H8  1  0.62514755  0.47163890  0.75269559  1
  H+  H9  1  0.78534037  0.22476504  0.09482941  1
  H+  H10  1  0.51495416  0.13027986  0.74223471  1
  H+  H11  1  0.92063910  0.63327664  0.56337412  1
  H+  H12  1  0.18374114  0.15568072  0.49049159  1
  H+  H13  1  0.37439692  0.84325094  1.01218114  1
  H+  H14  1  0.17933373  0.47676150  0.50467087  1
  H+  H15  1  0.62325771  0.47718480  0.26382338  1
  H+  H16  1  0.15178244  0.29481775  0.74557251  1
  H+  H17  1  0.14247961  0.51447490  0.24869936  1
  H+  H18  1  0.14990353  0.63615940  0.24261284  1
  H+  H19  1  0.04329180  0.20300428  0.01756400  1
  H+  H20  1  0.03713256  0.84463562  0.00282099  1
  H+  H21  1  0.47710909  0.18425466  0.24275646  1
  H+  H22  1  0.81582505  0.30901930  0.23913621  1
  H+  H23  1  0.16579932  0.36317957  0.27769502  1
  H+  H24  1  0.51846197  1.03359680  0.25732256  1
  H+  H25  1  0.47628252  0.30258096  0.24831612  1
  H+  H26  1  0.15172605  0.30317836  0.51378532  1
  H+  H27  1  0.51270039  0.14659245  -0.00093108  1
  H+  H28  1  0.48121105  0.29786629  0.49976650  1
  H+  H29  1  0.85489710  0.13408229  0.75257185  1
  H+  H30  1  0.76675746  0.55014671  0.15191994  1
  H+  H31  1  0.19966790  0.82599888  0.24862119  1
  H+  H32  1  0.50806261  0.79682139  0.75905926  1
  H+  H33  1  0.20311936  0.68499590  0.51437088  1
  H+  H34  1  0.84806659  0.70289701  0.75218744  1
  H+  H35  1  0.19227145  0.69971946  0.99173447  1
  H+  H36  1  0.36280613  0.18554579  1.01147775  1
  H+  H37  1  0.17597068  0.03379362  0.48857348  1
  H+  H38  1  0.79311794  0.62485648  0.24199460  1
  H+  H39  1  0.82627725  0.96449993  0.74749574  1
  H+  H40  1  0.50857123  0.48181888  0.50254357  1
  H+  H41  1  0.70528621  0.82111274  0.12466769  1
  H+  H42  1  0.59278571  0.79270185  0.29532177  1
  H+  H43  1  0.46329094  0.51084759  0.26693983  1
  H+  H44  1  0.97881965  0.14306084  0.75670384  1
  H+  H45  1  0.51430556  0.34632520  0.75347066  1
  H+  H46  1  0.70323517  0.61406049  0.68930681  1
  H+  H47  1  0.29721610  0.15584695  0.26082809  1
  H+  H48  1  0.45277360  0.62251525  0.28271221  1
  H+  H49  1  0.22368330  0.76992037  0.84415152  1
  H+  H50  1  0.15789109  0.52905247  1.01217471  1
  H+  H51  1  0.13441120  0.62393066  0.74476256  1
  H+  H52  1  0.79077750  0.40516574  0.78343354  1
  H+  H53  1  0.37090417  0.16809980  0.72409050  1
  H+  H54  1  0.96596826  0.48859176  0.25948224  1
  H+  H55  1  0.84315834  0.04008688  0.26827503  1
  H+  H56  1  0.84441417  0.48524052  0.25911511  1
  H+  H57  1  0.23311648  0.80040288  0.38723524  1
  H+  H58  1  0.21622963  0.10977328  0.34915218  1
  H+  H59  1  0.84016264  0.70425077  0.49370301  1
  H+  H60  1  0.06124896  0.85629217  0.23459644  1
  H+  H61  1  0.28825367  0.47495031  0.76372115  1
  H+  H62  1  0.82118750  0.97900359  0.52521238  1
  H+  H63  1  0.82348902  0.30413963  0.00708256  1
  H+  H64  1  0.47583156  0.61488983  0.75470696  1
  H+  H65  1  0.13788132  0.85731748  0.49594401  1
  H+  H66  1  0.63086451  0.80142008  0.76136005  1
  H+  H67  1  0.51045615  0.15908611  0.47579124  1
  H+  H68  1  0.69966882  0.51775156  0.00967562  1
  H+  H69  1  0.02687067  0.50755943  0.51128677  1
  H+  H70  1  0.96515695  0.15356856  0.27258673  1
  H+  H71  1  0.16709226  -0.01710375  0.23633742  1
  H+  H72  1  0.47795270  0.93274141  0.72630623  1
  H+  H73  1  0.36051715  0.81669724  0.73439235  1
  H+  H74  1  0.52811508  0.55302956  0.01540916  1
  H+  H75  1  0.48003337  0.84950640  0.25816689  1
  H+  H76  1  0.51755394  0.36870333  -0.00509698  1
  H+  H77  1  0.42928784  0.57789276  0.03610228  1
  H+  H78  1  0.68942727  0.15191514  0.72981559  1
  H+  H79  1  0.09915022  0.22958850  0.16985457  1
  H+  H80  1  0.18253770  0.80691301  0.75365858  1
  H+  H81  1  0.28721293  0.48112306  0.27899052  1
  H+  H82  1  0.82815024  0.85510888  0.99944900  1
  H+  H83  1  0.50127960  0.76176723  0.53187467  1
  H+  H84  1  0.20227721  0.40000553  0.00289082  1
  H+  H85  1  0.97407302  0.49357980  0.99751291  1
  H+  H86  1  0.19748536  0.81953328  -0.01433924  1
  H+  H87  1  0.84043535  0.14518980  0.49677450  1
  H+  H88  1  0.36188424  0.17647295  0.49601648  1
  H+  H89  1  0.83874963  -0.01986694  1.00781875  1
  H+  H90  1  0.16975473  0.22448934  0.03944149  1
  H+  H91  1  0.82823559  0.84549584  0.74442986  1
  H+  H92  1  0.41740315  0.80080063  0.49666950  1
  H+  H93  1  0.81549234  0.19078586  0.24446519  1
  H+  H94  1  0.15449175  0.96055098  0.72887876  1
  H+  H95  1  0.31386309  0.81985096  0.25590089  1
  H+  H96  1  1.01684320  0.85494347  0.49842560  1
  H+  H97  1  0.80970375  0.29947118  0.50032256  1
  H+  H98  1  0.19313154  0.14635121  0.74746783  1
  H+  H99  1  0.18376488  0.01480873  0.97617370  1
  H+  H100  1  0.62696222  0.47955393  0.50083973  1
  H+  H101  1  0.15688812  0.11064186  0.94614230  1
  H+  H102  1  0.63686595  0.15663565  0.25384896  1
  H+  H103  1  0.87557486  0.82625161  0.25276693  1
  H+  H104  1  0.97506558  0.81648500  0.75578854  1
  H+  H105  1  0.36476272  0.50778784  0.51693003  1
  H+  H106  1  0.14025145  0.18026246  0.25248733  1
  H+  H107  1  0.53734328  0.85801194  -0.01350016  1
  H+  H108  1  0.54883167  0.09145317  0.83415979  1
  H+  H109  1  0.46880416  0.49317651  0.75111207  1
  H+  H110  1  0.22976433  0.46254470  0.90812579  1
  H+  H111  1  0.83703466  0.76954171  0.40126316  1
  H+  H112  1  0.11212508  0.56169012  0.10226460  1
  H+  H113  1  0.10413909  0.87867252  0.64307564  1
  H+  H114  1  0.90900446  0.12091239  0.90184315  1
  H+  H115  1  0.67186727  0.86371081  -0.02210127  1
  H+  H116  1  0.09339625  0.53994524  0.60730945  1
  H+  H117  1  0.03273769  0.18272229  0.51621450  1
  H+  H118  1  0.48613851  0.96818746  0.01831222  1
  H+  H119  1  0.79762105  0.58487258  0.61674405  1
  H+  H120  1  0.89023815  0.46638145  0.91173441  1
  H+  H121  1  0.16662427  0.47080073  0.76382532  1
  H+  H122  1  0.89383346  0.77548091  0.89991000  1
  H+  H123  1  0.43905514  0.54119824  0.60748995  1
  H+  H124  1  0.43580145  0.22497976  0.10399763  1
  H+  H125  1  0.21433380  0.44078892  0.41214755  1
  H+  H126  1  0.51757205  0.78739492  0.38495919  1
  H+  H127  1  0.55085375  0.44039326  0.35663977  1
  H+  H128  1  0.63771953  0.15941958  0.47913951  1
  H+  H129  1  0.23741103  0.10062342  0.82972235  1
  H+  H130  1  0.88391655  0.44281516  0.39875364  1
  H+  H131  1  0.12392531  0.89373832  0.08827618  1
  H+  H132  1  0.55780303  0.11841075  0.38072545  1
  H+  H133  1  0.45579773  0.88774249  0.15888303  1
  H+  H134  1  0.76426213  0.21119722  0.58594825  1
  H+  H135  1  0.81977574  0.52023775  0.01765476  1
  H+  H136  1  0.55671168  0.43803275  0.90185746  1
  H+  H137  1  0.63108723  0.14724258  0.99472852  1
  H+  H138  1  0.81120724  0.84869176  0.51874219  1
  H+  H139  1  0.45116699  0.21069290  0.63643698  1
  H+  H140  1  0.78672032  0.89349430  0.62410273  1
  H+  H141  1  0.88217847  0.10154809  0.41338155  1
  H+  H142  1  0.11762721  0.22063600  0.65305051  1
  H+  H143  1  0.57456228  0.80904896  0.88604307  1
  O2-  O144  1  0.09535619  0.21909975  0.23729690  1
  O2-  O145  1  0.11653466  0.21460255  0.72131737  1
  O2-  O146  1  0.10453702  0.55543701  0.22099409  1
  O2-  O147  1  0.08759640  0.54176886  0.72438010  1
  O2-  O148  1  0.13661709  0.90419026  0.20782757  1
  O2-  O149  1  0.10950946  0.87811941  0.71088508  1
  O2-  O150  1  0.43389633  0.22237843  0.22286478  1
  O2-  O151  1  0.45318638  0.20779061  0.70423772  1
  O2-  O152  1  0.41668546  0.54682016  0.25263329  1
  O2-  O153  1  0.43055789  0.53610861  0.72976265  1
  O2-  O154  1  0.45129583  0.89676195  0.22583230  1
  O2-  O155  1  0.44158556  0.84997776  0.71451700  1
  O2-  O156  1  0.77493766  0.22768864  0.21648916  1
  O2-  O157  1  0.76977421  0.18860928  0.70304429  1
  O2-  O158  1  0.76387283  0.54552884  0.22042773  1
  O2-  O159  1  0.75358478  0.58262268  0.70016996  1
  O2-  O160  1  0.65594770  0.76469922  0.17084164  1
  O2-  O161  1  0.78462688  0.88439648  0.72158063  1
  O2-  O162  1  0.21472283  0.11058605  0.28060165  1
  O2-  O163  1  0.23353500  0.10275395  0.76216147  1
  O2-  O164  1  0.20328401  0.44356888  0.29915777  1
  O2-  O165  1  0.20798415  0.43245115  0.78769847  1
  O2-  O166  1  0.23142286  0.78039419  0.27619600  1
  O2-  O167  1  0.21775970  0.76184199  0.77644815  1
  O2-  O168  1  0.55666823  0.11553553  0.27938862  1
  O2-  O169  1  0.55549036  0.09046994  0.76713717  1
  O2-  O170  1  0.54384903  0.43697203  0.28902308  1
  O2-  O171  1  0.54783144  0.42442273  0.78062724  1
  O2-  O172  1  0.51596313  0.76968924  0.31759084  1
  O2-  O173  1  0.55412193  0.76336109  0.79014746  1
  O2-  O174  1  0.88290739  0.11591130  0.29589598  1
  O2-  O175  1  0.89809256  0.10039863  0.78146137  1
  O2-  O176  1  0.88479177  0.44502572  0.28241528  1
  O2-  O177  1  0.85813514  0.48084004  0.79020143  1
  O2-  O178  1  0.80936105  0.76045791  0.27971092  1
  O2-  O179  1  0.89523716  0.78120275  0.78136653  1
  O2-  O180  1  0.22186775  0.11399470  0.46527222  1
  O2-  O181  1  0.22037941  0.09565672  0.95049696  1
  O2-  O182  1  0.21926822  0.43689686  0.48063211  1
  O2-  O183  1  0.23957377  0.47673218  0.97505897  1
  O2-  O184  1  0.23243010  0.82693925  0.45162608  1
  O2-  O185  1  0.23852088  0.77912122  0.96582468  1
  O2-  O186  1  0.55636620  0.12116451  0.45220095  1
  O2-  O187  1  0.54974283  0.10428547  0.97433260  1
  O2-  O188  1  0.54895600  0.44002995  0.47673904  1
  O2-  O189  1  0.56321942  0.44729754  0.96927738  1
  O2-  O190  1  0.49687950  0.81531025  0.48964576  1
  O2-  O191  1  0.59931973  0.85530651  0.94668852  1
  O2-  O192  1  0.88117750  0.10236872  0.48161003  1
  O2-  O193  1  0.91119736  0.12430921  0.96989415  1
  O2-  O194  1  0.88269263  0.43586244  0.46715779  1
  O2-  O195  1  0.89120682  0.45188986  0.97762474  1
  O2-  O196  1  0.85896331  0.78086535  0.46674101  1
  O2-  O197  1  0.89483714  0.77983802  0.96803427  1
  O2-  O198  1  0.11658472  0.25165263  0.05265051  1
  O2-  O199  1  0.11387739  0.22108742  0.53633185  1
  O2-  O200  1  0.11192026  0.56481945  0.03406526  1
  O2-  O201  1  0.10448561  0.54547894  0.53965283  1
  O2-  O202  1  0.12033720  0.88788528  0.02056377  1
  O2-  O203  1  0.09495337  0.89245155  0.52453195  1
  O2-  O204  1  0.44164442  0.22531336  0.03596960  1
  O2-  O205  1  0.44490633  0.21427258  0.51533071  1
  O2-  O206  1  0.51272161  0.61280358  0.03904563  1
  O2-  O207  1  0.44520771  0.54501530  0.53994007  1
  O2-  O208  1  0.45491290  0.88611086  0.03724460  1
  O2-  O209  1  0.27066813  0.76491730  0.51032453  1
  O2-  O210  1  0.78592403  0.22241075  0.02687732  1
  O2-  O211  1  0.76456013  0.21567208  0.51797493  1
  O2-  O212  1  0.77904232  0.56186939  0.03634483  1
  O2-  O213  1  0.83895102  0.59407539  0.54832691  1
  O2-  O214  1  0.78816092  0.89678044  0.02101055  1
  O2-  O215  1  0.78282374  0.89735788  0.55146662  1
