# generated using pymatgen
data_H2O
_symmetry_space_group_name_H-M   'P 1'
_cell_length_a   13.51003963
_cell_length_b   13.50561754
_cell_length_c   14.69415803
_cell_angle_alpha   90.15295801
_cell_angle_beta   89.85317472
_cell_angle_gamma   120.08044733
_symmetry_Int_Tables_number   1
_chemical_formula_structural   H2O
_chemical_formula_sum   'H144 O72'
_cell_volume   2320.02036669
_cell_formula_units_Z   72
loop_
 _symmetry_equiv_pos_site_id
 _symmetry_equiv_pos_as_xyz
  1  'x, y, z'
loop_
 _atom_type_symbol
 _atom_type_oxidation_number
  H+  1.0
  O2-  -2.0
loop_
 _atom_site_type_symbol
 _atom_site_label
 _atom_site_symmetry_multiplicity
 _atom_site_fract_x
 _atom_site_fract_y
 _atom_site_fract_z
 _atom_site_occupancy
  H+  H0  1  0.97020606  0.82433424  0.99672009  1
  H+  H1  1  0.10548463  0.55172386  0.14859966  1
  H+  H2  1  0.20614330  0.36338604  0.51788013  1
  H+  H3  1  0.13695762  0.13496561  0.92198016  1
  H+  H4  1  0.81712187  0.02116623  0.98821107  1
  H+  H5  1  0.68896479  0.51995222  0.74008539  1
  H+  H6  1  0.68189188  0.84176690  0.74151745  1
  H+  H7  1  0.37656184  0.19771831  0.25388048  1
  H+  H8  1  0.70027643  0.53078969  0.03147336  1
  H+  H9  1  0.04736818  0.87820117  0.23424234  1
  H+  H10  1  0.36228215  0.84403445  0.01499669  1
  H+  H11  1  0.12916458  0.91917595  0.09530897  1
  H+  H12  1  0.80803961  1.02859092  0.73993496  1
  H+  H13  1  0.83737346  0.18448058  0.52069436  1
  H+  H14  1  0.51988120  0.37447104  0.49014898  1
  H+  H15  1  0.86613232  0.83980585  0.49373821  1
  H+  H16  1  0.81798688  0.65013720  0.02901906  1
  H+  H17  1  0.05076133  0.19641970  0.30809217  1
  H+  H18  1  0.91937457  0.22842592  0.18742258  1
  H+  H19  1  0.15692054  0.86849537  0.23829940  1
  H+  H20  1  0.85846320  0.49749501  0.26475253  1
  H+  H21  1  0.91929046  0.24952313  0.23484167  1
  H+  H22  1  0.52622507  0.36358504  1.00289216  1
  H+  H23  1  0.15082025  -0.02146797  0.99538802  1
  H+  H24  1  0.70426193  0.50494059  0.50093643  1
  H+  H25  1  0.49791737  0.31592676  0.25199261  1
  H+  H26  1  0.86584533  0.36794386  -0.02921528  1
  H+  H27  1  0.51435537  0.14360845  -0.01128781  1
  H+  H28  1  0.51598699  0.69237997  0.99312310  1
  H+  H29  1  0.48254718  0.95859286  0.01038805  1
  H+  H30  1  0.54544878  0.10043198  0.89664174  1
  H+  H31  1  0.45771873  0.58348198  0.59220340  1
  H+  H32  1  0.18962630  0.17752373  0.67804659  1
  H+  H33  1  0.29613167  0.80062079  0.51060468  1
  H+  H34  1  0.70282066  0.85842531  0.50822856  1
  H+  H35  1  0.40174289  0.91376222  0.78497338  1
  H+  H36  1  0.18498642  0.82867515  0.99735585  1
  H+  H37  1  0.20708111  0.41219458  1.07736461  1
  H+  H38  1  0.49754545  0.19552981  0.50518039  1
  H+  H39  1  0.94313624  0.48189312  0.74494936  1
  H+  H40  1  0.88887144  0.43491619  0.34540025  1
  H+  H41  1  0.18091710  0.36356614  0.29078720  1
  H+  H42  1  0.51885364  0.35012378  0.75975764  1
  H+  H43  1  0.90144811  0.45364619  0.88808366  1
  H+  H44  1  0.46422697  0.22484126  0.12048358  1
  H+  H45  1  0.17686365  0.48546238  1.01322590  1
  H+  H46  1  0.20035011  0.05514623  0.27230706  1
  H+  H47  1  0.68560915  0.17711280  0.99203782  1
  H+  H48  1  0.85751289  0.35166995  0.47767827  1
  H+  H49  1  0.50936219  0.80852530  0.99542952  1
  H+  H50  1  0.52103654  0.82049189  0.25715367  1
  H+  H51  1  0.37587613  0.19193646  0.50822475  1
  H+  H52  1  0.14385574  0.62341453  0.51203109  1
  H+  H53  1  0.31776136  0.13675215  0.72133028  1
  H+  H54  1  0.89291012  -0.00293492  0.29977248  1
  H+  H55  1  0.81003647  0.15682582  -0.00733079  1
  H+  H56  1  0.16354266  0.86875281  0.51773011  1
  H+  H57  1  0.20744255  0.16671765  0.50880968  1
  H+  H58  1  0.52120423  0.48927400  0.26587028  1
  H+  H59  1  0.51513510  0.58921505  0.71446669  1
  H+  H60  1  0.82386096  0.68333123  0.73652801  1
  H+  H61  1  0.20294724  0.04387936  0.49974026  1
  H+  H62  1  0.51187110  0.15157525  0.26836067  1
  H+  H63  1  0.15315750  0.63731260  1.01064659  1
  H+  H64  1  0.49884023  0.71493542  0.75399084  1
  H+  H65  1  0.85457342  0.82527193  -0.01629337  1
  H+  H66  1  0.02965561  0.50187574  0.50276437  1
  H+  H67  1  0.75429326  0.16806353  0.76008297  1
  H+  H68  1  0.71745782  0.17987597  0.50699339  1
  H+  H69  1  0.44143832  0.87181271  0.63813065  1
  H+  H70  1  0.03634717  0.51541598  -0.00003933  1
  H+  H71  1  0.17524623  0.48842446  0.25071083  1
  H+  H72  1  0.14533193  0.68072971  0.26993862  1
  H+  H73  1  0.52141189  0.81402182  0.49395957  1
  H+  H74  1  0.80121723  0.33809528  0.21771751  1
  H+  H75  1  0.85106117  0.46769776  0.47934880  1
  H+  H76  1  0.81693018  0.36648198  0.75988619  1
  H+  H77  1  0.93525200  0.14763870  0.96409857  1
  H+  H78  1  0.82523531  0.81711520  0.73677763  1
  H+  H79  1  0.51974040  0.20165430  0.71413286  1
  H+  H80  1  0.21751044  0.78427854  0.90944034  1
  H+  H81  1  0.21198165  0.31708393  0.68713254  1
  H+  H82  1  0.63150556  0.16469322  0.25376761  1
  H+  H83  1  0.09825369  0.64224663  0.72660513  1
  H+  H84  1  0.34489334  0.49472364  0.71968044  1
  H+  H85  1  0.68855793  0.85121294  -0.00194594  1
  H+  H86  1  0.05233820  0.88129484  0.50994983  1
  H+  H87  1  0.85733600  0.81818612  0.25142845  1
  H+  H88  1  0.47780275  0.63459571  0.24382303  1
  H+  H89  1  0.71364731  0.53357967  0.26100421  1
  H+  H90  1  0.30540832  0.49263522  0.25368130  1
  H+  H91  1  0.12094888  0.29618929  -0.02949965  1
  H+  H92  1  1.00228315  0.15460938  0.53613926  1
  H+  H93  1  0.08145386  0.19199525  0.03440473  1
  H+  H94  1  0.07313089  0.71660908  0.32942840  1
  H+  H95  1  0.52031685  0.03767140  0.48891456  1
  H+  H96  1  0.87361618  0.71317085  0.26698195  1
  H+  H97  1  0.37626057  0.52291787  0.50656364  1
  H+  H98  1  0.26335318  0.16540813  0.92335599  1
  H+  H99  1  0.52443173  0.49683292  0.49190926  1
  H+  H100  1  0.49607401  0.96861324  0.24476295  1
  H+  H101  1  0.67263866  0.80574968  0.22835767  1
  H+  H102  1  0.02334197  0.50349373  0.23741450  1
  H+  H103  1  0.82590786  -0.02570025  0.52970935  1
  H+  H104  1  0.38108201  0.17926820  0.03739870  1
  H+  H105  1  0.80896736  0.52265274  0.74078364  1
  H+  H106  1  0.36913472  0.51211406  1.01410479  1
  H+  H107  1  0.17571116  0.20855000  0.30249944  1
  H+  H108  1  0.08082006  0.16022309  0.14597740  1
  H+  H109  1  0.05569762  0.76979031  0.83462980  1
  H+  H110  1  0.71634134  0.74049039  0.16579423  1
  H+  H111  1  0.56083876  0.43482505  0.91041248  1
  H+  H112  1  0.14150159  0.21009876  0.14076887  1
  H+  H113  1  0.84267642  0.10019012  0.82925942  1
  H+  H114  1  0.45352539  0.88771081  0.15770064  1
  H+  H115  1  0.93121114  0.10843353  0.44409119  1
  H+  H116  1  0.76801901  0.88752240  0.08582971  1
  H+  H117  1  0.78266184  0.54207732  0.58750143  1
  H+  H118  1  0.57017511  0.07562284  0.72637689  1
  H+  H119  1  0.50125514  0.88013481  0.77589061  1
  H+  H120  1  0.91398040  0.81287755  0.40334475  1
  H+  H121  1  0.56120165  0.45357748  0.35702403  1
  H+  H122  1  0.20989188  0.44191698  0.74823455  1
  H+  H123  1  0.49451489  0.45072858  0.77790195  1
  H+  H124  1  0.76434540  0.23500053  0.08240173  1
  H+  H125  1  0.08716909  0.55694924  0.64680224  1
  H+  H126  1  0.39400435  0.74482532  0.61195875  1
  H+  H127  1  0.24454288  0.12561599  0.36771526  1
  H+  H128  1  0.75887805  0.87930367  0.64788341  1
  H+  H129  1  0.69557801  0.31648442  0.15865882  1
  H+  H130  1  -0.04870801  0.81099603  0.73323297  1
  H+  H131  1  0.19397383  0.47407764  0.50445363  1
  H+  H132  1  0.46253993  0.23785969  0.63793744  1
  H+  H133  1  0.14499102  -0.07289457  0.71577470  1
  H+  H134  1  0.56328873  0.11326944  0.39958850  1
  H+  H135  1  0.52558320  0.70005184  0.48417734  1
  H+  H136  1  0.56096529  0.77912752  0.34655523  1
  H+  H137  1  0.48748157  0.51056248  0.01189172  1
  H+  H138  1  0.44387560  0.55442122  0.15455163  1
  H+  H139  1  0.22064888  0.77497564  0.41885149  1
  H+  H140  1  0.54737532  0.77846605  0.85259149  1
  H+  H141  1  0.21412057  0.09482235  0.79144535  1
  H+  H142  1  0.84335237  0.07959298  0.29909954  1
  H+  H143  1  0.78636208  0.57376532  0.16861680  1
  O2-  O144  1  0.13346904  0.25124676  0.31271819  1
  O2-  O145  1  0.15682743  0.22926380  0.66168300  1
  O2-  O146  1  0.10606020  0.54675560  0.21677803  1
  O2-  O147  1  0.07555305  0.56245740  0.71375964  1
  O2-  O148  1  0.12932256  0.91857940  0.21354675  1
  O2-  O149  1  0.08442634  0.84492578  0.71899068  1
  O2-  O150  1  0.45698386  0.23434756  0.22874821  1
  O2-  O151  1  0.46318534  0.22871669  0.70674006  1
  O2-  O152  1  0.43659869  0.55257326  0.22235918  1
  O2-  O153  1  0.44994872  0.59888223  0.70108240  1
  O2-  O154  1  0.46013274  0.88777886  0.22475603  1
  O2-  O155  1  0.47610716  0.93755042  0.75767446  1
  O2-  O156  1  0.73657535  0.27761795  0.17776810  1
  O2-  O157  1  0.70872969  0.20805072  0.77390189  1
  O2-  O158  1  0.79399297  0.57347239  0.23793089  1
  O2-  O159  1  0.76879583  0.56422212  0.71677838  1
  O2-  O160  1  0.74218511  0.81644488  0.19147895  1
  O2-  O161  1  0.76205858  0.87862177  0.71720490  1
  O2-  O162  1  0.24427635  0.13346034  0.29875519  1
  O2-  O163  1  0.23204366  0.09582391  0.72592660  1
  O2-  O164  1  0.22275362  0.45471369  0.27574579  1
  O2-  O165  1  0.26600959  0.41794536  0.73700531  1
  O2-  O166  1  0.15006743  0.74672335  0.30460644  1
  O2-  O167  1  0.12157203  0.79631459  0.79322592  1
  O2-  O168  1  0.55775821  0.11461597  0.28476871  1
  O2-  O169  1  0.61645551  0.15701133  0.70581706  1
  O2-  O170  1  0.56448084  0.45247148  0.28763355  1
  O2-  O171  1  0.55124009  0.42797918  0.79073003  1
  O2-  O172  1  0.55669953  0.77293550  0.27840609  1
  O2-  O173  1  0.54636337  0.79338998  0.78619841  1
  O2-  O174  1  0.90817132  0.07243187  0.31915870  1
  O2-  O175  1  0.83151382  0.10586575  0.76409319  1
  O2-  O176  1  0.88975742  0.44480602  0.27578530  1
  O2-  O177  1  0.86487879  0.44873245  0.77475724  1
  O2-  O178  1  0.91242712  0.79828254  0.27826471  1
  O2-  O179  1  0.86809186  0.77256364  0.75266471  1
  O2-  O180  1  0.24609143  0.12765917  0.47769348  1
  O2-  O181  1  0.18700017  0.10136173  0.91091153  1
  O2-  O182  1  0.24184854  0.44042601  0.48819297  1
  O2-  O183  1  0.21122559  0.43267861  1.01315123  1
  O2-  O184  1  0.21852731  0.77257269  0.48610329  1
  O2-  O185  1  0.22222166  0.78413889  0.97578425  1
  O2-  O186  1  0.56400429  0.11655907  0.46794562  1
  O2-  O187  1  0.55239754  0.10227547  0.96299926  1
  O2-  O188  1  0.56153142  0.45445786  0.46592270  1
  O2-  O189  1  0.55844298  0.44173834  0.97791479  1
  O2-  O190  1  0.56524611  0.78345645  0.46294091  1
  O2-  O191  1  0.55340983  0.77290574  0.97020741  1
  O2-  O192  1  0.92181079  0.11340473  0.51002643  1
  O2-  O193  1  0.84888634  0.10356251  0.96120624  1
  O2-  O194  1  0.89513461  0.43241250  0.45196088  1
  O2-  O195  1  0.91607252  0.44813431  0.95392034  1
  O2-  O196  1  0.92111863  0.81788062  0.47011602  1
  O2-  O197  1  0.89102764  0.77874447  0.97392790  1
  O2-  O198  1  0.07423540  0.21003514  -0.02949334  1
  O2-  O199  1  0.14273484  0.22728890  0.56114231  1
  O2-  O200  1  0.11426909  0.55666875  0.03189288  1
  O2-  O201  1  0.10623093  0.54274985  0.53339198  1
  O2-  O202  1  0.12306779  0.90533293  0.02784371  1
  O2-  O203  1  0.13350190  0.91999626  0.53281779  1
  O2-  O204  1  0.46264834  0.21777034  0.05095827  1
  O2-  O205  1  0.45928014  0.23718561  0.52841968  1
  O2-  O206  1  0.44979925  0.55385029  0.03489035  1
  O2-  O207  1  0.46038460  0.57258523  0.52368417  1
  O2-  O208  1  0.44368026  0.87973452  0.03494412  1
  O2-  O209  1  0.41850748  0.81976271  0.58486118  1
  O2-  O210  1  0.76718300  0.21591507  0.01575989  1
  O2-  O211  1  0.79743605  0.22876541  0.52622872  1
  O2-  O212  1  0.77414109  0.57638072  0.06282222  1
  O2-  O213  1  0.78306322  0.52941068  0.52178176  1
  O2-  O214  1  0.77059512  0.90163060  0.01897621  1
  O2-  O215  1  0.77707729  0.88994142  0.54135737  1
