# generated using pymatgen
data_H2O
_symmetry_space_group_name_H-M   'P 1'
_cell_length_a   13.51063637
_cell_length_b   13.50466689
_cell_length_c   14.70958427
_cell_angle_alpha   90.07943613
_cell_angle_beta   89.97408839
_cell_angle_gamma   119.94332794
_symmetry_Int_Tables_number   1
_chemical_formula_structural   H2O
_chemical_formula_sum   'H144 O72'
_cell_volume   2325.61599205
_cell_formula_units_Z   72
loop_
 _symmetry_equiv_pos_site_id
 _symmetry_equiv_pos_as_xyz
  1  'x, y, z'
loop_
 _atom_type_symbol
 _atom_type_oxidation_number
  H+  1.0
  O2-  -2.0
loop_
 _atom_site_type_symbol
 _atom_site_label
 _atom_site_symmetry_multiplicity
 _atom_site_fract_x
 _atom_site_fract_y
 _atom_site_fract_z
 _atom_site_occupancy
  H+  H0  1  0.97517923  0.83805064  0.25261065  1
  H+  H1  1  0.33602374  0.85106023  0.98595127  1
  H+  H2  1  0.35923172  0.84391923  0.22865578  1
  H+  H3  1  0.81621550  0.20327985  0.74551787  1
  H+  H4  1  0.62914818  0.12985039  0.97878092  1
  H+  H5  1  0.48507780  0.97006128  0.73929130  1
  H+  H6  1  0.47879503  0.29801695  0.51867731  1
  H+  H7  1  0.62929508  0.14207616  0.47668428  1
  H+  H8  1  -0.01010823  0.85527116  0.74372332  1
  H+  H9  1  0.85809993  0.84333506  0.24759683  1
  H+  H10  1  0.83262396  0.87704990  0.75398714  1
  H+  H11  1  0.86386910  0.86297964  -0.00042971  1
  H+  H12  1  0.10161869  0.41070897  0.94372386  1
  H+  H13  1  0.37913630  0.20783582  0.00832992  1
  H+  H14  1  0.78616909  0.30628690  0.73629660  1
  H+  H15  1  0.69924965  0.85736631  0.20783001  1
  H+  H16  1  0.86328064  0.71849004  0.98546646  1
  H+  H17  1  0.47659060  0.51596296  0.24581348  1
  H+  H18  1  0.80952377  0.90878006  0.09317162  1
  H+  H19  1  0.36309468  0.17905103  0.74958590  1
  H+  H20  1  0.16578984  0.64699965  0.73368705  1
  H+  H21  1  0.46908188  0.84515560  0.51798733  1
  H+  H22  1  0.22470378  0.77302015  0.37115918  1
  H+  H23  1  0.18588122  0.15245211  -0.00807542  1
  H+  H24  1  0.13379019  0.61835264  0.48467882  1
  H+  H25  1  0.14961509  0.45792921  0.46759701  1
  H+  H26  1  0.48741731  0.30763072  0.24468467  1
  H+  H27  1  0.21438376  0.66978430  0.03703652  1
  H+  H28  1  0.83468584  0.43773288  0.28109476  1
  H+  H29  1  0.30717210  0.14899628  0.25338914  1
  H+  H30  1  0.52313191  0.38193548  0.99261284  1
  H+  H31  1  0.85129909  -0.00810080  0.99746149  1
  H+  H32  1  0.49163113  1.00851914  -0.02513942  1
  H+  H33  1  0.56915027  0.43693250  0.85398062  1
  H+  H34  1  0.79892793  0.52918035  -0.00200348  1
  H+  H35  1  0.80398048  0.60473830  0.48302466  1
  H+  H36  1  -0.01004579  0.83592956  -0.00665724  1
  H+  H37  1  0.80603447  0.27600475  0.22778487  1
  H+  H38  1  0.18661567  0.14399492  0.25517798  1
  H+  H39  1  0.16322047  0.98256652  0.24178381  1
  H+  H40  1  0.25628525  0.43554173  0.47888011  1
  H+  H41  1  0.37126310  0.17101145  0.52603769  1
  H+  H42  1  0.81644358  0.67318439  0.23121377  1
  H+  H43  1  0.68322178  0.16152464  0.22753471  1
  H+  H44  1  0.80450716  0.17295009  -0.00157291  1
  H+  H45  1  0.96020468  0.45719576  0.26206835  1
  H+  H46  1  0.47334903  0.84521892  0.20088705  1
  H+  H47  1  0.30441090  0.82958972  0.74705985  1
  H+  H48  1  0.21347797  0.49963560  0.75392161  1
  H+  H49  1  0.16374992  0.98351994  0.01215352  1
  H+  H50  1  0.85392524  0.67360318  0.70125917  1
  H+  H51  1  0.50925939  0.68935552  0.22354330  1
  H+  H52  1  0.63640988  0.50902455  -0.01421322  1
  H+  H53  1  0.89545793  0.11972980  0.89784256  1
  H+  H54  1  0.14640672  0.29960550  0.01515332  1
  H+  H55  1  0.11685383  0.25920523  0.50528849  1
  H+  H56  1  0.00862249  0.53338148  0.02353101  1
  H+  H57  1  0.40098644  0.51371720  0.75941852  1
  H+  H58  1  0.82343506  0.50157577  0.73516885  1
  H+  H59  1  0.52020228  0.51013110  0.75763977  1
  H+  H60  1  0.14799858  0.85562172  0.24410413  1
  H+  H61  1  0.85197558  1.05131393  0.76482235  1
  H+  H62  1  0.15151538  0.08399931  0.51759093  1
  H+  H63  1  0.81631281  0.31115413  0.51001816  1
  H+  H64  1  1.01305866  0.49796130  0.48206363  1
  H+  H65  1  0.35289041  0.48644989  1.01866020  1
  H+  H66  1  0.87702524  0.77344646  0.39292580  1
  H+  H67  1  0.84043559  0.14655597  0.24677081  1
  H+  H68  1  0.62948375  0.49802263  0.26408453  1
  H+  H69  1  1.02835672  0.17496232  0.23732706  1
  H+  H70  1  0.82074319  0.15456848  0.49194883  1
  H+  H71  1  0.52212487  0.34985103  0.76816038  1
  H+  H72  1  0.81524651  0.97935922  0.22752701  1
  H+  H73  1  0.18487010  0.03995615  0.75609290  1
  H+  H74  1  0.84761765  0.79770931  0.49200832  1
  H+  H75  1  0.13417163  0.61337454  0.26132050  1
  H+  H76  1  0.18538334  0.15831281  0.76461461  1
  H+  H77  1  0.63763180  0.47047644  0.48658027  1
  H+  H78  1  0.83064202  -0.03303145  0.52697160  1
  H+  H79  1  0.10765625  0.69592573  0.94288427  1
  H+  H80  1  0.47851630  0.50748272  0.01185926  1
  H+  H81  1  0.19880323  0.50617414  0.00348079  1
  H+  H82  1  0.97376096  0.15681562  0.98979438  1
  H+  H83  1  0.77561934  0.58817772  0.08627661  1
  H+  H84  1  0.22475719  0.11248430  0.90281953  1
  H+  H85  1  0.99532058  0.47601268  1.04123341  1
  H+  H86  1  0.52572912  0.48285708  0.49785613  1
  H+  H87  1  0.48357797  0.84992251  0.73795207  1
  H+  H88  1  0.15623721  0.86994202  0.72058646  1
  H+  H89  1  0.17783499  0.84528061  0.48989063  1
  H+  H90  1  0.28760156  0.71382755  0.32915773  1
  H+  H91  1  0.64251223  0.83167046  0.76172392  1
  H+  H92  1  0.15750765  0.81957036  0.98679586  1
  H+  H93  1  0.63111773  0.15125655  0.75431089  1
  H+  H94  1  0.14779757  0.29209402  0.23591916  1
  H+  H95  1  0.29487826  0.47619787  0.25571106  1
  H+  H96  1  1.00246728  0.14487951  0.51872492  1
  H+  H97  1  0.65117679  0.81873118  -0.02107177  1
  H+  H98  1  0.71130883  0.85252547  0.53449780  1
  H+  H99  1  0.05709047  0.52415729  0.72464194  1
  H+  H100  1  0.79013312  0.35289376  0.97431306  1
  H+  H101  1  0.82334038  0.56225184  0.21674340  1
  H+  H102  1  0.38524267  0.54957632  0.56706706  1
  H+  H103  1  0.44397001  0.22115844  0.65987900  1
  H+  H104  1  0.53405744  0.70578056  0.76598107  1
  H+  H105  1  0.50839073  0.14756104  0.75863432  1
  H+  H106  1  0.97183847  0.16901942  0.76355405  1
  H+  H107  1  0.52936067  0.70351998  0.53489000  1
  H+  H108  1  0.41267233  0.88888339  0.07725201  1
  H+  H109  1  0.23743526  0.45272314  0.84420325  1
  H+  H110  1  0.87033384  0.41470247  0.41543039  1
  H+  H111  1  0.47930589  0.56565568  0.63728737  1
  H+  H112  1  0.12278015  0.90226863  0.10315837  1
  H+  H113  1  0.56556712  0.80836976  0.90534217  1
  H+  H114  1  0.81349465  0.58284302  0.61728602  1
  H+  H115  1  0.10869775  0.21596018  0.10180139  1
  H+  H116  1  0.55209390  0.78834354  0.29621303  1
  H+  H117  1  0.55303236  0.10039784  0.33494449  1
  H+  H118  1  0.50979224  0.02509567  0.47683397  1
  H+  H119  1  0.70713414  0.41435349  0.77676584  1
  H+  H120  1  0.13781131  0.49826193  0.24740926  1
  H+  H121  1  0.91627799  0.80508844  0.83462289  1
  H+  H122  1  0.50719488  1.02887625  0.24117580  1
  H+  H123  1  0.56631992  0.76489428  0.44121629  1
  H+  H124  1  0.43137165  0.53907964  0.15034289  1
  H+  H125  1  0.17140400  0.58588135  0.12160695  1
  H+  H126  1  0.21635211  0.79346802  0.82953973  1
  H+  H127  1  0.45401689  0.24733568  0.09810566  1
  H+  H128  1  0.28552816  0.82646144  0.49955910  1
  H+  H129  1  0.81069069  0.48514129  0.49930899  1
  H+  H130  1  0.55334803  0.44816512  0.35490259  1
  H+  H131  1  0.77111847  0.03585901  0.44077260  1
  H+  H132  1  0.43359458  0.89218572  0.60210170  1
  H+  H133  1  0.10468261  0.21750266  0.65626165  1
  H+  H134  1  0.15983113  0.31020291  0.73768275  1
  H+  H135  1  0.48987277  0.19003365  0.23647256  1
  H+  H136  1  0.55194859  0.09903191  0.88004131  1
  H+  H137  1  0.76539903  0.21758104  0.59603962  1
  H+  H138  1  0.12572924  0.92503384  0.63266006  1
  H+  H139  1  0.88268501  0.11680003  0.33959301  1
  H+  H140  1  0.20616025  0.42137221  0.34018756  1
  H+  H141  1  0.78764309  0.90747127  0.66670783  1
  H+  H142  1  0.75569985  0.20224644  0.08654571  1
  H+  H143  1  0.81088007  0.42876131  0.88451406  1
  O2-  O144  1  0.10807626  0.21108583  0.21371929  1
  O2-  O145  1  0.11087112  0.22727305  0.72368449  1
  O2-  O146  1  0.09618008  0.53930668  0.22827052  1
  O2-  O147  1  0.14005099  0.56511338  0.72033232  1
  O2-  O148  1  0.11472344  0.89834352  0.21723504  1
  O2-  O149  1  0.12052871  0.91638164  0.70408446  1
  O2-  O150  1  0.44828242  0.23009448  0.21678198  1
  O2-  O151  1  0.44457212  0.21582971  0.72916652  1
  O2-  O152  1  0.43509350  0.55334530  0.21910551  1
  O2-  O153  1  0.48244017  0.55633127  0.74004447  1
  O2-  O154  1  0.43019750  0.88649792  0.19258274  1
  O2-  O155  1  0.44201130  0.88960934  0.71608971  1
  O2-  O156  1  0.76346803  0.19711814  0.20147975  1
  O2-  O157  1  0.76372198  0.22620300  0.71761648  1
  O2-  O158  1  0.77168734  0.59165315  0.20626960  1
  O2-  O159  1  0.85633396  0.60735980  0.67616649  1
  O2-  O160  1  0.78352863  0.90247591  0.19682008  1
  O2-  O161  1  0.78605943  0.91317608  0.73446675  1
  O2-  O162  1  0.22640196  0.10268979  0.27449236  1
  O2-  O163  1  0.22449714  0.11722988  0.78737006  1
  O2-  O164  1  0.21180110  0.43103917  0.27256198  1
  O2-  O165  1  0.24889278  0.45457300  0.77765527  1
  O2-  O166  1  0.24376915  0.74939373  0.30910139  1
  O2-  O167  1  0.22073816  0.79070821  0.76278463  1
  O2-  O168  1  0.55303950  0.10754168  0.26575486  1
  O2-  O169  1  0.55066067  0.10647362  0.77900539  1
  O2-  O170  1  0.55027222  0.45117779  0.28626047  1
  O2-  O171  1  0.57690654  0.43092111  0.78643093  1
  O2-  O172  1  0.55323638  0.77685930  0.23102675  1
  O2-  O173  1  0.55903888  0.78749089  0.77622005  1
  O2-  O174  1  0.88519899  0.11099259  0.27235900  1
  O2-  O175  1  0.89214528  0.13253552  0.78808628  1
  O2-  O176  1  0.88034132  0.40060081  0.28285828  1
  O2-  O177  1  0.78578491  0.42663851  0.77211614  1
  O2-  O178  1  0.89265709  0.79822379  0.27091617  1
  O2-  O179  1  0.90936875  0.81463449  0.76910294  1
  O2-  O180  1  0.20448693  0.05431757  0.50867393  1
  O2-  O181  1  0.22669799  0.11220089  0.97117839  1
  O2-  O182  1  0.17909533  0.40101888  0.45486438  1
  O2-  O183  1  0.17975232  0.43655501  0.96321087  1
  O2-  O184  1  0.20796543  0.79263087  0.47196833  1
  O2-  O185  1  0.17951974  0.76596276  0.95499150  1
  O2-  O186  1  0.55755655  0.09576741  0.44199464  1
  O2-  O187  1  0.54913368  0.09233286  0.95062195  1
  O2-  O188  1  0.55311506  0.43643316  0.46723098  1
  O2-  O189  1  0.55697214  0.46070875  0.96313343  1
  O2-  O190  1  0.56650099  0.78192378  0.50548373  1
  O2-  O191  1  0.58423592  0.82679216  0.97007517  1
  O2-  O192  1  0.84502339  0.09758394  0.46134047  1
  O2-  O193  1  0.89294681  0.11183898  0.96676614  1
  O2-  O194  1  0.87477404  0.42473298  0.48144613  1
  O2-  O195  1  0.81681856  0.43097920  0.95251210  1
  O2-  O196  1  0.86274174  0.74535746  0.45599308  1
  O2-  O197  1  0.91068998  0.80215807  0.96632626  1
  O2-  O198  1  0.10837491  0.21802612  0.03295071  1
  O2-  O199  1  0.08260517  0.18511071  0.53818917  1
  O2-  O200  1  0.22306240  0.61019368  0.06794397  1
  O2-  O201  1  0.09954425  0.53630400  0.47203851  1
  O2-  O202  1  0.12019910  0.90126979  0.03464520  1
  O2-  O203  1  0.13460607  0.93378660  0.53205772  1
  O2-  O204  1  0.45792384  0.25596604  0.03083744  1
  O2-  O205  1  0.44523716  0.22505024  0.55303861  1
  O2-  O206  1  0.42867734  0.53191953  0.04453853  1
  O2-  O207  1  0.46580132  0.57196596  0.56866392  1
  O2-  O208  1  0.41260941  0.89997524  0.01031374  1
  O2-  O209  1  0.42801318  0.88591289  0.53395201  1
  O2-  O210  1  0.75330180  0.20201084  0.01820748  1
  O2-  O211  1  0.76994532  0.21992091  0.52864779  1
  O2-  O212  1  0.78033155  0.59008548  0.01879914  1
  O2-  O213  1  0.76406983  0.52786171  0.51246724  1
  O2-  O214  1  0.82258694  0.91034241  0.02423394  1
  O2-  O215  1  0.79310797  0.88930510  0.55291085  1
