# generated using pymatgen
data_H2O
_symmetry_space_group_name_H-M   'P 1'
_cell_length_a   13.51113339
_cell_length_b   13.51649727
_cell_length_c   14.68008976
_cell_angle_alpha   90.04820810
_cell_angle_beta   89.94892966
_cell_angle_gamma   119.99675719
_symmetry_Int_Tables_number   1
_chemical_formula_structural   H2O
_chemical_formula_sum   'H144 O72'
_cell_volume   2321.82379457
_cell_formula_units_Z   72
loop_
 _symmetry_equiv_pos_site_id
 _symmetry_equiv_pos_as_xyz
  1  'x, y, z'
loop_
 _atom_type_symbol
 _atom_type_oxidation_number
  H+  1.0
  O2-  -2.0
loop_
 _atom_site_type_symbol
 _atom_site_label
 _atom_site_symmetry_multiplicity
 _atom_site_fract_x
 _atom_site_fract_y
 _atom_site_fract_z
 _atom_site_occupancy
  H+  H0  1  0.38075861  0.86015044  0.76419837  1
  H+  H1  1  0.69167370  0.51115061  0.44493428  1
  H+  H2  1  0.33007287  0.82324125  0.02013429  1
  H+  H3  1  0.13380775  0.83077255  0.23457292  1
  H+  H4  1  0.69203210  0.85288360  0.73824240  1
  H+  H5  1  0.85255246  0.14704688  1.00084972  1
  H+  H6  1  0.29242228  0.47550501  0.25088620  1
  H+  H7  1  0.15037983  0.28761894  0.00343898  1
  H+  H8  1  0.19710075  0.81021367  0.81386715  1
  H+  H9  1  0.69551303  0.50754307  -0.00189057  1
  H+  H10  1  0.52283239  0.81252130  -0.00357995  1
  H+  H11  1  0.36209341  0.18233640  0.75059871  1
  H+  H12  1  0.97189770  0.81581875  0.99413649  1
  H+  H13  1  0.67379348  0.46942800  0.25264488  1
  H+  H14  1  0.16174237  0.82252416  0.48894648  1
  H+  H15  1  0.35835166  0.19364334  0.47911978  1
  H+  H16  1  0.46830041  0.84170464  0.53266906  1
  H+  H17  1  0.78072537  0.21597731  0.59835142  1
  H+  H18  1  0.15792784  0.97765822  0.00314361  1
  H+  H19  1  0.18267734  0.14774826  0.77185705  1
  H+  H20  1  0.93480393  0.43870802  0.72440230  1
  H+  H21  1  0.55867549  0.77583523  0.90403873  1
  H+  H22  1  0.99604997  0.82622187  0.72647148  1
  H+  H23  1  0.85529935  0.70401286  0.46846768  1
  H+  H24  1  0.52337532  0.72021501  0.48800766  1
  H+  H25  1  0.51743331  0.82414137  0.76079278  1
  H+  H26  1  0.51492592  0.37077893  0.41060559  1
  H+  H27  1  0.21340482  1.04752370  0.74851073  1
  H+  H28  1  0.52988112  0.17306275  0.47611437  1
  H+  H29  1  0.82078300  0.84706061  1.01700716  1
  H+  H30  1  0.84347981  0.84303802  0.24318057  1
  H+  H31  1  0.48017269  0.61901838  1.00218679  1
  H+  H32  1  0.32094525  0.48307485  0.74360898  1
  H+  H33  1  0.02778450  0.17387158  0.76696703  1
  H+  H34  1  0.84699823  0.35429952  0.48926220  1
  H+  H35  1  0.03152168  0.17069446  0.01163600  1
  H+  H36  1  0.84160515  1.02127206  0.76808289  1
  H+  H37  1  0.51674178  0.70510478  0.75123097  1
  H+  H38  1  0.79636019  0.66130999  0.78713994  1
  H+  H39  1  0.16606337  0.70498784  0.48977520  1
  H+  H40  1  0.70052146  0.84382243  0.01498326  1
  H+  H41  1  0.36305949  0.49891907  0.99625617  1
  H+  H42  1  0.43497341  0.52528144  0.14531626  1
  H+  H43  1  0.79381725  0.83210562  0.75163348  1
  H+  H44  1  0.81479717  0.48863458  0.73814391  1
  H+  H45  1  -0.02507590  0.82591993  0.46889031  1
  H+  H46  1  0.48943853  0.29818760  0.00428061  1
  H+  H47  1  0.85559133  1.03465250  0.49647446  1
  H+  H48  1  0.18669553  0.14853714  0.99336872  1
  H+  H49  1  1.02605841  0.51230351  0.51016087  1
  H+  H50  1  0.96065298  0.80822387  0.24448413  1
  H+  H51  1  0.51746240  0.15264681  0.77238958  1
  H+  H52  1  0.17146929  0.35945063  0.25539638  1
  H+  H53  1  0.70276576  0.18040951  0.01725493  1
  H+  H54  1  0.18347669  0.69711516  0.26482403  1
  H+  H55  1  0.87718172  0.09916007  0.85913182  1
  H+  H56  1  0.49280513  -0.02969171  1.01761552  1
  H+  H57  1  0.49527135  0.52350495  0.71667482  1
  H+  H58  1  0.51387454  0.36071873  0.73575239  1
  H+  H59  1  0.18432801  0.15846556  0.48887217  1
  H+  H60  1  0.63681518  0.83717743  0.50413564  1
  H+  H61  1  0.52457632  0.15887028  0.26276454  1
  H+  H62  1  0.30895476  0.17490888  0.26572516  1
  H+  H63  1  0.82317682  0.85387658  0.50911829  1
  H+  H64  1  0.20396303  0.88244154  0.68256386  1
  H+  H65  1  0.84840975  0.48126123  0.98379389  1
  H+  H66  1  0.97354409  0.15101437  0.26390511  1
  H+  H67  1  0.85062193  0.14415757  0.26433126  1
  H+  H68  1  0.49491552  0.31976482  0.25032667  1
  H+  H69  1  0.63382080  0.47626745  0.73482915  1
  H+  H70  1  0.17794551  0.03453213  0.48666745  1
  H+  H71  1  0.17889975  0.46194601  0.97790090  1
  H+  H72  1  0.35693644  0.86021054  0.24198578  1
  H+  H73  1  0.02841515  0.50193441  0.00286312  1
  H+  H74  1  0.15833342  0.30666973  0.49636870  1
  H+  H75  1  0.68754991  0.16584903  0.74715687  1
  H+  H76  1  0.18851073  0.49322024  0.48222701  1
  H+  H77  1  0.34708544  0.83980435  0.52849931  1
  H+  H78  1  0.52087735  0.15032147  1.00287075  1
  H+  H79  1  0.49091957  0.68736798  0.24171487  1
  H+  H80  1  0.15016431  0.28944354  0.75648406  1
  H+  H81  1  0.20666126  0.75989079  1.06789692  1
  H+  H82  1  0.07702336  0.52937977  0.77166049  1
  H+  H83  1  0.48945939  0.52881379  0.46672839  1
  H+  H84  1  0.15803696  0.19318151  0.24742270  1
  H+  H85  1  0.85346865  0.69592986  1.00590777  1
  H+  H86  1  0.64202840  0.16281118  0.48660450  1
  H+  H87  1  0.80579294  0.16108311  0.74865618  1
  H+  H88  1  0.42463554  0.17646823  0.66216505  1
  H+  H89  1  0.04050157  0.18889503  0.50190298  1
  H+  H90  1  -0.00768984  0.50492949  0.26104297  1
  H+  H91  1  0.82121609  0.29813106  0.01393154  1
  H+  H92  1  0.84945149  1.02634896  0.00038601  1
  H+  H93  1  0.84685111  0.47967961  0.26272521  1
  H+  H94  1  0.70197324  0.17270922  0.24840544  1
  H+  H95  1  0.83691687  0.46927034  0.48088952  1
  H+  H96  1  0.56181974  0.11518583  0.35064733  1
  H+  H97  1  0.47616087  0.50213208  0.24207915  1
  H+  H98  1  0.76094346  0.52834799  0.09284796  1
  H+  H99  1  0.16250018  0.86181160  0.99998255  1
  H+  H100  1  0.00797409  0.88412929  0.74229886  1
  H+  H101  1  0.47945556  0.97800955  0.24358824  1
  H+  H102  1  0.37068957  0.18220797  1.01463355  1
  H+  H103  1  0.84039329  0.98004461  0.24393959  1
  H+  H104  1  0.55955566  0.11104957  0.91316668  1
  H+  H105  1  0.82456318  0.18095944  0.50874975  1
  H+  H106  1  0.15442814  0.61122324  0.00758279  1
  H+  H107  1  0.18154235  0.64595931  0.74847460  1
  H+  H108  1  0.45698414  0.23989967  0.15990442  1
  H+  H109  1  0.51713956  0.47439378  0.97193961  1
  H+  H110  1  0.37119787  0.52324061  0.48713901  1
  H+  H111  1  0.11219927  0.22153734  0.15491575  1
  H+  H112  1  0.78862406  0.89062977  0.60357110  1
  H+  H113  1  0.45260290  0.89548499  0.11041353  1
  H+  H114  1  0.89040103  0.10832671  0.40447620  1
  H+  H115  1  0.70307192  0.38689052  0.19431009  1
  H+  H116  1  0.83620715  0.74717113  0.87156966  1
  H+  H117  1  0.11158671  0.55750217  0.59513722  1
  H+  H118  1  0.22576748  0.12893039  0.35151942  1
  H+  H119  1  0.05550137  0.88405360  0.57319080  1
  H+  H120  1  0.79166209  0.89654805  0.15155888  1
  H+  H121  1  0.88423108  0.78134588  0.33724997  1
  H+  H122  1  0.23057435  0.11093307  0.90450467  1
  H+  H123  1  0.82734257  0.32386840  0.75559691  1
  H+  H124  1  0.45451717  0.28746892  0.54353657  1
  H+  H125  1  0.43787807  0.88932121  0.66371203  1
  H+  H126  1  0.21346956  0.78007157  0.35138340  1
  H+  H127  1  0.72508238  0.53300913  0.54774431  1
  H+  H128  1  0.83969197  0.58792667  0.66834305  1
  H+  H129  1  0.51657638  0.03339870  0.77044781  1
  H+  H130  1  0.20498626  0.48469160  0.74529942  1
  H+  H131  1  0.49875370  0.80677922  0.24558915  1
  H+  H132  1  0.10281673  0.53989783  0.15060860  1
  H+  H133  1  0.45565335  0.56422505  0.62913551  1
  H+  H134  1  0.24203219  0.75925069  0.88578113  1
  H+  H135  1  0.22251019  0.45183162  0.39124973  1
  H+  H136  1  0.09955098  0.87365907  0.14371491  1
  H+  H137  1  0.14747878  0.50496042  0.24028792  1
  H+  H138  1  0.88644868  0.43502159  0.89709614  1
  H+  H139  1  0.78385728  0.21342907  0.16235571  1
  H+  H140  1  0.90471418  0.45697886  0.36230805  1
  H+  H141  1  0.20086244  0.95440772  0.60397222  1
  H+  H142  1  0.55853760  0.43711806  0.88256146  1
  H+  H143  1  0.22547194  0.43042337  0.88759141  1
  O2-  O144  1  0.11014649  0.22714779  0.22237552  1
  O2-  O145  1  0.11049700  0.20529992  0.75522423  1
  O2-  O146  1  0.10470417  0.54561015  0.21829082  1
  O2-  O147  1  0.13382017  0.56729285  0.72373953  1
  O2-  O148  1  0.08351994  0.85796310  0.20925442  1
  O2-  O149  1  0.23582444  0.96240767  0.66628705  1
  O2-  O150  1  0.45852404  0.23849714  0.22748521  1
  O2-  O151  1  0.44112858  0.21396142  0.72148286  1
  O2-  O152  1  0.42436942  0.52518005  0.21214969  1
  O2-  O153  1  0.45390235  0.56368024  0.69710628  1
  O2-  O154  1  0.43528912  0.89982680  0.21552614  1
  O2-  O155  1  0.45516414  0.90251396  0.73355090  1
  O2-  O156  1  0.78408257  0.21148168  0.22970156  1
  O2-  O157  1  0.76777821  0.20311235  0.72230535  1
  O2-  O158  1  0.73953483  0.46650595  0.21428083  1
  O2-  O159  1  0.78479769  0.53817778  0.71380467  1
  O2-  O160  1  0.80422512  0.89899719  0.21910346  1
  O2-  O161  1  0.77464854  0.88704942  0.72141064  1
  O2-  O162  1  0.22793738  0.13959391  0.28413894  1
  O2-  O163  1  0.23429627  0.11470134  0.78827987  1
  O2-  O164  1  0.21213375  0.44276210  0.27496801  1
  O2-  O165  1  0.24190326  0.44361245  0.77055267  1
  O2-  O166  1  0.21728820  0.77802821  0.28281909  1
  O2-  O167  1  0.23763427  0.76768374  0.81923190  1
  O2-  O168  1  0.55987905  0.11266903  0.28136978  1
  O2-  O169  1  0.55898507  0.11419806  0.79535177  1
  O2-  O170  1  0.56503840  0.45478025  0.29168985  1
  O2-  O171  1  0.55446737  0.44162104  0.75721649  1
  O2-  O172  1  0.54411110  0.76877106  0.25220460  1
  O2-  O173  1  0.55504482  0.78048942  0.78242822  1
  O2-  O174  1  0.89304074  0.10460763  0.28674284  1
  O2-  O175  1  0.87678334  0.10203011  0.79094460  1
  O2-  O176  1  0.91519590  0.48112162  0.29506228  1
  O2-  O177  1  0.87469193  0.41139055  0.77046401  1
  O2-  O178  1  0.87934077  0.77896973  0.26868607  1
  O2-  O179  1  0.79303097  0.72620490  0.81330680  1
  O2-  O180  1  0.22634083  0.11739052  0.46772831  1
  O2-  O181  1  0.23100160  0.11073351  0.97279819  1
  O2-  O182  1  0.23035618  0.45540199  0.45922757  1
  O2-  O183  1  0.22169443  0.42464416  0.95565628  1
  O2-  O184  1  0.20618269  0.78464684  0.46717427  1
  O2-  O185  1  0.24151909  0.77389774  1.00746945  1
  O2-  O186  1  0.56460217  0.12651570  0.45965746  1
  O2-  O187  1  0.56119898  0.10918424  0.98130543  1
  O2-  O188  1  0.56357921  0.45343170  0.39385835  1
  O2-  O189  1  0.56045243  0.43631284  0.95029579  1
  O2-  O190  1  0.55552532  0.80353250  0.48717798  1
  O2-  O191  1  0.55965238  0.77017646  0.97186607  1
  O2-  O192  1  0.89208417  0.11479567  0.47247348  1
  O2-  O193  1  0.89164038  0.10641476  0.97607712  1
  O2-  O194  1  0.88654207  0.43626757  0.46592339  1
  O2-  O195  1  0.89191598  0.44250788  0.96408597  1
  O2-  O196  1  0.89052681  0.78466299  0.44988457  1
  O2-  O197  1  0.88790774  0.77515142  0.98211673  1
  O2-  O198  1  0.11319834  0.21051302  0.03233253  1
  O2-  O199  1  0.12255967  0.22720460  0.51894772  1
  O2-  O200  1  0.10756867  0.53134962  0.02785457  1
  O2-  O201  1  0.10802601  0.55752299  0.52819817  1
  O2-  O202  1  0.11499542  0.89371377  0.02042891  1
  O2-  O203  1  0.10025177  0.89804899  0.51760730  1
  O2-  O204  1  0.45192981  0.22291900  0.03598885  1
  O2-  O205  1  0.44507615  0.24955253  0.48523265  1
  O2-  O206  1  0.44356319  0.53661540  0.01868227  1
  O2-  O207  1  0.45314830  0.55962603  0.50708445  1
  O2-  O208  1  0.45424720  0.88964500  0.04079340  1
  O2-  O209  1  0.41601334  0.86269035  0.56568114  1
  O2-  O210  1  0.78423480  0.21913267  0.03798423  1
  O2-  O211  1  0.78672412  0.22506923  0.53115112  1
  O2-  O212  1  0.77353697  0.54382637  0.02673054  1
  O2-  O213  1  0.75934503  0.54155920  0.48770901  1
  O2-  O214  1  0.78075059  0.88849113  0.03804483  1
  O2-  O215  1  0.78848485  0.89711013  0.53575591  1
