# generated using pymatgen
data_H2O
_symmetry_space_group_name_H-M   'P 1'
_cell_length_a   13.51439785
_cell_length_b   13.49545585
_cell_length_c   14.70107199
_cell_angle_alpha   89.94130182
_cell_angle_beta   90.15587414
_cell_angle_gamma   120.06045283
_symmetry_Int_Tables_number   1
_chemical_formula_structural   H2O
_chemical_formula_sum   'H144 O72'
_cell_volume   2320.58443955
_cell_formula_units_Z   72
loop_
 _symmetry_equiv_pos_site_id
 _symmetry_equiv_pos_as_xyz
  1  'x, y, z'
loop_
 _atom_type_symbol
 _atom_type_oxidation_number
  H+  1.0
  O2-  -2.0
loop_
 _atom_site_type_symbol
 _atom_site_label
 _atom_site_symmetry_multiplicity
 _atom_site_fract_x
 _atom_site_fract_y
 _atom_site_fract_z
 _atom_site_occupancy
  H+  H0  1  0.53750109  0.49828546  0.47756183  1
  H+  H1  1  0.89693393  0.79834924  0.33635285  1
  H+  H2  1  0.85979781  0.71021600  0.25526584  1
  H+  H3  1  0.31596570  0.17421767  0.00481029  1
  H+  H4  1  0.05777850  0.53564678  0.50296411  1
  H+  H5  1  0.36607166  0.86520733  0.51717397  1
  H+  H6  1  0.15021843  -0.01911738  0.51283508  1
  H+  H7  1  0.70601827  0.50632308  0.25417471  1
  H+  H8  1  0.48544823  0.30967942  0.75920973  1
  H+  H9  1  0.84904492  0.48074498  0.65218229  1
  H+  H10  1  0.17837314  0.82610165  0.99370131  1
  H+  H11  1  0.18643641  0.16896098  0.27632813  1
  H+  H12  1  0.17895201  0.14787213  0.76148231  1
  H+  H13  1  0.18202811  0.16045185  0.49677463  1
  H+  H14  1  0.35812116  0.53258717  0.99799260  1
  H+  H15  1  0.30642915  0.16230075  0.76607874  1
  H+  H16  1  0.49420705  0.14191898  0.26546918  1
  H+  H17  1  0.18757314  0.04859615  0.27388847  1
  H+  H18  1  0.78195870  0.57622659  0.90227894  1
  H+  H19  1  0.67285341  0.83720233  0.99759590  1
  H+  H20  1  0.43540280  0.22395111  0.14879660  1
  H+  H21  1  0.55419080  0.67189906  0.72857191  1
  H+  H22  1  0.19027619  0.82375626  0.76093234  1
  H+  H23  1  0.51200591  0.05224594  -0.01196862  1
  H+  H24  1  0.83987199  0.54579728  0.81903055  1
  H+  H25  1  0.12152168  0.90198853  0.65525588  1
  H+  H26  1  0.51335331  0.15231555  0.48291710  1
  H+  H27  1  0.98527910  0.83832112  0.76231004  1
  H+  H28  1  0.77946166  0.49701623  0.01533995  1
  H+  H29  1  0.50954672  0.02960174  0.49151614  1
  H+  H30  1  0.65299721  0.16103789  0.24791630  1
  H+  H31  1  0.36864497  0.18859235  0.49701680  1
  H+  H32  1  0.35519421  0.56638055  0.74577484  1
  H+  H33  1  0.51576319  0.46752395  0.23906724  1
  H+  H34  1  0.18230968  0.83044517  0.49783871  1
  H+  H35  1  0.35568411  0.39902815  0.16539917  1
  H+  H36  1  0.48978154  0.30413843  0.48880186  1
  H+  H37  1  0.83511780  0.14566426  0.26468932  1
  H+  H38  1  0.14412203  0.64136879  0.01669076  1
  H+  H39  1  0.03166743  0.51391332  0.74194598  1
  H+  H40  1  0.95802319  0.13426232  0.98536590  1
  H+  H41  1  0.82371870  0.86966362  0.75002626  1
  H+  H42  1  0.55825657  0.44671516  0.38496037  1
  H+  H43  1  0.85337497  0.34665512  0.27221988  1
  H+  H44  1  0.14412537  0.17551599  -0.00107796  1
  H+  H45  1  0.71286838  0.52536118  0.45612818  1
  H+  H46  1  0.51599112  0.35080071  0.25145434  1
  H+  H47  1  0.86885897  0.72667555  0.79645755  1
  H+  H48  1  0.85876179  0.70824604  0.45779525  1
  H+  H49  1  0.95818568  0.15419529  0.76328822  1
  H+  H50  1  0.82973207  0.01623294  0.98607383  1
  H+  H51  1  0.18695383  0.70337779  0.76126600  1
  H+  H52  1  0.66230099  0.49921735  -0.00097109  1
  H+  H53  1  0.30393169  0.47932012  0.26552885  1
  H+  H54  1  0.36203388  0.18794144  0.24627427  1
  H+  H55  1  0.84249178  0.34936185  1.01604661  1
  H+  H56  1  0.48174128  0.84938284  0.23876198  1
  H+  H57  1  0.63362092  0.82008539  0.24886258  1
  H+  H58  1  0.48568945  0.65362587  -0.00173466  1
  H+  H59  1  0.72482953  0.27237592  0.18970916  1
  H+  H60  1  0.79844345  0.56718587  0.37378741  1
  H+  H61  1  -0.02434942  0.46518423  0.25611800  1
  H+  H62  1  0.16556901  0.48499563  0.99463827  1
  H+  H63  1  0.16533333  0.87979438  0.25544290  1
  H+  H64  1  0.51663049  0.81115777  0.98140206  1
  H+  H65  1  0.47671723  -0.03489423  0.24567116  1
  H+  H66  1  0.95995274  0.37495264  0.83173164  1
  H+  H67  1  0.03175164  0.86254296  0.51053948  1
  H+  H68  1  0.05080989  0.87674917  0.00815621  1
  H+  H69  1  0.58231173  0.71731352  0.49459526  1
  H+  H70  1  0.47902401  0.18935411  0.74898004  1
  H+  H71  1  0.55119438  0.55050643  0.73356903  1
  H+  H72  1  0.12976485  0.28604208  0.00471159  1
  H+  H73  1  1.02423375  0.52065729  1.02388626  1
  H+  H74  1  0.49378224  0.85411333  0.74920261  1
  H+  H75  1  0.17533473  -0.01456283  1.00660657  1
  H+  H76  1  0.63708009  0.15968838  0.98486277  1
  H+  H77  1  0.11363575  0.29984568  0.75886824  1
  H+  H78  1  0.89259845  0.54228433  0.66184282  1
  H+  H79  1  0.76324682  0.18833185  0.09847766  1
  H+  H80  1  0.82524082  0.50372656  0.25915598  1
  H+  H81  1  0.88699225  0.51329322  0.46857526  1
  H+  H82  1  0.19169519  0.71576429  0.49540083  1
  H+  H83  1  0.37223284  0.53030856  0.77371542  1
  H+  H84  1  0.35855206  0.87038339  1.01305674  1
  H+  H85  1  0.81708434  0.16444235  1.00806220  1
  H+  H86  1  0.80566060  0.18090225  0.74165764  1
  H+  H87  1  0.68870278  0.18555954  0.73987457  1
  H+  H88  1  0.85001637  0.33842044  0.77256489  1
  H+  H89  1  0.44181466  0.91060298  0.09813436  1
  H+  H90  1  0.81151710  -0.03252043  0.23425517  1
  H+  H91  1  0.64734046  0.49214062  0.80372469  1
  H+  H92  1  0.13842662  0.50116601  0.73696416  1
  H+  H93  1  0.20527942  0.38501873  0.50405378  1
  H+  H94  1  0.21159273  0.50626566  0.50261377  1
  H+  H95  1  0.81472617  -0.01700482  0.75170901  1
  H+  H96  1  0.83973154  0.81496672  0.47273517  1
  H+  H97  1  0.83392438  0.13442420  0.49013752  1
  H+  H98  1  1.03103386  0.19174353  0.25840114  1
  H+  H99  1  0.29973048  0.83008090  0.26129035  1
  H+  H100  1  0.92549166  0.45271649  0.39987601  1
  H+  H101  1  0.81537979  0.85138707  0.22870977  1
  H+  H102  1  0.03339305  0.19211381  0.50888415  1
  H+  H103  1  0.48947932  0.47864617  -0.00463462  1
  H+  H104  1  0.86053952  0.85350230  -0.00562995  1
  H+  H105  1  0.64488607  0.83470776  0.76966679  1
  H+  H106  1  0.51786086  1.03593973  0.76037817  1
  H+  H107  1  0.04630488  0.87763709  0.24382972  1
  H+  H108  1  0.75623778  0.88648234  0.08905849  1
  H+  H109  1  0.74451279  0.64329448  0.62188556  1
  H+  H110  1  0.53788680  0.10312482  0.35771339  1
  H+  H111  1  0.42053458  0.52375059  0.12495246  1
  H+  H112  1  0.40882810  0.54876009  0.51622843  1
  H+  H113  1  0.10096147  0.21764595  0.60324264  1
  H+  H114  1  0.54009634  0.44151554  0.86775863  1
  H+  H115  1  0.87894823  0.42705645  0.92962241  1
  H+  H116  1  0.87929965  0.11624234  0.85582393  1
  H+  H117  1  0.44916251  0.90267142  0.60351511  1
  H+  H118  1  0.12762280  0.57001923  0.59694352  1
  H+  H119  1  0.55883751  0.77754434  0.85723333  1
  H+  H120  1  0.76418668  0.60046443  0.62708486  1
  H+  H121  1  0.22859778  0.80203915  0.35310191  1
  H+  H122  1  0.55734960  0.12088949  0.84681216  1
  H+  H123  1  0.24773543  0.46568516  0.36571983  1
  H+  H124  1  0.83303065  0.01613179  0.48067480  1
  H+  H125  1  0.14726466  0.31174169  0.26919638  1
  H+  H126  1  0.37418449  0.85284625  0.74934693  1
  H+  H127  1  0.23952252  0.12840400  0.90933934  1
  H+  H128  1  0.16574930  -0.01982279  0.74599851  1
  H+  H129  1  0.47593155  0.20475824  0.02296723  1
  H+  H130  1  0.10832291  0.54166757  0.15646011  1
  H+  H131  1  0.50895636  0.58831699  0.59430916  1
  H+  H132  1  0.57431704  0.79494506  0.34318182  1
  H+  H133  1  0.23227019  0.40998355  0.76848408  1
  H+  H134  1  0.21913070  0.77685555  0.91030105  1
  H+  H135  1  0.22057144  0.12172920  0.40601101  1
  H+  H136  1  0.18258062  0.42464442  0.90724067  1
  H+  H137  1  0.68796834  0.16282954  0.50405633  1
  H+  H138  1  0.03173108  0.09557677  0.69551566  1
  H+  H139  1  0.91818608  0.83608254  0.90734534  1
  H+  H140  1  0.48284694  0.35081682  1.00957595  1
  H+  H141  1  0.76738977  0.20474553  0.59251570  1
  H+  H142  1  0.87402009  0.10388790  0.35241911  1
  H+  H143  1  0.14896668  0.50494024  0.24803950  1
  O2-  O144  1  0.11386810  0.23261050  0.24534893  1
  O2-  O145  1  0.07827521  0.17692121  0.70939338  1
  O2-  O146  1  0.09494188  0.52755240  0.22272342  1
  O2-  O147  1  0.11118974  0.55421563  0.71865351  1
  O2-  O148  1  0.12968975  0.92729738  0.23774129  1
  O2-  O149  1  0.12523082  0.89859391  0.72305249  1
  O2-  O150  1  0.44124504  0.22049624  0.22085708  1
  O2-  O151  1  0.43663176  0.23025937  0.73661688  1
  O2-  O152  1  0.40269417  0.47852371  0.18475792  1
  O2-  O153  1  0.55607989  0.61063750  0.69147686  1
  O2-  O154  1  0.43968253  0.88821915  0.21615866  1
  O2-  O155  1  0.45416515  0.89623142  0.72667754  1
  O2-  O156  1  0.73210490  0.21004511  0.21598336  1
  O2-  O157  1  0.77077599  0.22663449  0.71785807  1
  O2-  O158  1  0.79094808  0.55437412  0.25977865  1
  O2-  O159  1  0.79589691  0.58322538  0.83194031  1
  O2-  O160  1  0.77136140  0.88897863  0.20792047  1
  O2-  O161  1  0.77598421  0.90254957  0.73007306  1
  O2-  O162  1  0.23126932  0.13192273  0.29737037  1
  O2-  O163  1  0.22409062  0.11398266  0.78779980  1
  O2-  O164  1  0.23201002  0.45700675  0.29888008  1
  O2-  O165  1  0.15179198  0.38096912  0.78268674  1
  O2-  O166  1  0.22228311  0.80408056  0.28607632  1
  O2-  O167  1  0.22890709  0.78234985  0.78548458  1
  O2-  O168  1  0.53483008  0.10093612  0.28766854  1
  O2-  O169  1  0.55775410  0.11881100  0.77843569  1
  O2-  O170  1  0.55976932  0.43564043  0.26915102  1
  O2-  O171  1  0.56237920  0.45102108  0.80096166  1
  O2-  O172  1  0.55666613  0.78560689  0.27801637  1
  O2-  O173  1  0.56159968  0.78583522  0.78682277  1
  O2-  O174  1  0.87694534  0.10729810  0.28349751  1
  O2-  O175  1  0.87845639  0.12510505  0.78749034  1
  O2-  O176  1  0.89444682  0.42914758  0.28468340  1
  O2-  O177  1  0.91177159  0.40532587  0.81071903  1
  O2-  O178  1  0.89284728  0.79279937  0.26837529  1
  O2-  O179  1  0.90713666  0.81094486  0.78708601  1
  O2-  O180  1  0.21878595  0.11651541  0.47523192  1
  O2-  O181  1  0.23415665  0.12882444  0.97673821  1
  O2-  O182  1  0.25396813  0.46600591  0.48415191  1
  O2-  O183  1  0.20383762  0.44224985  0.97176865  1
  O2-  O184  1  0.22838333  0.79694576  0.47446157  1
  O2-  O185  1  0.21471461  0.77608553  0.97752803  1
  O2-  O186  1  0.55217001  0.10846493  0.46178994  1
  O2-  O187  1  0.55831972  0.13144986  0.96185053  1
  O2-  O188  1  0.56948442  0.45121293  0.45253686  1
  O2-  O189  1  0.52487131  0.43222405  0.97706850  1
  O2-  O190  1  0.62761251  0.79597412  0.46380206  1
  O2-  O191  1  0.55392331  0.76816053  0.96260094  1
  O2-  O192  1  0.87846934  0.09787282  0.46410635  1
  O2-  O193  1  0.87460542  0.09989864  0.96546648  1
  O2-  O194  1  0.93373837  0.47553737  0.46506617  1
  O2-  O195  1  0.87618819  0.43143832  0.99661845  1
  O2-  O196  1  0.89800151  0.79455425  0.45407919  1
  O2-  O197  1  0.91888093  0.83375394  0.97454254  1
  O2-  O198  1  0.08780023  0.20209873  0.01043767  1
  O2-  O199  1  0.11152969  0.23408554  0.53481282  1
  O2-  O200  1  0.10736192  0.55922031  0.03802552  1
  O2-  O201  1  0.13865369  0.57532107  0.53015232  1
  O2-  O202  1  0.13303465  0.90207914  0.02079317  1
  O2-  O203  1  0.11015713  0.90020051  0.53727904  1
  O2-  O204  1  0.43250882  0.23785482  0.05010534  1
  O2-  O205  1  0.45197446  0.22305167  0.50805045  1
  O2-  O206  1  0.43633800  0.56767882  0.02344598  1
  O2-  O207  1  0.49256773  0.58481084  0.52566389  1
  O2-  O208  1  0.44082321  0.91738688  0.03054092  1
  O2-  O209  1  0.44785443  0.90604135  0.53618143  1
  O2-  O210  1  0.77721039  0.20639164  0.03303170  1
  O2-  O211  1  0.76820316  0.19409678  0.52613044  1
  O2-  O212  1  0.74827841  0.54725625  0.00109845  1
  O2-  O213  1  0.79723032  0.57070590  0.44220646  1
  O2-  O214  1  0.75741211  0.88910189  0.02150433  1
  O2-  O215  1  0.73560230  0.85388626  0.49878687  1
