# generated using pymatgen
data_H2O
_symmetry_space_group_name_H-M   'P 1'
_cell_length_a   13.51886922
_cell_length_b   13.50582304
_cell_length_c   14.69029933
_cell_angle_alpha   90.01792195
_cell_angle_beta   89.98785643
_cell_angle_gamma   119.94003693
_symmetry_Int_Tables_number   1
_chemical_formula_structural   H2O
_chemical_formula_sum   'H144 O72'
_cell_volume   2324.26034259
_cell_formula_units_Z   72
loop_
 _symmetry_equiv_pos_site_id
 _symmetry_equiv_pos_as_xyz
  1  'x, y, z'
loop_
 _atom_type_symbol
 _atom_type_oxidation_number
  H+  1.0
  O2-  -2.0
loop_
 _atom_site_type_symbol
 _atom_site_label
 _atom_site_symmetry_multiplicity
 _atom_site_fract_x
 _atom_site_fract_y
 _atom_site_fract_z
 _atom_site_occupancy
  H+  H0  1  0.15210445  0.80920575  0.78108208  1
  H+  H1  1  0.63697007  0.81619146  0.26483884  1
  H+  H2  1  0.01879540  0.16499745  0.50813211  1
  H+  H3  1  0.18194985  0.35525549  0.75020828  1
  H+  H4  1  0.17703260  0.48177113  -0.00291146  1
  H+  H5  1  0.39365668  0.57652537  0.52334122  1
  H+  H6  1  0.84389341  0.79687879  0.98437425  1
  H+  H7  1  0.51911378  0.81766143  0.26615235  1
  H+  H8  1  0.18474221  0.15474585  0.26464253  1
  H+  H9  1  0.51539318  0.48775964  -0.00310193  1
  H+  H10  1  0.82332753  0.85269770  0.27153704  1
  H+  H11  1  0.87804393  0.84294874  0.72731121  1
  H+  H12  1  0.79054846  0.64153029  0.73392039  1
  H+  H13  1  0.30137978  0.81920290  0.27288798  1
  H+  H14  1  0.15618304  0.63723964  0.26115260  1
  H+  H15  1  1.00981978  0.18815753  1.00403447  1
  H+  H16  1  0.80701344  0.32015866  0.50471342  1
  H+  H17  1  0.84533192  0.21320716  0.01590728  1
  H+  H18  1  0.63343314  0.48673566  0.99604620  1
  H+  H19  1  0.48346607  0.30607271  0.01978407  1
  H+  H20  1  0.50517385  0.98997535  0.49538843  1
  H+  H21  1  0.17595184  0.02627963  0.48902575  1
  H+  H22  1  0.30540119  0.15678529  0.26850701  1
  H+  H23  1  0.51342679  0.16099116  0.26023837  1
  H+  H24  1  0.46908805  0.62429320  0.24121929  1
  H+  H25  1  0.14978128  0.30349884  0.25403263  1
  H+  H26  1  0.54581178  0.84138615  0.48374986  1
  H+  H27  1  0.81658683  0.63642873  -0.00274896  1
  H+  H28  1  0.85332654  0.70218815  0.27343692  1
  H+  H29  1  0.16866106  0.19693034  1.01070056  1
  H+  H30  1  0.87346893  0.51772661  0.49448743  1
  H+  H31  1  0.03634885  0.89114797  0.71080850  1
  H+  H32  1  0.81348301  0.19357789  0.72969702  1
  H+  H33  1  0.19698503  0.15365463  0.74872369  1
  H+  H34  1  0.50786788  0.70845253  1.05237869  1
  H+  H35  1  0.48772278  0.30900404  0.51484855  1
  H+  H36  1  0.96807827  0.15849532  0.26511497  1
  H+  H37  1  0.85064401  1.04010567  0.26995872  1
  H+  H38  1  0.03632419  0.82104619  -0.02005299  1
  H+  H39  1  0.55379632  0.11610466  0.39435580  1
  H+  H40  1  0.65235569  0.17018670  0.00865345  1
  H+  H41  1  0.31908011  0.81907511  0.49593170  1
  H+  H42  1  0.20059554  0.67017966  0.00196121  1
  H+  H43  1  0.83841802  0.52402628  0.24028223  1
  H+  H44  1  0.48559244  0.29737485  0.73971169  1
  H+  H45  1  0.52245665  0.83421968  1.05568995  1
  H+  H46  1  0.81899546  0.19262290  0.24883785  1
  H+  H47  1  0.53021538  0.05192212  0.76958014  1
  H+  H48  1  0.63771735  0.16338894  0.48243171  1
  H+  H49  1  0.94398731  0.74620886  0.77383130  1
  H+  H50  1  0.79700951  0.92918423  0.02094470  1
  H+  H51  1  0.48235703  0.97150547  0.25229625  1
  H+  H52  1  0.44889223  0.67352896  0.73320806  1
  H+  H53  1  0.69299225  0.19140119  0.73223253  1
  H+  H54  1  0.15375521  0.51419249  0.26473319  1
  H+  H55  1  0.84539408  0.50163029  -0.01872700  1
  H+  H56  1  0.72993817  0.84964584  0.50072501  1
  H+  H57  1  0.48560292  0.18957940  1.02482869  1
  H+  H58  1  0.87220948  0.95871301  0.71360178  1
  H+  H59  1  0.26294532  0.80259933  0.78404164  1
  H+  H60  1  0.14903869  0.49294358  0.72972066  1
  H+  H61  1  0.04657210  0.51724126  0.50651767  1
  H+  H62  1  0.47330873  0.31358833  0.25435354  1
  H+  H63  1  0.57322900  0.78683310  0.39683399  1
  H+  H64  1  0.49306933  0.19291168  0.51121705  1
  H+  H65  1  0.47913283  0.49475059  0.75693035  1
  H+  H66  1  0.85347269  0.37373541  0.27010935  1
  H+  H67  1  0.86448163  1.01789416  0.48724466  1
  H+  H68  1  0.96967846  0.81866183  0.28302913  1
  H+  H69  1  0.15824859  0.49528071  0.50549393  1
  H+  H70  1  0.42892655  0.83994822  0.72222526  1
  H+  H71  1  0.54539058  0.05258522  0.98045265  1
  H+  H72  1  1.04849239  0.18871093  0.73284175  1
  H+  H73  1  0.68794132  0.80758130  0.76957192  1
  H+  H74  1  0.96887828  0.53624404  0.94360256  1
  H+  H75  1  0.36615060  0.52413334  0.01099432  1
  H+  H76  1  0.16276297  0.98217049  0.73440005  1
  H+  H77  1  0.52605449  0.16527347  0.75279110  1
  H+  H78  1  0.51939684  0.49298179  0.49356641  1
  H+  H79  1  0.13592740  0.29207842  0.50138730  1
  H+  H80  1  0.84819951  0.36421038  0.73800207  1
  H+  H81  1  0.71881267  0.51393664  0.22432228  1
  H+  H82  1  0.31439398  0.15137015  0.75223505  1
  H+  H83  1  0.35125671  0.82932135  0.01591920  1
  H+  H84  1  0.66857770  0.79293759  0.72106426  1
  H+  H85  1  0.97080117  0.27080789  0.80203517  1
  H+  H86  1  0.30760578  0.16704676  0.98960949  1
  H+  H87  1  0.29079350  0.47898002  0.27096781  1
  H+  H88  1  0.17393476  0.86798902  0.50588367  1
  H+  H89  1  0.63271594  0.16060910  0.25701294  1
  H+  H90  1  0.20168116  0.69853953  0.50120068  1
  H+  H91  1  0.14345384  0.84727992  0.25404686  1
  H+  H92  1  0.16727940  0.31624119  0.01870406  1
  H+  H93  1  0.89374359  0.07116375  0.99406101  1
  H+  H94  1  0.21636760  0.44597960  0.90432063  1
  H+  H95  1  0.58975717  0.48892079  0.28857124  1
  H+  H96  1  1.01988104  0.49106994  0.72612436  1
  H+  H97  1  0.02290442  0.49634479  0.05152342  1
  H+  H98  1  0.83597221  0.32573594  1.00870128  1
  H+  H99  1  0.68566370  0.82698126  0.05987158  1
  H+  H100  1  0.11883960  0.22873018  0.16268559  1
  H+  H101  1  0.29796776  0.47258188  0.75893257  1
  H+  H102  1  0.52092448  0.67690890  0.51190315  1
  H+  H103  1  0.16171226  0.15099786  0.48764606  1
  H+  H104  1  0.46676133  0.71883475  0.63567987  1
  H+  H105  1  0.43956714  0.23041254  0.16522981  1
  H+  H106  1  0.27231390  0.43237985  0.48884346  1
  H+  H107  1  0.89170412  0.11616916  0.41395534  1
  H+  H108  1  0.14309730  0.96384465  0.24715646  1
  H+  H109  1  0.79145220  0.88506372  0.17625784  1
  H+  H110  1  0.23338789  0.13257836  0.89795871  1
  H+  H111  1  0.37444461  0.91517391  0.68668989  1
  H+  H112  1  0.45923082  0.49775033  0.24740971  1
  H+  H113  1  0.20978846  0.43317495  0.36421168  1
  H+  H114  1  0.76669919  0.23098577  0.58523601  1
  H+  H115  1  0.88984483  0.44881961  0.82442941  1
  H+  H116  1  0.22324555  0.77755886  0.36114384  1
  H+  H117  1  0.11614111  0.21803913  0.63691100  1
  H+  H118  1  0.78940613  0.24155805  0.16012151  1
  H+  H119  1  0.43316696  0.88431436  0.16934471  1
  H+  H120  1  0.13097767  0.90772470  0.59259107  1
  H+  H121  1  0.11172382  0.53183440  0.62685661  1
  H+  H122  1  0.97588289  0.49039758  0.27225948  1
  H+  H123  1  0.40528486  0.95811157  0.05391665  1
  H+  H124  1  0.12182802  0.86748909  0.05999427  1
  H+  H125  1  0.11352354  0.54612050  0.13182837  1
  H+  H126  1  0.58631008  0.80581828  0.89154370  1
  H+  H127  1  0.56057647  0.44021315  0.85132902  1
  H+  H128  1  0.45242546  0.54155153  0.66568100  1
  H+  H129  1  0.75147329  0.58107090  0.63531895  1
  H+  H130  1  0.52227477  0.77803444  0.89193975  1
  H+  H131  1  0.89804574  0.46446310  0.40794122  1
  H+  H132  1  0.62784228  0.48633813  0.75351895  1
  H+  H133  1  0.22122752  0.74676750  0.91406387  1
  H+  H134  1  0.83304729  0.88215179  0.57074454  1
  H+  H135  1  0.21167321  0.11192175  0.39235639  1
  H+  H136  1  0.92529559  0.16358153  0.86326672  1
  H+  H137  1  0.88082140  0.73938091  0.42023115  1
  H+  H138  1  0.48842423  0.91780735  0.58596831  1
  H+  H139  1  0.51244436  0.43054642  0.39923224  1
  H+  H140  1  0.43062061  0.54629071  0.10647886  1
  H+  H141  1  0.87437302  0.75647402  0.88468671  1
  H+  H142  1  0.79006102  0.56189820  0.09064107  1
  H+  H143  1  0.45148368  0.22362262  0.64594464  1
  O2-  O144  1  0.11150637  0.22246987  0.23016118  1
  O2-  O145  1  0.12569859  0.22303961  0.70586289  1
  O2-  O146  1  0.11369326  0.55552977  0.24010999  1
  O2-  O147  1  0.10375181  0.52609054  0.69998553  1
  O2-  O148  1  0.09794863  0.88160285  0.23143680  1
  O2-  O149  1  0.11428231  0.90306207  0.70766643  1
  O2-  O150  1  0.44075675  0.22912178  0.23312921  1
  O2-  O151  1  0.44659628  0.21747616  0.71607267  1
  O2-  O152  1  0.42173741  0.54465918  0.21952531  1
  O2-  O153  1  0.43446907  0.53133907  0.73123916  1
  O2-  O154  1  0.44158388  0.88800988  0.23698945  1
  O2-  O155  1  0.41464283  0.90461470  0.73733713  1
  O2-  O156  1  0.78120122  0.23655381  0.22743164  1
  O2-  O157  1  0.77396367  0.23175336  0.70438981  1
  O2-  O158  1  0.79959761  0.56442046  0.21161714  1
  O2-  O159  1  0.73918891  0.56648805  0.70077808  1
  O2-  O160  1  0.78541695  0.89261925  0.24298362  1
  O2-  O161  1  0.89413004  0.90933980  0.68200929  1
  O2-  O162  1  0.22280051  0.11277998  0.28896604  1
  O2-  O163  1  0.23323119  0.11209366  0.77601137  1
  O2-  O164  1  0.20976313  0.43772007  0.29346609  1
  O2-  O165  1  0.21460836  0.43448764  0.77650732  1
  O2-  O166  1  0.21975537  0.77654976  0.29317618  1
  O2-  O167  1  0.18283215  0.76116589  0.80375335  1
  O2-  O168  1  0.55194174  0.11630545  0.27794649  1
  O2-  O169  1  0.57587697  0.13528466  0.77709893  1
  O2-  O170  1  0.50859531  0.43407721  0.28716228  1
  O2-  O171  1  0.55050334  0.43549778  0.78419625  1
  O2-  O172  1  0.55669558  0.77446000  0.28763606  1
  O2-  O173  1  0.45554415  0.73862547  0.69739538  1
  O2-  O174  1  0.88686199  0.12289573  0.28543757  1
  O2-  O175  1  0.93314468  0.18768343  0.79786671  1
  O2-  O176  1  0.89338897  0.45563163  0.29029114  1
  O2-  O177  1  0.90432868  0.44416333  0.75936313  1
  O2-  O178  1  0.88890694  0.77529069  0.30757565  1
  O2-  O179  1  0.87680239  0.75275373  0.78686887  1
  O2-  O180  1  0.20399924  0.10919438  0.46245924  1
  O2-  O181  1  0.23019724  0.14212339  0.96472331  1
  O2-  O182  1  0.19929687  0.42132097  0.46800131  1
  O2-  O183  1  0.22220712  0.44818573  0.97165882  1
  O2-  O184  1  0.23729244  0.77840168  0.47820839  1
  O2-  O185  1  0.26077102  0.72853011  0.96308605  1
  O2-  O186  1  0.55436242  0.11238728  0.46236078  1
  O2-  O187  1  0.56924828  0.13142446  0.99641623  1
  O2-  O188  1  0.53409961  0.43584685  0.46574805  1
  O2-  O189  1  0.55260305  0.44441923  0.97451558  1
  O2-  O190  1  0.58190988  0.79547956  0.46548413  1
  O2-  O191  1  0.55816988  0.78909196  1.07273287  1
  O2-  O192  1  0.89926497  0.10355844  0.47905826  1
  O2-  O193  1  0.92640464  0.15130416  0.97811196  1
  O2-  O194  1  0.90527782  0.46833196  0.47569534  1
  O2-  O195  1  0.89453900  0.46911200  0.95522211  1
  O2-  O196  1  0.89216087  0.71879536  0.48467518  1
  O2-  O197  1  0.87916315  0.75537298  0.95735085  1
  O2-  O198  1  0.12715145  0.23547812  0.04127055  1
  O2-  O199  1  0.10531375  0.21103923  0.52700543  1
  O2-  O200  1  0.10505203  0.53600221  0.06295404  1
  O2-  O201  1  0.12529076  0.54669618  0.53202796  1
  O2-  O202  1  0.11637794  0.84625633  -0.00399411  1
  O2-  O203  1  0.13899740  0.91397376  0.52471140  1
  O2-  O204  1  0.44109713  0.22651296  0.04439746  1
  O2-  O205  1  0.45551790  0.23068478  0.54181010  1
  O2-  O206  1  0.44351536  0.56102349  0.03872423  1
  O2-  O207  1  0.47033026  0.60149127  0.54602972  1
  O2-  O208  1  0.41905607  0.89384274  0.05210596  1
  O2-  O209  1  0.47140829  0.90745474  0.52102612  1
  O2-  O210  1  0.80129939  0.24957954  0.03762083  1
  O2-  O211  1  0.76085624  0.23759312  0.51847289  1
  O2-  O212  1  0.77731863  0.55421373  0.02377881  1
  O2-  O213  1  0.81217733  0.60958732  0.50080133  1
  O2-  O214  1  0.77269386  0.86018195  0.05643038  1
  O2-  O215  1  0.81358640  0.88563914  0.50601411  1
