# generated using pymatgen
data_H2O
_symmetry_space_group_name_H-M   'P 1'
_cell_length_a   13.50719527
_cell_length_b   13.50212466
_cell_length_c   14.68370573
_cell_angle_alpha   90.01817006
_cell_angle_beta   89.97081421
_cell_angle_gamma   119.94446558
_symmetry_Int_Tables_number   1
_chemical_formula_structural   H2O
_chemical_formula_sum   'H144 O72'
_cell_volume   2320.47181861
_cell_formula_units_Z   72
loop_
 _symmetry_equiv_pos_site_id
 _symmetry_equiv_pos_as_xyz
  1  'x, y, z'
loop_
 _atom_type_symbol
 _atom_type_oxidation_number
  H+  1.0
  O2-  -2.0
loop_
 _atom_site_type_symbol
 _atom_site_label
 _atom_site_symmetry_multiplicity
 _atom_site_fract_x
 _atom_site_fract_y
 _atom_site_fract_z
 _atom_site_occupancy
  H+  H0  1  0.16452117  0.50158132  0.22618939  1
  H+  H1  1  0.84015473  0.38230730  0.49480528  1
  H+  H2  1  0.83292765  0.15327380  0.24003868  1
  H+  H3  1  0.47107359  0.84888168  0.50284081  1
  H+  H4  1  0.56458601  0.80070771  0.83714093  1
  H+  H5  1  0.15650578  0.64082298  0.01322819  1
  H+  H6  1  0.12968652  0.15928047  0.24578456  1
  H+  H7  1  1.01611953  0.17090749  0.23630953  1
  H+  H8  1  0.69583566  0.19584415  0.51662384  1
  H+  H9  1  0.54677131  0.48979187  0.77096203  1
  H+  H10  1  0.70458963  0.85923965  0.74957165  1
  H+  H11  1  0.17949463  0.34369761  0.26124092  1
  H+  H12  1  0.79809864  0.30926102  0.99925964  1
  H+  H13  1  0.29421770  0.82213804  0.49671302  1
  H+  H14  1  0.54915536  0.88358430  0.97428511  1
  H+  H15  1  0.95783207  0.49923558  0.49367391  1
  H+  H16  1  0.44936417  0.28633687  0.25558640  1
  H+  H17  1  0.16551706  0.01101414  0.27082141  1
  H+  H18  1  0.71417096  0.13404427  0.74786405  1
  H+  H19  1  0.68495428  0.41207302  0.24993208  1
  H+  H20  1  0.82639351  0.85324991  0.53315372  1
  H+  H21  1  0.78247856  0.96616787  0.26329491  1
  H+  H22  1  0.18636236  0.71709565  0.75819040  1
  H+  H23  1  0.49293414  0.68817558  0.46898044  1
  H+  H24  1  0.14498107  0.96682311  0.51851923  1
  H+  H25  1  0.29430804  0.48971185  0.49050842  1
  H+  H26  1  0.13172455  0.17753726  0.74954078  1
  H+  H27  1  0.46469624  0.15614802  0.02343930  1
  H+  H28  1  0.18662008  0.04393196  0.99160088  1
  H+  H29  1  0.36397288  0.85632899  0.73988584  1
  H+  H30  1  1.04586807  0.18851078  0.51208422  1
  H+  H31  1  0.86253225  0.82190596  0.99218757  1
  H+  H32  1  0.72687147  0.86048203  0.01365426  1
  H+  H33  1  0.62253567  0.48328474  0.50563401  1
  H+  H34  1  0.15801437  0.31267363  1.01751472  1
  H+  H35  1  0.86193836  0.70144811  0.99027089  1
  H+  H36  1  0.36265458  0.17905658  0.52606705  1
  H+  H37  1  0.00762258  0.16865124  0.73777826  1
  H+  H38  1  0.18694682  0.15417692  0.50216664  1
  H+  H39  1  0.10662800  0.45432923  0.77784389  1
  H+  H40  1  0.31520092  0.84478496  0.98645363  1
  H+  H41  1  0.82491968  0.51715290  0.00535047  1
  H+  H42  1  0.83570011  0.46084403  0.76269710  1
  H+  H43  1  0.71701460  0.86984437  0.54498790  1
  H+  H44  1  0.49508267  -0.00602906  0.22752294  1
  H+  H45  1  0.18594794  0.83561245  0.76346466  1
  H+  H46  1  0.42629440  0.21252346  0.16297100  1
  H+  H47  1  0.85435827  0.81767601  0.77112342  1
  H+  H48  1  0.47778459  0.51540391  0.50338535  1
  H+  H49  1  0.50321991  0.15252907  0.26575489  1
  H+  H50  1  0.67848789  0.27583206  0.03512543  1
  H+  H51  1  0.90249753  0.39274794  0.75143481  1
  H+  H52  1  0.87084440  0.03241273  0.49122366  1
  H+  H53  1  0.82467729  0.03867044  0.76310153  1
  H+  H54  1  0.14494464  0.64168721  0.50233746  1
  H+  H55  1  0.91253984  0.53917356  0.25511089  1
  H+  H56  1  0.48718360  0.96921713  0.74004355  1
  H+  H57  1  0.42686351  0.53457377  0.72682976  1
  H+  H58  1  0.51357877  0.48013111  0.99493514  1
  H+  H59  1  0.59802523  0.79921521  0.42383264  1
  H+  H60  1  0.70643188  0.47475966  0.25530045  1
  H+  H61  1  0.51376230  0.03564938  0.49177217  1
  H+  H62  1  0.03966571  0.85884950  0.00399164  1
  H+  H63  1  0.70925142  0.51131869  0.75768132  1
  H+  H64  1  0.80605722  0.52276068  0.51642683  1
  H+  H65  1  0.51535726  0.82183832  0.74545667  1
  H+  H66  1  0.10424634  0.33515656  0.77894918  1
  H+  H67  1  0.27801789  0.44391153  0.71232403  1
  H+  H68  1  0.95633259  0.84776741  0.28698974  1
  H+  H69  1  0.97546860  0.48311538  0.98932674  1
  H+  H70  1  0.51364251  0.15347716  0.49575870  1
  H+  H71  1  0.78319134  0.21866860  0.59719010  1
  H+  H72  1  0.84762949  0.97031312  0.00565629  1
  H+  H73  1  0.46512088  0.62737298  0.21861189  1
  H+  H74  1  0.18080820  0.48792133  -0.00012821  1
  H+  H75  1  0.78320005  0.85008931  0.27991475  1
  H+  H76  1  0.12193479  0.57466602  0.63873171  1
  H+  H77  1  0.16175554  0.86575404  0.00691152  1
  H+  H78  1  0.68474115  0.17597853  0.23281244  1
  H+  H79  1  0.28203044  0.13038437  0.26663490  1
  H+  H80  1  0.28716149  0.50208246  0.69915726  1
  H+  H81  1  0.19195130  0.16585970  0.99576315  1
  H+  H82  1  0.19219688  0.83989211  0.26095190  1
  H+  H83  1  0.82589270  0.63209394  0.75207059  1
  H+  H84  1  0.21814281  0.10511676  0.41379170  1
  H+  H85  1  0.51881643  0.36330125  1.00349990  1
  H+  H86  1  0.53106832  0.65874889  0.73268760  1
  H+  H87  1  1.03406418  0.85681120  0.74928803  1
  H+  H88  1  0.52836684  0.14586479  0.77227600  1
  H+  H89  1  0.86153823  0.68109966  0.23522304  1
  H+  H90  1  0.60193335  0.81479745  0.25112146  1
  H+  H91  1  0.60081203  0.09791172  1.00411977  1
  H+  H92  1  0.02523503  0.78115120  0.20113095  1
  H+  H93  1  0.83857329  0.69825186  0.51412097  1
  H+  H94  1  0.70728751  0.51942430  0.01605663  1
  H+  H95  1  0.36106094  0.17936786  0.01460199  1
  H+  H96  1  0.22374183  0.59866196  0.70231072  1
  H+  H97  1  0.96234837  0.81604258  0.51307557  1
  H+  H98  1  0.11926478  0.55595103  0.10047440  1
  H+  H99  1  0.31544699  0.85296304  0.25882208  1
  H+  H100  1  0.14425492  0.84766595  0.51582060  1
  H+  H101  1  1.05720259  0.51940384  0.23699857  1
  H+  H102  1  0.48210202  0.86753876  0.20965407  1
  H+  H103  1  0.35595173  0.50311934  0.23043335  1
  H+  H104  1  0.48284027  0.46794087  0.26888064  1
  H+  H105  1  0.88755326  0.14586108  0.93480495  1
  H+  H106  1  -0.00483090  0.15285230  -0.01620008  1
  H+  H107  1  0.18542297  0.04470232  0.76520801  1
  H+  H108  1  0.44576310  0.21769428  0.61384833  1
  H+  H109  1  0.54702335  0.08526422  0.85800833  1
  H+  H110  1  0.50543780  0.36229008  0.51001775  1
  H+  H111  1  0.95903678  0.05925991  0.41431343  1
  H+  H112  1  0.11549294  0.22481164  0.10361809  1
  H+  H113  1  0.11151737  0.89680224  0.65930637  1
  H+  H114  1  0.14054320  0.51997980  0.50292869  1
  H+  H115  1  0.87856273  0.12600920  0.33246873  1
  H+  H116  1  0.36151622  0.50507884  0.99452795  1
  H+  H117  1  0.17943866  0.36998420  0.49673097  1
  H+  H118  1  0.55137170  0.11437271  0.35104895  1
  H+  H119  1  0.44223587  0.89111093  0.59716743  1
  H+  H120  1  0.46803188  0.94074650  0.09347191  1
  H+  H121  1  0.10489650  0.88781513  0.14191767  1
  H+  H122  1  0.76960131  0.55458534  0.61130559  1
  H+  H123  1  0.22392032  0.79560622  0.40488847  1
  H+  H124  1  0.51439197  0.42736562  0.36332341  1
  H+  H125  1  0.90910888  0.47418926  0.34584020  1
  H+  H126  1  0.85324470  0.61903795  0.13943588  1
  H+  H127  1  0.43608654  0.54301859  0.08375267  1
  H+  H128  1  0.11246093  0.22734742  0.60720376  1
  H+  H129  1  0.89801589  0.77700135  0.85619921  1
  H+  H130  1  0.49726601  0.29666421  0.75734395  1
  H+  H131  1  0.37443277  0.18373712  0.75561514  1
  H+  H132  1  0.89128589  0.43517184  0.90066792  1
  H+  H133  1  0.79987485  0.90836940  0.67300814  1
  H+  H134  1  0.22040381  0.43037202  0.34668432  1
  H+  H135  1  0.49192087  0.76160230  0.31211424  1
  H+  H136  1  0.46296779  0.57775616  0.58754860  1
  H+  H137  1  0.17914558  0.42440537  0.91074634  1
  H+  H138  1  0.56659544  0.44023081  0.86581963  1
  H+  H139  1  0.75430109  0.21408898  0.13959092  1
  H+  H140  1  0.66378947  0.94124179  0.92122279  1
  H+  H141  1  0.22533147  0.12524566  0.85325599  1
  H+  H142  1  0.88127221  0.79091143  0.37601166  1
  H+  H143  1  0.23057710  0.79383295  0.90272353  1
  O2-  O144  1  0.09939190  0.20716619  0.22026862  1
  O2-  O145  1  0.08937706  0.21297380  0.72117555  1
  O2-  O146  1  0.13156263  0.54809366  0.20392241  1
  O2-  O147  1  0.14607008  0.58563414  0.70533492  1
  O2-  O148  1  0.08674504  0.86316719  0.20757105  1
  O2-  O149  1  0.11525902  0.90160886  0.72738723  1
  O2-  O150  1  0.41806354  0.20565536  0.23042160  1
  O2-  O151  1  0.45509026  0.21615460  0.73436862  1
  O2-  O152  1  0.43534696  0.54515118  0.20497114  1
  O2-  O153  1  0.50645839  0.58037964  0.70725196  1
  O2-  O154  1  0.45527112  0.92192719  0.18934619  1
  O2-  O155  1  0.44320841  0.88995788  0.71411411  1
  O2-  O156  1  0.76171088  0.20570105  0.20544165  1
  O2-  O157  1  0.77290635  0.13501425  0.70655406  1
  O2-  O158  1  0.89938572  0.65044090  0.19586787  1
  O2-  O159  1  0.78614220  0.55230744  0.72767205  1
  O2-  O160  1  0.73254006  0.88355739  0.27764224  1
  O2-  O161  1  0.78943241  0.90336305  0.74041130  1
  O2-  O162  1  0.20216897  0.09031953  0.29298373  1
  O2-  O163  1  0.22489913  0.12646077  0.78484244  1
  O2-  O164  1  0.22548226  0.42579418  0.27949288  1
  O2-  O165  1  0.09723020  0.39161199  0.81756176  1
  O2-  O166  1  0.24732210  0.82818913  0.29703730  1
  O2-  O167  1  0.22796897  0.79558192  0.78451858  1
  O2-  O168  1  0.54867969  0.11499936  0.28287489  1
  O2-  O169  1  0.56362897  0.09949576  0.79228936  1
  O2-  O170  1  0.49770920  0.41012080  0.29790380  1
  O2-  O171  1  0.57226431  0.43853601  0.79708881  1
  O2-  O172  1  0.51492828  0.77310041  0.24742582  1
  O2-  O173  1  0.56115050  0.78745579  0.76987341  1
  O2-  O174  1  0.87654453  0.11532747  0.26612877  1
  O2-  O175  1  0.85237987  0.12340270  0.76819710  1
  O2-  O176  1  0.92933205  0.48146498  0.28066481  1
  O2-  O177  1  0.85079330  0.40287099  0.79150001  1
  O2-  O178  1  0.87748450  0.79976810  0.30864680  1
  O2-  O179  1  0.89526326  0.77600626  0.78714951  1
  O2-  O180  1  0.22183085  0.10760682  0.48173255  1
  O2-  O181  1  0.23118786  0.12508964  0.96992279  1
  O2-  O182  1  0.21370402  0.44810300  0.46917904  1
  O2-  O183  1  0.21316306  0.44109672  0.97355423  1
  O2-  O184  1  0.21423594  0.78231949  0.47287588  1
  O2-  O185  1  0.23344637  0.79703591  0.97076107  1
  O2-  O186  1  0.55487846  0.11608848  0.46929944  1
  O2-  O187  1  0.51908476  0.05716620  0.98468042  1
  O2-  O188  1  0.54102160  0.44184163  0.48514492  1
  O2-  O189  1  0.56135203  0.44225731  0.97923039  1
  O2-  O190  1  0.51776643  0.76556668  0.44084308  1
  O2-  O191  1  0.60408674  0.86624448  0.94179450  1
  O2-  O192  1  0.92500992  0.09534425  0.45033694  1
  O2-  O193  1  0.92127393  0.09975560  0.95255891  1
  O2-  O194  1  0.87751417  0.46293190  0.47177936  1
  O2-  O195  1  0.89374925  0.44228604  0.96883949  1
  O2-  O196  1  0.88018924  0.78100464  0.49375313  1
  O2-  O197  1  0.90400222  0.78180531  0.96706123  1
  O2-  O198  1  0.12248249  0.22955536  0.03582232  1
  O2-  O199  1  0.12366846  0.23263354  0.53936350  1
  O2-  O200  1  0.11404480  0.55931001  0.03047961  1
  O2-  O201  1  0.10305875  0.56205440  0.52799020  1
  O2-  O202  1  0.11972838  0.90506210  0.02857448  1
  O2-  O203  1  0.10299955  0.88628826  0.54162916  1
  O2-  O204  1  0.43986704  0.21063180  0.04180618  1
  O2-  O205  1  0.44416405  0.22182473  0.54593210  1
  O2-  O206  1  0.44195364  0.54167287  0.01620989  1
  O2-  O207  1  0.44336467  0.56432179  0.52192669  1
  O2-  O208  1  0.47025769  0.93888808  0.01932718  1
  O2-  O209  1  0.43739309  0.89318420  0.52919323  1
  O2-  O210  1  0.72498347  0.24086336  0.02182218  1
  O2-  O211  1  0.77544105  0.24682728  0.53757701  1
  O2-  O212  1  0.79077863  0.56245303  0.03018460  1
  O2-  O213  1  0.76444400  0.56072835  0.54355492  1
  O2-  O214  1  0.80668442  0.89184756  0.03254393  1
  O2-  O215  1  0.79898462  0.90734556  0.55590631  1
