# generated using pymatgen
data_H2O
_symmetry_space_group_name_H-M   'P 1'
_cell_length_a   13.52061802
_cell_length_b   13.51133787
_cell_length_c   14.70772326
_cell_angle_alpha   90.05918151
_cell_angle_beta   89.97289335
_cell_angle_gamma   119.99970380
_symmetry_Int_Tables_number   1
_chemical_formula_structural   H2O
_chemical_formula_sum   'H144 O72'
_cell_volume   2326.86958502
_cell_formula_units_Z   72
loop_
 _symmetry_equiv_pos_site_id
 _symmetry_equiv_pos_as_xyz
  1  'x, y, z'
loop_
 _atom_type_symbol
 _atom_type_oxidation_number
  H+  1.0
  O2-  -2.0
loop_
 _atom_site_type_symbol
 _atom_site_label
 _atom_site_symmetry_multiplicity
 _atom_site_fract_x
 _atom_site_fract_y
 _atom_site_fract_z
 _atom_site_occupancy
  H+  H0  1  1.03118889  0.16779731  1.00321819  1
  H+  H1  1  0.71599151  0.66731512  0.18236903  1
  H+  H2  1  0.16079052  0.85306853  0.76448416  1
  H+  H3  1  0.11484428  0.81494602  0.05585321  1
  H+  H4  1  0.54741109  0.77735909  0.85734278  1
  H+  H5  1  0.31961214  0.94171421  0.82138976  1
  H+  H6  1  0.15996586  0.52691494  0.21663087  1
  H+  H7  1  0.51182860  0.00345422  0.26109454  1
  H+  H8  1  1.03909098  0.87138276  0.25952987  1
  H+  H9  1  0.72077367  0.53329917  0.51249906  1
  H+  H10  1  0.11411629  0.28721281  0.56323007  1
  H+  H11  1  0.37445913  0.51619794  0.49385919  1
  H+  H12  1  0.52386891  0.14534571  0.99728660  1
  H+  H13  1  0.83282858  0.19176785  0.51704794  1
  H+  H14  1  0.83441720  0.52864988  0.50959832  1
  H+  H15  1  0.17759023  0.07118687  0.46513856  1
  H+  H16  1  0.48676563  0.83699271  0.23214532  1
  H+  H17  1  0.18334538  0.82603887  0.22078278  1
  H+  H18  1  0.19456011  0.36101410  0.45829486  1
  H+  H19  1  0.85471999  0.67476193  0.76518026  1
  H+  H20  1  0.83680122  0.78084469  0.79464633  1
  H+  H21  1  0.31361791  0.49835818  0.24176780  1
  H+  H22  1  0.97165881  0.34996100  0.30966980  1
  H+  H23  1  0.26467472  0.83075163  0.99919770  1
  H+  H24  1  0.93027716  0.02599220  0.44356228  1
  H+  H25  1  0.20382776  0.13438145  0.98852588  1
  H+  H26  1  0.80465500  0.87679079  0.51644847  1
  H+  H27  1  0.87902670  0.43599274  0.85156267  1
  H+  H28  1  0.16571829  0.93837251  0.54659263  1
  H+  H29  1  0.29487937  0.81491228  0.20400158  1
  H+  H30  1  0.63324187  0.51740945  -0.00936554  1
  H+  H31  1  0.11057072  0.51464135  0.59527299  1
  H+  H32  1  1.01131355  0.83286541  1.03153005  1
  H+  H33  1  0.62140948  0.82739416  0.49085175  1
  H+  H34  1  0.37492260  0.79984045  -0.01854534  1
  H+  H35  1  0.18842527  0.19154618  0.48803888  1
  H+  H36  1  0.47963262  0.17026657  0.73232735  1
  H+  H37  1  0.79399843  0.32857178  0.98887869  1
  H+  H38  1  0.64385151  0.52758605  0.25036896  1
  H+  H39  1  0.34713925  0.83252802  0.53797483  1
  H+  H40  1  0.49850589  0.81538069  0.48739119  1
  H+  H41  1  0.16125968  0.77788064  0.55502815  1
  H+  H42  1  0.81926410  0.98174150  0.23794782  1
  H+  H43  1  0.64010940  0.81956095  0.77673524  1
  H+  H44  1  0.17370899  0.63544206  -0.01138246  1
  H+  H45  1  0.81478802  0.47742183  0.24260543  1
  H+  H46  1  0.48642454  0.63891710  0.50038524  1
  H+  H47  1  0.38194356  0.21106521  0.23152308  1
  H+  H48  1  0.83985433  0.68700531  1.00921669  1
  H+  H49  1  0.81769682  0.30909729  0.74344622  1
  H+  H50  1  0.83933000  0.15189723  0.25358474  1
  H+  H51  1  0.02052949  0.16429963  0.73590212  1
  H+  H52  1  0.72079473  0.36753055  0.93349542  1
  H+  H53  1  -0.02363733  0.47426126  0.49238388  1
  H+  H54  1  0.70254476  0.85964999  0.24404585  1
  H+  H55  1  0.45068455  0.56651536  0.14842823  1
  H+  H56  1  0.68099512  0.15843126  0.01225305  1
  H+  H57  1  0.15951307  0.51329712  0.74243413  1
  H+  H58  1  0.36938800  0.19575451  0.50212525  1
  H+  H59  1  -0.00548225  0.15520066  0.47961706  1
  H+  H60  1  0.79872106  0.98673762  0.51554982  1
  H+  H61  1  0.15906494  0.49419533  0.49883802  1
  H+  H62  1  0.85072545  0.90760049  0.72165805  1
  H+  H63  1  0.17809953  0.13434323  0.75455840  1
  H+  H64  1  0.80856743  0.28227252  0.23860233  1
  H+  H65  1  0.35684530  0.51902553  1.01303364  1
  H+  H66  1  0.39319513  0.18334192  0.00839927  1
  H+  H67  1  0.02834926  0.82900308  0.76684049  1
  H+  H68  1  0.11408606  0.21544403  0.08731966  1
  H+  H69  1  0.14163827  0.63546269  0.20405497  1
  H+  H70  1  0.97185326  0.86626945  0.49967360  1
  H+  H71  1  0.18398879  0.35903059  0.98346718  1
  H+  H72  1  0.52190962  0.69967382  0.25716031  1
  H+  H73  1  0.81855137  0.84718927  1.01377221  1
  H+  H74  1  0.85083954  0.17121583  0.76699910  1
  H+  H75  1  0.15444581  0.19955465  0.23160355  1
  H+  H76  1  0.48818913  0.13514945  0.48118628  1
  H+  H77  1  0.35809911  0.16482225  0.72945087  1
  H+  H78  1  0.83569921  0.52083443  0.73610289  1
  H+  H79  1  0.82721194  0.50766972  0.28759390  1
  H+  H80  1  0.52801617  1.03154465  0.75525744  1
  H+  H81  1  0.99476282  0.45997863  0.25634918  1
  H+  H82  1  0.49048533  0.52441232  0.23906296  1
  H+  H83  1  0.18091400  0.47843827  -0.01667451  1
  H+  H84  1  1.03477068  0.19874133  0.22929457  1
  H+  H85  1  0.86216497  0.84443349  0.26920995  1
  H+  H86  1  0.84019700  0.04957647  0.76709156  1
  H+  H87  1  0.97433846  0.47862481  0.76918067  1
  H+  H88  1  0.49425267  0.34721175  0.76411101  1
  H+  H89  1  0.49519987  0.46474820  0.75847252  1
  H+  H90  1  0.47948489  0.69209089  1.00448692  1
  H+  H91  1  0.30848525  0.50049302  0.75670516  1
  H+  H92  1  0.82858231  0.30626414  0.51438873  1
  H+  H93  1  0.47939988  1.00542745  0.49072205  1
  H+  H94  1  0.19149316  0.37995264  0.23781261  1
  H+  H95  1  0.09261416  0.86639591  0.62926517  1
  H+  H96  1  0.49702452  0.84692574  0.74189561  1
  H+  H97  1  0.62566113  0.12849701  0.27039068  1
  H+  H98  1  0.23710825  0.45209032  0.37518110  1
  H+  H99  1  0.78155302  0.22797102  0.65470517  1
  H+  H100  1  0.80778064  0.17061883  0.01799073  1
  H+  H101  1  0.84287394  1.02294097  -0.00443171  1
  H+  H102  1  0.53015733  0.49277398  0.49034651  1
  H+  H103  1  0.17721720  0.66898748  0.54033004  1
  H+  H104  1  0.50042268  0.32581261  0.23422552  1
  H+  H105  1  0.46603694  0.87407818  0.13570766  1
  H+  H106  1  0.18856187  0.05590886  0.25765230  1
  H+  H107  1  0.10484402  0.90571636  0.16516988  1
  H+  H108  1  0.89217211  0.76112987  0.91910846  1
  H+  H109  1  0.08609262  0.17354408  0.64249127  1
  H+  H110  1  0.22174623  0.84309626  0.38391699  1
  H+  H111  1  0.44787744  0.56119556  0.64272368  1
  H+  H112  1  0.53363319  0.37670911  0.48807503  1
  H+  H113  1  0.48974293  0.63511856  0.73504689  1
  H+  H114  1  0.44505991  0.21504836  0.59135777  1
  H+  H115  1  0.88144298  0.11081474  0.91049615  1
  H+  H116  1  0.47059291  0.22828258  0.09769242  1
  H+  H117  1  0.80620160  0.57284165  0.64690876  1
  H+  H118  1  0.56994006  0.46598961  0.34336968  1
  H+  H119  1  0.90147042  0.43105811  0.40402346  1
  H+  H120  1  0.76051070  0.57655804  0.11587093  1
  H+  H121  1  0.14636516  0.62185505  0.71134915  1
  H+  H122  1  0.76565507  0.90961607  0.65044058  1
  H+  H123  1  0.17865004  0.01786313  0.76212315  1
  H+  H124  1  0.23215512  0.45911480  0.84794459  1
  H+  H125  1  0.53105126  0.07895166  0.38377113  1
  H+  H126  1  0.24864004  0.11135030  0.89750427  1
  H+  H127  1  0.55850785  0.10306057  0.90678199  1
  H+  H128  1  0.45298540  0.89096485  0.60254506  1
  H+  H129  1  0.54953154  0.46596456  0.90213681  1
  H+  H130  1  0.90445707  0.83697990  0.40394396  1
  H+  H131  1  0.27323977  0.83646307  0.37743633  1
  H+  H132  1  0.63718491  0.15598259  0.75883231  1
  H+  H133  1  0.27326884  0.81969298  0.87245229  1
  H+  H134  1  0.23470619  0.15037576  0.33678778  1
  H+  H135  1  0.89584739  0.11889201  0.33905514  1
  H+  H136  1  0.78005749  0.89117949  0.09896922  1
  H+  H137  1  0.84429609  0.72172049  0.26625150  1
  H+  H138  1  0.79017625  0.50772678  0.03264011  1
  H+  H139  1  0.55360949  0.77912513  0.34684790  1
  H+  H140  1  0.10919509  0.55260951  0.07109634  1
  H+  H141  1  0.48676284  0.54081729  0.00535543  1
  H+  H142  1  0.38843265  0.86627126  0.74544706  1
  H+  H143  1  0.75536228  0.20490593  0.14826055  1
  O2-  O144  1  0.11486905  0.24014008  0.20654794  1
  O2-  O145  1  0.09287251  0.17550574  0.70891159  1
  O2-  O146  1  0.10379286  0.54994992  0.19639980  1
  O2-  O147  1  0.10601499  0.53846492  0.71080765  1
  O2-  O148  1  0.11788857  0.91469271  0.23338201  1
  O2-  O149  1  0.10466700  0.87281625  0.73664887  1
  O2-  O150  1  0.46282678  0.24476049  0.21388983  1
  O2-  O151  1  0.43794315  0.20662689  0.70466791  1
  O2-  O152  1  0.45034249  0.56674702  0.21696972  1
  O2-  O153  1  0.44436270  0.55666829  0.71041091  1
  O2-  O154  1  0.45132805  0.87821647  0.20127700  1
  O2-  O155  1  0.46396262  0.89211470  0.71481827  1
  O2-  O156  1  0.75550847  0.20322486  0.21776636  1
  O2-  O157  1  0.77629719  0.22713026  0.72302902  1
  O2-  O158  1  0.74732951  0.62099009  0.20537974  1
  O2-  O159  1  0.80661076  0.57149838  0.71552182  1
  O2-  O160  1  0.78292368  0.89929398  0.22114104  1
  O2-  O161  1  0.77943349  0.90885696  0.71827075  1
  O2-  O162  1  0.22856324  0.14069090  0.26993064  1
  O2-  O163  1  0.22586642  0.10086850  0.77585712  1
  O2-  O164  1  0.23090241  0.46051577  0.26139364  1
  O2-  O165  1  0.22944222  0.46780281  0.78076863  1
  O2-  O166  1  0.21096655  0.77578422  0.19606184  1
  O2-  O167  1  0.27874276  0.86036450  0.80632943  1
  O2-  O168  1  0.54923657  0.07570163  0.29764731  1
  O2-  O169  1  0.55562253  0.11035143  0.77883459  1
  O2-  O170  1  0.56318134  0.46745657  0.27633598  1
  O2-  O171  1  0.52844396  0.42434793  0.79104463  1
  O2-  O172  1  0.56095256  0.78141135  0.27920702  1
  O2-  O173  1  0.55766351  0.77560852  0.79025864  1
  O2-  O174  1  0.89336030  0.12429268  0.27140526  1
  O2-  O175  1  0.88916547  0.12830713  0.78997838  1
  O2-  O176  1  0.93528310  0.39447168  0.29474123  1
  O2-  O177  1  0.89162555  0.44168366  0.78469803  1
  O2-  O178  1  0.89669931  0.80038725  0.29561123  1
  O2-  O179  1  0.89120730  0.75431294  0.80181447  1
  O2-  O180  1  0.23195624  0.15262848  0.46088725  1
  O2-  O181  1  0.25618628  0.10991765  0.96429437  1
  O2-  O182  1  0.23867894  0.44504110  0.44330390  1
  O2-  O183  1  0.22705376  0.44092881  0.96522977  1
  O2-  O184  1  0.21370505  0.74813093  0.56553829  1
  O2-  O185  1  0.27320003  0.77859059  0.95822209  1
  O2-  O186  1  0.51884039  0.08350783  0.45957939  1
  O2-  O187  1  0.56187975  0.10094845  0.97365231  1
  O2-  O188  1  0.57468605  0.45715218  0.46746662  1
  O2-  O189  1  0.55795899  0.49769357  0.96469567  1
  O2-  O190  1  0.54372845  0.78023612  0.46418008  1
  O2-  O191  1  0.51818940  0.77329008  0.97546174  1
  O2-  O192  1  0.91678730  0.09121307  0.45081473  1
  O2-  O193  1  0.88313507  0.10703733  0.97795268  1
  O2-  O194  1  0.89567949  0.44081845  0.47036742  1
  O2-  O195  1  0.79839667  0.39666807  0.95604532  1
  O2-  O196  1  0.91609277  0.87740287  0.46416495  1
  O2-  O197  1  0.88570390  0.76873454  0.98572828  1
  O2-  O198  1  0.11391157  0.20817399  0.01999934  1
  O2-  O199  1  0.11039380  0.23575668  0.51532830  1
  O2-  O200  1  0.12036614  0.55388933  0.00449975  1
  O2-  O201  1  0.11168358  0.52379215  0.52768096  1
  O2-  O202  1  0.09057825  0.87159422  0.05857547  1
  O2-  O203  1  0.09468197  0.86838117  0.55989757  1
  O2-  O204  1  0.47365800  0.22002143  0.03038206  1
  O2-  O205  1  0.44836451  0.21927206  0.52262039  1
  O2-  O206  1  0.43680026  0.57012515  0.03614869  1
  O2-  O207  1  0.45152714  0.55863920  0.52286514  1
  O2-  O208  1  0.46289543  0.83214235  0.01387682  1
  O2-  O209  1  0.43325979  0.88369528  0.53575195  1
  O2-  O210  1  0.76266993  0.20664444  0.03950523  1
  O2-  O211  1  0.79141315  0.22747895  0.54136403  1
  O2-  O212  1  0.76361422  0.56188097  0.04590893  1
  O2-  O213  1  0.80071913  0.57307696  0.53487192  1
  O2-  O214  1  0.78184446  0.89226883  0.03162789  1
  O2-  O215  1  0.75531917  0.90747583  0.54038466  1
