# generated using pymatgen
data_H2O
_symmetry_space_group_name_H-M   'P 1'
_cell_length_a   13.52272632
_cell_length_b   13.51465236
_cell_length_c   14.67645806
_cell_angle_alpha   90.06878006
_cell_angle_beta   90.00796866
_cell_angle_gamma   119.88461893
_symmetry_Int_Tables_number   1
_chemical_formula_structural   H2O
_chemical_formula_sum   'H144 O72'
_cell_volume   2325.54270456
_cell_formula_units_Z   72
loop_
 _symmetry_equiv_pos_site_id
 _symmetry_equiv_pos_as_xyz
  1  'x, y, z'
loop_
 _atom_type_symbol
 _atom_type_oxidation_number
  H+  1.0
  O2-  -2.0
loop_
 _atom_site_type_symbol
 _atom_site_label
 _atom_site_symmetry_multiplicity
 _atom_site_fract_x
 _atom_site_fract_y
 _atom_site_fract_z
 _atom_site_occupancy
  H+  H0  1  0.83418458  0.13916005  0.75585630  1
  H+  H1  1  0.31344012  0.49040211  0.27849509  1
  H+  H2  1  0.16938492  0.15722353  0.98038546  1
  H+  H3  1  0.81790226  0.01683661  0.26278732  1
  H+  H4  1  0.84749870  0.52115855  0.29197760  1
  H+  H5  1  0.47308510  0.29721403  0.75600697  1
  H+  H6  1  0.49756079  0.97824821  0.00791266  1
  H+  H7  1  0.63851304  0.81975380  0.97969147  1
  H+  H8  1  0.18452951  0.81307276  0.24901701  1
  H+  H9  1  0.36653072  0.52250984  -0.03967463  1
  H+  H10  1  0.12047762  0.49090083  0.52123062  1
  H+  H11  1  0.14971692  0.62712458  0.74234371  1
  H+  H12  1  0.77691184  0.28042399  0.24476054  1
  H+  H13  1  0.82047546  0.60688282  0.04825266  1
  H+  H14  1  0.30010790  0.13567757  0.27057193  1
  H+  H15  1  0.49299926  0.86910837  0.49978155  1
  H+  H16  1  0.16099481  0.51202041  0.24782134  1
  H+  H17  1  0.32647688  0.86534402  -0.02900138  1
  H+  H18  1  0.63123113  0.14902259  -0.01652079  1
  H+  H19  1  0.31886061  0.83047280  0.47174061  1
  H+  H20  1  0.69506713  0.84213874  0.25195872  1
  H+  H21  1  0.13672489  0.97890357  0.01622772  1
  H+  H22  1  1.04897665  0.52289410  0.23529168  1
  H+  H23  1  0.50226618  0.44905643  0.49770014  1
  H+  H24  1  0.76704556  0.15938164  0.23970557  1
  H+  H25  1  -0.02965250  0.47615948  0.76482826  1
  H+  H26  1  0.36881513  0.83864668  0.22686093  1
  H+  H27  1  0.86841132  0.71213667  0.30652809  1
  H+  H28  1  0.51841763  0.70583027  -0.03199442  1
  H+  H29  1  0.63491492  0.16503947  0.48029300  1
  H+  H30  1  0.51374133  1.03175981  0.75568514  1
  H+  H31  1  0.50851010  0.14415580  -0.01300484  1
  H+  H32  1  0.22919771  0.45036843  0.86285322  1
  H+  H33  1  0.29594118  0.46877462  0.73484900  1
  H+  H34  1  0.68974941  0.18120469  0.74032619  1
  H+  H35  1  0.52984702  0.48807332  0.27121623  1
  H+  H36  1  0.68509734  0.46338478  0.52188534  1
  H+  H37  1  0.44108783  0.52502098  0.61088903  1
  H+  H38  1  0.95133010  0.13650212  0.75472067  1
  H+  H39  1  0.47122672  0.28107641  0.50281079  1
  H+  H40  1  0.10040032  0.47113852  0.09688828  1
  H+  H41  1  0.46922912  0.27749253  0.25357486  1
  H+  H42  1  0.81847240  0.85378998  0.26103129  1
  H+  H43  1  0.64561161  0.49377006  1.00342625  1
  H+  H44  1  0.48114002  0.97969134  0.50137309  1
  H+  H45  1  0.83799832  0.99716260  0.49779721  1
  H+  H46  1  0.87758726  0.76859104  0.84356589  1
  H+  H47  1  0.08698801  0.29871680  0.03300827  1
  H+  H48  1  0.49530830  0.85828100  0.00097577  1
  H+  H49  1  0.20196233  0.36841079  0.26705376  1
  H+  H50  1  0.60621307  0.13425098  0.25446211  1
  H+  H51  1  0.56056702  0.75950674  0.51558481  1
  H+  H52  1  0.20230183  0.10169619  0.89751909  1
  H+  H53  1  0.55219206  0.53049378  -0.02221420  1
  H+  H54  1  0.14915502  0.95559700  0.71755553  1
  H+  H55  1  0.87503715  1.09108078  -0.10231502  1
  H+  H56  1  0.10668504  0.86658775  0.57727456  1
  H+  H57  1  0.64660984  0.48368333  0.75230832  1
  H+  H58  1  0.28788037  0.46417084  0.50542870  1
  H+  H59  1  0.81375242  0.78524400  0.99241075  1
  H+  H60  1  0.03261650  0.85094707  0.01580810  1
  H+  H61  1  0.34424366  0.15397243  0.50155320  1
  H+  H62  1  0.84851579  0.36082558  0.76577596  1
  H+  H63  1  0.59271331  0.43624899  0.21578841  1
  H+  H64  1  0.75125529  0.66087092  0.95226507  1
  H+  H65  1  0.07000511  0.19096698  0.25274415  1
  H+  H66  1  0.82872479  0.51189814  0.74370465  1
  H+  H67  1  0.90886822  0.45906640  0.90684452  1
  H+  H68  1  -0.00761267  0.46014149  0.53184230  1
  H+  H69  1  0.49920621  0.64676832  0.27309813  1
  H+  H70  1  0.18014290  0.18399619  0.24548385  1
  H+  H71  1  0.73475634  0.52723076  0.29365658  1
  H+  H72  1  0.95271478  0.13498101  0.98856749  1
  H+  H73  1  0.16547900  0.12788413  0.75463510  1
  H+  H74  1  0.82466564  0.62910051  0.73403801  1
  H+  H75  1  0.55184353  0.10829804  0.84606779  1
  H+  H76  1  0.18000373  0.01766800  0.49150478  1
  H+  H77  1  0.80036822  0.16234987  0.00458556  1
  H+  H78  1  0.77076986  0.23008184  0.65295806  1
  H+  H79  1  0.18656973  0.81763531  0.47129076  1
  H+  H80  1  0.93930618  0.38455964  0.30946446  1
  H+  H81  1  0.13420483  0.28153006  0.73095223  1
  H+  H82  1  0.81502099  0.95749919  0.00957456  1
  H+  H83  1  0.46497120  0.15671594  0.24850067  1
  H+  H84  1  0.81757931  0.84761344  0.72445149  1
  H+  H85  1  0.81212671  0.96310329  0.72547654  1
  H+  H86  1  0.87206597  0.47764102  1.00605635  1
  H+  H87  1  0.47715901  0.15991839  0.49520642  1
  H+  H88  1  0.48477371  0.84626105  0.72828746  1
  H+  H89  1  0.63574399  0.81329396  0.73882722  1
  H+  H90  1  0.03933860  0.83834791  0.47935185  1
  H+  H91  1  0.35412878  0.17073528  1.00818928  1
  H+  H92  1  0.51629148  0.81661503  0.26184260  1
  H+  H93  1  0.46812527  0.58474135  0.51275460  1
  H+  H94  1  0.14327212  0.29275675  0.50893548  1
  H+  H95  1  0.49625951  1.00872100  0.25820827  1
  H+  H96  1  0.12397686  0.65969062  1.01830440  1
  H+  H97  1  0.17929656  0.68750105  0.04401759  1
  H+  H98  1  0.13914482  0.17136182  0.50552031  1
  H+  H99  1  0.18968893  0.69509944  0.24703634  1
  H+  H100  1  0.01483549  0.43763606  0.01321036  1
  H+  H101  1  0.17748066  0.02037268  0.26851479  1
  H+  H102  1  -0.03305778  0.16875174  0.48378990  1
  H+  H103  1  0.29887711  0.81031389  0.74462060  1
  H+  H104  1  0.87160744  0.84200904  0.43957584  1
  H+  H105  1  0.21069973  0.86798622  0.97605005  1
  H+  H106  1  0.90572980  0.14345954  0.23439019  1
  H+  H107  1  0.18537479  0.46019501  0.96503368  1
  H+  H108  1  0.08868129  0.19846248  0.64652820  1
  H+  H109  1  0.54957839  0.10668996  0.39241921  1
  H+  H110  1  0.42573208  0.19875710  0.09873279  1
  H+  H111  1  0.46775790  0.56809855  0.18727021  1
  H+  H112  1  0.80195553  0.90411866  0.57825367  1
  H+  H113  1  0.41991987  0.55559598  0.05779144  1
  H+  H114  1  0.21789488  0.43989454  0.41268730  1
  H+  H115  1  0.48768691  0.62736676  0.73248286  1
  H+  H116  1  0.15167594  0.83909308  0.71716562  1
  H+  H117  1  0.23407760  0.78154883  0.37500806  1
  H+  H118  1  0.28897011  0.13938603  0.76324392  1
  H+  H119  1  0.85545833  0.38181170  0.38325104  1
  H+  H120  1  0.80213589  0.41391306  0.51646280  1
  H+  H121  1  0.96516662  0.80996833  0.75817505  1
  H+  H122  1  0.45689490  0.88609789  0.14222989  1
  H+  H123  1  0.09570610  0.54278865  0.65558676  1
  H+  H124  1  0.03599878  0.84936090  0.25610317  1
  H+  H125  1  0.75885410  0.20679852  0.08881686  1
  H+  H126  1  0.79952575  0.54444660  0.14253122  1
  H+  H127  1  0.10405066  0.88872268  0.15994182  1
  H+  H128  1  0.55092908  0.41851561  0.40782446  1
  H+  H129  1  0.67532615  0.86591332  0.48614499  1
  H+  H130  1  0.10522436  0.21930357  0.09960211  1
  H+  H131  1  0.49549665  0.51171233  0.74138323  1
  H+  H132  1  0.47043586  0.17941341  0.75081338  1
  H+  H133  1  0.56220638  0.78148851  0.83083840  1
  H+  H134  1  0.44317971  0.89032368  0.64353875  1
  H+  H135  1  0.77381746  0.88197339  0.10128862  1
  H+  H136  1  0.58425810  0.46904452  0.84608586  1
  H+  H137  1  0.17899132  0.47508164  0.73779980  1
  H+  H138  1  0.77631127  0.51570883  0.60403267  1
  H+  H139  1  0.56307296  0.79534827  0.35835787  1
  H+  H140  1  0.21799110  0.10021356  0.40521069  1
  H+  H141  1  0.88036436  0.13061945  0.39776599  1
  H+  H142  1  0.22714493  0.79607954  0.83258900  1
  H+  H143  1  0.82077725  0.21132754  0.50317578  1
  O2-  O144  1  0.14470248  0.23085220  0.22389735  1
  O2-  O145  1  0.08929908  0.19880253  0.71432159  1
  O2-  O146  1  0.12763149  0.55393214  0.21495088  1
  O2-  O147  1  0.10784852  0.54490795  0.72353852  1
  O2-  O148  1  0.11294021  0.88467615  0.22775069  1
  O2-  O149  1  0.10891551  0.87629938  0.69192194  1
  O2-  O150  1  0.42517582  0.19972525  0.22886622  1
  O2-  O151  1  0.42565128  0.21721337  0.73583390  1
  O2-  O152  1  0.46219993  0.56288827  0.25352205  1
  O2-  O153  1  0.45023287  0.54538452  0.71323803  1
  O2-  O154  1  0.45157922  0.87987731  0.21177192  1
  O2-  O155  1  0.44322270  0.88729407  0.71078359  1
  O2-  O156  1  0.73330032  0.20459406  0.21492153  1
  O2-  O157  1  0.77190383  0.22090796  0.71955568  1
  O2-  O158  1  0.81432598  0.56834162  0.27224593  1
  O2-  O159  1  0.78657625  0.54775148  0.71438529  1
  O2-  O160  1  0.77620301  0.88729742  0.23115726  1
  O2-  O161  1  0.77813800  0.88566924  0.69589553  1
  O2-  O162  1  0.21872080  0.10021927  0.29355564  1
  O2-  O163  1  0.20551322  0.08868166  0.77906923  1
  O2-  O164  1  0.23057992  0.44671376  0.29271927  1
  O2-  O165  1  0.21424971  0.42628561  0.75196299  1
  O2-  O166  1  0.22858753  0.77554174  0.27075051  1
  O2-  O167  1  0.21846318  0.77261976  0.76654361  1
  O2-  O168  1  0.52844459  0.08824649  0.28390018  1
  O2-  O169  1  0.55457830  0.11207103  0.77749907  1
  O2-  O170  1  0.56722959  0.43992779  0.27759151  1
  O2-  O171  1  0.56891054  0.45252661  0.77979851  1
  O2-  O172  1  0.55752479  0.77961864  0.29148201  1
  O2-  O173  1  0.55591736  0.77292584  0.76285432  1
  O2-  O174  1  0.84675051  0.10016794  0.27941836  1
  O2-  O175  1  0.87049127  0.09439826  0.77703184  1
  O2-  O176  1  0.87528294  0.39829457  0.31565440  1
  O2-  O177  1  0.88989026  0.44147351  0.78751631  1
  O2-  O178  1  0.90265069  0.79636272  0.31841278  1
  O2-  O179  1  0.88360549  0.77379688  0.77597407  1
  O2-  O180  1  0.22070326  0.10040611  0.47416523  1
  O2-  O181  1  0.20199937  0.10805841  0.96584572  1
  O2-  O182  1  0.20964887  0.43177426  0.48013185  1
  O2-  O183  1  0.25045708  0.46714859  0.92858729  1
  O2-  O184  1  0.23713512  0.78645102  0.44568020  1
  O2-  O185  1  0.26337030  0.86111928  0.93391992  1
  O2-  O186  1  0.55343486  0.11543575  0.46134936  1
  O2-  O187  1  0.54944968  0.10549173  0.96150700  1
  O2-  O188  1  0.54201558  0.40773003  0.47414032  1
  O2-  O189  1  0.61956380  0.52610764  0.95525466  1
  O2-  O190  1  0.58840818  0.82353656  0.47348296  1
  O2-  O191  1  0.56249142  0.78776001  0.94947419  1
  O2-  O192  1  0.88464947  0.13613642  0.46519665  1
  O2-  O193  1  0.87291808  0.08751716  0.96578842  1
  O2-  O194  1  0.84230944  0.36527834  0.49176339  1
  O2-  O195  1  0.93541432  0.48145881  0.97061898  1
  O2-  O196  1  0.90967561  0.79846552  0.41954824  1
  O2-  O197  1  0.82904281  0.72670892  0.96394949  1
  O2-  O198  1  0.08601366  0.22438469  0.03559242  1
  O2-  O199  1  0.09659751  0.20972113  0.52559821  1
  O2-  O200  1  0.07480609  0.42263997  0.04226304  1
  O2-  O201  1  0.07143635  0.52047624  0.54409241  1
  O2-  O202  1  0.10639881  0.90072395  0.04437300  1
  O2-  O203  1  0.11629168  0.87210461  0.50831312  1
  O2-  O204  1  0.43273122  0.20366292  0.03197159  1
  O2-  O205  1  0.43040037  0.19601755  0.51976581  1
  O2-  O206  1  0.44561379  0.56260080  -0.00480196  1
  O2-  O207  1  0.43076453  0.50965152  0.54091369  1
  O2-  O208  1  0.45864167  0.89724370  0.03234277  1
  O2-  O209  1  0.43943128  0.89658826  0.51743439  1
  O2-  O210  1  0.76189491  0.20578688  0.02189190  1
  O2-  O211  1  0.77278193  0.24581882  0.52370713  1
  O2-  O212  1  0.78295053  0.53056235  0.07675109  1
  O2-  O213  1  0.76540728  0.49054350  0.53825485  1
  O2-  O214  1  0.77209557  0.87699856  0.03413120  1
  O2-  O215  1  0.80285289  0.91338687  0.51014351  1
