# generated using pymatgen
data_H2O
_symmetry_space_group_name_H-M   'P 1'
_cell_length_a   13.50668860
_cell_length_b   13.51167009
_cell_length_c   14.68446346
_cell_angle_alpha   90.02407579
_cell_angle_beta   89.95905555
_cell_angle_gamma   120.02958370
_symmetry_Int_Tables_number   1
_chemical_formula_structural   H2O
_chemical_formula_sum   'H144 O72'
_cell_volume   2320.15489522
_cell_formula_units_Z   72
loop_
 _symmetry_equiv_pos_site_id
 _symmetry_equiv_pos_as_xyz
  1  'x, y, z'
loop_
 _atom_type_symbol
 _atom_type_oxidation_number
  H+  1.0
  O2-  -2.0
loop_
 _atom_site_type_symbol
 _atom_site_label
 _atom_site_symmetry_multiplicity
 _atom_site_fract_x
 _atom_site_fract_y
 _atom_site_fract_z
 _atom_site_occupancy
  H+  H0  1  0.94569361  0.47954427  0.74200707  1
  H+  H1  1  0.19895224  0.82888851  0.28039787  1
  H+  H2  1  0.85268801  0.81289841  0.97402816  1
  H+  H3  1  0.83183377  0.82217313  0.74131762  1
  H+  H4  1  0.97274561  0.14757183  0.48577582  1
  H+  H5  1  0.17816330  0.36930921  1.01125644  1
  H+  H6  1  0.68222694  0.51080388  0.28478173  1
  H+  H7  1  0.44264766  0.20640500  0.64287487  1
  H+  H8  1  0.18508793  0.69022707  -0.01441665  1
  H+  H9  1  0.83201443  0.17874852  0.51223767  1
  H+  H10  1  0.48429334  0.94994356  0.00950213  1
  H+  H11  1  0.35460714  0.49939463  0.51929347  1
  H+  H12  1  0.96665271  0.15805280  1.01315726  1
  H+  H13  1  0.18520051  0.80970770  -0.02060592  1
  H+  H14  1  0.80368537  0.62651016  0.50766168  1
  H+  H15  1  0.30218344  0.47377305  0.25387602  1
  H+  H16  1  0.82687749  0.29564615  0.51923308  1
  H+  H17  1  0.82404491  0.17971775  -0.00063976  1
  H+  H18  1  -0.02721723  0.16015682  0.23590336  1
  H+  H19  1  0.20263913  1.04197888  -0.02201983  1
  H+  H20  1  0.63243424  0.13175119  0.76347840  1
  H+  H21  1  0.90438300  0.11728283  0.33187201  1
  H+  H22  1  0.13288027  0.96394887  0.50060458  1
  H+  H23  1  0.49689451  0.78257288  0.26538196  1
  H+  H24  1  0.49155767  0.17438920  0.28710648  1
  H+  H25  1  0.79425761  0.54646865  -0.14294981  1
  H+  H26  1  0.30077105  0.80754670  0.50816491  1
  H+  H27  1  0.21416930  0.42787265  0.33769048  1
  H+  H28  1  0.43401105  0.13677846  0.30840215  1
  H+  H29  1  0.85361650  0.36951687  0.00099846  1
  H+  H30  1  0.16593648  0.64372171  0.23561819  1
  H+  H31  1  0.97002576  0.80822792  0.27127277  1
  H+  H32  1  0.20298604  0.46879547  0.74167188  1
  H+  H33  1  0.66980754  0.13955674  0.20959469  1
  H+  H34  1  0.85485301  0.69576907  0.94780238  1
  H+  H35  1  0.70572600  0.84205920  0.00026370  1
  H+  H36  1  0.49670987  0.94480582  0.22206831  1
  H+  H37  1  0.53490837  0.69661883  0.76335827  1
  H+  H38  1  0.86592673  0.15644220  0.76880618  1
  H+  H39  1  0.47502323  0.62260850  0.24641446  1
  H+  H40  1  0.51137775  0.49006965  0.26541364  1
  H+  H41  1  0.78200397  0.20750936  0.66154542  1
  H+  H42  1  0.84428236  0.47765346  0.49980691  1
  H+  H43  1  0.40554674  0.23561055  0.14922257  1
  H+  H44  1  0.17654652  0.36598722  0.51571492  1
  H+  H45  1  0.49394813  0.82900998  0.75481060  1
  H+  H46  1  0.51251548  0.34496878  0.75056467  1
  H+  H47  1  0.37131881  0.50066980  0.74731756  1
  H+  H48  1  1.02937938  0.85401273  0.74429354  1
  H+  H49  1  0.16409548  0.52520467  0.22995987  1
  H+  H50  1  0.15951948  0.51957115  0.00425499  1
  H+  H51  1  0.18867323  1.03665127  0.75998372  1
  H+  H52  1  0.50355371  0.29474154  0.01498623  1
  H+  H53  1  0.81433319  0.49614952  0.28946856  1
  H+  H54  1  0.82464931  0.96280034  0.00041151  1
  H+  H55  1  0.15744626  0.19509059  0.57048421  1
  H+  H56  1  0.85438230  0.03066997  0.49617838  1
  H+  H57  1  0.49417880  0.62440814  0.00643103  1
  H+  H58  1  0.80681532  0.29154467  0.74373353  1
  H+  H59  1  0.31063441  0.81735630  0.26860380  1
  H+  H60  1  0.62697626  0.47787704  0.49717087  1
  H+  H61  1  0.36535500  0.17052752  0.73234394  1
  H+  H62  1  0.81560131  0.63482150  0.28238600  1
  H+  H63  1  0.51304952  0.12799071  0.75748166  1
  H+  H64  1  0.64448273  0.47807752  0.95543472  1
  H+  H65  1  0.96650546  0.48324194  0.50040369  1
  H+  H66  1  0.80557533  0.64733673  0.73286211  1
  H+  H67  1  0.53543922  0.14048211  0.56311964  1
  H+  H68  1  1.02523351  0.83742311  0.98618482  1
  H+  H69  1  0.82855422  0.47886878  0.73717935  1
  H+  H70  1  0.84629058  0.37186842  0.26260550  1
  H+  H71  1  0.84022618  0.96496979  0.22489564  1
  H+  H72  1  0.15091979  -0.01027795  0.27539190  1
  H+  H73  1  0.48417684  0.94408650  0.54171739  1
  H+  H74  1  0.81287423  0.95415658  0.75078482  1
  H+  H75  1  0.48815782  0.49990451  0.73994917  1
  H+  H76  1  0.14547471  0.84906262  0.75354103  1
  H+  H77  1  0.80623284  0.85920851  0.52227726  1
  H+  H78  1  0.56488263  0.10819919  0.14648806  1
  H+  H79  1  0.85624735  0.81495981  0.24992280  1
  H+  H80  1  0.14118382  0.31831845  0.19883745  1
  H+  H81  1  0.22363388  0.76726446  -0.15324430  1
  H+  H82  1  0.15115034  0.63566858  0.51905076  1
  H+  H83  1  0.83031845  0.51259906  -0.04944725  1
  H+  H84  1  0.66001775  0.82045679  0.75869731  1
  H+  H85  1  0.52180450  0.80223788  0.98716073  1
  H+  H86  1  0.30293775  0.79921569  0.75907748  1
  H+  H87  1  0.38162698  0.18304879  0.00586797  1
  H+  H88  1  0.68520614  0.51963753  0.73671446  1
  H+  H89  1  0.17667274  0.48063422  0.49548734  1
  H+  H90  1  0.09926825  0.50696675  0.78884701  1
  H+  H91  1  0.37520863  0.50672402  0.00799660  1
  H+  H92  1  0.14109294  0.84976848  0.49845257  1
  H+  H93  1  0.45396529  0.18378453  0.46101881  1
  H+  H94  1  0.70382197  0.17749842  1.00190487  1
  H+  H95  1  0.50903623  0.79069488  0.49392287  1
  H+  H96  1  0.44430522  0.31928266  0.23535884  1
  H+  H97  1  0.50723092  0.67318059  0.49463300  1
  H+  H98  1  0.48240322  0.30559452  0.49959123  1
  H+  H99  1  0.51699319  0.13767276  0.99393975  1
  H+  H100  1  0.26793974  0.17854502  0.26259605  1
  H+  H101  1  0.22809887  0.77156196  0.41605200  1
  H+  H102  1  0.94458729  0.80534848  0.48888690  1
  H+  H103  1  0.18664629  0.34281995  0.74228283  1
  H+  H104  1  0.78568277  0.90609654  0.61671432  1
  H+  H105  1  0.97225136  0.48896504  1.00512395  1
  H+  H106  1  0.14015047  0.14895668  0.26382971  1
  H+  H107  1  0.64988559  0.13646172  0.55005203  1
  H+  H108  1  0.53942541  0.44265662  0.35860481  1
  H+  H109  1  0.84648591  0.20424737  0.22448332  1
  H+  H110  1  0.55293346  0.09505956  0.90395991  1
  H+  H111  1  0.15161612  0.93480569  0.18375105  1
  H+  H112  1  0.98456513  0.15931941  0.75429213  1
  H+  H113  1  0.88475755  0.78161142  0.82535966  1
  H+  H114  1  0.21858023  0.42110229  0.90938305  1
  H+  H115  1  0.56716819  0.76793413  0.89769420  1
  H+  H116  1  0.80952498  0.24673549  0.13530924  1
  H+  H117  1  0.58423647  0.06262758  0.38323671  1
  H+  H118  1  0.43201047  0.85183155  0.14880483  1
  H+  H119  1  0.43673420  0.53714489  0.60882775  1
  H+  H120  1  0.43596453  0.85020618  0.61576931  1
  H+  H121  1  0.91528059  0.12057285  0.90973183  1
  H+  H122  1  0.80291803  0.88421057  0.13712595  1
  H+  H123  1  0.24460642  0.12296847  0.89178543  1
  H+  H124  1  0.78088316  0.55012333  0.13264451  1
  H+  H125  1  0.52669338  0.47479135  0.98475796  1
  H+  H126  1  0.57232745  0.11121670  0.38456804  1
  H+  H127  1  0.44537444  0.54313896  0.15365259  1
  H+  H128  1  0.15205268  0.63493038  0.75163208  1
  H+  H129  1  0.76670914  0.55100175  0.59827180  1
  H+  H130  1  0.87960160  0.43300819  0.36384003  1
  H+  H131  1  0.19788457  0.15902406  0.74169987  1
  H+  H132  1  0.36522498  0.83343824  0.00186461  1
  H+  H133  1  0.78107116  0.57005887  0.08488706  1
  H+  H134  1  0.19424034  0.13570948  0.42223974  1
  H+  H135  1  0.12757395  0.56621447  0.09418400  1
  H+  H136  1  0.86195857  0.76624470  0.40584972  1
  H+  H137  1  0.08171833  0.83321399  0.07753712  1
  H+  H138  1  0.48472583  0.94309845  0.75031261  1
  H+  H139  1  0.54388113  0.41954517  0.84318666  1
  H+  H140  1  0.53326173  0.74038091  0.35592048  1
  H+  H141  1  0.10933669  0.54954051  0.60408619  1
  H+  H142  1  0.28662984  0.16039233  0.49798373  1
  H+  H143  1  0.50395706  0.47393843  0.50282830  1
  O2-  O144  1  0.09575254  0.24000755  0.17091336  1
  O2-  O145  1  0.12649842  0.22602154  0.69699407  1
  O2-  O146  1  0.13254151  0.57037125  0.20225283  1
  O2-  O147  1  0.10785408  0.54970139  0.73310134  1
  O2-  O148  1  0.13038502  0.91376470  0.24719418  1
  O2-  O149  1  0.11440109  0.90069477  0.74629898  1
  O2-  O150  1  0.37754982  0.25501726  0.20510167  1
  O2-  O151  1  0.44750648  0.20641927  0.70970667  1
  O2-  O152  1  0.43708162  0.53856908  0.22106510  1
  O2-  O153  1  0.45008146  0.54444564  0.72146268  1
  O2-  O154  1  0.43746879  0.86194124  0.21623593  1
  O2-  O155  1  0.44429639  0.86092668  0.73244065  1
  O2-  O156  1  0.80916065  0.24797452  0.20368701  1
  O2-  O157  1  0.77503550  0.20847362  0.72922640  1
  O2-  O158  1  0.76941064  0.54828346  0.28968117  1
  O2-  O159  1  0.76692267  0.56118589  0.71707823  1
  O2-  O160  1  0.81153749  0.88555196  0.20451236  1
  O2-  O161  1  0.77069332  0.87828124  0.72264155  1
  O2-  O162  1  0.19173520  0.12943968  0.29571270  1
  O2-  O163  1  0.23782159  0.12184699  0.77128501  1
  O2-  O164  1  0.21820991  0.43440738  0.27079988  1
  O2-  O165  1  0.22619299  0.42174813  0.77615184  1
  O2-  O166  1  0.23220513  0.78066009  0.29669684  1
  O2-  O167  1  0.22065972  0.76323780  0.77830255  1
  O2-  O168  1  0.58622117  0.08439274  0.20197927  1
  O2-  O169  1  0.55162449  0.08981803  0.78648180  1
  O2-  O170  1  0.55052519  0.44795237  0.29109258  1
  O2-  O171  1  0.54792202  0.42477326  0.77488082  1
  O2-  O172  1  0.53061112  0.73646035  0.28691909  1
  O2-  O173  1  0.57327597  0.77562495  0.78733410  1
  O2-  O174  1  0.89588020  0.11444441  0.26468029  1
  O2-  O175  1  0.91297255  0.12330799  0.79080199  1
  O2-  O176  1  0.87198456  0.44465034  0.29722565  1
  O2-  O177  1  0.86467689  0.43474771  0.75943354  1
  O2-  O178  1  0.88728740  0.76896307  0.28375925  1
  O2-  O179  1  0.87727753  0.77634507  0.75806061  1
  O2-  O180  1  0.20341186  0.12881993  0.48859467  1
  O2-  O181  1  0.25232909  0.12140939  0.95916601  1
  O2-  O182  1  0.21340477  0.43517521  0.47700951  1
  O2-  O183  1  0.22798302  0.44073233  0.97481286  1
  O2-  O184  1  0.22041508  0.77028960  0.48375054  1
  O2-  O185  1  0.22813110  0.77108430  0.96007880  1
  O2-  O186  1  0.56577213  0.08867791  0.56092999  1
  O2-  O187  1  0.55638290  0.09574967  0.97226165  1
  O2-  O188  1  0.54505189  0.43489191  0.47588641  1
  O2-  O189  1  0.55936941  0.42907061  0.95804386  1
  O2-  O190  1  0.54301455  0.74875094  0.46446770  1
  O2-  O191  1  0.56518581  0.76435097  0.96699143  1
  O2-  O192  1  0.89514072  0.10883773  0.46130840  1
  O2-  O193  1  0.89582830  0.10914993  0.97610258  1
  O2-  O194  1  0.88560308  0.43752765  0.47875096  1
  O2-  O195  1  0.88809469  0.45381099  0.99931647  1
  O2-  O196  1  0.86106747  0.76145328  0.47325862  1
  O2-  O197  1  0.89906283  0.78137435  0.94582862  1
  O2-  O198  1  0.07729040  0.26061934  0.07590506  1
  O2-  O199  1  0.12579015  0.24199928  0.59610981  1
  O2-  O200  1  0.12131188  0.56246727  0.02479973  1
  O2-  O201  1  0.10812813  0.55193752  0.53707819  1
  O2-  O202  1  0.10264174  0.86936643  0.01789702  1
  O2-  O203  1  0.08809693  0.88013388  0.49627429  1
  O2-  O204  1  0.45732007  0.21527721  0.03869386  1
  O2-  O205  1  0.43877290  0.21905914  0.51313657  1
  O2-  O206  1  0.45592582  0.54379244  0.02964236  1
  O2-  O207  1  0.43538884  0.53337853  0.54026279  1
  O2-  O208  1  0.44412879  0.86789374  0.02791449  1
  O2-  O209  1  0.43577554  0.85940526  0.54801486  1
  O2-  O210  1  0.78550359  0.22264544  0.02078639  1
  O2-  O211  1  0.79363106  0.21652511  0.54360805  1
  O2-  O212  1  0.78900365  0.55224115  -0.07683857  1
  O2-  O213  1  0.76594856  0.54474087  0.53039602  1
  O2-  O214  1  0.78815546  0.88080338  0.01913413  1
  O2-  O215  1  0.79563156  0.92062930  0.54799382  1
