# generated using pymatgen
data_H2O
_symmetry_space_group_name_H-M   'P 1'
_cell_length_a   13.49871180
_cell_length_b   13.49661168
_cell_length_c   14.69065320
_cell_angle_alpha   90.09390448
_cell_angle_beta   89.96037393
_cell_angle_gamma   120.08293722
_symmetry_Int_Tables_number   1
_chemical_formula_structural   H2O
_chemical_formula_sum   'H144 O72'
_cell_volume   2315.92594406
_cell_formula_units_Z   72
loop_
 _symmetry_equiv_pos_site_id
 _symmetry_equiv_pos_as_xyz
  1  'x, y, z'
loop_
 _atom_type_symbol
 _atom_type_oxidation_number
  H+  1.0
  O2-  -2.0
loop_
 _atom_site_type_symbol
 _atom_site_label
 _atom_site_symmetry_multiplicity
 _atom_site_fract_x
 _atom_site_fract_y
 _atom_site_fract_z
 _atom_site_occupancy
  H+  H0  1  0.26188134  0.79327100  1.06152290  1
  H+  H1  1  0.31316132  0.49722456  0.75683762  1
  H+  H2  1  0.97879165  0.49437761  1.00051216  1
  H+  H3  1  0.83370667  0.16243488  1.02655641  1
  H+  H4  1  0.54359480  0.15658621  0.49809712  1
  H+  H5  1  0.19080343  0.81973852  0.49583107  1
  H+  H6  1  0.44516705  0.20531966  0.58547257  1
  H+  H7  1  0.34378696  0.48850791  0.28580306  1
  H+  H8  1  0.85574621  0.79993216  0.75900835  1
  H+  H9  1  0.16557414  0.29660761  0.73200726  1
  H+  H10  1  0.18507209  0.19027179  0.49867731  1
  H+  H11  1  0.48295253  0.28216313  0.49610313  1
  H+  H12  1  0.24735121  0.37434594  0.51556167  1
  H+  H13  1  0.86413497  0.67972336  0.49887158  1
  H+  H14  1  0.80958088  0.57389725  0.63457100  1
  H+  H15  1  -0.01385036  0.79551473  0.49054880  1
  H+  H16  1  0.82740475  -0.04548766  0.25774739  1
  H+  H17  1  0.02459596  0.20371197  0.04793203  1
  H+  H18  1  0.16388211  0.98572771  0.73720248  1
  H+  H19  1  0.21849049  0.71872196  0.26187322  1
  H+  H20  1  0.37740902  0.85400403  0.29367204  1
  H+  H21  1  0.16415198  0.86658602  0.73777008  1
  H+  H22  1  0.17999989  0.36340362  0.99297947  1
  H+  H23  1  0.49300265  0.62626884  0.24666300  1
  H+  H24  1  0.71067069  0.82534617  0.75100208  1
  H+  H25  1  0.16704493  0.30208899  0.27461013  1
  H+  H26  1  0.81790593  0.27096877  0.23745713  1
  H+  H27  1  0.50899837  0.36967899  0.99291710  1
  H+  H28  1  0.31211690  0.13800611  0.48435671  1
  H+  H29  1  0.46886556  0.90017999  0.21711109  1
  H+  H30  1  0.15673658  0.96671673  0.50888383  1
  H+  H31  1  0.30648091  0.81805138  0.75442695  1
  H+  H32  1  0.39688233  0.39993078  0.79092748  1
  H+  H33  1  0.63688888  0.16061640  0.74546834  1
  H+  H34  1  0.80021285  0.17685656  0.71211127  1
  H+  H35  1  0.84919151  0.38325486  0.99201304  1
  H+  H36  1  0.79988222  0.44123788  0.26981555  1
  H+  H37  1  0.48655995  0.19063094  0.00342451  1
  H+  H38  1  0.07134164  0.56289108  0.58241031  1
  H+  H39  1  0.01153291  0.55502597  0.22706690  1
  H+  H40  1  0.68682460  0.50629359  0.24268525  1
  H+  H41  1  0.50956070  0.49032608  0.74929138  1
  H+  H42  1  0.23777633  0.50063059  0.31696909  1
  H+  H43  1  1.03031348  0.84497122  1.01085646  1
  H+  H44  1  0.04569723  0.18500068  0.26583567  1
  H+  H45  1  0.82035894  0.29222513  0.75637321  1
  H+  H46  1  0.15932145  0.51184568  0.99172338  1
  H+  H47  1  0.78513063  0.44219946  0.50998362  1
  H+  H48  1  1.00046509  0.50782569  0.49558297  1
  H+  H49  1  0.55370946  0.13561522  0.87403972  1
  H+  H50  1  0.18044209  0.02232681  0.25872323  1
  H+  H51  1  0.52810203  1.04931349  0.29506733  1
  H+  H52  1  0.69877360  0.85552228  0.51759577  1
  H+  H53  1  0.36678587  0.17848167  0.24075738  1
  H+  H54  1  0.07562864  0.20901341  0.50502722  1
  H+  H55  1  0.48673241  0.85802655  -0.04355675  1
  H+  H56  1  0.83660702  0.04948003  1.05553585  1
  H+  H57  1  0.37280183  0.85613139  0.51173346  1
  H+  H58  1  0.73760550  0.23692235  0.07489764  1
  H+  H59  1  0.81243488  0.62067669  0.24775916  1
  H+  H60  1  0.48161533  0.51401701  1.00974086  1
  H+  H61  1  0.85887021  0.13113935  0.28029272  1
  H+  H62  1  0.75600180  0.55449596  0.45607832  1
  H+  H63  1  0.44408288  0.88577826  0.63448616  1
  H+  H64  1  0.64047496  0.14822243  0.25258766  1
  H+  H65  1  0.64171126  0.80498109  0.26944950  1
  H+  H66  1  -0.03557160  0.79767891  0.26072658  1
  H+  H67  1  0.58384347  0.90101784  0.74206057  1
  H+  H68  1  0.10902822  0.88129439  0.15300954  1
  H+  H69  1  0.49260020  0.50634295  0.24584047  1
  H+  H70  1  0.48962701  0.18654864  0.23906771  1
  H+  H71  1  0.85581728  0.04510381  0.65586763  1
  H+  H72  1  0.15671120  0.96110128  0.00346438  1
  H+  H73  1  0.97054682  0.59051915  0.68869923  1
  H+  H74  1  0.49848636  0.97145617  0.51734695  1
  H+  H75  1  0.84950312  0.81798277  -0.00489226  1
  H+  H76  1  0.61617446  0.45912310  0.49846360  1
  H+  H77  1  0.68094297  0.19845546  -0.02205049  1
  H+  H78  1  0.51409979  0.69198088  0.99880912  1
  H+  H79  1  0.51356069  0.04063120  0.74492884  1
  H+  H80  1  0.97738603  0.46772915  0.76003797  1
  H+  H81  1  0.83270169  0.65063997  0.01944453  1
  H+  H82  1  0.86142432  0.65455890  0.72332847  1
  H+  H83  1  0.73192454  0.25590920  0.53295542  1
  H+  H84  1  0.64894605  0.71027146  0.69828797  1
  H+  H85  1  0.52402447  0.80440585  0.29101985  1
  H+  H86  1  0.84464459  0.52771608  0.02005444  1
  H+  H87  1  0.51854073  0.04472178  0.95063569  1
  H+  H88  1  0.86543892  0.04154538  0.50927133  1
  H+  H89  1  0.70411468  0.85158029  0.02230564  1
  H+  H90  1  0.15137851  0.84600217  0.24392034  1
  H+  H91  1  0.82482801  0.18167839  0.16344039  1
  H+  H92  1  0.19050003  0.15431637  0.75396370  1
  H+  H93  1  0.51324651  0.35688411  0.26400367  1
  H+  H94  1  0.10395996  0.65266234  0.71964725  1
  H+  H95  1  0.15305784  0.53856255  0.21721021  1
  H+  H96  1  0.51963126  0.65415640  0.49506602  1
  H+  H97  1  0.31002064  0.15428546  0.74738927  1
  H+  H98  1  0.30616290  0.13121914  0.98561233  1
  H+  H99  1  0.47199868  0.29637641  0.72286002  1
  H+  H100  1  0.37140602  0.86250207  -0.04521315  1
  H+  H101  1  0.82006885  0.83261385  0.25262518  1
  H+  H102  1  0.87832489  0.16344040  0.50998204  1
  H+  H103  1  0.99944075  0.50297722  0.19898294  1
  H+  H104  1  0.48680233  0.18383691  0.72352431  1
  H+  H105  1  0.30174074  0.48043496  -0.01021152  1
  H+  H106  1  0.96647049  0.14819466  0.70081380  1
  H+  H107  1  0.47319251  0.68456601  0.70288272  1
  H+  H108  1  0.18713390  0.14509210  0.26568758  1
  H+  H109  1  0.89305618  0.75183704  0.35339417  1
  H+  H110  1  0.54894205  0.43114883  0.35685559  1
  H+  H111  1  0.19606932  0.59587132  0.12594999  1
  H+  H112  1  0.56686461  0.76083020  0.90861082  1
  H+  H113  1  0.44837507  0.57995540  0.63427176  1
  H+  H114  1  0.17693411  0.82111740  1.00985374  1
  H+  H115  1  0.12049997  0.89401993  0.60127825  1
  H+  H116  1  0.44644545  0.22252169  0.09760391  1
  H+  H117  1  0.44131440  0.55054248  0.10082624  1
  H+  H118  1  0.39147163  0.95963984  0.11974662  1
  H+  H119  1  0.57001492  0.73616537  0.40953243  1
  H+  H120  1  0.90337992  0.43979592  0.31479276  1
  H+  H121  1  0.15920032  0.63290665  -0.00376691  1
  H+  H122  1  0.87133114  0.10378839  0.87321810  1
  H+  H123  1  -0.01122033  0.83385403  0.76491864  1
  H+  H124  1  0.14081356  0.22756812  0.63953213  1
  H+  H125  1  0.78131095  0.87912307  0.11184269  1
  H+  H126  1  0.22341348  0.77839488  0.36037335  1
  H+  H127  1  0.48513512  0.44408499  0.49418989  1
  H+  H128  1  0.90503965  0.10187774  0.36989575  1
  H+  H129  1  0.12732262  0.24287371  0.11386395  1
  H+  H130  1  0.89113814  0.77627056  0.90593406  1
  H+  H131  1  0.24972559  0.43294786  0.84892772  1
  H+  H132  1  0.91313579  0.43747753  0.85385454  1
  H+  H133  1  0.23356921  0.09128481  0.89262287  1
  H+  H134  1  0.22323953  0.77888941  0.84005331  1
  H+  H135  1  0.78651101  0.56128937  0.11407281  1
  H+  H136  1  0.43701425  0.94402970  0.11040243  1
  H+  H137  1  0.22745560  0.10080037  0.39783429  1
  H+  H138  1  0.77476848  0.86857020  0.60006564  1
  H+  H139  1  0.93556308  0.13511609  0.87561341  1
  H+  H140  1  0.17676246  0.69514893  0.48816616  1
  H+  H141  1  0.29790001  0.46484126  0.42941321  1
  H+  H142  1  0.80327622  0.37458747  0.42846053  1
  H+  H143  1  0.53254225  0.44213338  0.90343682  1
  O2-  O144  1  0.12651736  0.22764914  0.24301857  1
  O2-  O145  1  0.12160774  0.21829719  0.70556269  1
  O2-  O146  1  0.21987715  0.60495349  0.19145560  1
  O2-  O147  1  0.04257089  0.58377064  0.69009428  1
  O2-  O148  1  0.10585190  0.88063825  0.22111455  1
  O2-  O149  1  0.12007906  0.90298743  0.71591930  1
  O2-  O150  1  0.44644705  0.22487795  0.21685501  1
  O2-  O151  1  0.44025327  0.21776931  0.69810737  1
  O2-  O152  1  0.44847688  0.54445980  0.22477361  1
  O2-  O153  1  0.48112328  0.61620566  0.69542242  1
  O2-  O154  1  0.46230999  0.88922127  0.28298877  1
  O2-  O155  1  0.43917005  0.88541510  0.70922968  1
  O2-  O156  1  0.78791847  0.18978909  0.21970530  1
  O2-  O157  1  0.76148744  0.22144442  0.72411322  1
  O2-  O158  1  0.76810832  0.54156718  0.21935713  1
  O2-  O159  1  0.84924954  0.58387251  0.69320658  1
  O2-  O160  1  0.78286054  0.87634169  0.23050341  1
  O2-  O161  1  0.72547065  0.77829129  0.70911755  1
  O2-  O162  1  0.22627587  0.10174180  0.28371452  1
  O2-  O163  1  0.23184347  0.11456858  0.77607152  1
  O2-  O164  1  0.27217159  0.45314377  0.32829892  1
  O2-  O165  1  0.27276607  0.42208904  0.78630438  1
  O2-  O166  1  0.23373657  0.79084969  0.29189567  1
  O2-  O167  1  0.22440763  0.78546984  0.77402436  1
  O2-  O168  1  0.56526723  0.13022900  0.27674832  1
  O2-  O169  1  0.55085543  0.12177658  0.76385312  1
  O2-  O170  1  0.55519587  0.43769268  0.28804759  1
  O2-  O171  1  0.47718683  0.41757443  0.78228467  1
  O2-  O172  1  0.56146485  0.75670859  0.29190671  1
  O2-  O173  1  0.50680654  0.83355358  0.74128632  1
  O2-  O174  1  0.90452213  0.09633311  0.30200395  1
  O2-  O175  1  0.88170619  0.10923156  0.69778750  1
  O2-  O176  1  0.82339262  0.38904123  0.29873336  1
  O2-  O177  1  0.93337098  0.40341109  0.80350574  1
  O2-  O178  1  0.88453403  0.75418730  0.28476226  1
  O2-  O179  1  0.91042926  0.78479627  0.79203215  1
  O2-  O180  1  0.22922913  0.10549496  0.46626241  1
  O2-  O181  1  0.23157167  0.07395658  0.95853123  1
  O2-  O182  1  0.29593967  0.46116634  0.50067399  1
  O2-  O183  1  0.22361629  0.44091648  0.96183496  1
  O2-  O184  1  0.22877692  0.77759456  0.47081234  1
  O2-  O185  1  0.22805391  0.78470171  1.00124522  1
  O2-  O186  1  0.59350455  0.12210812  0.48340039  1
  O2-  O187  1  0.55524632  0.13008152  0.94283574  1
  O2-  O188  1  0.53328989  0.41258339  0.46912770  1
  O2-  O189  1  0.54377259  0.44983863  0.97002366  1
  O2-  O190  1  0.57818535  0.73222406  0.47611985  1
  O2-  O191  1  0.55971651  0.77247074  0.97322783  1
  O2-  O192  1  0.91556984  0.12241391  0.48649692  1
  O2-  O193  1  0.86985592  0.13243554  1.06862876  1
  O2-  O194  1  0.81637382  0.38666992  0.49436790  1
  O2-  O195  1  0.89732056  0.46823235  0.98296317  1
  O2-  O196  1  0.90956247  0.74885518  0.46180624  1
  O2-  O197  1  0.88658748  0.77332553  0.97455309  1
  O2-  O198  1  0.10915498  0.24199875  0.04876724  1
  O2-  O199  1  0.15755675  0.24370475  0.52222518  1
  O2-  O200  1  0.12220133  0.55363922  0.02049166  1
  O2-  O201  1  0.08042693  0.55504744  0.51546428  1
  O2-  O202  1  0.11000915  0.88159505  0.03470806  1
  O2-  O203  1  0.12181174  0.88715784  0.53329218  1
  O2-  O204  1  0.44382674  0.22640528  0.02976889  1
  O2-  O205  1  0.44853172  0.19943961  0.51742459  1
  O2-  O206  1  0.44138978  0.55649075  0.03339435  1
  O2-  O207  1  0.41438031  0.50719049  0.53477153  1
  O2-  O208  1  0.45223218  0.90335022  -0.06448269  1
  O2-  O209  1  0.44974244  0.89248764  0.54086463  1
  O2-  O210  1  0.75870927  0.24193767  0.01076156  1
  O2-  O211  1  0.68386972  0.17228465  0.55255960  1
  O2-  O212  1  0.80025736  0.56926845  0.04472978  1
  O2-  O213  1  0.74118926  0.52533392  0.51833518  1
  O2-  O214  1  0.78463182  0.89120629  0.04433525  1
  O2-  O215  1  0.77027546  0.91318182  0.54911895  1
