# generated using pymatgen
data_H2O
_symmetry_space_group_name_H-M   'P 1'
_cell_length_a   13.53370618
_cell_length_b   13.52338528
_cell_length_c   14.70237967
_cell_angle_alpha   90.05334969
_cell_angle_beta   89.98654952
_cell_angle_gamma   120.07410833
_symmetry_Int_Tables_number   1
_chemical_formula_structural   H2O
_chemical_formula_sum   'H144 O72'
_cell_volume   2328.60285726
_cell_formula_units_Z   72
loop_
 _symmetry_equiv_pos_site_id
 _symmetry_equiv_pos_as_xyz
  1  'x, y, z'
loop_
 _atom_type_symbol
 _atom_type_oxidation_number
  H+  1.0
  O2-  -2.0
loop_
 _atom_site_type_symbol
 _atom_site_label
 _atom_site_symmetry_multiplicity
 _atom_site_fract_x
 _atom_site_fract_y
 _atom_site_fract_z
 _atom_site_occupancy
  H+  H0  1  0.82453619  0.85108109  0.22629984  1
  H+  H1  1  0.20184067  0.35633103  0.72364175  1
  H+  H2  1  0.01257862  0.05083795  0.66494884  1
  H+  H3  1  0.37987015  0.84465642  0.73785983  1
  H+  H4  1  0.52448926  0.37505620  0.73674320  1
  H+  H5  1  0.94604849  0.80499854  0.97985680  1
  H+  H6  1  0.12219594  0.13121539  0.72141396  1
  H+  H7  1  0.37677460  0.65182383  0.88701824  1
  H+  H8  1  0.21961190  0.82948924  0.76416447  1
  H+  H9  1  0.93038177  0.45516126  0.36570297  1
  H+  H10  1  0.96212760  0.80959107  0.24580559  1
  H+  H11  1  0.82523551  0.64306486  0.73671273  1
  H+  H12  1  0.16070081  0.51853331  0.24360321  1
  H+  H13  1  0.04194479  0.51831922  0.74257369  1
  H+  H14  1  0.83524628  0.51065337  0.26350209  1
  H+  H15  1  0.52117093  0.81667883  0.74144237  1
  H+  H16  1  0.86110678  0.48686446  0.76080557  1
  H+  H17  1  0.17549835  0.81867141  0.49888938  1
  H+  H18  1  0.28680981  0.14111259  0.25270340  1
  H+  H19  1  0.84762592  0.14874274  1.00178858  1
  H+  H20  1  0.11741159  0.17643253  0.48710631  1
  H+  H21  1  0.81887950  0.81365634  0.47178934  1
  H+  H22  1  0.13518742  0.14952282  0.01642746  1
  H+  H23  1  0.65703917  0.83453451  0.73696710  1
  H+  H24  1  0.80325383  -0.02105713  0.74699451  1
  H+  H25  1  0.82746594  0.30538140  0.25472066  1
  H+  H26  1  0.15518084  0.30534348  0.24724382  1
  H+  H27  1  0.49392483  -0.03209880  0.72790423  1
  H+  H28  1  0.15530218  0.32800358  0.75843923  1
  H+  H29  1  0.51974548  0.33404367  0.50664104  1
  H+  H30  1  0.19382150  0.69918922  0.75525550  1
  H+  H31  1  0.55459998  0.37310853  0.30859704  1
  H+  H32  1  0.37083228  0.85996960  0.24253874  1
  H+  H33  1  0.54787331  0.50859432  0.50943405  1
  H+  H34  1  -0.03249238  0.15152330  0.26363623  1
  H+  H35  1  0.41910828  0.21205344  0.13490017  1
  H+  H36  1  0.52479378  0.02486497  0.98408120  1
  H+  H37  1  0.51796392  0.03899945  0.25854349  1
  H+  H38  1  0.81534146  0.85306881  0.00242808  1
  H+  H39  1  0.80996765  0.86343740  0.73449744  1
  H+  H40  1  0.77710884  0.21223782  0.64876233  1
  H+  H41  1  0.49716578  0.64399939  0.24537291  1
  H+  H42  1  0.93376988  0.11337588  0.48594380  1
  H+  H43  1  0.47920685  0.18044567  0.72179733  1
  H+  H44  1  0.51573877  0.15625430  0.25422788  1
  H+  H45  1  0.19010435  1.02179644  0.75648557  1
  H+  H46  1  1.03891146  0.49685209  1.01232233  1
  H+  H47  1  0.63577874  0.15315930  0.74298040  1
  H+  H48  1  0.18748376  0.35126063  -0.00580906  1
  H+  H49  1  0.31174968  0.48865646  0.26429838  1
  H+  H50  1  0.01924761  0.84654738  0.50755973  1
  H+  H51  1  0.49239075  -0.13632184  0.24649348  1
  H+  H52  1  0.08921673  0.54505175  0.59541184  1
  H+  H53  1  0.17319579  0.69870265  0.49543094  1
  H+  H54  1  0.12252135  0.93206480  -0.00465685  1
  H+  H55  1  0.13479562  0.95942354  0.22542244  1
  H+  H56  1  0.85219951  0.35106381  0.99515942  1
  H+  H57  1  0.93355632  0.52547052  0.51302017  1
  H+  H58  1  0.49820042  0.52757780  0.25771608  1
  H+  H59  1  0.19414869  0.70572829  0.24674415  1
  H+  H60  1  0.84715111  0.14828515  0.26066067  1
  H+  H61  1  0.17733795  0.37211383  0.48958265  1
  H+  H62  1  -0.04629461  0.83357652  0.75516591  1
  H+  H63  1  0.85336106  0.65090706  0.50475273  1
  H+  H64  1  0.51626666  0.14719466  0.48741754  1
  H+  H65  1  0.27654276  0.11594116  0.98392915  1
  H+  H66  1  0.16761063  0.53308558  0.75224108  1
  H+  H67  1  0.82962602  -0.02501368  0.23146400  1
  H+  H68  1  0.95181150  0.13453789  0.76118111  1
  H+  H69  1  0.33201448  0.83797173  0.51045202  1
  H+  H70  1  0.37298881  0.48048768  1.02229535  1
  H+  H71  1  0.36811634  0.85960514  1.01934233  1
  H+  H72  1  0.36756497  0.28386368  0.03135686  1
  H+  H73  1  0.08039864  0.20360637  0.58039919  1
  H+  H74  1  0.66031133  0.48800877  0.27441495  1
  H+  H75  1  0.82595087  -0.01374674  1.00479649  1
  H+  H76  1  0.15920594  0.49940519  1.01990616  1
  H+  H77  1  0.64658967  0.82968098  0.24845334  1
  H+  H78  1  0.45189509  0.29780838  0.21366752  1
  H+  H79  1  0.29927437  0.14663565  0.75149506  1
  H+  H80  1  0.88169320  0.78058900  0.33359411  1
  H+  H81  1  0.98851478  0.48776577  0.26823247  1
  H+  H82  1  0.52707119  0.69433547  0.74293620  1
  H+  H83  1  0.38462682  0.53987259  0.75766848  1
  H+  H84  1  0.13499952  -0.03690006  0.50463000  1
  H+  H85  1  0.18702714  0.81892130  0.24070699  1
  H+  H86  1  0.46562137  -0.03463216  0.50276269  1
  H+  H87  1  0.54613878  0.46752208  1.00128499  1
  H+  H88  1  0.68520518  0.15638589  0.51402163  1
  H+  H89  1  0.84512041  0.15694550  0.76484563  1
  H+  H90  1  0.48194404  0.29729171  0.00316788  1
  H+  H91  1  0.42357263  0.23248629  0.45291173  1
  H+  H92  1  0.49589832  0.52292990  0.73837065  1
  H+  H93  1  0.25723274  0.14065843  0.48455207  1
  H+  H94  1  0.81883750  0.30107962  0.73463651  1
  H+  H95  1  0.75097327  0.91383604  0.49828682  1
  H+  H96  1  0.65971335  0.46083552  0.00333967  1
  H+  H97  1  0.55308627  0.11079119  0.82792796  1
  H+  H98  1  0.38359418  0.52813174  0.51145666  1
  H+  H99  1  0.12113734  0.81314462  1.00133890  1
  H+  H100  1  0.79292662  0.14163124  0.51341889  1
  H+  H101  1  0.64619329  0.48984132  0.73680510  1
  H+  H102  1  0.82707678  0.62634868  0.25205038  1
  H+  H103  1  0.58533672  0.79175520  0.34389299  1
  H+  H104  1  0.70336432  0.19226665  0.25025982  1
  H+  H105  1  0.06945046  0.79036795  0.72104851  1
  H+  H106  1  0.17196224  0.14804950  0.25727578  1
  H+  H107  1  0.93135347  0.91073063  0.43204203  1
  H+  H108  1  0.23775895  0.57831234  0.86059559  1
  H+  H109  1  0.46061408  0.72818770  0.96260370  1
  H+  H110  1  0.78846655  0.90045398  0.10167866  1
  H+  H111  1  0.18221602  0.49072520  0.48893997  1
  H+  H112  1  0.09777979  0.88013172  0.64285149  1
  H+  H113  1  0.45398725  0.56561214  0.60402957  1
  H+  H114  1  0.11474878  0.54777542  0.15330546  1
  H+  H115  1  0.62367325  0.04605655  0.91773335  1
  H+  H116  1  0.23028942  0.45074628  0.35148355  1
  H+  H117  1  0.09121052  0.87430813  0.13847877  1
  H+  H118  1  0.88458867  0.11274039  0.90695265  1
  H+  H119  1  0.55912545  0.70570572  0.49258462  1
  H+  H120  1  0.20321559  0.08418024  0.89434118  1
  H+  H121  1  0.89247578  0.43570563  0.84722723  1
  H+  H122  1  0.91224504  0.63097215  0.05961332  1
  H+  H123  1  0.11007282  0.22007712  0.16033638  1
  H+  H124  1  0.86012715  0.47227757  0.99702550  1
  H+  H125  1  0.45727477  0.53246256  0.10645270  1
  H+  H126  1  0.80782758  0.55666839  0.12198260  1
  H+  H127  1  0.59288745  0.47881920  0.41946691  1
  H+  H128  1  0.18078771  0.68326217  -0.00038071  1
  H+  H129  1  0.82200308  0.69681437  0.98208682  1
  H+  H130  1  0.81021432  0.56891004  0.64861842  1
  H+  H131  1  0.23474946  0.45515398  0.91542323  1
  H+  H132  1  0.43444131  0.22016535  0.63706421  1
  H+  H133  1  0.73893777  0.53390981  0.51182704  1
  H+  H134  1  0.70453710  0.17392931  0.01595098  1
  H+  H135  1  1.02618992  0.16431735  1.01950499  1
  H+  H136  1  0.19760172  0.09663605  0.38675625  1
  H+  H137  1  0.44647113  0.91206525  0.10788779  1
  H+  H138  1  0.77908749  0.21955050  0.10991579  1
  H+  H139  1  0.22663789  0.76416811  0.91289961  1
  H+  H140  1  0.54479827  0.10165570  0.39674497  1
  H+  H141  1  0.43571084  0.88536473  0.59750008  1
  H+  H142  1  0.86943555  0.78541143  0.84067465  1
  H+  H143  1  0.86099559  0.07405222  0.39575173  1
  O2-  O144  1  0.11033967  0.22276831  0.22837687  1
  O2-  O145  1  0.05613446  0.12865517  0.68825451  1
  O2-  O146  1  0.11605478  0.55422124  0.22139651  1
  O2-  O147  1  0.12010975  0.56107281  0.71583829  1
  O2-  O148  1  0.09320948  0.87792595  0.20630069  1
  O2-  O149  1  0.09530945  0.87126453  0.71156006  1
  O2-  O150  1  0.42697955  0.21720490  0.20361948  1
  O2-  O151  1  0.43363146  0.21713712  0.70398282  1
  O2-  O152  1  0.45546045  0.56076992  0.22963089  1
  O2-  O153  1  0.45678769  0.56908699  0.72247182  1
  O2-  O154  1  0.45512997  0.90700590  0.22614017  1
  O2-  O155  1  0.45594018  0.88640047  0.70622367  1
  O2-  O156  1  0.78376068  0.22711566  0.22797888  1
  O2-  O157  1  0.77698992  0.21819255  0.71765745  1
  O2-  O158  1  0.78937120  0.54300621  0.23565332  1
  O2-  O159  1  0.79939701  0.56407249  0.71574087  1
  O2-  O160  1  0.78954985  0.89635250  0.20255934  1
  O2-  O161  1  0.76852017  0.90354928  0.71457475  1
  O2-  O162  1  0.20740735  0.10091705  0.27700390  1
  O2-  O163  1  0.21896753  0.10134063  0.77579571  1
  O2-  O164  1  0.22990527  0.44615240  0.28362712  1
  O2-  O165  1  0.24885994  0.52207009  0.82732044  1
  O2-  O166  1  0.23524420  0.78819788  0.26224253  1
  O2-  O167  1  0.24570923  0.77720120  0.78301722  1
  O2-  O168  1  0.55727329  0.12111785  0.28192568  1
  O2-  O169  1  0.55222950  0.11073305  0.76032468  1
  O2-  O170  1  0.58048751  0.45418489  0.30132872  1
  O2-  O171  1  0.56399966  0.45742895  0.75036372  1
  O2-  O172  1  0.57014822  0.78948418  0.27760791  1
  O2-  O173  1  0.56865829  0.78119170  0.75884210  1
  O2-  O174  1  0.88464938  0.10352066  0.27928480  1
  O2-  O175  1  0.87888240  0.11214153  0.79326079  1
  O2-  O176  1  0.91163841  0.44869288  0.30007525  1
  O2-  O177  1  0.89611528  0.44034811  0.77961374  1
  O2-  O178  1  0.87955472  0.76865156  0.26663863  1
  O2-  O179  1  0.87225262  0.78925380  0.77283477  1
  O2-  O180  1  0.18359930  0.09257439  0.45534759  1
  O2-  O181  1  0.19662500  0.07200683  0.96159705  1
  O2-  O182  1  0.22612500  0.45315870  0.47097571  1
  O2-  O183  1  0.23255743  0.43441731  0.98462062  1
  O2-  O184  1  0.22105911  0.78203825  0.48310044  1
  O2-  O185  1  0.20829386  0.76301795  0.97807786  1
  O2-  O186  1  0.53892370  0.09237827  0.46488188  1
  O2-  O187  1  0.58931289  0.08760897  0.94481633  1
  O2-  O188  1  0.59364783  0.47346608  0.48705963  1
  O2-  O189  1  0.58340212  0.42471706  0.97735843  1
  O2-  O190  1  0.60669808  0.78135501  0.46181528  1
  O2-  O191  1  0.41094454  0.72829824  0.91487208  1
  O2-  O192  1  0.85623426  0.05844361  0.46250214  1
  O2-  O193  1  0.88349106  0.10475020  0.97534495  1
  O2-  O194  1  0.97382494  0.48457412  0.49310382  1
  O2-  O195  1  0.89499956  0.43024519  0.96957166  1
  O2-  O196  1  0.89509383  0.82905059  0.44602171  1
  O2-  O197  1  0.86418841  0.77615995  0.95941942  1
  O2-  O198  1  0.10520825  0.19699721  0.04302298  1
  O2-  O199  1  0.08092674  0.21746605  0.51403129  1
  O2-  O200  1  0.11735493  0.54073056  0.03807635  1
  O2-  O201  1  0.09257210  0.55515205  0.52689985  1
  O2-  O202  1  0.07620081  0.85196734  0.01884057  1
  O2-  O203  1  0.09810371  0.88467431  0.53217560  1
  O2-  O204  1  0.40355248  0.23661224  0.02680136  1
  O2-  O205  1  0.46669407  0.24808984  0.50939458  1
  O2-  O206  1  0.45196118  0.50478694  0.04345807  1
  O2-  O207  1  0.46232642  0.56583856  0.53628850  1
  O2-  O208  1  0.44145240  0.92257467  0.04145814  1
  O2-  O209  1  0.42299393  0.88423871  0.52891759  1
  O2-  O210  1  0.78363088  0.21650204  0.04195767  1
  O2-  O211  1  0.76334124  0.18951885  0.53850048  1
  O2-  O212  1  0.83043706  0.57649123  0.05608068  1
  O2-  O213  1  0.82177664  0.57374177  0.52889042  1
  O2-  O214  1  0.78488175  0.90160950  0.03044190  1
  O2-  O215  1  0.71507394  0.83042804  0.51225502  1
