# generated using pymatgen
data_H2O
_symmetry_space_group_name_H-M   'P 1'
_cell_length_a   13.52042034
_cell_length_b   13.52161760
_cell_length_c   14.69465639
_cell_angle_alpha   90.03830176
_cell_angle_beta   89.92915083
_cell_angle_gamma   120.03621428
_symmetry_Int_Tables_number   1
_chemical_formula_structural   H2O
_chemical_formula_sum   'H144 O72'
_cell_volume   2325.68011510
_cell_formula_units_Z   72
loop_
 _symmetry_equiv_pos_site_id
 _symmetry_equiv_pos_as_xyz
  1  'x, y, z'
loop_
 _atom_type_symbol
 _atom_type_oxidation_number
  H+  1.0
  O2-  -2.0
loop_
 _atom_site_type_symbol
 _atom_site_label
 _atom_site_symmetry_multiplicity
 _atom_site_fract_x
 _atom_site_fract_y
 _atom_site_fract_z
 _atom_site_occupancy
  H+  H0  1  0.12720775  0.22530052  0.14597500  1
  H+  H1  1  0.73478447  0.84201111  0.72556377  1
  H+  H2  1  0.70978298  0.85389394  0.00528835  1
  H+  H3  1  0.18821809  0.04506650  0.76085945  1
  H+  H4  1  0.64075564  0.51916420  0.76241997  1
  H+  H5  1  0.82502891  0.63784832  1.01052016  1
  H+  H6  1  0.83968595  0.48301867  0.26625708  1
  H+  H7  1  1.04004817  0.16964787  0.53008945  1
  H+  H8  1  1.04402975  0.86153208  0.25235586  1
  H+  H9  1  0.48581775  0.65006410  0.50030348  1
  H+  H10  1  0.49197302  0.51833928  0.01161861  1
  H+  H11  1  0.15083323  0.51072116  0.51203153  1
  H+  H12  1  0.46129963  0.17486107  0.02080496  1
  H+  H13  1  0.15997147  0.50654835  0.00829134  1
  H+  H14  1  0.82503917  0.52000898  1.01191880  1
  H+  H15  1  0.11111451  0.54634652  0.09383855  1
  H+  H16  1  0.72093192  0.54923006  0.23850435  1
  H+  H17  1  0.43063390  0.58834472  0.59509790  1
  H+  H18  1  0.41093072  0.76551525  0.64952090  1
  H+  H19  1  0.80785868  0.96877053  0.22988022  1
  H+  H20  1  0.16121681  0.29789852  0.51093210  1
  H+  H21  1  0.29698972  0.80970766  0.50101508  1
  H+  H22  1  0.18467011  0.46888467  0.26512920  1
  H+  H23  1  0.80073231  0.17221973  0.19713944  1
  H+  H24  1  0.16075853  0.86476208  0.73690773  1
  H+  H25  1  0.70197707  0.54584086  0.51553036  1
  H+  H26  1  0.28797925  0.12318111  0.49472632  1
  H+  H27  1  0.17854284  0.81279475  0.49626891  1
  H+  H28  1  0.63668808  0.48504747  -0.00304713  1
  H+  H29  1  0.81554581  0.85690063  0.24566430  1
  H+  H30  1  0.17494119  0.70142497  0.26788320  1
  H+  H31  1  0.35864240  0.83253557  0.02012001  1
  H+  H32  1  0.18921073  0.68916795  0.99721235  1
  H+  H33  1  0.62128160  0.11015457  0.50109071  1
  H+  H34  1  0.97750349  0.81726517  0.99656460  1
  H+  H35  1  0.50080607  0.01694743  0.26262899  1
  H+  H36  1  0.48647279  0.62492791  0.25152334  1
  H+  H37  1  0.15081938  0.17715135  0.23919136  1
  H+  H38  1  1.01553879  0.85420334  0.52767099  1
  H+  H39  1  1.02376783  0.50406587  0.73853009  1
  H+  H40  1  0.03891697  0.62884310  0.17471702  1
  H+  H41  1  1.00431658  0.52624156  0.24001109  1
  H+  H42  1  0.47058367  0.24029207  0.51621730  1
  H+  H43  1  0.86424480  0.02908585  0.76109447  1
  H+  H44  1  0.18718540  1.03313891  0.26107168  1
  H+  H45  1  0.47571379  0.66347019  0.72764839  1
  H+  H46  1  0.16016882  0.85618090  0.25169367  1
  H+  H47  1  0.80190614  0.13475858  0.53910996  1
  H+  H48  1  0.85348420  0.84892029  0.74070908  1
  H+  H49  1  0.18089014  1.02520288  -0.00361610  1
  H+  H50  1  0.15764748  0.84350734  1.01719449  1
  H+  H51  1  0.03594090  0.19448966  0.76015792  1
  H+  H52  1  0.14328760  0.67897693  0.77080147  1
  H+  H53  1  0.85567713  0.42237672  0.52024617  1
  H+  H54  1  0.52599348  0.41246013  0.53157035  1
  H+  H55  1  0.90107912  0.81132099  0.36348467  1
  H+  H56  1  0.47691749  0.82318004  0.24403053  1
  H+  H57  1  0.59319494  0.14547450  1.00091902  1
  H+  H58  1  0.34661161  0.55872878  0.72657863  1
  H+  H59  1  0.36608411  0.50591133  0.24976790  1
  H+  H60  1  0.68284020  0.16815386  0.76167212  1
  H+  H61  1  0.84084411  0.00305783  0.51442203  1
  H+  H62  1  0.11245396  0.89385816  0.60189695  1
  H+  H63  1  0.84059520  0.35289607  0.76241513  1
  H+  H64  1  0.48099337  0.18206500  0.25795466  1
  H+  H65  1  0.49660790  0.47687980  0.27695970  1
  H+  H66  1  0.97159298  0.15646695  0.22823455  1
  H+  H67  1  0.82494815  0.51572112  0.74096033  1
  H+  H68  1  0.80101034  0.24652788  0.51905385  1
  H+  H69  1  0.16310841  0.18046803  0.00482599  1
  H+  H70  1  0.62882214  0.81360069  0.25164944  1
  H+  H71  1  0.49671568  0.13160984  0.77042182  1
  H+  H72  1  0.87493252  0.69896777  0.76532167  1
  H+  H73  1  0.50592445  0.01639542  0.77585967  1
  H+  H74  1  0.43686280  0.22542038  0.11065276  1
  H+  H75  1  0.47116343  0.95533705  0.02794682  1
  H+  H76  1  0.51557232  0.36955064  0.99675062  1
  H+  H77  1  0.29686898  0.14734215  1.00030940  1
  H+  H78  1  0.86698909  0.02135959  1.01877252  1
  H+  H79  1  0.04666220  0.86547256  0.73885355  1
  H+  H80  1  0.79032663  0.28240136  0.20516661  1
  H+  H81  1  0.16160924  0.01422015  0.49426983  1
  H+  H82  1  0.17988810  0.48775964  0.76914688  1
  H+  H83  1  0.74733319  0.17493221  -0.05195810  1
  H+  H84  1  0.52550491  0.81476168  -0.00628476  1
  H+  H85  1  0.36491248  0.16906740  0.75300897  1
  H+  H86  1  0.98047740  0.48937978  0.98378002  1
  H+  H87  1  0.47481285  -0.06405576  0.52478241  1
  H+  H88  1  0.30893969  0.48187956  -0.00998896  1
  H+  H89  1  0.52768072  0.69853989  -0.00700411  1
  H+  H90  1  0.16319718  0.16739411  0.50677620  1
  H+  H91  1  0.84348035  0.13310133  0.77464110  1
  H+  H92  1  0.34705693  0.82199943  0.25025830  1
  H+  H93  1  0.86354811  0.37218300  0.97801921  1
  H+  H94  1  0.82731352  0.55951205  0.50751368  1
  H+  H95  1  0.54934405  0.07955928  0.40795204  1
  H+  H96  1  0.80105808  0.58011978  0.15268575  1
  H+  H97  1  0.51084653  0.51639085  0.50463598  1
  H+  H98  1  0.82783121  0.72980139  0.54080187  1
  H+  H99  1  0.00540296  0.15570503  0.01996625  1
  H+  H100  1  0.46023238  0.12077551  0.51406488  1
  H+  H101  1  0.16441105  0.30401795  1.00167740  1
  H+  H102  1  0.85978631  0.81891832  0.99089631  1
  H+  H103  1  0.30026116  0.47903147  0.49482970  1
  H+  H104  1  0.15944368  0.63428543  0.51182835  1
  H+  H105  1  0.61886900  0.13128125  0.25220093  1
  H+  H106  1  0.84481718  0.83741195  0.59949730  1
  H+  H107  1  0.36112893  0.18152509  0.25799955  1
  H+  H108  1  0.91229583  0.78014064  0.85511500  1
  H+  H109  1  0.78007836  0.88103790  0.09827832  1
  H+  H110  1  0.15528268  0.19980987  0.75313077  1
  H+  H111  1  0.57379717  0.84630769  0.76433761  1
  H+  H112  1  0.49708752  0.34717979  0.28350684  1
  H+  H113  1  0.78975385  0.56950694  0.65807618  1
  H+  H114  1  0.23073332  0.44649569  0.89946364  1
  H+  H115  1  0.86664107  0.72452790  0.27982677  1
  H+  H116  1  0.52220425  0.08988015  0.91046277  1
  H+  H117  1  0.21467653  0.10572699  0.35278481  1
  H+  H118  1  0.21945400  0.42802038  0.40770497  1
  H+  H119  1  0.75894199  0.19764486  0.67258876  1
  H+  H120  1  0.98280030  0.51124895  0.49655356  1
  H+  H121  1  0.18817078  0.37400048  0.76552743  1
  H+  H122  1  0.89121946  0.44385691  0.84389518  1
  H+  H123  1  0.87976873  0.44155656  0.35222393  1
  H+  H124  1  0.07301528  0.72544942  0.82158800  1
  H+  H125  1  0.89422970  0.09166708  0.43971066  1
  H+  H126  1  0.18279643  0.35064173  0.25896164  1
  H+  H127  1  0.76716969  0.20496623  0.05763849  1
  H+  H128  1  0.44983879  0.55526302  0.09996697  1
  H+  H129  1  0.55413029  0.83281404  0.49060920  1
  H+  H130  1  0.21582610  0.76962274  0.91147051  1
  H+  H131  1  0.22440963  0.11533784  0.85388445  1
  H+  H132  1  0.22849871  0.77723210  0.36009646  1
  H+  H133  1  0.11275763  0.55550505  0.65561191  1
  H+  H134  1  0.11830196  0.88620058  0.10456798  1
  H+  H135  1  0.42901145  0.86406775  0.14767837  1
  H+  H136  1  0.55966568  0.78029370  0.34463157  1
  H+  H137  1  0.55206168  0.47418857  0.83968325  1
  H+  H138  1  0.43190171  0.17627798  0.66187579  1
  H+  H139  1  0.58667119  0.78461889  0.84995402  1
  H+  H140  1  0.74458240  0.82501953  0.48466539  1
  H+  H141  1  0.88534375  0.14689564  0.30362467  1
  H+  H142  1  0.53491793  0.43818169  0.37704942  1
  H+  H143  1  0.87515279  0.15131460  0.00344518  1
  O2-  O144  1  0.11460505  0.22034649  0.21359188  1
  O2-  O145  1  0.11476706  0.24089651  0.73549968  1
  O2-  O146  1  0.07224854  0.58861188  0.20613446  1
  O2-  O147  1  0.10684904  0.55401457  0.72314440  1
  O2-  O148  1  0.12202391  0.89609402  0.22516484  1
  O2-  O149  1  0.12590349  0.90846503  0.71184650  1
  O2-  O150  1  0.44464571  0.22789285  0.24029469  1
  O2-  O151  1  0.44183566  0.18829884  0.72806140  1
  O2-  O152  1  0.44897048  0.54254162  0.23301083  1
  O2-  O153  1  0.40648223  0.62302079  0.68912724  1
  O2-  O154  1  0.42932803  0.86002959  0.22092227  1
  O2-  O155  1  0.43664910  0.84754717  0.63840623  1
  O2-  O156  1  0.75235996  0.20518859  0.17788538  1
  O2-  O157  1  0.76347776  0.20796168  0.73942651  1
  O2-  O158  1  0.80165026  0.58471525  0.22181197  1
  O2-  O159  1  0.79720068  0.56945651  0.72513966  1
  O2-  O160  1  0.76901125  0.88577345  0.21548745  1
  O2-  O161  1  0.81487678  0.88135700  0.70315475  1
  O2-  O162  1  0.22286029  0.11352091  0.28518729  1
  O2-  O163  1  0.22978002  0.12381646  0.78654680  1
  O2-  O164  1  0.22500929  0.43018034  0.28651997  1
  O2-  O165  1  0.22972841  0.45663872  0.78780565  1
  O2-  O166  1  0.23157959  0.77945968  0.29105402  1
  O2-  O167  1  0.15169013  0.74772773  0.80538329  1
  O2-  O168  1  0.54493054  0.09594665  0.28555407  1
  O2-  O169  1  0.54039419  0.09317121  0.80172611  1
  O2-  O170  1  0.53277708  0.43117147  0.30754223  1
  O2-  O171  1  0.56233222  0.50076583  0.77646982  1
  O2-  O172  1  0.54862983  0.77144756  0.27647084  1
  O2-  O173  1  0.59466491  0.78977426  0.78237766  1
  O2-  O174  1  0.88714864  0.12135031  0.24190077  1
  O2-  O175  1  0.89038967  0.10046504  0.79593639  1
  O2-  O176  1  0.87473220  0.43643285  0.28475008  1
  O2-  O177  1  0.88671887  0.43655446  0.77621753  1
  O2-  O178  1  0.90456257  0.80680409  0.29716528  1
  O2-  O179  1  0.92155685  0.78061134  0.78749079  1
  O2-  O180  1  0.20836198  0.09686784  0.47206180  1
  O2-  O181  1  0.21813799  0.10570889  0.97379599  1
  O2-  O182  1  0.21885293  0.42741774  0.47556808  1
  O2-  O183  1  0.22787281  0.43955125  0.96865701  1
  O2-  O184  1  0.21920177  0.77374656  0.47266848  1
  O2-  O185  1  0.22923301  0.77179782  0.97874646  1
  O2-  O186  1  0.54241346  0.07125473  0.47529558  1
  O2-  O187  1  0.51679619  0.08964096  0.98008692  1
  O2-  O188  1  0.55189235  0.47218933  0.48524614  1
  O2-  O189  1  0.55610659  0.45035123  0.97676307  1
  O2-  O190  1  0.58773663  0.79261671  0.45607959  1
  O2-  O191  1  0.57017184  0.78006497  0.97132570  1
  O2-  O192  1  0.89429196  0.08584097  0.50593726  1
  O2-  O193  1  0.91452228  0.10924577  1.02556358  1
  O2-  O194  1  0.90111666  0.48191084  0.47610228  1
  O2-  O195  1  0.89938690  0.45418919  0.96277453  1
  O2-  O196  1  0.85845090  0.81419262  0.53775504  1
  O2-  O197  1  0.89844638  0.77635341  0.97083510  1
  O2-  O198  1  0.12573943  0.22447479  0.02949708  1
  O2-  O199  1  0.12559999  0.21436942  0.53253945  1
  O2-  O200  1  0.11814481  0.54795053  0.02695022  1
  O2-  O201  1  0.11371428  0.55375181  0.53414396  1
  O2-  O202  1  0.11704650  0.88466616  0.03682655  1
  O2-  O203  1  0.09921178  0.88569073  0.53351420  1
  O2-  O204  1  0.43124976  0.22413675  0.04347722  1
  O2-  O205  1  0.41892752  0.16175643  0.53498269  1
  O2-  O206  1  0.45086913  0.55980095  0.03303679  1
  O2-  O207  1  0.44053667  0.57307996  0.52759331  1
  O2-  O208  1  0.43707637  0.87464248  0.05000079  1
  O2-  O209  1  0.43643947  0.85138762  0.53670503  1
  O2-  O210  1  0.80282914  0.21863334  -0.00451369  1
  O2-  O211  1  0.75663491  0.17348011  0.55016616  1
  O2-  O212  1  0.78682011  0.55992892  0.03900251  1
  O2-  O213  1  0.78151542  0.58822358  0.53867411  1
  O2-  O214  1  0.78971483  0.89134342  0.03065124  1
  O2-  O215  1  0.71295916  0.87295480  0.46036391  1
