# generated using pymatgen
data_H2O
_symmetry_space_group_name_H-M   'P 1'
_cell_length_a   13.47696539
_cell_length_b   13.46537948
_cell_length_c   14.67847701
_cell_angle_alpha   89.90635491
_cell_angle_beta   90.08194637
_cell_angle_gamma   119.89867317
_symmetry_Int_Tables_number   1
_chemical_formula_structural   H2O
_chemical_formula_sum   'H144 O72'
_cell_volume   2309.21396290
_cell_formula_units_Z   72
loop_
 _symmetry_equiv_pos_site_id
 _symmetry_equiv_pos_as_xyz
  1  'x, y, z'
loop_
 _atom_type_symbol
 _atom_type_oxidation_number
  H+  1.0
  O2-  -2.0
loop_
 _atom_site_type_symbol
 _atom_site_label
 _atom_site_symmetry_multiplicity
 _atom_site_fract_x
 _atom_site_fract_y
 _atom_site_fract_z
 _atom_site_occupancy
  H+  H0  1  0.75463653  0.57877570  0.61469085  1
  H+  H1  1  0.83454161  0.32562114  -0.00853720  1
  H+  H2  1  0.49217799  0.19776008  0.73892113  1
  H+  H3  1  0.52410231  0.00092059  1.00691579  1
  H+  H4  1  0.83466309  0.70905344  0.97999371  1
  H+  H5  1  0.15522006  0.17911163  0.25050465  1
  H+  H6  1  0.63715875  0.15357813  0.49123531  1
  H+  H7  1  0.48767202  0.85855899  0.75111784  1
  H+  H8  1  0.11791606  0.54259598  0.14084804  1
  H+  H9  1  0.19455733  1.05006132  0.25563063  1
  H+  H10  1  0.02875369  0.17187837  0.49403810  1
  H+  H11  1  0.63026617  0.49045620  0.98771399  1
  H+  H12  1  0.20063069  0.73825286  0.81086499  1
  H+  H13  1  0.36644612  0.85501489  0.73818079  1
  H+  H14  1  0.77757199  0.50806929  0.54392770  1
  H+  H15  1  0.52330915  0.82384428  0.50159361  1
  H+  H16  1  0.16779378  0.63113846  0.51299052  1
  H+  H17  1  0.18662730  0.49117540  0.01888605  1
  H+  H18  1  0.81413657  0.17672859  0.74117775  1
  H+  H19  1  0.03356183  0.85782700  0.52006351  1
  H+  H20  1  0.84200472  0.90571581  0.25953836  1
  H+  H21  1  0.83968014  0.00088392  0.76970625  1
  H+  H22  1  0.65623940  0.16947420  0.98919279  1
  H+  H23  1  0.84570998  0.49612407  0.74669597  1
  H+  H24  1  0.77616017  0.17862526  0.14151939  1
  H+  H25  1  0.17295160  0.34300543  0.47801829  1
  H+  H26  1  0.03455078  0.43661116  0.05218455  1
  H+  H27  1  0.18742975  0.03947604  0.98617083  1
  H+  H28  1  0.19454246  0.68945318  0.22909421  1
  H+  H29  1  0.81913855  0.18099182  0.50709458  1
  H+  H30  1  0.66633617  0.44698784  0.22851626  1
  H+  H31  1  0.56173520  0.45708850  0.35484540  1
  H+  H32  1  0.02985726  0.85886210  -0.01026104  1
  H+  H33  1  0.31449136  0.82683167  0.52279066  1
  H+  H34  1  0.85015156  0.03197277  0.49935287  1
  H+  H35  1  0.85025491  1.11579617  0.25757536  1
  H+  H36  1  0.48906680  0.52037074  0.52115344  1
  H+  H37  1  0.48517484  0.52088252  0.74604755  1
  H+  H38  1  0.51078775  0.37318184  0.99766464  1
  H+  H39  1  0.51402220  0.86427602  0.00567022  1
  H+  H40  1  -0.04726860  0.11890086  0.74998315  1
  H+  H41  1  0.89307628  0.49755431  0.45799953  1
  H+  H42  1  0.19102282  0.15676920  0.76013969  1
  H+  H43  1  0.85666701  0.04783855  0.99448990  1
  H+  H44  1  0.52472303  1.03285841  0.25305139  1
  H+  H45  1  0.55876114  0.77968768  0.90952336  1
  H+  H46  1  0.08327256  0.88734246  0.66503501  1
  H+  H47  1  0.64771595  0.81276976  0.77832998  1
  H+  H48  1  0.36772313  0.19076855  0.50629155  1
  H+  H49  1  0.19115558  1.04316739  0.48853162  1
  H+  H50  1  0.11318484  0.52821670  0.64753480  1
  H+  H51  1  0.50082347  0.36738256  0.50148064  1
  H+  H52  1  0.37641725  0.84802432  0.21611560  1
  H+  H53  1  0.30821895  0.47727772  0.26669170  1
  H+  H54  1  0.51171850  0.69733913  0.27030933  1
  H+  H55  1  0.10805986  0.27045079  0.70910693  1
  H+  H56  1  0.61770775  0.49083128  0.50478857  1
  H+  H57  1  0.49150796  -0.02445964  0.51709516  1
  H+  H58  1  0.87000317  0.70298293  0.23443097  1
  H+  H59  1  0.15091975  0.86013972  0.54191215  1
  H+  H60  1  0.18652598  0.47355740  0.48009868  1
  H+  H61  1  0.69811461  0.86407134  0.01881496  1
  H+  H62  1  0.69384518  0.13143911  0.22749950  1
  H+  H63  1  0.17425440  0.81048914  0.74331028  1
  H+  H64  1  0.50338660  0.65615050  0.52089308  1
  H+  H65  1  0.45986415  0.90054953  0.60988624  1
  H+  H66  1  0.63720910  0.15707002  0.76224025  1
  H+  H67  1  0.63375323  0.81195192  0.27093234  1
  H+  H68  1  0.37085104  0.53151758  0.74651569  1
  H+  H69  1  0.98061783  0.14801126  0.27063291  1
  H+  H70  1  0.83864518  0.20753309  0.99189335  1
  H+  H71  1  0.52229723  0.70460612  0.77181679  1
  H+  H72  1  0.16312329  0.52261656  0.24252263  1
  H+  H73  1  0.21148715  0.39230871  0.80795695  1
  H+  H74  1  0.49737749  0.37902042  0.26733175  1
  H+  H75  1  0.36741405  0.18988989  0.01609318  1
  H+  H76  1  0.70591830  0.85133267  0.53160041  1
  H+  H77  1  0.12585441  0.75400567  0.96292167  1
  H+  H78  1  0.18571313  0.48935771  0.76827546  1
  H+  H79  1  1.05261993  0.51143896  0.49415958  1
  H+  H80  1  1.04442078  0.99160837  0.31895783  1
  H+  H81  1  1.02905383  0.50081905  0.73270456  1
  H+  H82  1  0.85221860  0.70987397  0.48901482  1
  H+  H83  1  0.16443857  0.31579167  0.01551429  1
  H+  H84  1  0.78395205  0.87883609  0.62237430  1
  H+  H85  1  0.97620197  0.51896674  0.97174233  1
  H+  H86  1  0.06481431  0.88255528  0.23379412  1
  H+  H87  1  0.81525859  0.52384142  -0.00737539  1
  H+  H88  1  0.16396659  0.85224090  0.21510862  1
  H+  H89  1  0.83974066  0.82929981  0.99122954  1
  H+  H90  1  0.37530139  0.20237856  0.74132491  1
  H+  H91  1  0.85508762  0.82744002  0.50595943  1
  H+  H92  1  -0.00774620  0.83656660  0.74352728  1
  H+  H93  1  0.51695431  0.70492168  0.00395837  1
  H+  H94  1  0.52047966  0.15735063  0.49118375  1
  H+  H95  1  0.82413079  0.30117181  0.50368222  1
  H+  H96  1  0.18454182  0.35029933  0.25973000  1
  H+  H97  1  0.48952475  0.52863614  0.02191668  1
  H+  H98  1  0.48746137  0.19361678  1.02486101  1
  H+  H99  1  0.98897274  0.49155579  0.24692011  1
  H+  H100  1  0.13819553  0.64421479  -0.02026398  1
  H+  H101  1  0.85285020  0.44947921  0.24401705  1
  H+  H102  1  0.51113624  0.37069656  0.76262054  1
  H+  H103  1  0.24934867  0.48124554  0.92633708  1
  H+  H104  1  0.49635655  0.85119922  0.23360335  1
  H+  H105  1  0.83685681  0.66485872  0.19506069  1
  H+  H106  1  0.49087846  0.52528827  0.25287828  1
  H+  H107  1  0.84310251  0.37495227  0.75128246  1
  H+  H108  1  0.21992983  0.42816854  0.37391032  1
  H+  H109  1  0.75524321  0.52081732  0.08516359  1
  H+  H110  1  0.55921372  0.10524056  0.34364727  1
  H+  H111  1  0.56022397  0.78064391  0.41236610  1
  H+  H112  1  0.89709252  0.11148345  0.89887426  1
  H+  H113  1  0.22238413  0.11540619  0.39177194  1
  H+  H114  1  0.44714523  0.56173919  0.16354991  1
  H+  H115  1  0.11106772  0.88839256  0.07637630  1
  H+  H116  1  0.37193327  0.53140932  0.02822122  1
  H+  H117  1  0.88732344  0.10224680  0.40289413  1
  H+  H118  1  0.22641429  0.81152333  0.44624050  1
  H+  H119  1  0.51740467  0.04075728  0.76559760  1
  H+  H120  1  0.91564443  0.43619842  0.37624631  1
  H+  H121  1  0.41876752  0.24386248  0.16298958  1
  H+  H122  1  0.54393815  0.44859738  0.85459266  1
  H+  H123  1  0.67440927  0.35079989  0.17474622  1
  H+  H124  1  0.04346675  0.19746170  0.00881113  1
  H+  H125  1  0.18933766  0.15993003  0.99737862  1
  H+  H126  1  0.84127945  0.80526901  0.83762754  1
  H+  H127  1  0.47695561  0.90912773  0.10133868  1
  H+  H128  1  0.24273879  0.77956738  0.31048767  1
  H+  H129  1  0.68292287  0.52780534  0.74717247  1
  H+  H130  1  0.45778397  0.57302062  0.61930732  1
  H+  H131  1  0.15429843  0.17652340  0.49223533  1
  H+  H132  1  0.24257708  0.14233118  0.85518649  1
  H+  H133  1  0.78978098  0.65532127  0.74341362  1
  H+  H134  1  0.89820260  0.47196703  0.88350536  1
  H+  H135  1  0.09449560  0.19245989  0.62733902  1
  H+  H136  1  0.56640467  0.12252392  0.90596753  1
  H+  H137  1  0.95782933  0.87496318  0.37095162  1
  H+  H138  1  0.44597588  0.23042596  0.59781247  1
  H+  H139  1  0.11980776  0.23005770  0.15832003  1
  H+  H140  1  0.33156920  0.21006515  0.24889559  1
  H+  H141  1  0.78079328  0.22115974  0.65176909  1
  H+  H142  1  0.77308670  0.78800118  0.21267096  1
  H+  H143  1  0.77865071  0.90427811  0.10676451  1
  O2-  O144  1  0.12211764  0.23261706  0.22603856  1
  O2-  O145  1  0.08750700  0.19169912  0.69598257  1
  O2-  O146  1  0.12788387  0.56427450  0.21442280  1
  O2-  O147  1  0.10335972  0.50973618  0.71317796  1
  O2-  O148  1  0.13073844  0.89932951  0.19385856  1
  O2-  O149  1  0.07262847  0.86185423  0.72919445  1
  O2-  O150  1  0.41034689  0.26447690  0.22595281  1
  O2-  O151  1  0.45557591  0.24051178  0.71392090  1
  O2-  O152  1  0.44254348  0.55914680  0.23216906  1
  O2-  O153  1  0.45050293  0.56692659  0.72057301  1
  O2-  O154  1  0.46068433  0.89183724  0.20198521  1
  O2-  O155  1  0.45163484  0.90031209  0.72389630  1
  O2-  O156  1  0.75317684  0.12403791  0.19207833  1
  O2-  O157  1  0.77969118  0.22299944  0.71983796  1
  O2-  O158  1  0.71822469  0.43251230  0.18843148  1
  O2-  O159  1  0.76245134  0.57525765  0.72198808  1
  O2-  O160  1  0.77027717  0.85783181  0.22445498  1
  O2-  O161  1  0.77860499  0.86138063  0.73735477  1
  O2-  O162  1  0.19685468  0.11197307  0.29259443  1
  O2-  O163  1  0.25639212  0.15549964  0.78852599  1
  O2-  O164  1  0.22579056  0.43418174  0.28792589  1
  O2-  O165  1  0.24545986  0.47488149  0.80147304  1
  O2-  O166  1  0.23911054  0.77746012  0.24436740  1
  O2-  O167  1  0.22640558  0.77916402  0.75232801  1
  O2-  O168  1  0.57027173  0.11169497  0.27689245  1
  O2-  O169  1  0.55842115  0.12166728  0.78831922  1
  O2-  O170  1  0.56148143  0.45875024  0.28747632  1
  O2-  O171  1  0.54684880  0.45181916  0.78608437  1
  O2-  O172  1  0.55331576  0.77884618  0.29295651  1
  O2-  O173  1  0.56510928  0.78298080  0.79810409  1
  O2-  O174  1  0.90259257  0.10037031  0.29621508  1
  O2-  O175  1  0.87786238  0.08620286  0.78189687  1
  O2-  O176  1  0.91212595  0.43816550  0.27396140  1
  O2-  O177  1  0.88718827  0.45731398  0.76861574  1
  O2-  O178  1  0.97664395  0.91393998  0.31102362  1
  O2-  O179  1  0.83795003  0.79848151  0.76965352  1
  O2-  O180  1  0.23189665  0.12209007  0.46301612  1
  O2-  O181  1  0.23310442  0.12360933  0.97322270  1
  O2-  O182  1  0.21722623  0.42501018  0.45293279  1
  O2-  O183  1  0.24403944  0.46472686  0.99232134  1
  O2-  O184  1  0.22993220  0.78363691  0.50658750  1
  O2-  O185  1  0.12492469  0.68843481  0.93230309  1
  O2-  O186  1  0.55531339  0.11060921  0.47169199  1
  O2-  O187  1  0.57186363  0.12134049  0.97429559  1
  O2-  O188  1  0.53703001  0.45124775  0.48187987  1
  O2-  O189  1  0.54682823  0.45210813  0.97078152  1
  O2-  O190  1  0.56144835  0.77988114  0.48076274  1
  O2-  O191  1  0.55800310  0.78557745  0.97838821  1
  O2-  O192  1  0.88811884  0.11006808  0.47247822  1
  O2-  O193  1  0.90165609  0.12526779  0.96617724  1
  O2-  O194  1  0.91730612  0.44151725  0.44744704  1
  O2-  O195  1  0.89600947  0.47023527  0.95181728  1
  O2-  O196  1  0.89825153  0.79279732  0.47665644  1
  O2-  O197  1  0.87134405  0.78815037  0.95577656  1
  O2-  O198  1  0.12223717  0.23371472  0.03512562  1
  O2-  O199  1  0.11086962  0.21572255  0.51554325  1
  O2-  O200  1  0.10046727  0.51398132  0.05172911  1
  O2-  O201  1  0.13049387  0.54683612  0.52261124  1
  O2-  O202  1  0.11060505  0.88982106  0.00830511  1
  O2-  O203  1  0.11285115  0.90644923  0.54473784  1
  O2-  O204  1  0.44687773  0.23472719  0.04239655  1
  O2-  O205  1  0.44879214  0.23387387  0.52938402  1
  O2-  O206  1  0.45545520  0.57328082  0.04881682  1
  O2-  O207  1  0.46117541  0.57441946  0.54796269  1
  O2-  O208  1  0.48265284  0.91571319  0.03057588  1
  O2-  O209  1  0.45458422  0.89480790  0.54126245  1
  O2-  O210  1  0.79520682  0.24509002  0.01404226  1
  O2-  O211  1  0.78034486  0.22336622  0.53033050  1
  O2-  O212  1  0.76748121  0.55279880  0.02242215  1
  O2-  O213  1  0.75394079  0.56565621  0.54587417  1
  O2-  O214  1  0.77964339  0.90771464  0.03916600  1
  O2-  O215  1  0.78605807  0.89002770  0.55367422  1
