# generated using pymatgen
data_H2O
_symmetry_space_group_name_H-M   'P 1'
_cell_length_a   13.48147721
_cell_length_b   13.47859499
_cell_length_c   14.63895098
_cell_angle_alpha   90.05388388
_cell_angle_beta   89.96081987
_cell_angle_gamma   120.03735566
_symmetry_Int_Tables_number   1
_chemical_formula_structural   H2O
_chemical_formula_sum   'H144 O72'
_cell_volume   2302.81414356
_cell_formula_units_Z   72
loop_
 _symmetry_equiv_pos_site_id
 _symmetry_equiv_pos_as_xyz
  1  'x, y, z'
loop_
 _atom_type_symbol
 _atom_type_oxidation_number
  H+  1.0
  O2-  -2.0
loop_
 _atom_site_type_symbol
 _atom_site_label
 _atom_site_symmetry_multiplicity
 _atom_site_fract_x
 _atom_site_fract_y
 _atom_site_fract_z
 _atom_site_occupancy
  H+  H0  1  0.69471832  0.50412797  0.23768923  1
  H+  H1  1  0.34302708  0.50343047  0.98606972  1
  H+  H2  1  0.61195533  0.82743014  0.75823676  1
  H+  H3  1  0.16853898  0.48317483  0.76457917  1
  H+  H4  1  0.18589834  0.49648182  0.51051302  1
  H+  H5  1  0.70879100  0.82922641  0.01205961  1
  H+  H6  1  0.57446035  0.13402912  0.33654313  1
  H+  H7  1  0.81254663  0.51997074  0.51418397  1
  H+  H8  1  0.65553983  0.95483542  0.66791054  1
  H+  H9  1  0.35649299  0.86421011  0.24273646  1
  H+  H10  1  0.49670715  0.02737028  0.77605114  1
  H+  H11  1  0.50548597  0.64101777  0.74867715  1
  H+  H12  1  0.12550904  0.63670807  0.75275955  1
  H+  H13  1  0.02528513  0.51398137  0.51989709  1
  H+  H14  1  0.17027415  0.19707934  0.74283723  1
  H+  H15  1  0.28115501  0.80822573  0.98787163  1
  H+  H16  1  0.83368636  0.66027471  1.00119314  1
  H+  H17  1  -0.03960418  0.81791073  0.48817109  1
  H+  H18  1  0.18184729  0.37088755  0.76029840  1
  H+  H19  1  0.18594646  0.17747864  0.22414552  1
  H+  H20  1  0.48351516  0.17568986  0.73892811  1
  H+  H21  1  0.81661259  0.96835621  0.23693907  1
  H+  H22  1  0.47730467  0.28898167  0.01389903  1
  H+  H23  1  0.83215272  0.85823033  0.80483471  1
  H+  H24  1  0.08452639  0.05561087  0.20873138  1
  H+  H25  1  0.81674587  0.85743329  0.51830200  1
  H+  H26  1  0.76029709  0.21468581  0.08224333  1
  H+  H27  1  0.46584680  0.84715404  1.00832962  1
  H+  H28  1  0.20833727  0.15160293  -0.01886690  1
  H+  H29  1  1.02980641  0.18960009  0.51218009  1
  H+  H30  1  0.84979841  0.09498242  0.84674115  1
  H+  H31  1  0.32473915  0.81646362  0.77054040  1
  H+  H32  1  0.15244337  0.85358525  1.03153273  1
  H+  H33  1  0.51439201  1.04607100  -0.01627537  1
  H+  H34  1  0.95320826  0.82145362  0.26802716  1
  H+  H35  1  0.99522369  0.81682522  0.77517628  1
  H+  H36  1  0.70034675  0.17538696  0.23115063  1
  H+  H37  1  0.83235463  0.02817524  0.98502319  1
  H+  H38  1  0.55180882  0.77627888  1.08113419  1
  H+  H39  1  0.44405300  0.81909632  0.76967545  1
  H+  H40  1  0.80531632  0.50525750  0.01075273  1
  H+  H41  1  0.51971958  0.15813293  0.47393618  1
  H+  H42  1  0.82597936  0.28604278  0.22709748  1
  H+  H43  1  0.15221413  0.96193490  0.48062510  1
  H+  H44  1  0.37132189  0.52757053  0.52752624  1
  H+  H45  1  0.34755375  0.46764244  0.22472197  1
  H+  H46  1  0.67064651  0.17937014  0.99383637  1
  H+  H47  1  0.85390914  0.14570730  0.24422695  1
  H+  H48  1  0.87031061  0.77476050  0.35437037  1
  H+  H49  1  0.79489606  0.29890858  0.74299549  1
  H+  H50  1  0.48577946  0.29512596  0.72947058  1
  H+  H51  1  0.14942862  0.30332571  0.51917557  1
  H+  H52  1  0.01570768  0.96114145  0.67996549  1
  H+  H53  1  0.14317883  0.63364681  0.51505474  1
  H+  H54  1  -0.05465699  0.47379349  -0.01172040  1
  H+  H55  1  0.47905554  0.87319793  0.24281510  1
  H+  H56  1  0.84608696  0.04169945  0.48746280  1
  H+  H57  1  1.03928732  0.73923474  0.81663499  1
  H+  H58  1  0.17152515  0.48198871  0.98283517  1
  H+  H59  1  0.31795886  0.13300733  0.45098756  1
  H+  H60  1  0.64966787  0.49045257  0.75806550  1
  H+  H61  1  0.51190206  0.45458160  0.25817156  1
  H+  H62  1  0.32351647  0.11828779  0.29214432  1
  H+  H63  1  0.92063562  0.75656261  0.91256222  1
  H+  H64  1  0.16859888  0.97824411  0.02395513  1
  H+  H65  1  0.62620690  0.48010500  0.98551220  1
  H+  H66  1  0.85489149  0.80073543  -0.00892110  1
  H+  H67  1  0.99457794  0.47210952  0.26895253  1
  H+  H68  1  0.87348498  0.43611948  0.85058470  1
  H+  H69  1  0.23566700  0.62285072  0.16927353  1
  H+  H70  1  0.18498068  0.82134074  0.75819054  1
  H+  H71  1  0.80390833  0.62993933  0.23711597  1
  H+  H72  1  0.83995001  0.70046106  0.49789883  1
  H+  H73  1  0.18008647  0.31307809  0.00868079  1
  H+  H74  1  0.46598501  0.57835214  0.20647237  1
  H+  H75  1  0.47353868  0.29658064  0.50346593  1
  H+  H76  1  0.17788028  0.65980840  0.24381001  1
  H+  H77  1  0.84215505  0.63102740  0.75149743  1
  H+  H78  1  0.16304620  0.81166330  0.27117885  1
  H+  H79  1  0.81947365  0.14044549  -0.01958927  1
  H+  H80  1  0.81825486  0.50520648  0.74331611  1
  H+  H81  1  0.52345627  0.05880071  0.24653777  1
  H+  H82  1  0.82368675  0.35264402  0.98734339  1
  H+  H83  1  0.64146639  0.16793275  0.47938488  1
  H+  H84  1  0.13614486  0.00011906  0.72548185  1
  H+  H85  1  0.46189164  0.82486180  0.53455112  1
  H+  H86  1  0.51406484  0.48363888  0.49501221  1
  H+  H87  1  0.43783880  0.28289364  0.24161875  1
  H+  H88  1  0.16432108  0.96332659  0.26931324  1
  H+  H89  1  0.13117619  0.63350348  -0.00008831  1
  H+  H90  1  0.63962399  0.82557303  0.49963370  1
  H+  H91  1  0.52335279  0.73674394  0.28024218  1
  H+  H92  1  0.39318507  0.20564976  0.15310016  1
  H+  H93  1  0.88543641  0.90844149  0.82364221  1
  H+  H94  1  0.96800035  0.13226774  0.25201543  1
  H+  H95  1  0.67338375  0.17972197  0.74401886  1
  H+  H96  1  -0.04163326  0.47751154  0.76229618  1
  H+  H97  1  0.51722061  0.51687714  0.74183738  1
  H+  H98  1  0.64592433  0.84551468  0.26398069  1
  H+  H99  1  0.31727146  0.13871853  0.98470086  1
  H+  H100  1  0.19059593  0.47938025  0.25514618  1
  H+  H101  1  0.48963053  0.17587179  0.00961211  1
  H+  H102  1  0.81791657  0.19346728  0.51267026  1
  H+  H103  1  0.49330271  0.64427750  0.51760783  1
  H+  H104  1  0.17515506  0.81042085  0.49245367  1
  H+  H105  1  0.13121702  0.21446438  0.08583952  1
  H+  H106  1  0.11569707  0.90965337  0.16581786  1
  H+  H107  1  0.84366146  0.36868724  0.50433880  1
  H+  H108  1  0.23326704  0.10029504  0.84586077  1
  H+  H109  1  0.79034952  0.87907660  0.09693323  1
  H+  H110  1  0.47008808  0.56609558  0.64777049  1
  H+  H111  1  0.56045270  0.77037809  0.85747695  1
  H+  H112  1  0.82049801  0.15177655  0.76041028  1
  H+  H113  1  0.55262839  0.42807917  0.35270125  1
  H+  H114  1  0.30916285  0.14331848  0.75274266  1
  H+  H115  1  0.21070318  0.44436487  0.88927599  1
  H+  H116  1  0.76652373  0.99790276  0.73623363  1
  H+  H117  1  0.76904818  0.55177764  0.10322088  1
  H+  H118  1  0.76419694  0.90583988  0.59732956  1
  H+  H119  1  0.76833688  0.22558954  0.60225974  1
  H+  H120  1  0.63073647  0.48127225  0.49703825  1
  H+  H121  1  0.41820749  0.51136405  0.07341783  1
  H+  H122  1  0.23428292  0.46317012  0.42321303  1
  H+  H123  1  0.80664880  0.84426418  0.24499520  1
  H+  H124  1  0.43100340  0.20844997  0.58660142  1
  H+  H125  1  0.89136608  0.44584620  0.41531002  1
  H+  H126  1  0.12127339  0.22712663  0.65487070  1
  H+  H127  1  0.09807589  0.55790452  0.66149801  1
  H+  H128  1  0.28973139  0.80065642  0.50104477  1
  H+  H129  1  0.55770934  0.79686217  0.41453682  1
  H+  H130  1  0.49876013  0.67324024  1.01109444  1
  H+  H131  1  0.10483943  0.90995362  0.58012012  1
  H+  H132  1  0.16621285  0.35273511  0.27571769  1
  H+  H133  1  0.40567630  0.84846201  0.62294097  1
  H+  H134  1  0.56064864  0.44350983  0.84359792  1
  H+  H135  1  0.88572061  0.11830127  0.39767253  1
  H+  H136  1  0.42725463  0.89246745  0.09357154  1
  H+  H137  1  0.54478500  0.11645704  0.86544277  1
  H+  H138  1  0.77677614  0.55976740  0.60460940  1
  H+  H139  1  0.09145768  0.55297434  0.08763512  1
  H+  H140  1  0.50480217  0.47396121  0.97328927  1
  H+  H141  1  0.96791238  0.36626679  0.32895549  1
  H+  H142  1  0.21273480  0.77733965  0.35871305  1
  H+  H143  1  0.19229530  0.77128359  0.90209322  1
  O2-  O144  1  0.10301140  0.13616006  0.21222773  1
  O2-  O145  1  0.13103145  0.23819032  0.72221394  1
  O2-  O146  1  0.16822008  0.58913896  0.20885235  1
  O2-  O147  1  0.09083407  0.55405470  0.72914887  1
  O2-  O148  1  0.09579268  0.90661881  0.23386725  1
  O2-  O149  1  0.06853629  0.93297921  0.69160808  1
  O2-  O150  1  0.36837704  0.21688651  0.21484944  1
  O2-  O151  1  0.44453528  0.21489135  0.70815066  1
  O2-  O152  1  0.42293754  0.49678321  0.19312030  1
  O2-  O153  1  0.47716102  0.56319902  0.71810553  1
  O2-  O154  1  0.43221662  0.90082874  0.21184829  1
  O2-  O155  1  0.40483177  0.85934333  0.74667440  1
  O2-  O156  1  0.78207072  0.20705609  0.20413882  1
  O2-  O157  1  0.75288469  0.21947238  0.71717599  1
  O2-  O158  1  0.77092548  0.55302420  0.20879692  1
  O2-  O159  1  0.78643837  0.55657688  0.72351152  1
  O2-  O160  1  0.76972699  0.88617549  0.21613766  1
  O2-  O161  1  0.70051362  0.92424324  0.69570950  1
  O2-  O162  1  0.28469892  0.04833826  0.33429145  1
  O2-  O163  1  0.22911730  0.10491433  0.77719801  1
  O2-  O164  1  0.22246947  0.43396643  0.28357729  1
  O2-  O165  1  0.21469020  0.44984566  0.78757122  1
  O2-  O166  1  0.21105143  0.77846871  0.28921352  1
  O2-  O167  1  0.17074605  0.75762838  0.79782030  1
  O2-  O168  1  0.58002045  0.13616541  0.26751378  1
  O2-  O169  1  0.54058015  0.10972675  0.79102397  1
  O2-  O170  1  0.55380746  0.41909703  0.28488655  1
  O2-  O171  1  0.56577362  0.45059171  0.77452649  1
  O2-  O172  1  0.56716686  0.81856784  0.29219581  1
  O2-  O173  1  0.54292797  0.76235486  0.79233433  1
  O2-  O174  1  0.88968969  0.10411148  0.27557970  1
  O2-  O175  1  0.84462015  0.09515272  0.77743325  1
  O2-  O176  1  0.93354927  0.40892028  0.30338480  1
  O2-  O177  1  0.87477706  0.43517019  0.78210604  1
  O2-  O178  1  0.87076527  0.77593511  0.28594411  1
  O2-  O179  1  0.96832231  0.74842127  0.81528392  1
  O2-  O180  1  0.24604575  0.08844426  0.41296656  1
  O2-  O181  1  0.23684397  0.09993167  0.95872556  1
  O2-  O182  1  0.23474242  0.46294324  0.49024736  1
  O2-  O183  1  0.21529148  0.44557399  0.96074957  1
  O2-  O184  1  0.21155605  0.76632111  0.46976843  1
  O2-  O185  1  0.19810661  0.76684839  0.97205510  1
  O2-  O186  1  0.56696040  0.12812824  0.44725337  1
  O2-  O187  1  0.55337921  0.12562971  0.96178054  1
  O2-  O188  1  0.55101635  0.44062037  0.47173940  1
  O2-  O189  1  0.55004374  0.43671339  0.95547543  1
  O2-  O190  1  0.55678382  0.78054247  0.48055840  1
  O2-  O191  1  0.54831776  0.76069307  1.01573384  1
  O2-  O192  1  0.88405205  0.12254538  0.46542120  1
  O2-  O193  1  0.86157351  0.10280454  0.95527403  1
  O2-  O194  1  0.88508055  0.45129435  0.48196803  1
  O2-  O195  1  0.86400573  0.43703862  0.96744807  1
  O2-  O196  1  0.87682583  0.78063229  0.47352605  1
  O2-  O197  1  0.88767211  0.74926915  0.97702010  1
  O2-  O198  1  0.18416167  0.24710808  0.03449306  1
  O2-  O199  1  0.10872781  0.22158486  0.53586096  1
  O2-  O200  1  0.08953911  0.54981489  0.02066355  1
  O2-  O201  1  0.10675164  0.55391687  0.54099071  1
  O2-  O202  1  0.12989358  0.90595913  0.06055638  1
  O2-  O203  1  0.10625545  0.88904912  0.51497985  1
  O2-  O204  1  0.44165305  0.21028868  0.03814074  1
  O2-  O205  1  0.43158095  0.21325245  0.51862637  1
  O2-  O206  1  0.42656028  0.53712877  0.00896492  1
  O2-  O207  1  0.45491767  0.56470913  0.54436554  1
  O2-  O208  1  0.42349196  0.88609799  0.02547500  1
  O2-  O209  1  0.40673976  0.84802599  0.55521595  1
  O2-  O210  1  0.75855974  0.22073748  0.01480796  1
  O2-  O211  1  0.77903444  0.23569935  0.53431802  1
  O2-  O212  1  0.76955743  0.55243039  0.03240660  1
  O2-  O213  1  0.77110562  0.55970124  0.53652778  1
  O2-  O214  1  0.79084375  0.87103106  0.02895555  1
  O2-  O215  1  0.77690904  0.90198629  0.53053576  1
