# generated using pymatgen
data_H2O
_symmetry_space_group_name_H-M   'P 1'
_cell_length_a   13.50237577
_cell_length_b   13.49078084
_cell_length_c   14.68420683
_cell_angle_alpha   89.91837755
_cell_angle_beta   90.05097478
_cell_angle_gamma   119.98186954
_symmetry_Int_Tables_number   1
_chemical_formula_structural   H2O
_chemical_formula_sum   'H144 O72'
_cell_volume   2316.89987697
_cell_formula_units_Z   72
loop_
 _symmetry_equiv_pos_site_id
 _symmetry_equiv_pos_as_xyz
  1  'x, y, z'
loop_
 _atom_type_symbol
 _atom_type_oxidation_number
  H+  1.0
  O2-  -2.0
loop_
 _atom_site_type_symbol
 _atom_site_label
 _atom_site_symmetry_multiplicity
 _atom_site_fract_x
 _atom_site_fract_y
 _atom_site_fract_z
 _atom_site_occupancy
  H+  H0  1  0.02689776  0.83925933  0.51369026  1
  H+  H1  1  0.86136539  0.49611347  1.00374557  1
  H+  H2  1  0.76705557  0.19051059  0.11425845  1
  H+  H3  1  0.93841845  0.69357837  0.30753268  1
  H+  H4  1  0.50272638  0.52455595  0.98984333  1
  H+  H5  1  0.69834002  0.11252566  0.68811313  1
  H+  H6  1  0.45946478  0.78730101  0.80390210  1
  H+  H7  1  0.18775825  0.81132579  0.76250479  1
  H+  H8  1  0.14947178  -0.02615425  1.01702456  1
  H+  H9  1  0.16051588  0.52517419  0.51592347  1
  H+  H10  1  0.30055143  0.47836029  0.75545495  1
  H+  H11  1  0.83964819  0.48374750  0.26338174  1
  H+  H12  1  0.79253754  0.31851382  0.76844963  1
  H+  H13  1  0.35545661  0.16525484  0.53187115  1
  H+  H14  1  0.03958231  0.51837042  0.01202799  1
  H+  H15  1  0.51404279  0.70700347  0.47836812  1
  H+  H16  1  0.51117913  0.01497517  0.24041113  1
  H+  H17  1  0.35737140  0.85987991  0.80042601  1
  H+  H18  1  0.69708476  0.87594671  -0.00728798  1
  H+  H19  1  0.30354803  0.14555241  0.26958283  1
  H+  H20  1  0.38244453  0.66591652  0.84461989  1
  H+  H21  1  0.19864686  0.49989245  -0.01136871  1
  H+  H22  1  0.14776157  0.84297030  0.51071843  1
  H+  H23  1  0.85106437  0.81025227  0.48911826  1
  H+  H24  1  0.14086246  0.95568709  0.74933175  1
  H+  H25  1  1.02899341  0.19364254  0.75242351  1
  H+  H26  1  0.70648125  0.84576018  0.79255131  1
  H+  H27  1  0.18056756  0.33727292  1.00994175  1
  H+  H28  1  0.18908511  0.15210947  0.27187516  1
  H+  H29  1  0.49840292  0.87631233  0.45036926  1
  H+  H30  1  0.17356093  0.49226171  0.26876290  1
  H+  H31  1  0.80168896  0.50380567  0.74307606  1
  H+  H32  1  0.97444599  0.80091516  0.76179092  1
  H+  H33  1  0.46093672  0.61877024  0.73716663  1
  H+  H34  1  0.19287511  0.36126743  0.51471518  1
  H+  H35  1  -0.03012730  0.80995559  -0.00809078  1
  H+  H36  1  0.53832538  0.72007702  0.01875686  1
  H+  H37  1  0.16224360  0.13628106  0.77212346  1
  H+  H38  1  0.79738314  0.62465423  0.23619566  1
  H+  H39  1  0.36236134  0.84046396  0.22332091  1
  H+  H40  1  0.16753854  0.31108014  0.25103320  1
  H+  H41  1  0.48738852  0.18839264  0.53147471  1
  H+  H42  1  0.69771032  0.84340500  0.50084521  1
  H+  H43  1  0.87769142  0.42942078  0.92289037  1
  H+  H44  1  0.50899955  0.05130055  0.79658435  1
  H+  H45  1  0.63039456  0.16336021  0.77091860  1
  H+  H46  1  0.49955558  0.32674869  0.73923419  1
  H+  H47  1  0.76920986  0.11227521  0.03319772  1
  H+  H48  1  0.81253984  0.30483030  0.25181318  1
  H+  H49  1  0.83155518  0.00074372  0.22228743  1
  H+  H50  1  0.86106954  0.98647384  0.71771164  1
  H+  H51  1  0.66595221  0.19643813  0.50698865  1
  H+  H52  1  0.15339170  0.97196217  0.25092327  1
  H+  H53  1  0.07843831  0.54946043  0.73275672  1
  H+  H54  1  -0.01581262  0.16846373  0.27014228  1
  H+  H55  1  0.64781654  0.81779113  0.81398508  1
  H+  H56  1  0.70510828  0.51980431  0.00439253  1
  H+  H57  1  0.48054952  0.29191517  0.24495118  1
  H+  H58  1  0.20801743  0.70212029  0.75395566  1
  H+  H59  1  0.83547178  0.15282451  0.75664428  1
  H+  H60  1  0.66104457  0.51559995  0.48148636  1
  H+  H61  1  0.22626843  0.10414367  0.41712636  1
  H+  H62  1  0.30904795  0.82904744  0.46394233  1
  H+  H63  1  0.84952503  0.68375295  0.49236516  1
  H+  H64  1  0.14998537  0.31038728  0.75647834  1
  H+  H65  1  0.44777152  0.90452644  0.88255428  1
  H+  H66  1  0.48205266  0.98546742  0.00532686  1
  H+  H67  1  0.10977345  0.87967072  0.65799507  1
  H+  H68  1  0.47886044  0.17092464  0.24354200  1
  H+  H69  1  0.17973289  1.01923771  0.50317747  1
  H+  H70  1  0.17344693  0.19010133  0.53219783  1
  H+  H71  1  0.52559190  0.81986656  0.24327883  1
  H+  H72  1  0.83230205  0.32977762  0.52057792  1
  H+  H73  1  0.88568608  0.45511414  0.35676973  1
  H+  H74  1  0.86602636  0.81458441  0.75419286  1
  H+  H75  1  0.29155180  0.51525906  0.31377811  1
  H+  H76  1  0.30626354  0.15841685  0.99849664  1
  H+  H77  1  0.05848959  0.22845434  0.01891349  1
  H+  H78  1  0.89273839  0.04741201  0.99989690  1
  H+  H79  1  0.72022140  0.88625465  0.20367193  1
  H+  H80  1  0.63389366  0.15089892  1.00990205  1
  H+  H81  1  0.37337158  0.52026203  0.50545606  1
  H+  H82  1  0.49307695  0.19968997  0.75181614  1
  H+  H83  1  0.50092536  0.53475206  0.50016661  1
  H+  H84  1  0.64205101  0.49397504  0.74991746  1
  H+  H85  1  0.85146144  0.50804540  0.49138050  1
  H+  H86  1  0.18495869  0.81842677  0.25342608  1
  H+  H87  1  0.50105028  -0.00664805  0.47563780  1
  H+  H88  1  0.81955795  0.63134411  0.74125432  1
  H+  H89  1  0.86333660  0.09348031  0.84079465  1
  H+  H90  1  0.51890746  0.48995481  0.74874869  1
  H+  H91  1  0.18392859  0.82400852  1.02759192  1
  H+  H92  1  0.69962461  0.17961960  0.25470573  1
  H+  H93  1  1.03683931  0.84960106  0.25034596  1
  H+  H94  1  0.52655634  0.83236184  0.02194052  1
  H+  H95  1  0.91512762  0.42001628  0.77594080  1
  H+  H96  1  0.50839585  0.47223040  0.24690175  1
  H+  H97  1  0.86538898  0.16905975  0.27030674  1
  H+  H98  1  0.02478805  0.51556657  0.24919809  1
  H+  H99  1  0.52057430  0.37020776  0.98370203  1
  H+  H100  1  0.14582899  0.63425591  0.24434427  1
  H+  H101  1  0.37898753  0.52622992  0.20202468  1
  H+  H102  1  0.83943100  0.14809294  0.49964350  1
  H+  H103  1  0.19636222  0.70535794  0.48810694  1
  H+  H104  1  0.19130674  0.16362708  0.00034134  1
  H+  H105  1  0.97343402  0.50314860  0.49318642  1
  H+  H106  1  0.53875296  0.71033993  0.23972467  1
  H+  H107  1  0.62479374  0.47141830  0.24936909  1
  H+  H108  1  0.48938713  0.19523970  0.01607654  1
  H+  H109  1  0.10676385  0.89617432  0.10651098  1
  H+  H110  1  0.56308780  0.13827181  0.91670209  1
  H+  H111  1  0.52665608  0.04916163  0.34048611  1
  H+  H112  1  0.18940388  0.70608659  0.02561122  1
  H+  H113  1  0.13264270  0.23956163  0.15990163  1
  H+  H114  1  0.82506782  0.63998669  0.00899771  1
  H+  H115  1  0.44459537  0.22584799  0.64542826  1
  H+  H116  1  0.78504398  0.56167233  0.58109617  1
  H+  H117  1  0.88443889  0.11395495  0.41169396  1
  H+  H118  1  0.46956142  0.56506984  0.12356871  1
  H+  H119  1  0.13197369  0.23131919  0.61962054  1
  H+  H120  1  0.42154932  0.82945907  0.60097964  1
  H+  H121  1  0.20357942  0.09497040  0.85747967  1
  H+  H122  1  0.81295800  0.96387259  0.50204641  1
  H+  H123  1  0.44902020  0.55719650  0.63980224  1
  H+  H124  1  0.89909864  0.76361872  0.36634885  1
  H+  H125  1  0.76736705  0.55237355  0.14275348  1
  H+  H126  1  0.38522836  0.52979636  -0.00646914  1
  H+  H127  1  0.59277521  0.19846645  0.42255127  1
  H+  H128  1  0.19479915  0.50578176  0.75284893  1
  H+  H129  1  0.44156367  0.88166390  0.13368664  1
  H+  H130  1  0.23305293  0.45942795  0.89495997  1
  H+  H131  1  0.35966814  0.85916004  0.01375569  1
  H+  H132  1  0.56361069  0.78037316  0.38618250  1
  H+  H133  1  0.20426338  0.42631537  0.42082798  1
  H+  H134  1  0.56905797  0.46448145  0.39948204  1
  H+  H135  1  0.89332553  0.76586084  0.90172610  1
  H+  H136  1  0.44442638  0.23126974  0.10244773  1
  H+  H137  1  0.78375539  0.24140368  0.60953073  1
  H+  H138  1  0.11384254  0.54717446  0.10269578  1
  H+  H139  1  0.22283921  0.77663116  0.34194402  1
  H+  H140  1  0.42777268  0.82784999  0.65180154  1
  H+  H141  1  0.56193909  0.44551720  0.89061588  1
  H+  H142  1  0.81470141  0.89838345  0.63410961  1
  H+  H143  1  0.13903867  0.57758544  0.60548104  1
  O2-  O144  1  0.12926295  0.23189686  0.22736684  1
  O2-  O145  1  0.11162594  0.22870243  0.73640049  1
  O2-  O146  1  0.10585857  0.55076731  0.22736105  1
  O2-  O147  1  0.15577532  0.57780570  0.71079801  1
  O2-  O148  1  0.11548364  0.89322399  0.22383345  1
  O2-  O149  1  0.10921111  0.87514348  0.72570613  1
  O2-  O150  1  0.43780362  0.21047924  0.22215932  1
  O2-  O151  1  0.45619106  0.24140085  0.72150208  1
  O2-  O152  1  0.46127740  0.56099041  0.19284301  1
  O2-  O153  1  0.44289670  0.54495762  0.70762732  1
  O2-  O154  1  0.44318147  0.88087530  0.20128937  1
  O2-  O155  1  0.44460797  0.90874305  0.81539800  1
  O2-  O156  1  0.77934364  0.22349559  0.23203080  1
  O2-  O157  1  0.74517286  0.18784991  0.71536294  1
  O2-  O158  1  0.75955488  0.54556435  0.21194616  1
  O2-  O159  1  0.77159954  0.55092072  0.71670818  1
  O2-  O160  1  0.79253345  0.94217473  0.17474620  1
  O2-  O161  1  0.84130646  0.90880174  0.69849466  1
  O2-  O162  1  0.22418163  0.10723907  0.29529702  1
  O2-  O163  1  0.19321688  0.08628908  0.79081686  1
  O2-  O164  1  0.21911864  0.45458250  0.29020750  1
  O2-  O165  1  0.22540281  0.45437512  0.78463983  1
  O2-  O166  1  0.22278606  0.77427609  0.27337143  1
  O2-  O167  1  0.23344701  0.77789966  0.78669979  1
  O2-  O168  1  0.54505860  0.08565451  0.27994054  1
  O2-  O169  1  0.55255459  0.13759966  0.80036480  1
  O2-  O170  1  0.54427135  0.42996574  0.27350522  1
  O2-  O171  1  0.56012100  0.45048720  0.77365540  1
  O2-  O172  1  0.57131328  0.78669855  0.26816205  1
  O2-  O173  1  0.45524643  0.71189462  0.81383674  1
  O2-  O174  1  0.90511998  0.12903648  0.29437067  1
  O2-  O175  1  0.88645597  0.12148481  0.77821042  1
  O2-  O176  1  0.88473409  0.44947385  0.28775403  1
  O2-  O177  1  0.83725964  0.39756541  0.79356710  1
  O2-  O178  1  0.91016512  0.74677158  0.29903767  1
  O2-  O179  1  0.89201745  0.76299902  0.78156450  1
  O2-  O180  1  0.22753501  0.10188158  0.48485067  1
  O2-  O181  1  0.22366898  0.11569637  0.98041045  1
  O2-  O182  1  0.22467616  0.44135788  0.48544845  1
  O2-  O183  1  0.24111793  0.46193580  0.96413366  1
  O2-  O184  1  0.22451701  0.78211133  0.45759638  1
  O2-  O185  1  0.23450109  0.79017407  1.03411572  1
  O2-  O186  1  0.58341568  0.16077855  0.48110714  1
  O2-  O187  1  0.55486710  0.12718561  0.98428699  1
  O2-  O188  1  0.57711222  0.48275634  0.46486920  1
  O2-  O189  1  0.56425954  0.44981537  0.95879739  1
  O2-  O190  1  0.55671872  0.78697170  0.45348000  1
  O2-  O191  1  0.57811805  0.80185166  1.03616921  1
  O2-  O192  1  0.86818291  0.09816592  0.47770435  1
  O2-  O193  1  0.82634910  0.03409569  0.96370085  1
  O2-  O194  1  0.89353005  0.46043427  0.47078097  1
  O2-  O195  1  0.90560042  0.45861724  0.98427124  1
  O2-  O196  1  0.89549646  0.77267130  0.47023360  1
  O2-  O197  1  0.89045768  0.76175818  0.96941833  1
  O2-  O198  1  0.13698169  0.25775995  0.03895144  1
  O2-  O199  1  0.14461919  0.24082004  0.55264194  1
  O2-  O200  1  0.12113518  0.55420920  0.03542522  1
  O2-  O201  1  0.12845910  0.57407088  0.53540438  1
  O2-  O202  1  0.10768505  0.89290255  0.03860099  1
  O2-  O203  1  0.10806350  0.88148982  0.53755801  1
  O2-  O204  1  0.44656627  0.23570836  0.03459939  1
  O2-  O205  1  0.43456093  0.21215906  0.55843023  1
  O2-  O206  1  0.46601003  0.56770812  0.01541745  1
  O2-  O207  1  0.45466248  0.57034848  0.52415937  1
  O2-  O208  1  0.44772555  0.90017721  0.00943098  1
  O2-  O209  1  0.45887993  0.92179418  0.44086008  1
  O2-  O210  1  0.75327343  0.17384694  0.04819365  1
  O2-  O211  1  0.78806910  0.24736779  0.54072854  1
  O2-  O212  1  0.78111729  0.55787947  0.03478074  1
  O2-  O213  1  0.79309721  0.56661438  0.51448076  1
  O2-  O214  1  0.77103191  0.90996375  -0.04636673  1
  O2-  O215  1  0.77891559  0.88083587  0.52077511  1
