# generated using pymatgen
data_H2O
_symmetry_space_group_name_H-M   'P 1'
_cell_length_a   13.50092473
_cell_length_b   13.51505580
_cell_length_c   14.70634476
_cell_angle_alpha   90.03357023
_cell_angle_beta   90.02688399
_cell_angle_gamma   119.88490231
_symmetry_Int_Tables_number   1
_chemical_formula_structural   H2O
_chemical_formula_sum   'H144 O72'
_cell_volume   2326.58551094
_cell_formula_units_Z   72
loop_
 _symmetry_equiv_pos_site_id
 _symmetry_equiv_pos_as_xyz
  1  'x, y, z'
loop_
 _atom_type_symbol
 _atom_type_oxidation_number
  H+  1.0
  O2-  -2.0
loop_
 _atom_site_type_symbol
 _atom_site_label
 _atom_site_symmetry_multiplicity
 _atom_site_fract_x
 _atom_site_fract_y
 _atom_site_fract_z
 _atom_site_occupancy
  H+  H0  1  0.50767725  0.36521262  0.75495791  1
  H+  H1  1  0.81366458  0.19107707  0.50870244  1
  H+  H2  1  0.18035005  0.03977266  0.74678305  1
  H+  H3  1  0.29430696  0.15194292  0.49334061  1
  H+  H4  1  0.02515974  0.94049232  0.21800324  1
  H+  H5  1  0.13617990  0.27856309  -0.00579243  1
  H+  H6  1  0.02159210  0.16339499  0.00941019  1
  H+  H7  1  0.20393691  0.64298473  1.04525332  1
  H+  H8  1  0.44739847  0.61416457  0.50730061  1
  H+  H9  1  0.63017427  0.15058939  0.49299683  1
  H+  H10  1  0.40507934  0.86355303  0.63869259  1
  H+  H11  1  0.17213802  0.31839055  0.22288830  1
  H+  H12  1  0.27292866  0.51304469  0.32522740  1
  H+  H13  1  0.36782972  0.52347962  0.21330263  1
  H+  H14  1  0.21809887  0.76876262  0.93749377  1
  H+  H15  1  1.13614058  0.95023540  1.00748192  1
  H+  H16  1  0.86072460  0.16213128  0.27097337  1
  H+  H17  1  0.17478822  0.80096135  0.02752805  1
  H+  H18  1  0.84254251  0.97985517  0.01484103  1
  H+  H19  1  0.06267687  0.85202867  0.74784548  1
  H+  H20  1  0.32969019  0.49569692  0.51026241  1
  H+  H21  1  0.51039511  1.03091242  0.48944866  1
  H+  H22  1  0.47600568  0.96270178  0.01919570  1
  H+  H23  1  0.47846386  0.96864635  0.24841822  1
  H+  H24  1  0.35853210  0.84148609  0.02620220  1
  H+  H25  1  0.86015115  0.86435447  0.25075317  1
  H+  H26  1  0.89172288  0.06115849  0.27083229  1
  H+  H27  1  0.80714451  0.30761107  0.51008390  1
  H+  H28  1  0.69974072  0.51700155  0.75037967  1
  H+  H29  1  0.83255611  0.48790234  0.50101958  1
  H+  H30  1  0.15047833  0.34244861  0.49907026  1
  H+  H31  1  0.15597397  0.00500839  0.24488116  1
  H+  H32  1  0.02521684  0.51454247  0.74659380  1
  H+  H33  1  0.49547503  0.81372777  0.26271337  1
  H+  H34  1  0.48359049  0.80804304  0.75114616  1
  H+  H35  1  0.47999776  0.30458094  0.50228819  1
  H+  H36  1  0.46985101  0.51011593  0.74458461  1
  H+  H37  1  0.67527729  0.50271570  1.01521205  1
  H+  H38  1  0.62199783  0.49130269  0.50030895  1
  H+  H39  1  0.44872568  -0.04649850  0.71664490  1
  H+  H40  1  0.83406012  0.83811934  0.71439570  1
  H+  H41  1  0.70408630  0.18362465  0.03752340  1
  H+  H42  1  0.50433600  0.32459563  0.25382923  1
  H+  H43  1  0.17557986  0.84420830  0.26735400  1
  H+  H44  1  0.86897324  0.81483450  0.73585421  1
  H+  H45  1  0.35218551  0.19008152  0.72868335  1
  H+  H46  1  0.83432089  0.47569936  0.26553078  1
  H+  H47  1  0.28240628  0.47779054  0.75777555  1
  H+  H48  1  0.95928822  0.79654803  1.00923627  1
  H+  H49  1  0.83127879  0.47331474  -0.00924734  1
  H+  H50  1  0.95312510  0.49115050  0.50022062  1
  H+  H51  1  0.51026922  0.49095847  0.26026966  1
  H+  H52  1  0.13375452  0.30036464  0.73726948  1
  H+  H53  1  0.84216724  0.67303996  0.27527340  1
  H+  H54  1  0.13938272  0.63701449  0.50934416  1
  H+  H55  1  0.15866183  0.40923330  0.40909957  1
  H+  H56  1  0.84475639  0.36377984  0.99515142  1
  H+  H57  1  0.82317320  0.31066252  0.25326855  1
  H+  H58  1  0.81040173  0.50198643  0.74464212  1
  H+  H59  1  0.17027719  0.51221385  0.02412422  1
  H+  H60  1  0.12826777  0.51349362  0.51517075  1
  H+  H61  1  0.32597189  0.16806341  0.26574702  1
  H+  H62  1  0.49859483  0.14257868  -0.00457657  1
  H+  H63  1  0.48114295  0.18534385  0.50382560  1
  H+  H64  1  0.69669553  0.86636460  0.50000533  1
  H+  H65  1  0.33752214  0.58797071  0.03511441  1
  H+  H66  1  0.68305810  0.18238541  0.72918102  1
  H+  H67  1  0.49928848  0.69982805  0.75486866  1
  H+  H68  1  0.47639339  0.45048246  0.99241979  1
  H+  H69  1  0.55689893  0.74072716  1.05501030  1
  H+  H70  1  0.49108282  0.15280141  0.73041528  1
  H+  H71  1  0.46903173  0.84184006  0.49784812  1
  H+  H72  1  0.47577106  0.33293223  -0.00717589  1
  H+  H73  1  0.55963813  0.10872886  0.35357765  1
  H+  H74  1  0.85076602  0.80963500  -0.00421577  1
  H+  H75  1  0.44252170  0.62904110  -0.03276637  1
  H+  H76  1  0.13764931  0.17643245  0.50999567  1
  H+  H77  1  0.84991370  0.15228999  1.00072610  1
  H+  H78  1  0.01584320  0.17547220  0.51121727  1
  H+  H79  1  0.28643294  0.83233521  0.26295538  1
  H+  H80  1  0.17348611  0.15682116  0.75194904  1
  H+  H81  1  0.26377267  0.44825591  0.96475962  1
  H+  H82  1  0.80074166  0.63803244  0.52509666  1
  H+  H83  1  0.53017349  0.15679481  0.26561980  1
  H+  H84  1  0.32251030  0.14703944  -0.01371189  1
  H+  H85  1  0.60380642  0.70909949  0.45077396  1
  H+  H86  1  0.49603681  0.47953420  0.49783411  1
  H+  H87  1  0.50914635  0.70347220  0.24703552  1
  H+  H88  1  0.87760314  0.43702115  0.85237427  1
  H+  H89  1  0.02446354  0.85069559  0.51350408  1
  H+  H90  1  0.53317133  0.83504667  0.01831612  1
  H+  H91  1  0.43307958  0.23063411  0.63886497  1
  H+  H92  1  0.16319172  0.13124248  -0.02456393  1
  H+  H93  1  0.14388406  0.96825374  0.50515810  1
  H+  H94  1  0.72564850  0.86773090  0.03283421  1
  H+  H95  1  0.17640015  0.81672221  0.49140863  1
  H+  H96  1  0.70980996  0.18611993  0.24934973  1
  H+  H97  1  0.68672081  0.51545238  0.24653693  1
  H+  H98  1  0.90287710  0.67373377  0.77923157  1
  H+  H99  1  0.84060376  0.36029932  0.76076882  1
  H+  H100  1  0.13853066  0.23160185  0.13832037  1
  H+  H101  1  0.35052855  0.84195243  0.49394160  1
  H+  H102  1  0.84309464  0.04301704  0.49511442  1
  H+  H103  1  0.83985214  0.16299963  0.76369050  1
  H+  H104  1  0.84091902  0.82505817  0.50268210  1
  H+  H105  1  0.66238605  0.86836178  0.72777294  1
  H+  H106  1  0.79571728  0.62148013  0.01525568  1
  H+  H107  1  0.78433595  0.98771668  0.73322261  1
  H+  H108  1  0.54556888  0.45758993  0.35766672  1
  H+  H109  1  0.50985895  0.26701462  0.16318474  1
  H+  H110  1  0.75895784  0.90882358  0.59627600  1
  H+  H111  1  0.50270487  0.08359467  0.81145659  1
  H+  H112  1  0.87304651  0.44225553  0.35690981  1
  H+  H113  1  0.10174421  0.55963378  0.65794356  1
  H+  H114  1  0.43487269  0.88860262  0.16028036  1
  H+  H115  1  0.53928308  0.43184575  0.84927232  1
  H+  H116  1  0.93728145  0.74700034  0.86884991  1
  H+  H117  1  0.18098471  0.53901744  0.17903066  1
  H+  H118  1  0.54514635  0.75627415  0.38379629  1
  H+  H119  1  0.96556820  0.78159550  0.29045067  1
  H+  H120  1  0.18130721  0.41550934  0.88095051  1
  H+  H121  1  0.09313297  0.21638935  0.65126429  1
  H+  H122  1  0.76940504  0.22547870  0.64591841  1
  H+  H123  1  0.76280064  0.55304204  0.61017951  1
  H+  H124  1  0.87530703  0.76764561  0.42108984  1
  H+  H125  1  0.76186200  0.54893609  0.15508307  1
  H+  H126  1  0.95504901  0.15588770  0.76224155  1
  H+  H127  1  0.88228211  0.11686659  0.90493939  1
  H+  H128  1  0.79385893  0.23031572  0.11790871  1
  H+  H129  1  0.21569820  0.18209510  0.25613822  1
  H+  H130  1  0.10493300  0.90190353  0.10895384  1
  H+  H131  1  0.85676334  0.92025892  0.15559803  1
  H+  H132  1  0.42266736  0.54238784  0.65633299  1
  H+  H133  1  0.44894478  0.56127145  0.12857043  1
  H+  H134  1  0.20890115  0.77982782  0.39799520  1
  H+  H135  1  0.11501462  0.89979931  0.64826496  1
  H+  H136  1  0.20470212  0.09877200  0.88177810  1
  H+  H137  1  0.14425740  0.76086642  0.80537068  1
  H+  H138  1  0.22250977  0.11980931  0.40267299  1
  H+  H139  1  0.27530578  0.80760550  0.78299690  1
  H+  H140  1  0.38033274  0.16690711  0.08312864  1
  H+  H141  1  0.89046226  0.12523400  0.40673168  1
  H+  H142  1  0.16398132  0.48325298  0.75277834  1
  H+  H143  1  0.58744822  0.13303340  0.92950011  1
  O2-  O144  1  0.16429368  0.24589148  0.20291525  1
  O2-  O145  1  0.09344998  0.21752465  0.71931245  1
  O2-  O146  1  0.16386847  0.51935605  0.24546445  1
  O2-  O147  1  0.10567589  0.55326707  0.72486428  1
  O2-  O148  1  0.09376158  0.93012627  0.22045527  1
  O2-  O149  1  0.12817415  0.91447185  0.71452155  1
  O2-  O150  1  0.47747564  0.24729020  0.22409795  1
  O2-  O151  1  0.43420472  0.22988067  0.70723660  1
  O2-  O152  1  0.44974235  0.55872765  0.19568154  1
  O2-  O153  1  0.42478911  0.54615954  0.72372700  1
  O2-  O154  1  0.43007598  0.88759150  0.22823885  1
  O2-  O155  1  0.40381163  0.87028214  0.70595838  1
  O2-  O156  1  0.78996827  0.22969030  0.22753079  1
  O2-  O157  1  0.76550601  0.22355498  0.71433781  1
  O2-  O158  1  0.76632887  0.55061441  0.22324144  1
  O2-  O159  1  0.77732799  0.55072899  0.72364819  1
  O2-  O160  1  0.89382124  0.93697024  0.21699750  1
  O2-  O161  1  0.73569166  0.92017826  0.69510694  1
  O2-  O162  1  0.24637184  0.13492437  0.28649307  1
  O2-  O163  1  0.22019750  0.12170648  0.77187030  1
  O2-  O164  1  0.23794171  0.47183951  0.26857823  1
  O2-  O165  1  0.19965677  0.43551190  0.77439154  1
  O2-  O166  1  0.20736512  0.79688737  0.28764064  1
  O2-  O167  1  0.21943076  0.78770178  0.83262504  1
  O2-  O168  1  0.56239385  0.10853681  0.28527163  1
  O2-  O169  1  0.52737090  0.10522391  0.74895240  1
  O2-  O170  1  0.54859654  0.45254346  0.28946393  1
  O2-  O171  1  0.54698938  0.44331849  0.78262895  1
  O2-  O172  1  0.53900990  0.77504987  0.28190878  1
  O2-  O173  1  0.53482899  0.78052766  0.77392716  1
  O2-  O174  1  0.90455275  0.13095005  0.30254323  1
  O2-  O175  1  0.87684389  0.12102780  0.78948407  1
  O2-  O176  1  0.87382136  0.43612734  0.28969197  1
  O2-  O177  1  0.88099720  0.44032194  0.78360349  1
  O2-  O178  1  0.88528241  0.74850398  0.30810805  1
  O2-  O179  1  0.96916214  0.73464664  0.81217325  1
  O2-  O180  1  0.21402148  0.11254961  0.47026027  1
  O2-  O181  1  0.20231306  0.08990686  0.95040420  1
  O2-  O182  1  0.18455100  0.42298454  0.47222837  1
  O2-  O183  1  0.18169077  0.40729535  0.94990991  1
  O2-  O184  1  0.21451172  0.77517787  0.46643858  1
  O2-  O185  1  0.22041463  0.76558989  1.00667249  1
  O2-  O186  1  0.54982382  0.11189845  0.46863804  1
  O2-  O187  1  0.55192615  0.11128209  0.98920148  1
  O2-  O188  1  0.54369511  0.44900403  0.47166064  1
  O2-  O189  1  0.52104210  0.41481876  0.97453491  1
  O2-  O190  1  0.55480941  0.74308477  0.45203858  1
  O2-  O191  1  0.58146404  0.79886460  1.00801437  1
  O2-  O192  1  0.88629894  0.12524815  0.47656534  1
  O2-  O193  1  0.88779409  0.11216008  0.97275806  1
  O2-  O194  1  0.87229301  0.44726062  0.47821837  1
  O2-  O195  1  0.87375942  0.43820914  0.96416786  1
  O2-  O196  1  0.87719744  0.77777740  0.48861189  1
  O2-  O197  1  0.88177145  0.75807075  0.98073063  1
  O2-  O198  1  0.10553989  0.20184387  0.02401229  1
  O2-  O199  1  0.09773162  0.21633806  0.53466475  1
  O2-  O200  1  0.21247699  0.57671918  0.06703330  1
  O2-  O201  1  0.09369483  0.55901805  0.53645985  1
  O2-  O202  1  0.10199118  0.87876298  0.04373756  1
  O2-  O203  1  0.10750740  0.88856853  0.52883582  1
  O2-  O204  1  0.40188024  0.18572714  0.01942104  1
  O2-  O205  1  0.43859366  0.22427525  0.52496569  1
  O2-  O206  1  0.39749321  0.56955871  0.01212381  1
  O2-  O207  1  0.40970133  0.53598290  0.53335016  1
  O2-  O208  1  0.44216143  0.88448413  0.04402867  1
  O2-  O209  1  0.43163730  0.88370033  0.51863223  1
  O2-  O210  1  0.78684536  0.22429423  0.04896737  1
  O2-  O211  1  0.76741373  0.22600454  0.53111904  1
  O2-  O212  1  0.75381939  0.54122513  0.03958293  1
  O2-  O213  1  0.75687531  0.55521822  0.54189083  1
  O2-  O214  1  0.80943840  0.90251343  0.04357994  1
  O2-  O215  1  0.77328333  0.90380895  0.52769271  1
