# generated using pymatgen
data_H2O
_symmetry_space_group_name_H-M   'P 1'
_cell_length_a   13.48988788
_cell_length_b   13.49797813
_cell_length_c   14.69127930
_cell_angle_alpha   90.04199173
_cell_angle_beta   89.98337227
_cell_angle_gamma   120.03163228
_symmetry_Int_Tables_number   1
_chemical_formula_structural   H2O
_chemical_formula_sum   'H144 O72'
_cell_volume   2315.94728596
_cell_formula_units_Z   72
loop_
 _symmetry_equiv_pos_site_id
 _symmetry_equiv_pos_as_xyz
  1  'x, y, z'
loop_
 _atom_type_symbol
 _atom_type_oxidation_number
  H+  1.0
  O2-  -2.0
loop_
 _atom_site_type_symbol
 _atom_site_label
 _atom_site_symmetry_multiplicity
 _atom_site_fract_x
 _atom_site_fract_y
 _atom_site_fract_z
 _atom_site_occupancy
  H+  H0  1  0.84281131  0.03162625  0.50245820  1
  H+  H1  1  0.82674442  0.96792816  0.23813428  1
  H+  H2  1  0.30199000  0.48023593  0.26240802  1
  H+  H3  1  0.83135577  0.48690326  0.75883051  1
  H+  H4  1  0.02043314  0.83236113  0.02526925  1
  H+  H5  1  0.15015611  0.85604724  0.75487042  1
  H+  H6  1  0.83081376  0.64889556  0.22997349  1
  H+  H7  1  0.51789969  0.14636501  0.75151129  1
  H+  H8  1  0.47700042  0.51007239  0.01639378  1
  H+  H9  1  0.83737605  0.36244766  0.50367495  1
  H+  H10  1  0.10026064  0.20960890  0.16544077  1
  H+  H11  1  0.48683585  0.68469394  0.27463971  1
  H+  H12  1  0.51250202  0.47952273  0.48752471  1
  H+  H13  1  0.20441740  0.76758915  0.86862967  1
  H+  H14  1  0.51273827  0.68661437  0.75925334  1
  H+  H15  1  0.04206611  0.51901427  0.25705803  1
  H+  H16  1  0.15734321  0.62867396  0.02014647  1
  H+  H17  1  0.18030677  0.48389202  1.02510018  1
  H+  H18  1  0.83737976  0.37000509  0.76782246  1
  H+  H19  1  0.64214296  0.47913189  0.26079985  1
  H+  H20  1  0.69515052  0.52086834  0.51106942  1
  H+  H21  1  0.89764449  0.59910539  0.17572031  1
  H+  H22  1  0.73371840  0.21975071  -0.01433946  1
  H+  H23  1  1.02224644  0.50706657  0.50125883  1
  H+  H24  1  0.81898435  0.81413466  0.25456553  1
  H+  H25  1  0.81476757  0.64077932  0.51434361  1
  H+  H26  1  0.69783696  0.84749946  0.52463000  1
  H+  H27  1  0.54812276  0.17115359  0.99080942  1
  H+  H28  1  1.00984274  0.15943484  1.01877760  1
  H+  H29  1  0.18490098  0.48429595  0.26330503  1
  H+  H30  1  0.16625186  0.33985818  0.73215595  1
  H+  H31  1  0.44000730  0.88131314  0.65087187  1
  H+  H32  1  0.18516792  1.04075291  0.49862718  1
  H+  H33  1  0.16225507  0.63856582  0.25219816  1
  H+  H34  1  0.85000456  0.81865116  -0.00898179  1
  H+  H35  1  0.13493271  0.28236343  0.03553420  1
  H+  H36  1  0.15601741  0.13841519  1.01739745  1
  H+  H37  1  0.84837946  0.82324205  0.50298924  1
  H+  H38  1  0.83593551  0.69328745  -0.01272192  1
  H+  H39  1  0.52041187  0.69856962  -0.00359238  1
  H+  H40  1  0.85633654  0.24484522  0.94808381  1
  H+  H41  1  0.81937778  0.18745331  0.75510517  1
  H+  H42  1  0.95919894  0.14375044  0.77194811  1
  H+  H43  1  0.84009908  0.48404431  0.50270724  1
  H+  H44  1  0.67264918  0.19504988  0.23613305  1
  H+  H45  1  1.03521777  0.86603107  0.51834735  1
  H+  H46  1  0.96112702  0.14901591  0.49417855  1
  H+  H47  1  0.81267325  0.64159665  0.74427757  1
  H+  H48  1  0.49884533  0.14924171  0.26727898  1
  H+  H49  1  0.70947909  0.85408421  0.00443209  1
  H+  H50  1  0.51728130  0.35715108  0.75330210  1
  H+  H51  1  0.35970797  0.50029544  0.73608704  1
  H+  H52  1  0.48292171  -0.03681040  0.51358559  1
  H+  H53  1  0.45882252  0.22498759  0.63686122  1
  H+  H54  1  0.81368793  0.18343266  0.51717996  1
  H+  H55  1  0.77013048  0.56362376  0.65377804  1
  H+  H56  1  0.85351128  0.46199874  0.27056826  1
  H+  H57  1  0.19226318  0.81612763  0.26977071  1
  H+  H58  1  0.35547239  0.16593025  0.01189288  1
  H+  H59  1  0.17565941  0.47748664  0.48764173  1
  H+  H60  1  0.18982113  0.03879999  0.26654514  1
  H+  H61  1  0.85038717  0.38522935  0.97947242  1
  H+  H62  1  0.36970345  0.18525361  0.50434037  1
  H+  H63  1  0.85286232  0.82331070  0.76677777  1
  H+  H64  1  0.36102108  0.18840398  0.24169793  1
  H+  H65  1  0.96331476  0.13895353  0.27024197  1
  H+  H66  1  0.36241551  0.84266805  0.74066319  1
  H+  H67  1  0.17834470  0.80701670  1.00334488  1
  H+  H68  1  0.49094501  0.51962111  0.24804874  1
  H+  H69  1  0.48736020  0.18016893  0.50196433  1
  H+  H70  1  0.14647050  0.30026561  0.50619707  1
  H+  H71  1  0.49264665  0.34783278  0.98919741  1
  H+  H72  1  0.69802270  0.84578787  0.75106683  1
  H+  H73  1  0.49949519  0.03107254  0.26210793  1
  H+  H74  1  0.66291260  0.50376532  1.00327179  1
  H+  H75  1  0.83466010  0.97266908  0.00205236  1
  H+  H76  1  0.30543074  0.80115881  0.49134942  1
  H+  H77  1  0.47912173  0.50144513  0.74167970  1
  H+  H78  1  0.48540482  0.86322058  0.23524425  1
  H+  H79  1  0.48860021  0.84653887  0.51987946  1
  H+  H80  1  0.03332483  0.85931508  0.75192233  1
  H+  H81  1  0.51174673  0.80467738  0.75877514  1
  H+  H82  1  0.36005643  0.50953175  0.51038556  1
  H+  H83  1  0.85686669  0.12594104  1.01232418  1
  H+  H84  1  0.04346470  0.85259859  0.26182811  1
  H+  H85  1  0.47330465  0.83895966  1.00905587  1
  H+  H86  1  0.69910758  0.18263083  0.74792951  1
  H+  H87  1  0.36471483  0.85498250  0.23779280  1
  H+  H88  1  0.14415119  0.17503018  0.72700744  1
  H+  H89  1  0.14746157  0.29729013  0.25044391  1
  H+  H90  1  0.19506149  0.64533100  0.71541280  1
  H+  H91  1  0.51417940  0.69045875  0.50638138  1
  H+  H92  1  0.36354255  0.51617555  0.03329195  1
  H+  H93  1  0.43676326  0.21487385  0.09829257  1
  H+  H94  1  0.18595730  0.68163657  0.47958865  1
  H+  H95  1  0.81778099  0.49414940  0.98105833  1
  H+  H96  1  0.48333478  0.30330385  0.23750655  1
  H+  H97  1  0.30066323  0.81024237  0.99477695  1
  H+  H98  1  0.63031157  0.14437945  0.49435096  1
  H+  H99  1  0.81369880  0.96854619  0.75743900  1
  H+  H100  1  0.89199524  0.77966649  0.85403560  1
  H+  H101  1  0.51665258  0.02720047  0.75923257  1
  H+  H102  1  0.16770088  0.51724047  0.70793963  1
  H+  H103  1  0.18759124  1.03301013  0.75457745  1
  H+  H104  1  0.62992668  0.48150756  0.76163283  1
  H+  H105  1  0.11458461  0.69007013  0.79402690  1
  H+  H106  1  0.80343093  0.28053368  0.23942015  1
  H+  H107  1  0.37354629  0.18230953  0.72136238  1
  H+  H108  1  0.10777996  0.87834423  0.16666772  1
  H+  H109  1  0.11403930  0.55530589  0.58283043  1
  H+  H110  1  0.53315177  0.42791138  0.89915486  1
  H+  H111  1  0.89677960  0.44737309  0.36724984  1
  H+  H112  1  0.23767862  0.77372103  0.35513975  1
  H+  H113  1  0.89153302  0.10831562  0.86902092  1
  H+  H114  1  0.55434265  0.77143737  0.90465942  1
  H+  H115  1  0.87577127  0.09465095  0.35219345  1
  H+  H116  1  0.15004749  0.18296160  0.50547229  1
  H+  H117  1  0.25305908  0.13431506  0.82797265  1
  H+  H118  1  0.58165879  0.13260122  0.89969244  1
  H+  H119  1  0.43986282  0.54287556  0.59971004  1
  H+  H120  1  0.14707334  0.06406479  0.93199933  1
  H+  H121  1  0.22250732  0.43962989  0.40244382  1
  H+  H122  1  0.22728995  0.11758062  0.40674835  1
  H+  H123  1  0.54808518  0.10382846  0.40507032  1
  H+  H124  1  0.22483456  0.43332045  0.94584828  1
  H+  H125  1  0.56494648  0.44672684  0.35069789  1
  H+  H126  1  0.75446716  0.70399266  0.32007127  1
  H+  H127  1  0.51876735  0.36341863  0.48529845  1
  H+  H128  1  0.43334558  0.88464595  0.09345778  1
  H+  H129  1  0.11933615  0.55720395  0.11327634  1
  H+  H130  1  0.75490211  0.55166547  0.08755474  1
  H+  H131  1  0.18214999  0.15444343  0.26612540  1
  H+  H132  1  0.87012882  0.46324780  0.88319926  1
  H+  H133  1  0.77931769  0.89122510  0.61262842  1
  H+  H134  1  0.11449971  0.90669670  0.60602110  1
  H+  H135  1  0.09644685  0.20866872  0.63883359  1
  H+  H136  1  0.54904314  0.77046369  0.41924147  1
  H+  H137  1  0.45186521  0.56007583  0.15942177  1
  H+  H138  1  0.17843835  0.42400207  0.81168720  1
  H+  H139  1  0.88452103  0.78459477  0.41220790  1
  H+  H140  1  0.13597876  0.95223501  0.03308063  1
  H+  H141  1  0.79495941  0.89286620  0.14358230  1
  H+  H142  1  0.77534408  0.22219379  0.60751161  1
  H+  H143  1  0.41622427  0.72905269  0.32722449  1
  O2-  O144  1  0.10846380  0.21449212  0.23363400  1
  O2-  O145  1  0.09819643  0.21046634  0.70792343  1
  O2-  O146  1  0.12109214  0.55731091  0.22989543  1
  O2-  O147  1  0.13848970  0.56969124  0.69265674  1
  O2-  O148  1  0.11956593  0.88820883  0.23467039  1
  O2-  O149  1  0.11562435  0.90142756  0.73146716  1
  O2-  O150  1  0.43986729  0.22356486  0.21451857  1
  O2-  O151  1  0.45628597  0.22218300  0.70556831  1
  O2-  O152  1  0.44773011  0.55764074  0.22782038  1
  O2-  O153  1  0.44139159  0.54418584  0.71749890  1
  O2-  O154  1  0.44432842  0.90125095  0.21163041  1
  O2-  O155  1  0.44201365  0.87971943  0.71995365  1
  O2-  O156  1  0.73675453  0.25371849  0.19986868  1
  O2-  O157  1  0.78144873  0.22840747  0.72884397  1
  O2-  O158  1  0.82096542  0.57911329  0.19602044  1
  O2-  O159  1  0.76753848  0.56082331  0.72206531  1
  O2-  O160  1  0.79161142  0.88790850  0.21134395  1
  O2-  O161  1  0.77970527  0.88964340  0.73076307  1
  O2-  O162  1  0.22910196  0.11935421  0.28786850  1
  O2-  O163  1  0.23238950  0.11997669  0.76379634  1
  O2-  O164  1  0.22187110  0.43978630  0.28560151  1
  O2-  O165  1  0.20937410  0.42446434  0.75186505  1
  O2-  O166  1  0.23646145  0.77748791  0.28472478  1
  O2-  O167  1  0.18887487  0.76027052  0.79940357  1
  O2-  O168  1  0.53496931  0.10687151  0.29380532  1
  O2-  O169  1  0.55841065  0.10863646  0.77876642  1
  O2-  O170  1  0.56336477  0.44766680  0.28182101  1
  O2-  O171  1  0.54818070  0.43458809  0.78192655  1
  O2-  O172  1  0.49433950  0.75374655  0.30767579  1
  O2-  O173  1  0.55357835  0.76678062  0.78276050  1
  O2-  O174  1  0.88072930  0.09184386  0.28513299  1
  O2-  O175  1  0.88179251  0.10798914  0.79921617  1
  O2-  O176  1  0.91100495  0.44913999  0.30016071  1
  O2-  O177  1  0.87177939  0.45084969  0.78936531  1
  O2-  O178  1  0.82998056  0.75009377  0.29261965  1
  O2-  O179  1  0.89435442  0.78220464  0.78563886  1
  O2-  O180  1  0.22951200  0.12266945  0.47462208  1
  O2-  O181  1  0.19078536  0.09211285  0.98818124  1
  O2-  O182  1  0.22146710  0.43954794  0.47072261  1
  O2-  O183  1  0.22059788  0.43583681  1.01169446  1
  O2-  O184  1  0.23208078  0.76209524  0.45752867  1
  O2-  O185  1  0.21588050  0.76817658  0.97375840  1
  O2-  O186  1  0.54877988  0.10167897  0.47389877  1
  O2-  O187  1  0.60241616  0.15039481  0.96465740  1
  O2-  O188  1  0.55828473  0.44522298  0.46370890  1
  O2-  O189  1  0.53047389  0.42944693  0.96724179  1
  O2-  O190  1  0.55702881  0.77286308  0.48676113  1
  O2-  O191  1  0.55989563  0.77816095  0.97220966  1
  O2-  O192  1  0.87851667  0.11051598  0.47688523  1
  O2-  O193  1  0.90261481  0.10285098  0.97611895  1
  O2-  O194  1  0.87958791  0.44294058  0.48012962  1
  O2-  O195  1  0.87211393  0.46852379  0.95665097  1
  O2-  O196  1  0.88795484  0.78194271  0.47939536  1
  O2-  O197  1  0.88945949  0.77448894  0.97060639  1
  O2-  O198  1  0.09403005  0.20016019  0.05189323  1
  O2-  O199  1  0.10457755  0.21874967  0.52790497  1
  O2-  O200  1  0.12184812  0.55000115  0.04578488  1
  O2-  O201  1  0.10606064  0.54425366  0.51503835  1
  O2-  O202  1  0.09911255  0.87083528  0.05306657  1
  O2-  O203  1  0.11512685  0.91472466  0.53926677  1
  O2-  O204  1  0.43628840  0.21353894  0.02991702  1
  O2-  O205  1  0.45254935  0.22692352  0.52351735  1
  O2-  O206  1  0.44817563  0.55820320  0.04479840  1
  O2-  O207  1  0.44183784  0.54747440  0.53162843  1
  O2-  O208  1  0.42430582  0.87135419  0.02663538  1
  O2-  O209  1  0.44405512  0.88378579  0.53961667  1
  O2-  O210  1  0.82070307  0.26854027  -0.00547590  1
  O2-  O211  1  0.77157220  0.22252187  0.53961128  1
  O2-  O212  1  0.74685114  0.54903428  0.02021300  1
  O2-  O213  1  0.77385839  0.56027083  0.53791395  1
  O2-  O214  1  0.79057251  0.88886061  0.02473061  1
  O2-  O215  1  0.77968508  0.89040834  0.54442839  1
