# generated using pymatgen
data_H2O
_symmetry_space_group_name_H-M   'P 1'
_cell_length_a   13.49060581
_cell_length_b   13.49596416
_cell_length_c   14.67509842
_cell_angle_alpha   90.05732272
_cell_angle_beta   90.02232243
_cell_angle_gamma   120.04296398
_symmetry_Int_Tables_number   1
_chemical_formula_structural   H2O
_chemical_formula_sum   'H144 O72'
_cell_volume   2312.90818072
_cell_formula_units_Z   72
loop_
 _symmetry_equiv_pos_site_id
 _symmetry_equiv_pos_as_xyz
  1  'x, y, z'
loop_
 _atom_type_symbol
 _atom_type_oxidation_number
  H+  1.0
  O2-  -2.0
loop_
 _atom_site_type_symbol
 _atom_site_label
 _atom_site_symmetry_multiplicity
 _atom_site_fract_x
 _atom_site_fract_y
 _atom_site_fract_z
 _atom_site_occupancy
  H+  H0  1  0.83452433  0.97785020  0.24522008  1
  H+  H1  1  0.31107179  0.49322560  0.49430320  1
  H+  H2  1  0.81368189  0.63456540  1.01221612  1
  H+  H3  1  0.51489983  0.80116227  0.75328176  1
  H+  H4  1  0.48747323  0.51019428  0.74496563  1
  H+  H5  1  0.96001854  0.46682534  0.75534606  1
  H+  H6  1  0.17216029  0.52803608  0.00147732  1
  H+  H7  1  0.08848931  0.87095569  0.64236012  1
  H+  H8  1  0.68602543  0.18247730  0.49275818  1
  H+  H9  1  0.47458763  0.29737855  0.02233650  1
  H+  H10  1  0.98202767  0.82005186  0.26699283  1
  H+  H11  1  0.03601242  0.51536120  0.22039216  1
  H+  H12  1  0.86916512  0.03790347  1.00658654  1
  H+  H13  1  0.48929467  0.30211308  0.25180299  1
  H+  H14  1  0.86179367  0.49084197  0.47803614  1
  H+  H15  1  0.83333739  0.51881543  0.23581294  1
  H+  H16  1  0.81576320  0.18133808  0.01370817  1
  H+  H17  1  0.63480786  0.14736885  0.25871976  1
  H+  H18  1  0.15636923  0.97510682  -0.00090037  1
  H+  H19  1  0.52018649  0.81927610  0.99212966  1
  H+  H20  1  0.50812164  0.65371858  0.51637976  1
  H+  H21  1  0.14934467  0.79239289  0.47921895  1
  H+  H22  1  0.50917891  0.14843412  0.01948201  1
  H+  H23  1  0.21164883  0.00868063  0.75716156  1
  H+  H24  1  0.70511813  0.84310689  0.50981406  1
  H+  H25  1  0.51436313  1.02796992  0.25595784  1
  H+  H26  1  0.65387731  0.48599563  0.25948436  1
  H+  H27  1  0.85785664  0.69505671  0.76809899  1
  H+  H28  1  0.14932011  0.64193839  0.22518828  1
  H+  H29  1  0.15334789  0.30314952  0.25767793  1
  H+  H30  1  0.03886459  0.18983052  -0.00186693  1
  H+  H31  1  0.48297829  0.94326371  0.72259140  1
  H+  H32  1  0.15129090  0.18596739  0.24856673  1
  H+  H33  1  0.16669337  0.19202026  0.98790929  1
  H+  H34  1  0.30098309  0.14917679  0.26815512  1
  H+  H35  1  0.69385115  0.17651191  0.01583887  1
  H+  H36  1  0.83194386  0.63657541  0.24584097  1
  H+  H37  1  0.43391759  0.86683041  0.63470077  1
  H+  H38  1  0.30139398  0.48089282  0.75101598  1
  H+  H39  1  0.71394134  0.51343747  0.73529195  1
  H+  H40  1  0.16655323  0.68420598  0.48811161  1
  H+  H41  1  0.34696559  0.83824865  0.49962034  1
  H+  H42  1  0.11457182  0.89281886  0.15145878  1
  H+  H43  1  0.49842077  0.67898467  0.26028326  1
  H+  H44  1  -0.02788584  0.15553236  0.26075581  1
  H+  H45  1  0.57393887  0.18189306  0.77237318  1
  H+  H46  1  0.01331693  0.16503761  0.50237447  1
  H+  H47  1  0.48703885  0.63681874  0.00048477  1
  H+  H48  1  0.47027946  0.19553816  0.64286419  1
  H+  H49  1  0.08572504  -0.07140074  0.49158790  1
  H+  H50  1  0.30912022  0.49037177  0.97910746  1
  H+  H51  1  0.85736605  0.13458551  0.77561987  1
  H+  H52  1  0.46553590  0.95821467  0.50065326  1
  H+  H53  1  0.77583075  0.30976543  0.73212314  1
  H+  H54  1  0.22674210  0.45324173  0.88924744  1
  H+  H55  1  0.24692645  0.48006067  0.40164749  1
  H+  H56  1  0.30220534  0.15095215  1.00009160  1
  H+  H57  1  0.15560143  0.85067955  -0.00457132  1
  H+  H58  1  0.47878407  0.96593731  0.01235220  1
  H+  H59  1  0.87710886  0.43407782  0.84441941  1
  H+  H60  1  0.48405471  0.18079714  0.24751840  1
  H+  H61  1  0.01403418  0.84417324  -0.00618291  1
  H+  H62  1  0.12726467  0.56897646  1.10040593  1
  H+  H63  1  0.50951136  0.15273422  0.48119278  1
  H+  H64  1  0.85887557  0.36511042  0.24896102  1
  H+  H65  1  0.39745014  0.67113956  0.31136338  1
  H+  H66  1  0.35534871  0.84817266  0.23789401  1
  H+  H67  1  0.52382854  0.36834055  0.71079638  1
  H+  H68  1  0.46579076  0.83764916  0.24127030  1
  H+  H69  1  0.83620228  0.35935628  -0.01736241  1
  H+  H70  1  0.71122664  0.85353174  1.01444416  1
  H+  H71  1  0.15761514  0.52015129  0.51022295  1
  H+  H72  1  0.72006458  0.85744118  0.24846161  1
  H+  H73  1  0.13724120  0.11445388  0.49078047  1
  H+  H74  1  0.17961804  0.80925955  0.75071845  1
  H+  H75  1  0.43540577  0.88123836  0.09726206  1
  H+  H76  1  0.16678165  0.32111058  0.98509666  1
  H+  H77  1  0.17782105  0.81456991  0.25594589  1
  H+  H78  1  0.83333320  0.47541121  0.98015667  1
  H+  H79  1  0.72375145  0.17579208  0.72637038  1
  H+  H80  1  0.49335917  0.63200792  0.74543220  1
  H+  H81  1  0.33045398  0.51199105  0.24792742  1
  H+  H82  1  0.97656341  0.14240863  0.76778978  1
  H+  H83  1  0.29681339  0.80640101  0.75232174  1
  H+  H84  1  0.81702997  0.18155472  0.24091401  1
  H+  H85  1  0.23597358  0.08046712  0.50211626  1
  H+  H86  1  0.50473266  0.51225585  0.22644825  1
  H+  H87  1  0.03095703  0.84487773  0.73992505  1
  H+  H88  1  0.85208572  0.81056809  0.76648753  1
  H+  H89  1  0.14456281  0.62262004  0.73970725  1
  H+  H90  1  0.40205067  0.24885220  0.50025293  1
  H+  H91  1  0.20871856  0.76422589  0.34344346  1
  H+  H92  1  0.81941503  0.95389085  0.74750988  1
  H+  H93  1  0.85138335  0.65452840  0.51445078  1
  H+  H94  1  0.53468667  0.53454385  0.51175611  1
  H+  H95  1  0.30499886  0.82627265  0.98687921  1
  H+  H96  1  0.21582060  0.52367652  0.24767646  1
  H+  H97  1  0.18160479  0.48191490  0.75051853  1
  H+  H98  1  0.67579707  0.52690885  0.49887957  1
  H+  H99  1  0.83503575  0.14894719  0.48630285  1
  H+  H100  1  0.86493037  0.82005994  0.27427779  1
  H+  H101  1  0.14879972  0.30494486  0.73783941  1
  H+  H102  1  0.86686405  0.83112897  -0.00415913  1
  H+  H103  1  0.83338251  0.51909073  0.73800816  1
  H+  H104  1  0.48275616  0.51469165  -0.00413092  1
  H+  H105  1  0.15740999  0.97354760  0.24014249  1
  H+  H106  1  0.55999232  0.33312646  0.79727073  1
  H+  H107  1  0.15044592  0.18820142  0.73600578  1
  H+  H108  1  0.77528027  0.22074667  0.15294428  1
  H+  H109  1  0.54302383  0.12822222  0.92360472  1
  H+  H110  1  0.55369014  0.43407038  0.90432246  1
  H+  H111  1  0.90016448  0.10758490  0.91342969  1
  H+  H112  1  0.90175112  0.78511753  0.90263184  1
  H+  H113  1  0.83054101  0.85637472  0.51383778  1
  H+  H114  1  0.63668324  0.80697165  0.76013615  1
  H+  H115  1  0.80211931  0.56824056  0.59944603  1
  H+  H116  1  0.47203706  0.56558867  0.60803854  1
  H+  H117  1  0.88495640  0.11094372  0.34579859  1
  H+  H118  1  0.77602775  0.55670854  0.10087772  1
  H+  H119  1  0.29211451  0.14188628  0.74440913  1
  H+  H120  1  0.20739941  0.09546993  0.34929647  1
  H+  H121  1  0.17100145  0.65335891  1.00134718  1
  H+  H122  1  0.03272392  0.50902642  0.50627328  1
  H+  H123  1  0.51022138  0.81296000  0.49374553  1
  H+  H124  1  0.46199318  0.55084734  0.13573552  1
  H+  H125  1  0.55391276  0.40690592  0.50170717  1
  H+  H126  1  0.43316320  0.22234540  0.11471459  1
  H+  H127  1  0.10703363  0.54649758  0.64891492  1
  H+  H128  1  0.83599173  0.03010255  0.48988802  1
  H+  H129  1  0.43945292  0.12760600  0.80016215  1
  H+  H130  1  0.56205203  0.78089724  0.90406248  1
  H+  H131  1  0.22484697  0.78295267  0.89528235  1
  H+  H132  1  0.57722129  0.46239169  0.34790859  1
  H+  H133  1  0.78983134  0.88897727  0.10457477  1
  H+  H134  1  0.63123724  0.48182209  0.99314871  1
  H+  H135  1  0.84843868  0.36678306  0.47474530  1
  H+  H136  1  0.90663468  0.44927936  0.33466190  1
  H+  H137  1  0.53691074  0.76057612  0.40682897  1
  H+  H138  1  0.75603839  0.23367110  0.58270573  1
  H+  H139  1  0.78040399  0.87997555  0.65565292  1
  H+  H140  1  0.54337173  0.10469314  0.39405546  1
  H+  H141  1  0.24136477  0.10732958  0.90202816  1
  H+  H142  1  0.09473715  0.20266304  0.58969554  1
  H+  H143  1  0.92981259  0.79424315  0.41324563  1
  O2-  O144  1  0.11056517  0.22718107  0.23008366  1
  O2-  O145  1  0.10356427  0.22158026  0.71910223  1
  O2-  O146  1  0.11686957  0.56359768  0.19604917  1
  O2-  O147  1  0.10701732  0.54213174  0.71764931  1
  O2-  O148  1  0.11626008  0.89108136  0.21836926  1
  O2-  O149  1  0.10686761  0.87976328  0.70837493  1
  O2-  O150  1  0.44233290  0.22175365  0.22932672  1
  O2-  O151  1  0.44435273  0.24989552  0.62639764  1
  O2-  O152  1  0.46577043  0.55368069  0.20357081  1
  O2-  O153  1  0.45296241  0.55212709  0.71748628  1
  O2-  O154  1  0.43626619  0.88587524  0.21520262  1
  O2-  O155  1  0.43872699  0.86339308  0.70350240  1
  O2-  O156  1  0.77559712  0.22217972  0.22125813  1
  O2-  O157  1  0.70985263  0.23648906  0.70600166  1
  O2-  O158  1  0.79021894  0.55872939  0.21804873  1
  O2-  O159  1  0.79471483  0.56275791  0.71622895  1
  O2-  O160  1  0.79764822  0.89455940  0.22384176  1
  O2-  O161  1  0.77740678  0.87424890  0.72380279  1
  O2-  O162  1  0.21712817  0.10458473  0.28194190  1
  O2-  O163  1  0.27096047  0.08034210  0.78848173  1
  O2-  O164  1  0.26932562  0.51195817  0.28627907  1
  O2-  O165  1  0.22184894  0.44084418  0.77509589  1
  O2-  O166  1  0.21440556  0.76901223  0.27522849  1
  O2-  O167  1  0.21920917  0.77173754  0.77995157  1
  O2-  O168  1  0.55340755  0.10759961  0.28088065  1
  O2-  O169  1  0.51943529  0.18124456  0.81811313  1
  O2-  O170  1  0.57246830  0.44766456  0.28181635  1
  O2-  O171  1  0.56547012  0.40234707  0.76842020  1
  O2-  O172  1  0.47921589  0.72747505  0.30023982  1
  O2-  O173  1  0.55540212  0.76458886  0.78236753  1
  O2-  O174  1  0.88831281  0.10991960  0.27766388  1
  O2-  O175  1  0.89811947  0.09606493  0.79611740  1
  O2-  O176  1  0.90563447  0.44820731  0.26639458  1
  O2-  O177  1  0.87859689  0.43356623  0.77462585  1
  O2-  O178  1  0.90504132  0.77988461  0.29698180  1
  O2-  O179  1  0.89630654  0.77563944  0.79266749  1
  O2-  O180  1  0.16934135  0.06330369  0.46502809  1
  O2-  O181  1  0.22447385  0.11064610  0.96792409  1
  O2-  O182  1  0.23568601  0.46910479  0.46845036  1
  O2-  O183  1  0.22584421  0.45110169  0.95828356  1
  O2-  O184  1  0.20170950  0.76413619  0.46173101  1
  O2-  O185  1  0.22252018  0.78459779  0.96412922  1
  O2-  O186  1  0.54116173  0.10382307  0.46298331  1
  O2-  O187  1  0.54820048  0.11114617  0.98866252  1
  O2-  O188  1  0.59077096  0.48809014  0.47919344  1
  O2-  O189  1  0.54960141  0.43768025  0.97087506  1
  O2-  O190  1  0.55292564  0.77347366  0.47408046  1
  O2-  O191  1  0.56406086  0.78155236  0.97199286  1
  O2-  O192  1  0.87494302  0.10838339  0.46357008  1
  O2-  O193  1  0.90851107  0.11750351  0.98110377  1
  O2-  O194  1  0.89753406  0.44742534  0.45362171  1
  O2-  O195  1  0.87063496  0.43543674  0.95285635  1
  O2-  O196  1  0.92714226  0.79675952  0.48258988  1
  O2-  O197  1  0.91129544  0.79375423  0.97209444  1
  O2-  O198  1  0.12726361  0.23656512  0.00660629  1
  O2-  O199  1  0.09253955  0.18914603  0.52369233  1
  O2-  O200  1  0.13578092  0.57237302  0.02704916  1
  O2-  O201  1  0.11056209  0.55414043  0.53414123  1
  O2-  O202  1  0.11246388  0.89091692  0.01768876  1
  O2-  O203  1  0.04728515  0.84607000  0.51415233  1
  O2-  O204  1  0.43048527  0.21763030  0.04598871  1
  O2-  O205  1  0.47567877  0.26641608  0.52828515  1
  O2-  O206  1  0.44097716  0.55397423  0.01814282  1
  O2-  O207  1  0.47956386  0.57082579  0.53876728  1
  O2-  O208  1  0.43634391  0.88271084  0.02886177  1
  O2-  O209  1  0.42806293  0.87702887  0.52194954  1
  O2-  O210  1  0.77562878  0.22109489  0.03581511  1
  O2-  O211  1  0.76610765  0.22639072  0.51681579  1
  O2-  O212  1  0.76787811  0.55477281  0.03279136  1
  O2-  O213  1  0.80094120  0.57197582  0.53102759  1
  O2-  O214  1  0.79249691  0.89128097  0.03621909  1
  O2-  O215  1  0.78291220  0.88801125  0.53674490  1
