# generated using pymatgen
data_H2O
_symmetry_space_group_name_H-M   'P 1'
_cell_length_a   13.52835174
_cell_length_b   13.52727073
_cell_length_c   14.67566341
_cell_angle_alpha   90.00910090
_cell_angle_beta   89.98253695
_cell_angle_gamma   120.08365209
_symmetry_Int_Tables_number   1
_chemical_formula_structural   H2O
_chemical_formula_sum   'H144 O72'
_cell_volume   2323.89618742
_cell_formula_units_Z   72
loop_
 _symmetry_equiv_pos_site_id
 _symmetry_equiv_pos_as_xyz
  1  'x, y, z'
loop_
 _atom_type_symbol
 _atom_type_oxidation_number
  H+  1.0
  O2-  -2.0
loop_
 _atom_site_type_symbol
 _atom_site_label
 _atom_site_symmetry_multiplicity
 _atom_site_fract_x
 _atom_site_fract_y
 _atom_site_fract_z
 _atom_site_occupancy
  H+  H0  1  0.69914894  0.85140561  0.00943032  1
  H+  H1  1  0.65587014  0.49010696  0.25018892  1
  H+  H2  1  0.88798398  0.42196223  0.84930077  1
  H+  H3  1  0.81025733  0.83177801  0.74285164  1
  H+  H4  1  0.20063151  0.80804544  0.50286619  1
  H+  H5  1  0.28265717  0.15761522  0.99732818  1
  H+  H6  1  0.97026810  0.83086161  0.24404862  1
  H+  H7  1  0.52282036  0.82292983  0.49687918  1
  H+  H8  1  0.18140953  0.68572751  0.75456948  1
  H+  H9  1  0.51224632  0.80449910  0.76313868  1
  H+  H10  1  0.49744803  0.79793555  -0.01150155  1
  H+  H11  1  0.21521394  0.44816884  0.57174005  1
  H+  H12  1  0.09957868  0.74125820  0.32586548  1
  H+  H13  1  0.15614211  0.96024459  0.74246827  1
  H+  H14  1  0.53902203  0.34749012  0.82721872  1
  H+  H15  1  0.47554652  0.49194994  0.73281565  1
  H+  H16  1  0.82523945  0.64526672  0.22768220  1
  H+  H17  1  0.38659890  0.47414483  0.20681701  1
  H+  H18  1  0.80305280  0.30172620  0.50090275  1
  H+  H19  1  0.37710746  0.51423181  0.51183151  1
  H+  H20  1  0.95851056  0.15254710  0.26653295  1
  H+  H21  1  0.80539645  0.18588806  0.51085594  1
  H+  H22  1  0.14606296  0.85835096  0.22179620  1
  H+  H23  1  0.29163084  0.13736176  0.49989963  1
  H+  H24  1  0.82188432  0.64900090  0.50347768  1
  H+  H25  1  0.30207028  0.46937687  0.75568110  1
  H+  H26  1  0.68897729  0.18492406  0.26166015  1
  H+  H27  1  0.17574478  1.01704608  0.49398685  1
  H+  H28  1  0.83932306  1.03396545  0.26234761  1
  H+  H29  1  0.51281408  0.49880675  0.22138218  1
  H+  H30  1  0.03725372  0.74907734  0.55246728  1
  H+  H31  1  0.18363293  0.47247733  0.75328938  1
  H+  H32  1  0.57441434  0.45424137  0.39755178  1
  H+  H33  1  0.54734107  0.06864684  0.74315633  1
  H+  H34  1  0.81458056  0.18076449  0.26050834  1
  H+  H35  1  0.13529654  0.15860569  0.51668176  1
  H+  H36  1  0.49683594  -0.02647633  0.51892677  1
  H+  H37  1  0.15641624  0.63169664  0.50799528  1
  H+  H38  1  0.49441139  0.66049818  -0.01074755  1
  H+  H39  1  0.94537720  0.47950171  -0.01012697  1
  H+  H40  1  0.81401528  0.85117741  0.51301535  1
  H+  H41  1  0.13103535  0.90240737  -0.06014029  1
  H+  H42  1  0.13203659  0.61548485  0.01409620  1
  H+  H43  1  0.83469369  0.69063723  0.98583300  1
  H+  H44  1  0.85003513  0.82551797  0.25058889  1
  H+  H45  1  0.68113509  0.82721140  0.74564502  1
  H+  H46  1  -0.03665247  0.16241651  -0.01501660  1
  H+  H47  1  0.90422402  0.14662660  0.74319535  1
  H+  H48  1  0.30740531  0.17794528  0.76460386  1
  H+  H49  1  0.29045803  0.79356039  0.98851020  1
  H+  H50  1  0.18457421  0.37262101  0.99765902  1
  H+  H51  1  0.47382815  0.94501199  -0.01149801  1
  H+  H52  1  0.62799779  0.47635226  0.96265130  1
  H+  H53  1  0.16280479  0.04495801  0.99628560  1
  H+  H54  1  0.60001117  0.26703032  0.05989721  1
  H+  H55  1  0.14451210  0.18673061  0.24894915  1
  H+  H56  1  0.51375390  0.68350465  0.76389216  1
  H+  H57  1  0.50671180  0.11803873  0.97919024  1
  H+  H58  1  0.36657485  0.19125753  0.23778015  1
  H+  H59  1  0.03991123  0.49747854  0.74223334  1
  H+  H60  1  0.69179278  0.84453400  0.51665979  1
  H+  H61  1  0.54474583  0.76060271  0.89650858  1
  H+  H62  1  0.18223280  1.04207291  0.25259292  1
  H+  H63  1  0.81495648  0.84911698  0.00941499  1
  H+  H64  1  0.53518418  0.36848688  0.25850213  1
  H+  H65  1  0.50119144  0.45232692  -0.04728159  1
  H+  H66  1  0.15268545  0.83898746  0.74892890  1
  H+  H67  1  0.51534430  0.05448032  0.25967206  1
  H+  H68  1  -0.03909484  0.48682114  0.48318413  1
  H+  H69  1  0.37387922  0.84045326  0.74539066  1
  H+  H70  1  0.62631192  0.15190478  0.49925949  1
  H+  H71  1  0.47499868  0.29279178  0.50737685  1
  H+  H72  1  0.84733803  0.49452518  0.48547700  1
  H+  H73  1  0.96940000  0.83263266  0.48037749  1
  H+  H74  1  0.15707112  0.30499871  0.73996303  1
  H+  H75  1  0.27737382  0.49257031  0.31282034  1
  H+  H76  1  0.38460873  0.85007063  0.51963748  1
  H+  H77  1  0.95773864  0.80903204  0.75776194  1
  H+  H78  1  0.52667933  0.65700212  0.26022045  1
  H+  H79  1  0.46050208  0.88231722  0.24096139  1
  H+  H80  1  0.70866473  0.52650172  0.50490867  1
  H+  H81  1  0.17181518  0.79270026  -0.00743567  1
  H+  H82  1  0.52738560  0.31064435  0.00846771  1
  H+  H83  1  0.36243960  0.51358905  0.99773041  1
  H+  H84  1  0.69791397  0.84267296  0.24208257  1
  H+  H85  1  0.48928858  0.63876842  0.51453662  1
  H+  H86  1  0.82404615  0.25713865  0.74940595  1
  H+  H87  1  1.01593609  0.16278054  0.51757582  1
  H+  H88  1  0.45970995  0.88463455  0.66112206  1
  H+  H89  1  0.69163533  0.17462323  0.99325423  1
  H+  H90  1  0.10640124  0.20976048  0.64914189  1
  H+  H91  1  0.12845737  0.49762473  0.01440801  1
  H+  H92  1  0.83993601  1.02842547  0.50169714  1
  H+  H93  1  0.14808263  0.68397449  0.26182536  1
  H+  H94  1  0.47122772  0.17542288  0.52398462  1
  H+  H95  1  0.69673717  0.49548721  0.73683406  1
  H+  H96  1  0.85127396  0.03989609  0.98364605  1
  H+  H97  1  0.77403750  0.89325962  0.15177311  1
  H+  H98  1  0.01251947  0.83982487  -0.00883453  1
  H+  H99  1  0.13121728  0.50354858  0.50567501  1
  H+  H100  1  0.13862258  0.30148506  0.25776424  1
  H+  H101  1  0.50019646  0.75451304  0.25802765  1
  H+  H102  1  0.13157776  0.51212835  0.25038951  1
  H+  H103  1  0.34749811  0.88337518  0.23169868  1
  H+  H104  1  -0.04586264  0.47657157  0.25630781  1
  H+  H105  1  0.79997579  0.51202846  -0.00389248  1
  H+  H106  1  0.81645598  0.31086697  0.25656047  1
  H+  H107  1  0.14014727  0.19906615  1.02036537  1
  H+  H108  1  0.10513533  0.85631634  0.61382552  1
  H+  H109  1  0.56729211  0.19214259  0.76883109  1
  H+  H110  1  0.15710743  0.17816109  0.74480097  1
  H+  H111  1  0.45937705  0.54702956  0.07851895  1
  H+  H112  1  0.55254429  0.09032979  0.88711067  1
  H+  H113  1  0.21929046  0.10988551  0.34718757  1
  H+  H114  1  0.21590762  0.75863488  0.84594988  1
  H+  H115  1  0.11768149  0.90498212  0.13189930  1
  H+  H116  1  0.22090937  0.12279039  0.84893458  1
  H+  H117  1  0.89393500  0.79627068  0.38939711  1
  H+  H118  1  0.82307847  0.52477954  0.22776276  1
  H+  H119  1  0.76367472  0.87190791  0.64832946  1
  H+  H120  1  0.87580331  0.44623375  0.34654353  1
  H+  H121  1  0.43377081  0.87831479  0.08329734  1
  H+  H122  1  0.83210420  0.69254651  0.75620595  1
  H+  H123  1  0.46064315  0.23106949  0.15469711  1
  H+  H124  1  0.22258264  0.44153524  0.90318231  1
  H+  H125  1  0.10043801  0.23761024  0.10917812  1
  H+  H126  1  0.23987581  0.77755714  0.41017277  1
  H+  H127  1  0.09514699  0.54366399  0.15351221  1
  H+  H128  1  0.76027819  0.55273433  0.08416112  1
  H+  H129  1  0.53226409  0.48861557  0.48738097  1
  H+  H130  1  0.87477272  0.77187992  0.89794608  1
  H+  H131  1  0.85152160  0.13280694  0.83950719  1
  H+  H132  1  0.16794158  0.33590772  0.51536811  1
  H+  H133  1  0.55605256  0.76997387  0.40998687  1
  H+  H134  1  0.44967389  0.54993471  0.65058854  1
  H+  H135  1  0.88068523  0.10520387  0.41126018  1
  H+  H136  1  0.82819466  0.36117228  0.98286894  1
  H+  H137  1  0.52173580  0.17330813  0.26788687  1
  H+  H138  1  0.17958492  0.43015891  0.38138712  1
  H+  H139  1  0.11013588  0.54642718  0.64947391  1
  H+  H140  1  0.44383987  0.26605925  0.65964707  1
  H+  H141  1  0.54077562  0.10894573  0.41532314  1
  H+  H142  1  0.81451759  0.19157828  0.99616887  1
  H+  H143  1  0.76154394  0.56428360  0.64775958  1
  O2-  O144  1  0.10054704  0.22478576  0.22951147  1
  O2-  O145  1  0.11543726  0.21927479  0.71910388  1
  O2-  O146  1  0.09355599  0.55092730  0.22217208  1
  O2-  O147  1  0.11994694  0.54472895  0.71647155  1
  O2-  O148  1  0.11533814  0.90658741  0.19895231  1
  O2-  O149  1  0.11111241  0.87867238  0.72532174  1
  O2-  O150  1  0.44958561  0.23067157  0.22220062  1
  O2-  O151  1  0.43537964  0.29242384  0.72173058  1
  O2-  O152  1  0.46540134  0.53187903  0.19243571  1
  O2-  O153  1  0.44454191  0.54203677  0.71907894  1
  O2-  O154  1  0.42511597  0.91831543  0.20674210  1
  O2-  O155  1  0.45601051  0.87673530  0.72887810  1
  O2-  O156  1  0.77313481  0.22390091  0.24123131  1
  O2-  O157  1  0.82620267  0.33148959  0.73622283  1
  O2-  O158  1  0.78353234  0.56505704  0.20412995  1
  O2-  O159  1  0.74103061  0.57253435  0.71130574  1
  O2-  O160  1  0.77679173  0.89393207  0.22015379  1
  O2-  O161  1  0.76231180  0.86685822  0.71906544  1
  O2-  O162  1  0.22196327  0.12004076  0.27999635  1
  O2-  O163  1  0.22547352  0.12357138  0.78125315  1
  O2-  O164  1  0.19460982  0.44243885  0.31546432  1
  O2-  O165  1  0.22002508  0.42705295  0.77549166  1
  O2-  O166  1  0.16922093  0.75950907  0.29215980  1
  O2-  O167  1  0.21931719  0.76602413  0.77843152  1
  O2-  O168  1  0.56022499  0.13002588  0.28938801  1
  O2-  O169  1  0.58376274  0.13164921  0.78669458  1
  O2-  O170  1  0.57562031  0.45127679  0.27576894  1
  O2-  O171  1  0.54636068  0.32085897  0.76540711  1
  O2-  O172  1  0.55380522  0.73504161  0.28550525  1
  O2-  O173  1  0.55389280  0.76356766  0.78800737  1
  O2-  O174  1  0.87732256  0.11316683  0.28834271  1
  O2-  O175  1  0.83727833  0.13909730  0.77419351  1
  O2-  O176  1  0.87263415  0.43779528  0.27751349  1
  O2-  O177  1  0.92232268  0.40975919  0.79288257  1
  O2-  O178  1  0.89279903  0.78662991  0.27133169  1
  O2-  O179  1  0.87741452  0.77470891  0.77932165  1
  O2-  O180  1  0.21103420  0.09696642  0.47496310  1
  O2-  O181  1  0.20551347  0.12418923  0.97221853  1
  O2-  O182  1  0.20993923  0.42232056  0.50861611  1
  O2-  O183  1  0.23007975  0.45163842  0.97034392  1
  O2-  O184  1  0.24473365  0.77339725  0.47710768  1
  O2-  O185  1  0.20857333  0.75099215  0.96842040  1
  O2-  O186  1  0.54137885  0.10585563  0.48265191  1
  O2-  O187  1  0.53881651  0.07196909  0.95534183  1
  O2-  O188  1  0.57126288  0.44764176  0.46519294  1
  O2-  O189  1  0.54971552  0.41912451  0.93955321  1
  O2-  O190  1  0.55856904  0.77563920  0.47714855  1
  O2-  O191  1  0.53955889  0.75626555  0.96655998  1
  O2-  O192  1  0.88610421  0.10837150  0.47895248  1
  O2-  O193  1  0.88582635  0.11810423  0.95843751  1
  O2-  O194  1  0.88221327  0.45108725  0.45793865  1
  O2-  O195  1  0.86792238  0.44423887  0.96255995  1
  O2-  O196  1  0.89033872  0.79716186  0.45774455  1
  O2-  O197  1  0.87860348  0.77341396  0.96609418  1
  O2-  O198  1  0.10333575  0.24263388  0.04123890  1
  O2-  O199  1  0.09731164  0.20002106  0.54265470  1
  O2-  O200  1  0.08878527  0.53640631  0.03967413  1
  O2-  O201  1  0.10107569  0.55194774  0.52813357  1
  O2-  O202  1  0.09918514  0.88645995  0.00159408  1
  O2-  O203  1  0.09358247  0.83063618  0.54781669  1
  O2-  O204  1  0.52072758  0.24674505  0.04826502  1
  O2-  O205  1  0.43019618  0.21816894  0.53879347  1
  O2-  O206  1  0.44867558  0.55585481  0.01151532  1
  O2-  O207  1  0.45558132  0.55733480  0.53573928  1
  O2-  O208  1  0.43357559  0.86445299  0.01714170  1
  O2-  O209  1  0.46509625  0.89221998  0.54118640  1
  O2-  O210  1  0.76937493  0.22777464  0.01541680  1
  O2-  O211  1  0.75803893  0.22124685  0.52088494  1
  O2-  O212  1  0.75732573  0.55208494  0.01623942  1
  O2-  O213  1  0.78903118  0.57080433  0.52872643  1
  O2-  O214  1  0.77762739  0.89171711  0.03351613  1
  O2-  O215  1  0.77132152  0.88487656  0.54341947  1
