# generated using pymatgen
data_H2O
_symmetry_space_group_name_H-M   'P 1'
_cell_length_a   13.52594059
_cell_length_b   13.52141902
_cell_length_c   14.71246316
_cell_angle_alpha   90.04600362
_cell_angle_beta   89.94961261
_cell_angle_gamma   119.88534502
_symmetry_Int_Tables_number   1
_chemical_formula_structural   H2O
_chemical_formula_sum   'H144 O72'
_cell_volume   2332.95391415
_cell_formula_units_Z   72
loop_
 _symmetry_equiv_pos_site_id
 _symmetry_equiv_pos_as_xyz
  1  'x, y, z'
loop_
 _atom_type_symbol
 _atom_type_oxidation_number
  H+  1.0
  O2-  -2.0
loop_
 _atom_site_type_symbol
 _atom_site_label
 _atom_site_symmetry_multiplicity
 _atom_site_fract_x
 _atom_site_fract_y
 _atom_site_fract_z
 _atom_site_occupancy
  H+  H0  1  0.85216484  0.70615234  0.97112394  1
  H+  H1  1  -0.03647079  0.47885661  0.49933502  1
  H+  H2  1  0.42097494  0.88317549  -0.00460747  1
  H+  H3  1  0.51632003  0.19273076  0.73250077  1
  H+  H4  1  0.62448434  0.80920663  0.48653460  1
  H+  H5  1  0.29113505  0.13590186  0.98750944  1
  H+  H6  1  0.18345806  0.35874670  -0.01537359  1
  H+  H7  1  0.18191261  0.14326213  0.50324874  1
  H+  H8  1  0.19109384  0.49783572  0.25679511  1
  H+  H9  1  0.82808759  0.02157872  0.52367340  1
  H+  H10  1  0.01825432  0.84839267  0.00680363  1
  H+  H11  1  0.60952435  0.44115028  0.36543173  1
  H+  H12  1  0.90152241  0.07874278  0.30608892  1
  H+  H13  1  0.14994144  -0.01952382  0.24006468  1
  H+  H14  1  0.98000154  0.83806933  0.26478010  1
  H+  H15  1  0.74585677  0.87123119  0.60756861  1
  H+  H16  1  0.18629806  0.37870251  0.25277635  1
  H+  H17  1  0.11106343  0.16281554  0.76108490  1
  H+  H18  1  0.42024777  0.22446639  0.74717252  1
  H+  H19  1  0.02975547  0.16505719  0.53402756  1
  H+  H20  1  0.18161281  0.47560657  0.98941345  1
  H+  H21  1  0.83752250  0.67098512  0.22407553  1
  H+  H22  1  0.53918964  1.04905097  0.25869810  1
  H+  H23  1  0.25557785  0.78755296  1.01334064  1
  H+  H24  1  0.54296970  0.05116175  0.98285413  1
  H+  H25  1  0.82621091  0.31078454  0.74500934  1
  H+  H26  1  0.22067231  0.44155707  0.84636942  1
  H+  H27  1  0.81081466  0.32049492  0.23955408  1
  H+  H28  1  0.52769626  1.03493366  0.75202040  1
  H+  H29  1  0.36582070  0.51116326  0.73478699  1
  H+  H30  1  0.14009894  0.19320581  0.24209074  1
  H+  H31  1  0.63108612  0.78181776  0.25910554  1
  H+  H32  1  0.77506427  0.97165928  0.75408900  1
  H+  H33  1  0.28094356  0.16187544  0.26996753  1
  H+  H34  1  0.55380349  0.39278306  0.74663681  1
  H+  H35  1  0.71308828  0.53750482  0.73613534  1
  H+  H36  1  0.15362153  0.51049008  0.73767599  1
  H+  H37  1  0.81704566  0.19078884  0.00020003  1
  H+  H38  1  0.11159327  0.20804716  0.61650836  1
  H+  H39  1  0.48562206  0.63115100  0.00445124  1
  H+  H40  1  0.95871634  0.14571378  0.98477723  1
  H+  H41  1  0.52092541  0.37270452  0.49503064  1
  H+  H42  1  0.13998719  -0.05414046  0.75296304  1
  H+  H43  1  0.84604401  0.48466450  0.50185784  1
  H+  H44  1  0.78409317  -0.05982737  0.22305403  1
  H+  H45  1  0.18569365  0.02822621  0.49162793  1
  H+  H46  1  0.81416689  0.84051126  0.23504406  1
  H+  H47  1  0.36275034  0.08615338  0.21010446  1
  H+  H48  1  0.75566851  0.42457067  0.30741183  1
  H+  H49  1  0.48539578  -0.03591117  0.50403946  1
  H+  H50  1  0.93348374  0.86796693  0.73698904  1
  H+  H51  1  0.64448645  0.81200785  0.98538409  1
  H+  H52  1  0.13975208  0.63055604  0.51105504  1
  H+  H53  1  0.21576103  0.81953829  0.75878869  1
  H+  H54  1  0.50215103  0.64113195  0.24994448  1
  H+  H55  1  0.97742104  0.49673737  0.75154680  1
  H+  H56  1  0.39621726  0.84796554  0.73961373  1
  H+  H57  1  0.30013114  0.81659896  0.49691553  1
  H+  H58  1  0.65078151  0.49973104  0.97146284  1
  H+  H59  1  0.52389977  0.49331656  0.49414603  1
  H+  H60  1  0.12818033  0.83447339  0.00901062  1
  H+  H61  1  0.83133035  0.15079763  0.76182433  1
  H+  H62  1  0.15135991  0.66976410  0.98860063  1
  H+  H63  1  0.36790413  0.18318905  0.50712649  1
  H+  H64  1  0.64981164  0.17340056  0.25700406  1
  H+  H65  1  0.50951980  0.68841752  0.49233868  1
  H+  H66  1  0.96218904  0.82078249  0.49414159  1
  H+  H67  1  -0.01591687  0.48380246  0.23866065  1
  H+  H68  1  0.22809560  0.73686839  0.25860764  1
  H+  H69  1  0.46842759  0.17291884  0.00173185  1
  H+  H70  1  0.51674854  0.15602185  0.48620048  1
  H+  H71  1  0.52454263  0.86269633  0.00198144  1
  H+  H72  1  0.48975150  0.52450973  0.73477606  1
  H+  H73  1  0.81900986  0.84952963  -0.00145698  1
  H+  H74  1  0.24448667  0.12597594  0.76134570  1
  H+  H75  1  0.52746795  0.48574230  0.97521326  1
  H+  H76  1  0.03363456  0.21160748  0.22097752  1
  H+  H77  1  0.36865223  0.51232442  1.00685820  1
  H+  H78  1  0.82694801  0.65817573  0.73140959  1
  H+  H79  1  0.80712630  0.82630787  0.76040921  1
  H+  H80  1  0.86175701  0.50401788  0.75084265  1
  H+  H81  1  0.19366195  0.49702270  0.49169152  1
  H+  H82  1  0.00079900  0.17330189  0.74833859  1
  H+  H83  1  0.16844848  0.01911766  0.99116652  1
  H+  H84  1  0.67585329  0.18201593  0.49609641  1
  H+  H85  1  0.36728147  0.51088774  0.23235622  1
  H+  H86  1  0.20036142  0.83927335  0.25786328  1
  H+  H87  1  0.39964436  0.88191794  0.23853441  1
  H+  H88  1  0.47909144  0.17814743  0.24461563  1
  H+  H89  1  0.16938574  0.35679337  0.76230614  1
  H+  H90  1  0.83356024  0.55257748  0.22229196  1
  H+  H91  1  0.80181986  0.18098904  0.52137276  1
  H+  H92  1  0.14518767  0.84272161  0.50975946  1
  H+  H93  1  0.57499492  0.78431525  0.89397121  1
  H+  H94  1  0.14272232  0.17199917  -0.00220466  1
  H+  H95  1  0.37581255  0.52672954  0.51046080  1
  H+  H96  1  0.84998394  0.37208681  0.97330348  1
  H+  H97  1  0.57109995  0.85533234  0.74311384  1
  H+  H98  1  0.70288968  0.52085297  0.51164662  1
  H+  H99  1  0.83171820  0.53152030  0.98970327  1
  H+  H100  1  0.06205872  0.61064582  0.22237548  1
  H+  H101  1  0.05314989  0.81155893  0.75128434  1
  H+  H102  1  0.80588538  0.84496863  0.52193682  1
  H+  H103  1  0.81199050  0.31181764  0.50555057  1
  H+  H104  1  0.65406413  0.48519563  0.26545531  1
  H+  H105  1  0.70691372  0.19419439  0.74245749  1
  H+  H106  1  0.78767825  0.56803803  0.59746272  1
  H+  H107  1  0.48090916  0.84313485  0.50080627  1
  H+  H108  1  0.22651319  0.78560981  0.40726996  1
  H+  H109  1  0.89399971  0.79340070  0.35147732  1
  H+  H110  1  0.48069066  0.91479069  0.15190409  1
  H+  H111  1  0.20481054  0.11872655  0.35905484  1
  H+  H112  1  0.24003299  0.46559828  0.40401657  1
  H+  H113  1  0.57797108  0.46582570  0.83886311  1
  H+  H114  1  0.56067375  0.11499005  0.84208400  1
  H+  H115  1  0.11211871  0.89738383  0.15180918  1
  H+  H116  1  0.55000849  0.74210189  0.35254587  1
  H+  H117  1  0.10833243  0.88117387  0.59903404  1
  H+  H118  1  0.10681864  0.55136439  0.59911345  1
  H+  H119  1  0.16703731  0.63452244  0.73797965  1
  H+  H120  1  0.19172725  0.08609364  0.86149699  1
  H+  H121  1  0.83933621  0.02849010  0.99028424  1
  H+  H122  1  0.77001320  0.87352727  0.09027587  1
  H+  H123  1  0.08606883  0.53403713  0.08985784  1
  H+  H124  1  0.24071295  0.77254332  0.84889799  1
  H+  H125  1  0.88884190  0.79698325  0.88844246  1
  H+  H126  1  0.89549872  0.45535643  0.88534259  1
  H+  H127  1  0.42024942  0.19639324  0.09293419  1
  H+  H128  1  0.79777841  0.58153808  0.07637329  1
  H+  H129  1  0.10935169  0.22018881  0.08446476  1
  H+  H130  1  0.86223796  0.43921037  0.36406123  1
  H+  H131  1  0.64492950  0.17668254  0.97726226  1
  H+  H132  1  0.45282948  0.56326062  0.60160694  1
  H+  H133  1  0.89339930  0.11338860  0.44687078  1
  H+  H134  1  0.45538417  0.22526150  0.59187403  1
  H+  H135  1  0.01908890  0.50128946  -0.00501376  1
  H+  H136  1  0.84561029  0.70241511  0.48944757  1
  H+  H137  1  0.77966483  0.06204699  0.31939126  1
  H+  H138  1  0.45105368  0.55217039  0.14317448  1
  H+  H139  1  0.78481833  0.24474753  0.08446082  1
  H+  H140  1  0.46156984  0.88997333  0.64487326  1
  H+  H141  1  0.56355263  0.12092782  0.39628598  1
  H+  H142  1  0.82778694  0.21188521  0.22623505  1
  H+  H143  1  0.86348499  0.10004774  0.85035754  1
  O2-  O144  1  0.11399873  0.24088057  0.20748280  1
  O2-  O145  1  0.08421710  0.21200233  0.73380044  1
  O2-  O146  1  0.06045723  0.53809124  0.21496400  1
  O2-  O147  1  0.11744741  0.55560946  0.71515773  1
  O2-  O148  1  0.11977364  0.90007762  0.21977932  1
  O2-  O149  1  0.12255485  0.87167368  0.72315808  1
  O2-  O150  1  0.40706845  0.16878566  0.21759139  1
  O2-  O151  1  0.48528994  0.24271290  0.70818706  1
  O2-  O152  1  0.44896191  0.54766486  0.21228514  1
  O2-  O153  1  0.44404450  0.55745001  0.71057686  1
  O2-  O154  1  0.47994304  0.92133076  0.21880832  1
  O2-  O155  1  0.47329631  0.89511920  0.71230482  1
  O2-  O156  1  0.78498204  0.24786324  0.20403298  1
  O2-  O157  1  0.78867637  0.22979028  0.72554028  1
  O2-  O158  1  0.80257304  0.59603898  0.19207579  1
  O2-  O159  1  0.79486965  0.57797480  0.71220557  1
  O2-  O160  1  0.75751750  0.85988504  0.20750866  1
  O2-  O161  1  0.73147684  0.88777908  0.72935904  1
  O2-  O162  1  0.20035145  0.12357121  0.29054859  1
  O2-  O163  1  0.17355853  0.07500833  0.79253371  1
  O2-  O164  1  0.23280588  0.45894520  0.27463521  1
  O2-  O165  1  0.21614515  0.43906807  0.77870131  1
  O2-  O166  1  0.24940410  0.81071541  0.28543616  1
  O2-  O167  1  0.25329691  0.77759343  0.78236956  1
  O2-  O168  1  0.57295797  0.12903671  0.28509273  1
  O2-  O169  1  0.56283829  0.11553181  0.77375144  1
  O2-  O170  1  0.63616264  0.42262364  0.30799245  1
  O2-  O171  1  0.58349262  0.47135446  0.76916412  1
  O2-  O172  1  0.55196419  0.73351857  0.28397701  1
  O2-  O173  1  0.61938152  0.82830005  0.77478775  1
  O2-  O174  1  0.84045884  0.08349831  0.27452601  1
  O2-  O175  1  0.85896647  0.09566897  0.78241435  1
  O2-  O176  1  0.83579438  0.43444950  0.29959767  1
  O2-  O177  1  0.89707439  0.45944828  0.77440847  1
  O2-  O178  1  0.89818713  0.79867160  0.28341838  1
  O2-  O179  1  0.86959497  0.80685392  0.76980391  1
  O2-  O180  1  0.22481857  0.10926573  0.47132867  1
  O2-  O181  1  0.20800868  0.09760120  0.96457252  1
  O2-  O182  1  0.24561302  0.47002885  0.47060734  1
  O2-  O183  1  0.22688988  0.44098736  0.96690847  1
  O2-  O184  1  0.21958436  0.77797684  0.47427082  1
  O2-  O185  1  0.19196608  0.75386362  0.97082978  1
  O2-  O186  1  0.56174046  0.11842525  0.46522407  1
  O2-  O187  1  0.56434489  0.12684763  0.95648630  1
  O2-  O188  1  0.56673963  0.45344244  0.47490970  1
  O2-  O189  1  0.57320908  0.45694452  0.94488172  1
  O2-  O190  1  0.54597467  0.76714956  0.46117982  1
  O2-  O191  1  0.56410374  0.77582920  0.96071195  1
  O2-  O192  1  0.86897712  0.10649146  0.50988346  1
  O2-  O193  1  0.87655213  0.10868996  0.96712753  1
  O2-  O194  1  0.88076439  0.43788851  0.47900923  1
  O2-  O195  1  0.89476255  0.45412725  0.95417983  1
  O2-  O196  1  0.88224922  0.78460195  0.47053487  1
  O2-  O197  1  0.89120075  0.79051024  0.95557451  1
  O2-  O198  1  0.10349776  0.21504834  0.01731301  1
  O2-  O199  1  0.11017429  0.19609948  0.54981264  1
  O2-  O200  1  0.09856187  0.53964034  0.02342335  1
  O2-  O201  1  0.09894550  0.54954523  0.53115109  1
  O2-  O202  1  0.09700001  0.88181215  0.03380396  1
  O2-  O203  1  0.10462709  0.88337690  0.53190454  1
  O2-  O204  1  0.41341142  0.19439901  0.02613205  1
  O2-  O205  1  0.45070102  0.22321071  0.52417930  1
  O2-  O206  1  0.44817271  0.55332226  0.03129353  1
  O2-  O207  1  0.45756880  0.56513287  0.53226040  1
  O2-  O208  1  0.49363604  0.91243528  0.02653198  1
  O2-  O209  1  0.44401084  0.88505512  0.52778059  1
  O2-  O210  1  0.78259330  0.23896293  0.01699948  1
  O2-  O211  1  0.76112135  0.22645200  0.52260171  1
  O2-  O212  1  0.79477638  0.57662059  0.00856364  1
  O2-  O213  1  0.78594613  0.56249132  0.52922223  1
  O2-  O214  1  0.77500660  0.88576119  0.02326292  1
  O2-  O215  1  0.76141321  0.88265682  0.54125759  1
