# generated using pymatgen
data_In32.16Te48
_symmetry_space_group_name_H-M   'P 1'
_cell_length_a   18.48900000
_cell_length_b   12.32600000
_cell_length_c   12.32600000
_cell_angle_alpha   90.00000000
_cell_angle_beta   90.00000000
_cell_angle_gamma   90.00000000
_symmetry_Int_Tables_number   1
_chemical_formula_structural   In32.16Te48
_chemical_formula_sum   'In32.16 Te48'
_cell_volume   2809.03887296
_cell_formula_units_Z   1
loop_
 _symmetry_equiv_pos_site_id
 _symmetry_equiv_pos_as_xyz
  1  'x, y, z'
loop_
 _atom_site_type_symbol
 _atom_site_label
 _atom_site_symmetry_multiplicity
 _atom_site_fract_x
 _atom_site_fract_y
 _atom_site_fract_z
 _atom_site_occupancy
  In  In1  1  0.50000000  0.50000000  0.25000000  1.0
  In  In1  1  0.16666667  0.75000000  0.00000000  1.0
  In  In1  1  0.83333333  0.00000000  0.75000000  1.0
  In  In1  1  0.00000000  0.00000000  0.50000000  1.0
  In  In1  1  0.83333333  0.25000000  0.00000000  1.0
  In  In1  1  0.83333333  0.50000000  0.25000000  1.0
  In  In1  1  0.66666667  0.50000000  0.00000000  1.0
  In  In1  1  0.66666667  0.75000000  0.75000000  1.0
  In  In1  1  0.66666667  0.25000000  0.25000000  1.0
  In  In1  1  0.33333333  0.25000000  0.75000000  1.0
  In  In1  1  0.83333333  0.00000000  0.25000000  1.0
  In  In1  1  0.66666667  0.00000000  0.50000000  1.0
  In  In1  1  0.16666667  0.00000000  0.25000000  1.0
  In  In1  1  0.50000000  0.00000000  0.75000000  1.0
  In  In1  1  0.00000000  0.50000000  0.50000000  1.0
  In  In1  1  0.33333333  0.00000000  0.50000000  1.0
  In  In1  1  0.83333333  0.25000000  0.50000000  1.0
  In  In1  1  0.66666667  0.00000000  0.00000000  1.0
  In  In1  1  0.16666667  0.50000000  0.25000000  1.0
  In  In1  1  0.00000000  0.50000000  0.00000000  1.0
  In  In1  1  0.33333333  0.50000000  0.00000000  1.0
  In  In1  1  0.00000000  0.00000000  0.00000000  1.0
  In  In1  1  0.83333333  0.75000000  0.00000000  1.0
  In  In1  1  0.33333333  0.00000000  0.00000000  1.0
  In  In1  1  0.16666667  0.00000000  0.75000000  1.0
  In  In1  1  0.00000000  0.25000000  0.25000000  1.0
  In  In1  1  0.33333333  0.75000000  0.75000000  1.0
  In  In1  1  0.50000000  0.25000000  0.00000000  1.0
  In  In1  1  0.50000000  0.50000000  0.75000000  1.0
  In  In1  1  0.50000000  0.75000000  0.50000000  1.0
  In  In1  1  0.16666667  0.50000000  0.75000000  1.0
  In  In1  1  0.83333333  0.75000000  0.50000000  1.0
  Te  Te1  1  0.08333333  0.12500000  0.12500000  1.0
  Te  Te1  1  0.08333333  0.12500000  0.62500000  1.0
  Te  Te1  1  0.08333333  0.62500000  0.12500000  1.0
  Te  Te1  1  0.08333333  0.62500000  0.62500000  1.0
  Te  Te1  1  0.41666667  0.12500000  0.12500000  1.0
  Te  Te1  1  0.41666667  0.12500000  0.62500000  1.0
  Te  Te1  1  0.41666667  0.62500000  0.12500000  1.0
  Te  Te1  1  0.41666667  0.62500000  0.62500000  1.0
  Te  Te1  1  0.75000000  0.12500000  0.12500000  1.0
  Te  Te1  1  0.75000000  0.12500000  0.62500000  1.0
  Te  Te1  1  0.75000000  0.62500000  0.12500000  1.0
  Te  Te1  1  0.75000000  0.62500000  0.62500000  1.0
  Te  Te1  1  0.08333333  0.37500000  0.37500000  1.0
  Te  Te1  1  0.08333333  0.37500000  0.87500000  1.0
  Te  Te1  1  0.08333333  0.87500000  0.37500000  1.0
  Te  Te1  1  0.08333333  0.87500000  0.87500000  1.0
  Te  Te1  1  0.41666667  0.37500000  0.37500000  1.0
  Te  Te1  1  0.41666667  0.37500000  0.87500000  1.0
  Te  Te1  1  0.41666667  0.87500000  0.37500000  1.0
  Te  Te1  1  0.41666667  0.87500000  0.87500000  1.0
  Te  Te1  1  0.75000000  0.37500000  0.37500000  1.0
  Te  Te1  1  0.75000000  0.37500000  0.87500000  1.0
  Te  Te1  1  0.75000000  0.87500000  0.37500000  1.0
  Te  Te1  1  0.75000000  0.87500000  0.87500000  1.0
  Te  Te1  1  0.25000000  0.37500000  0.12500000  1.0
  Te  Te1  1  0.25000000  0.37500000  0.62500000  1.0
  Te  Te1  1  0.25000000  0.87500000  0.12500000  1.0
  Te  Te1  1  0.25000000  0.87500000  0.62500000  1.0
  Te  Te1  1  0.58333333  0.37500000  0.12500000  1.0
  Te  Te1  1  0.58333333  0.37500000  0.62500000  1.0
  Te  Te1  1  0.58333333  0.87500000  0.12500000  1.0
  Te  Te1  1  0.58333333  0.87500000  0.62500000  1.0
  Te  Te1  1  0.91666667  0.37500000  0.12500000  1.0
  Te  Te1  1  0.91666667  0.37500000  0.62500000  1.0
  Te  Te1  1  0.91666667  0.87500000  0.12500000  1.0
  Te  Te1  1  0.91666667  0.87500000  0.62500000  1.0
  Te  Te1  1  0.25000000  0.12500000  0.37500000  1.0
  Te  Te1  1  0.25000000  0.12500000  0.87500000  1.0
  Te  Te1  1  0.25000000  0.62500000  0.37500000  1.0
  Te  Te1  1  0.25000000  0.62500000  0.87500000  1.0
  Te  Te1  1  0.58333333  0.12500000  0.37500000  1.0
  Te  Te1  1  0.58333333  0.12500000  0.87500000  1.0
  Te  Te1  1  0.58333333  0.62500000  0.37500000  1.0
  Te  Te1  1  0.58333333  0.62500000  0.87500000  1.0
  Te  Te1  1  0.91666667  0.12500000  0.37500000  1.0
  Te  Te1  1  0.91666667  0.12500000  0.87500000  1.0
  Te  Te1  1  0.91666667  0.62500000  0.37500000  1.0
  Te  Te1  1  0.91666667  0.62500000  0.87500000  1.0

