# generated using pymatgen
data_Fe45Co19
_symmetry_space_group_name_H-M   'P 1'
_cell_length_a   11.41500816
_cell_length_b   11.41490383
_cell_length_c   11.41310990
_cell_angle_alpha   89.99784074
_cell_angle_beta   90.00655025
_cell_angle_gamma   89.99916571
_symmetry_Int_Tables_number   1
_chemical_formula_structural   Fe45Co19
_chemical_formula_sum   'Fe90 Co38'
_cell_volume   1487.14213746
_cell_formula_units_Z   2
loop_
 _symmetry_equiv_pos_site_id
 _symmetry_equiv_pos_as_xyz
  1  'x, y, z'
loop_
 _atom_site_type_symbol
 _atom_site_label
 _atom_site_symmetry_multiplicity
 _atom_site_fract_x
 _atom_site_fract_y
 _atom_site_fract_z
 _atom_site_occupancy
  Fe  Fe0  1  0.87658828  0.87651810  0.37564191  1
  Fe  Fe1  1  0.62353352  0.87367729  0.62622506  1
  Fe  Fe2  1  0.50016231  0.00072669  0.00036698  1
  Fe  Fe3  1  0.87767955  0.37795504  0.87328571  1
  Fe  Fe4  1  0.49633335  0.24999695  0.49793421  1
  Fe  Fe5  1  0.62472022  0.37290466  0.62342229  1
  Fe  Fe6  1  0.24794488  0.49823089  0.75178723  1
  Fe  Fe7  1  0.87453116  0.12111431  0.62583156  1
  Fe  Fe8  1  0.12543061  0.12559932  0.87626653  1
  Fe  Fe9  1  0.00034465  0.24973150  0.74875791  1
  Fe  Fe10  1  0.74939288  -0.00184320  0.24939220  1
  Fe  Fe11  1  0.87290797  0.62276100  0.62733041  1
  Fe  Fe12  1  0.50505718  0.50104376  0.25340982  1
  Fe  Fe13  1  0.49852733  0.50087787  -0.00010014  1
  Fe  Fe14  1  0.87590075  0.12148717  0.37536172  1
  Fe  Fe15  1  0.25235811  0.25326193  -0.00092516  1
  Fe  Fe16  1  0.37350440  0.12407899  0.87363898  1
  Fe  Fe17  1  0.00257117  0.00027019  0.24674967  1
  Fe  Fe18  1  0.75122366  0.25084140  0.25013423  1
  Fe  Fe19  1  0.62526097  0.12517062  0.12634803  1
  Fe  Fe20  1  0.00232589  -0.00144431  0.50324232  1
  Fe  Fe21  1  0.87683506  0.37604611  0.37402392  1
  Fe  Fe22  1  0.12401436  0.87264572  0.87408960  1
  Fe  Fe23  1  -0.00180775  0.50425214  0.24534866  1
  Fe  Fe24  1  0.87545879  0.12309935  0.87364748  1
  Fe  Fe25  1  0.24871949  0.49780273  0.49702308  1
  Fe  Fe26  1  0.62372542  0.87296133  0.37716450  1
  Fe  Fe27  1  0.24982108  0.25189080  0.25339381  1
  Fe  Fe28  1  0.74742260  0.50006787  0.49754066  1
  Fe  Fe29  1  0.37692487  0.62489466  0.37644176  1
  Fe  Fe30  1  0.12323749  0.87105871  0.12563454  1
  Fe  Fe31  1  -0.00154791  0.74979420  0.50117447  1
  Fe  Fe32  1  0.62616166  0.62551781  0.87377735  1
  Fe  Fe33  1  0.49723406  0.74882315  0.74910045  1
  Fe  Fe34  1  0.37598881  0.87694621  0.87376096  1
  Fe  Fe35  1  0.87473873  0.37673416  0.62577527  1
  Fe  Fe36  1  0.24820745  -0.00203180  0.00205246  1
  Fe  Fe37  1  0.37109243  0.62366852  0.87741032  1
  Fe  Fe38  1  0.62401904  0.12645330  0.37470050  1
  Fe  Fe39  1  -0.00085990  0.74513802  0.00071155  1
  Fe  Fe40  1  0.12576654  0.87351788  0.37689701  1
  Fe  Fe41  1  0.25086044  0.74928677  0.24922764  1
  Fe  Fe42  1  0.75295037  0.49974179  0.00086157  1
  Fe  Fe43  1  0.25217526  0.75066256  0.74822380  1
  Fe  Fe44  1  0.00073748  0.50038717  0.50144620  1
  Fe  Fe45  1  -0.00099492  0.74937056  0.74776989  1
  Fe  Fe46  1  -0.00248447  0.24865589  0.00183896  1
  Fe  Fe47  1  0.24657725  -0.00066920  0.74780012  1
  Fe  Fe48  1  0.62374092  0.37513919  0.87548421  1
  Fe  Fe49  1  0.49925553  0.24944907  0.75080358  1
  Fe  Fe50  1  0.62487091  0.12469343  0.87475229  1
  Fe  Fe51  1  0.37244112  0.12517596  0.62613250  1
  Fe  Fe52  1  0.12717799  0.62628559  0.62484575  1
  Fe  Fe53  1  0.37289056  0.12349072  0.12804428  1
  Fe  Fe54  1  0.75159201  0.75110666  -0.00331202  1
  Fe  Fe55  1  0.87595840  0.62071023  0.87053255  1
  Fe  Fe56  1  0.37488461  0.87718741  0.37587211  1
  Fe  Fe57  1  0.12407837  0.62593503  0.37470365  1
  Fe  Fe58  1  0.49821703  0.24909564  0.00058145  1
  Fe  Fe59  1  0.49806341  0.74944262  0.00028047  1
  Fe  Fe60  1  0.75167080  0.75219140  0.25004489  1
  Fe  Fe61  1  0.75289334  0.24831081  0.49968001  1
  Fe  Fe62  1  0.37511047  0.87635084  0.12656905  1
  Fe  Fe63  1  0.25372500  0.75098234  0.50220863  1
  Fe  Fe64  1  0.62567425  0.62682506  0.62511863  1
  Fe  Fe65  1  0.87730368  0.87678931  0.87283322  1
  Fe  Fe66  1  0.37411118  0.12130067  0.37223188  1
  Fe  Fe67  1  0.50280272  0.50081219  0.49771033  1
  Fe  Fe68  1  0.12612862  0.37115775  0.62137438  1
  Fe  Fe69  1  0.12685086  0.12845135  0.62239233  1
  Fe  Fe70  1  0.74687168  -0.00198442  0.74990793  1
  Fe  Fe71  1  0.74962120  0.25119719  0.75002296  1
  Fe  Fe72  1  0.62562342  0.37501124  0.12628401  1
  Fe  Fe73  1  0.37657659  0.37741653  0.12706255  1
  Fe  Fe74  1  0.50093377  0.00053971  0.50110163  1
  Fe  Fe75  1  0.62505571  0.87425070  0.12291131  1
  Fe  Fe76  1  0.75042530  -0.00146147  0.00001164  1
  Fe  Fe77  1  0.50030681  0.50066680  0.75005622  1
  Fe  Fe78  1  0.00063126  0.00199326  0.00295097  1
  Fe  Fe79  1  0.49937755  0.74989061  0.25011115  1
  Fe  Fe80  1  0.75144018  0.25072571  -0.00035885  1
  Fe  Fe81  1  0.75189837  0.75154513  0.50195294  1
  Fe  Fe82  1  0.24919428  0.50078504  0.25053792  1
  Fe  Fe83  1  0.87348311  0.62518647  0.37360570  1
  Fe  Fe84  1  0.12246437  0.37711748  0.87737330  1
  Fe  Fe85  1  0.12546021  0.12566258  0.37720049  1
  Fe  Fe86  1  -0.00052455  0.24742266  0.24899814  1
  Fe  Fe87  1  0.62764111  0.62543542  0.12617447  1
  Fe  Fe88  1  0.37347030  0.37530855  0.62485636  1
  Fe  Fe89  1  0.12329573  0.37567380  0.12499652  1
  Co  Co90  1  0.62512764  0.12725891  0.62417212  1
  Co  Co91  1  0.87448628  0.87803597  0.62551960  1
  Co  Co92  1  0.12802030  0.12811585  0.12351448  1
  Co  Co93  1  -0.00013880  0.74859805  0.25115458  1
  Co  Co94  1  0.87705436  0.87460033  0.12420564  1
  Co  Co95  1  0.87066451  0.62799940  0.12652828  1
  Co  Co96  1  0.12875804  0.62647651  0.12384810  1
  Co  Co97  1  0.12734663  0.62583751  0.87484408  1
  Co  Co98  1  0.50255679  -0.00158030  0.24980790  1
  Co  Co99  1  0.49748681  0.74997345  0.50226393  1
  Co  Co100  1  0.24574430  -0.00150846  0.24918357  1
  Co  Co101  1  0.00491798  0.49968728  0.74685260  1
  Co  Co102  1  0.24966526  0.49824525  0.00036807  1
  Co  Co103  1  0.62204871  0.87413501  0.87443168  1
  Co  Co104  1  0.49887315  0.25032495  0.24981068  1
  Co  Co105  1  0.74905877  0.49870376  0.25206027  1
  Co  Co106  1  0.37681001  0.37598478  0.87380710  1
  Co  Co107  1  0.11957786  0.37577494  0.37369590  1
  Co  Co108  1  0.62584437  0.37030963  0.37655949  1
  Co  Co109  1  0.24851228  0.25137261  0.75260850  1
  Co  Co110  1  0.37585925  0.62310027  0.12590800  1
  Co  Co111  1  0.25264478  0.25128985  0.49401676  1
  Co  Co112  1  0.00444274  0.00071915  0.74792038  1
  Co  Co113  1  0.87550866  0.37374197  0.12564255  1
  Co  Co114  1  0.74660308  0.49846511  0.74980815  1
  Co  Co115  1  0.50177595  0.00213628  0.74943296  1
  Co  Co116  1  0.75132356  0.75146288  0.75094393  1
  Co  Co117  1  0.74688928  -0.00034900  0.49993009  1
  Co  Co118  1  0.37647483  0.87853764  0.62572467  1
  Co  Co119  1  -0.00114909  0.50412505  0.00354292  1
  Co  Co120  1  0.37363558  0.62030253  0.62380298  1
  Co  Co121  1  0.62623319  0.63000500  0.37551533  1
  Co  Co122  1  -0.00286683  0.24957486  0.50046112  1
  Co  Co123  1  0.24928528  -0.00025755  0.50184514  1
  Co  Co124  1  0.37688333  0.37857010  0.37375342  1
  Co  Co125  1  0.25194641  0.75179843  0.00158314  1
  Co  Co126  1  0.87299680  0.12405590  0.12515184  1
  Co  Co127  1  0.12513720  0.87143327  0.62420056  1
