# generated using pymatgen
data_Fe45Co19
_symmetry_space_group_name_H-M   'P 1'
_cell_length_a   11.41478057
_cell_length_b   11.41544582
_cell_length_c   11.41536017
_cell_angle_alpha   90.00087334
_cell_angle_beta   89.99696694
_cell_angle_gamma   90.01363948
_symmetry_Int_Tables_number   1
_chemical_formula_structural   Fe45Co19
_chemical_formula_sum   'Fe90 Co38'
_cell_volume   1487.47628534
_cell_formula_units_Z   2
loop_
 _symmetry_equiv_pos_site_id
 _symmetry_equiv_pos_as_xyz
  1  'x, y, z'
loop_
 _atom_site_type_symbol
 _atom_site_label
 _atom_site_symmetry_multiplicity
 _atom_site_fract_x
 _atom_site_fract_y
 _atom_site_fract_z
 _atom_site_occupancy
  Fe  Fe0  1  0.00029630  0.74867975  0.50158487  1
  Fe  Fe1  1  0.62402417  0.87563171  0.37384021  1
  Fe  Fe2  1  0.12490910  0.62222316  0.37227824  1
  Fe  Fe3  1  0.50003891  0.50123623  0.74962195  1
  Fe  Fe4  1  0.62488248  0.12325987  0.87692274  1
  Fe  Fe5  1  0.49910685  0.00008371  0.50323696  1
  Fe  Fe6  1  0.24808478  0.25051352  0.49973391  1
  Fe  Fe7  1  0.12034370  0.87495229  0.87828130  1
  Fe  Fe8  1  0.87796957  0.37105704  0.12252268  1
  Fe  Fe9  1  0.62913099  0.12583556  0.62390568  1
  Fe  Fe10  1  0.37663796  0.87386355  0.12350884  1
  Fe  Fe11  1  0.87919280  0.37270761  0.37590095  1
  Fe  Fe12  1  0.11768197  0.37573971  0.87737810  1
  Fe  Fe13  1  0.62740240  0.62475258  0.37315293  1
  Fe  Fe14  1  -0.00392509  0.74260090  0.00247083  1
  Fe  Fe15  1  0.37807665  0.37414202  0.87794301  1
  Fe  Fe16  1  0.38225044  0.87687753  0.87190657  1
  Fe  Fe17  1  0.12053494  0.62309801  0.87388248  1
  Fe  Fe18  1  -0.00098606  0.00183405  0.75088882  1
  Fe  Fe19  1  0.37283111  0.62590963  0.62591886  1
  Fe  Fe20  1  0.62301423  0.37569107  0.37588794  1
  Fe  Fe21  1  0.74678049  -0.00391798  0.00355423  1
  Fe  Fe22  1  0.50400532  0.74917038  -0.00170250  1
  Fe  Fe23  1  0.74976923  0.25083358  0.49827687  1
  Fe  Fe24  1  0.24755993  0.25272768  0.00056640  1
  Fe  Fe25  1  0.37443709  0.12528385  0.87463415  1
  Fe  Fe26  1  0.37240401  0.12701103  0.12463329  1
  Fe  Fe27  1  0.75312663  0.75625692  0.24737606  1
  Fe  Fe28  1  0.75332023  0.49541720  0.25223911  1
  Fe  Fe29  1  0.87522485  0.62627165  0.37419127  1
  Fe  Fe30  1  0.00165900  0.24644063  0.74684718  1
  Fe  Fe31  1  -0.00174155  0.74715371  0.24622586  1
  Fe  Fe32  1  0.24850368  0.75260757  0.75234532  1
  Fe  Fe33  1  -0.00061999  0.50147637  0.50209221  1
  Fe  Fe34  1  0.50173155  0.24787727  0.74963261  1
  Fe  Fe35  1  0.75472984  0.49389718  0.75377918  1
  Fe  Fe36  1  0.75171120  0.49971431  0.50014557  1
  Fe  Fe37  1  0.87513708  0.87585288  0.62457342  1
  Fe  Fe38  1  0.75022974  0.75068285  0.49976334  1
  Fe  Fe39  1  0.75650705  0.49529624  -0.00547244  1
  Fe  Fe40  1  0.62520674  0.37484114  0.62581148  1
  Fe  Fe41  1  0.37383468  0.37558485  0.37527400  1
  Fe  Fe42  1  0.87305070  0.12594635  0.37173533  1
  Fe  Fe43  1  0.24926999  0.75022242  0.24875648  1
  Fe  Fe44  1  0.12413321  0.62266946  0.62848232  1
  Fe  Fe45  1  0.12886527  0.12312887  0.12775327  1
  Fe  Fe46  1  0.87654157  0.87439084  0.87839201  1
  Fe  Fe47  1  0.49977239  0.00167611  0.24722513  1
  Fe  Fe48  1  0.37357809  0.37499715  0.62499755  1
  Fe  Fe49  1  0.25175559  -0.00188307  -0.00118216  1
  Fe  Fe50  1  0.37351411  0.62405056  0.37715249  1
  Fe  Fe51  1  0.24860659  0.75073404  0.50034610  1
  Fe  Fe52  1  0.50028817  0.50157958  0.50092912  1
  Fe  Fe53  1  0.25053227  -0.00131816  0.49948876  1
  Fe  Fe54  1  0.75024507  0.00022213  0.75070353  1
  Fe  Fe55  1  0.87170050  0.13033604  0.87773061  1
  Fe  Fe56  1  0.36844092  0.12475499  0.62918465  1
  Fe  Fe57  1  0.00252707  0.24595641  0.50117561  1
  Fe  Fe58  1  0.37093010  0.62352132  0.12143649  1
  Fe  Fe59  1  0.12846839  0.12557697  0.87261735  1
  Fe  Fe60  1  0.50517221  0.24966577  0.00346293  1
  Fe  Fe61  1  0.37269915  0.12572589  0.37184741  1
  Fe  Fe62  1  0.86935005  0.12881602  0.12526297  1
  Fe  Fe63  1  0.87514377  0.62631136  0.62944710  1
  Fe  Fe64  1  0.49941063  0.24807026  0.50092843  1
  Fe  Fe65  1  0.24817372  0.49623582  0.75236495  1
  Fe  Fe66  1  0.75153675  -0.00118444  0.49795955  1
  Fe  Fe67  1  0.50173594  0.25227364  0.24690580  1
  Fe  Fe68  1  -0.00004892  0.00609073  0.00009413  1
  Fe  Fe69  1  0.12277304  0.38032147  0.12465205  1
  Fe  Fe70  1  0.12235004  0.87576389  0.37271510  1
  Fe  Fe71  1  0.24933632  0.75043248  -0.00244921  1
  Fe  Fe72  1  0.50124539  0.50037671  0.00104381  1
  Fe  Fe73  1  -0.00317920  0.00076047  0.24816191  1
  Fe  Fe74  1  0.62722525  0.12447875  0.37147067  1
  Fe  Fe75  1  0.49776467  0.50042033  0.24837838  1
  Fe  Fe76  1  0.12262388  0.87493271  0.12284561  1
  Fe  Fe77  1  0.62786310  0.62398042  0.62635954  1
  Fe  Fe78  1  0.62843571  0.62337665  0.87545855  1
  Fe  Fe79  1  0.37511571  0.62443399  0.87472394  1
  Fe  Fe80  1  0.49926492  0.74682758  0.24902669  1
  Fe  Fe81  1  0.12437102  0.37766249  0.37328484  1
  Fe  Fe82  1  0.12722109  0.12386044  0.37128286  1
  Fe  Fe83  1  0.12490312  0.87756232  0.62601764  1
  Fe  Fe84  1  0.74791431  0.75367323  0.75349650  1
  Fe  Fe85  1  0.87576062  0.37081007  0.62572764  1
  Fe  Fe86  1  -0.00039666  0.00315964  0.50142355  1
  Fe  Fe87  1  0.50128626  0.75041591  0.50308819  1
  Fe  Fe88  1  0.37567937  0.87507462  0.37481885  1
  Fe  Fe89  1  0.63083787  0.62332846  0.12412641  1
  Co  Co90  1  0.88015421  0.87633695  0.11982132  1
  Co  Co91  1  0.63008369  0.12466627  0.12784634  1
  Co  Co92  1  0.24874263  0.50029321  0.50055220  1
  Co  Co93  1  0.12867474  0.62200974  0.12446347  1
  Co  Co94  1  0.13004203  0.12299429  0.62802089  1
  Co  Co95  1  0.62657448  0.87595726  0.62507395  1
  Co  Co96  1  0.24865967  0.25645632  0.75297410  1
  Co  Co97  1  0.74823798  0.25470446  0.25069930  1
  Co  Co98  1  0.62069104  0.37622675  0.87389964  1
  Co  Co99  1  -0.00635752  0.50584929  0.00048297  1
  Co  Co100  1  0.75278462  -0.00576684  0.24844908  1
  Co  Co101  1  -0.00340879  0.50205383  0.24807836  1
  Co  Co102  1  0.24884274  0.25367343  0.24848035  1
  Co  Co103  1  0.25344142  0.49981216  0.24972514  1
  Co  Co104  1  0.49975669  0.00262832  0.00375949  1
  Co  Co105  1  0.87531328  0.62846091  0.87029973  1
  Co  Co106  1  0.24881293  -0.00520932  0.75484189  1
  Co  Co107  1  0.50183160  0.00441789  0.74547111  1
  Co  Co108  1  0.74424159  0.25504000  -0.00119974  1
  Co  Co109  1  0.86705955  0.62363119  0.12600345  1
  Co  Co110  1  0.62087034  0.87336363  0.12639680  1
  Co  Co111  1  0.62641062  0.38021815  0.12483030  1
  Co  Co112  1  0.74764554  0.25153349  0.75309853  1
  Co  Co113  1  0.74925290  0.75346289  -0.00098186  1
  Co  Co114  1  0.24805241  0.49863929  -0.00426853  1
  Co  Co115  1  0.37485737  0.87434970  0.62786045  1
  Co  Co116  1  -0.00353159  0.49697872  0.75016121  1
  Co  Co117  1  0.62051257  0.87863995  0.87477206  1
  Co  Co118  1  0.00156794  0.24858122  0.24867876  1
  Co  Co119  1  0.37477170  0.37560689  0.12115130  1
  Co  Co120  1  0.87881287  0.87432802  0.37717625  1
  Co  Co121  1  0.87207178  0.12597702  0.62522838  1
  Co  Co122  1  0.00020039  0.75401245  0.74950965  1
  Co  Co123  1  0.50334394  0.74725823  0.74946021  1
  Co  Co124  1  0.00443476  0.24430153  0.00374448  1
  Co  Co125  1  0.88281913  0.36597854  0.87730406  1
  Co  Co126  1  0.12370315  0.37493779  0.62367817  1
  Co  Co127  1  0.25122145  -0.00379210  0.24805086  1
