# generated using pymatgen
data_Fe45Co19
_symmetry_space_group_name_H-M   'P 1'
_cell_length_a   11.41621340
_cell_length_b   11.41445679
_cell_length_c   11.41656745
_cell_angle_alpha   90.01039370
_cell_angle_beta   89.99818480
_cell_angle_gamma   90.00681733
_symmetry_Int_Tables_number   1
_chemical_formula_structural   Fe45Co19
_chemical_formula_sum   'Fe90 Co38'
_cell_volume   1487.69143642
_cell_formula_units_Z   2
loop_
 _symmetry_equiv_pos_site_id
 _symmetry_equiv_pos_as_xyz
  1  'x, y, z'
loop_
 _atom_site_type_symbol
 _atom_site_label
 _atom_site_symmetry_multiplicity
 _atom_site_fract_x
 _atom_site_fract_y
 _atom_site_fract_z
 _atom_site_occupancy
  Fe  Fe0  1  0.12523424  0.37234992  0.37230873  1
  Fe  Fe1  1  0.37602438  0.12479214  0.87538236  1
  Fe  Fe2  1  0.87577645  0.37641940  0.37544236  1
  Fe  Fe3  1  0.49871183  0.75284799  0.50180490  1
  Fe  Fe4  1  0.25035406  0.25090877  0.75149657  1
  Fe  Fe5  1  0.37417475  0.87581344  0.87722958  1
  Fe  Fe6  1  0.12755436  0.87524158  0.12315108  1
  Fe  Fe7  1  0.62497382  0.12451518  0.12812854  1
  Fe  Fe8  1  0.37448247  0.12534881  0.12340638  1
  Fe  Fe9  1  0.75336251  0.75501844  0.74853818  1
  Fe  Fe10  1  0.75426502  0.25095628  0.74654057  1
  Fe  Fe11  1  -0.00353035  0.75174760  0.74949088  1
  Fe  Fe12  1  0.25539916  0.75058930  0.24982020  1
  Fe  Fe13  1  0.87613141  0.37586338  0.87683961  1
  Fe  Fe14  1  0.12433955  0.12454761  0.87466069  1
  Fe  Fe15  1  0.25204904  0.74872860  0.75202627  1
  Fe  Fe16  1  0.62564660  0.87497915  0.87330569  1
  Fe  Fe17  1  -0.00049082  0.24756558  0.00106551  1
  Fe  Fe18  1  0.37627432  0.37675991  0.88062186  1
  Fe  Fe19  1  0.24686642  0.24912694  0.49983030  1
  Fe  Fe20  1  0.25067052  0.24916079  0.00032670  1
  Fe  Fe21  1  0.62294664  0.62602924  0.37325888  1
  Fe  Fe22  1  0.37612773  0.62058451  0.12152052  1
  Fe  Fe23  1  0.12613132  0.37332046  0.12617557  1
  Fe  Fe24  1  0.75356405  0.24828962  0.25058374  1
  Fe  Fe25  1  0.62554978  0.37269876  0.37425858  1
  Fe  Fe26  1  0.62583937  0.12428324  0.87284520  1
  Fe  Fe27  1  0.87537332  0.12066942  0.12475157  1
  Fe  Fe28  1  0.12057153  0.12735080  0.62682969  1
  Fe  Fe29  1  0.75037798  0.49821901  0.74801482  1
  Fe  Fe30  1  0.00320425  0.50106815  0.49823533  1
  Fe  Fe31  1  0.74872355  0.75129907  0.00205873  1
  Fe  Fe32  1  0.12676367  0.87470395  0.37292228  1
  Fe  Fe33  1  0.00037956  0.74766120  0.00150519  1
  Fe  Fe34  1  0.49687637  0.25437723  0.24590110  1
  Fe  Fe35  1  0.87525555  0.62535814  0.37439244  1
  Fe  Fe36  1  0.87454143  0.62511585  0.62283154  1
  Fe  Fe37  1  0.25073186  0.49997148  0.25043175  1
  Fe  Fe38  1  0.12382267  0.87521398  0.87663393  1
  Fe  Fe39  1  0.37432172  0.37441135  0.37659079  1
  Fe  Fe40  1  -0.00068447  0.50109778  0.75043841  1
  Fe  Fe41  1  0.87286005  0.12130413  0.87647475  1
  Fe  Fe42  1  0.50156336  0.49913765  0.50002854  1
  Fe  Fe43  1  0.62405372  0.62805537  0.62743596  1
  Fe  Fe44  1  0.49970679  -0.00135519  0.50166092  1
  Fe  Fe45  1  0.00072767  0.50290322  0.24874364  1
  Fe  Fe46  1  0.12528848  0.12483914  0.12862949  1
  Fe  Fe47  1  0.62497502  0.62448841  0.12875430  1
  Fe  Fe48  1  0.74884631  0.50020934  0.25066873  1
  Fe  Fe49  1  0.88008230  0.12079518  0.37733366  1
  Fe  Fe50  1  0.87619997  0.87773644  0.37720125  1
  Fe  Fe51  1  0.12651074  0.62482158  0.62537393  1
  Fe  Fe52  1  0.74831570  0.49875702  0.50207770  1
  Fe  Fe53  1  0.37400866  0.12447206  0.62534608  1
  Fe  Fe54  1  0.75090869  0.75215265  0.25071972  1
  Fe  Fe55  1  0.75205256  0.24997184  0.50198838  1
  Fe  Fe56  1  0.24891532  0.49994320  0.75284456  1
  Fe  Fe57  1  0.37467935  0.62446719  0.62572802  1
  Fe  Fe58  1  0.24728599  0.00160391  0.49958031  1
  Fe  Fe59  1  0.37542572  0.62351127  0.37640493  1
  Fe  Fe60  1  0.50045360  0.25013060  0.50234065  1
  Fe  Fe61  1  0.24980357  0.00012062  0.75102958  1
  Fe  Fe62  1  -0.00419785  -0.00208054  0.75006941  1
  Fe  Fe63  1  0.12600270  0.87404794  0.62634525  1
  Fe  Fe64  1  0.37438503  0.12538239  0.37515350  1
  Fe  Fe65  1  -0.00111771  0.75017391  0.24871596  1
  Fe  Fe66  1  0.12267022  0.37367111  0.87601916  1
  Fe  Fe67  1  0.62118960  0.87658594  0.12914779  1
  Fe  Fe68  1  0.12265083  0.37335857  0.62618052  1
  Fe  Fe69  1  0.62265187  0.12459667  0.37230745  1
  Fe  Fe70  1  0.74814427  0.75187062  0.49851931  1
  Fe  Fe71  1  0.00195461  0.74957261  0.49951108  1
  Fe  Fe72  1  0.25056201  0.74939141  0.49945562  1
  Fe  Fe73  1  0.37496306  0.37607469  0.62491964  1
  Fe  Fe74  1  0.24890417  0.74649432  -0.00214190  1
  Fe  Fe75  1  0.62064027  0.87691169  0.37165799  1
  Fe  Fe76  1  0.74909754  0.24819298  0.00141133  1
  Fe  Fe77  1  0.87352090  0.62645512  0.87683288  1
  Fe  Fe78  1  0.87449433  0.37604798  0.12473806  1
  Fe  Fe79  1  0.50226210  0.50206945  0.75354615  1
  Fe  Fe80  1  0.00264661  0.50432923  0.00215495  1
  Fe  Fe81  1  0.62783127  0.12280340  0.62649426  1
  Fe  Fe82  1  0.62536184  0.37178230  0.87565877  1
  Fe  Fe83  1  0.74711278  0.50116689  0.00011012  1
  Fe  Fe84  1  0.87463070  0.87865851  0.12265027  1
  Fe  Fe85  1  0.25376147  -0.00187373  0.24891244  1
  Fe  Fe86  1  0.50172222  0.74621526  -0.00209606  1
  Fe  Fe87  1  0.50078328  0.00109971  0.00067679  1
  Fe  Fe88  1  0.49900837  0.25048849  0.74977933  1
  Fe  Fe89  1  0.49901193  -0.00351288  0.74770904  1
  Co  Co90  1  0.87539759  0.87501928  0.88116637  1
  Co  Co91  1  0.12730397  0.62787677  0.12888322  1
  Co  Co92  1  0.37134112  0.87565848  0.62460976  1
  Co  Co93  1  0.00261939  0.00138965  0.00051944  1
  Co  Co94  1  0.37365252  0.38062870  0.11914850  1
  Co  Co95  1  0.75139656  -0.00033091  0.25156590  1
  Co  Co96  1  0.49687892  0.75188677  0.75089402  1
  Co  Co97  1  0.49996072  0.49729210  0.25067748  1
  Co  Co98  1  0.87935379  0.37490373  0.62345591  1
  Co  Co99  1  0.24326013  0.50250536  -0.00179378  1
  Co  Co100  1  0.50068235  0.24895469  0.00246829  1
  Co  Co101  1  0.37595280  0.87277988  0.11941401  1
  Co  Co102  1  0.37484329  0.62264967  0.87703606  1
  Co  Co103  1  0.62329917  0.37404070  0.62606300  1
  Co  Co104  1  0.00607758  -0.00170943  0.50033275  1
  Co  Co105  1  0.74536452  -0.00081934  0.00120189  1
  Co  Co106  1  0.87229805  0.62496029  0.12534958  1
  Co  Co107  1  0.37547284  0.87656915  0.37755600  1
  Co  Co108  1  0.12457906  0.12493091  0.36958969  1
  Co  Co109  1  0.00096244  -0.00294447  0.24847562  1
  Co  Co110  1  0.12580216  0.62771788  0.37268553  1
  Co  Co111  1  0.49539529  0.74843913  0.24983910  1
  Co  Co112  1  0.75403631  -0.00364181  0.74981363  1
  Co  Co113  1  0.87459839  0.87717647  0.61841303  1
  Co  Co114  1  0.63043364  0.62850085  0.87128436  1
  Co  Co115  1  0.49441203  0.00030841  0.24834272  1
  Co  Co116  1  0.24779701  0.49879790  0.49909749  1
  Co  Co117  1  0.00136580  0.25089473  0.49687072  1
  Co  Co118  1  0.62598763  0.87512332  0.62503548  1
  Co  Co119  1  0.12215084  0.62710007  0.87215948  1
  Co  Co120  1  0.74687656  0.00038481  0.49708090  1
  Co  Co121  1  -0.00333613  0.24973363  0.24927618  1
  Co  Co122  1  -0.00381184  0.24852160  0.75287947  1
  Co  Co123  1  0.62772737  0.37394051  0.12567824  1
  Co  Co124  1  0.25402461  0.25079957  0.24859835  1
  Co  Co125  1  0.24997619  0.00209179  0.00014139  1
  Co  Co126  1  0.50750036  0.50177317  -0.00189056  1
  Co  Co127  1  0.87636732  0.12305226  0.62167947  1
