# generated using pymatgen
data_Fe45Co19
_symmetry_space_group_name_H-M   'P 1'
_cell_length_a   11.41618766
_cell_length_b   11.41597700
_cell_length_c   11.41433700
_cell_angle_alpha   89.99148813
_cell_angle_beta   90.00410543
_cell_angle_gamma   90.00558644
_symmetry_Int_Tables_number   1
_chemical_formula_structural   Fe45Co19
_chemical_formula_sum   'Fe90 Co38'
_cell_volume   1487.59553731
_cell_formula_units_Z   2
loop_
 _symmetry_equiv_pos_site_id
 _symmetry_equiv_pos_as_xyz
  1  'x, y, z'
loop_
 _atom_site_type_symbol
 _atom_site_label
 _atom_site_symmetry_multiplicity
 _atom_site_fract_x
 _atom_site_fract_y
 _atom_site_fract_z
 _atom_site_occupancy
  Fe  Fe0  1  0.87671141  0.37646675  0.37680200  1
  Fe  Fe1  1  0.12374935  0.87365699  0.87633454  1
  Fe  Fe2  1  0.12697368  0.12803703  0.87221987  1
  Fe  Fe3  1  0.37260532  0.12935974  0.87642287  1
  Fe  Fe4  1  0.62253937  0.37499418  0.87048620  1
  Fe  Fe5  1  0.25073494  0.75030102  0.75203561  1
  Fe  Fe6  1  0.12373405  0.62536073  0.87574747  1
  Fe  Fe7  1  0.50159306  -0.00082464  0.50088329  1
  Fe  Fe8  1  0.87405079  0.12631293  0.12391671  1
  Fe  Fe9  1  0.62554411  0.87384409  0.12430773  1
  Fe  Fe10  1  -0.00001632  0.24896138  0.25149729  1
  Fe  Fe11  1  0.75252531  0.25155822  0.50368625  1
  Fe  Fe12  1  0.74787494  0.50029835  0.50064915  1
  Fe  Fe13  1  -0.00012889  0.50146784  0.50055929  1
  Fe  Fe14  1  -0.00124883  0.74889754  0.49847988  1
  Fe  Fe15  1  0.25259745  0.50016398  0.75075276  1
  Fe  Fe16  1  0.12637123  0.12544911  0.62633774  1
  Fe  Fe17  1  0.12400870  0.87528910  0.37315592  1
  Fe  Fe18  1  0.00022879  -0.00009955  0.50141979  1
  Fe  Fe19  1  0.62608942  0.12539983  0.87141152  1
  Fe  Fe20  1  0.74813863  0.25126985  -0.00271190  1
  Fe  Fe21  1  0.87306618  0.62441843  0.62823951  1
  Fe  Fe22  1  0.49805066  0.74876108  0.24504254  1
  Fe  Fe23  1  0.62897143  0.12391604  0.62663851  1
  Fe  Fe24  1  0.37686409  0.87601903  0.37439966  1
  Fe  Fe25  1  0.37577143  0.87332008  0.87864743  1
  Fe  Fe26  1  0.12519116  0.37402695  0.87269035  1
  Fe  Fe27  1  0.62440124  0.62484550  0.62925009  1
  Fe  Fe28  1  0.75087950  0.75248000  0.49766517  1
  Fe  Fe29  1  0.75064710  0.25052676  0.25089984  1
  Fe  Fe30  1  0.87629256  0.37804991  0.87183517  1
  Fe  Fe31  1  0.37691158  0.62758243  0.87825965  1
  Fe  Fe32  1  -0.00213311  0.74765234  0.24898682  1
  Fe  Fe33  1  0.49715028  0.25027057  0.24920630  1
  Fe  Fe34  1  0.37610430  0.37070538  0.87818332  1
  Fe  Fe35  1  0.25139441  0.50205646  0.50003229  1
  Fe  Fe36  1  0.75341710  -0.00384205  0.75024252  1
  Fe  Fe37  1  0.62683992  0.87405386  0.62660578  1
  Fe  Fe38  1  0.25222774  0.74857310  0.24882950  1
  Fe  Fe39  1  0.74919428  0.00034306  -0.00094272  1
  Fe  Fe40  1  0.87396379  0.87400371  0.12208116  1
  Fe  Fe41  1  0.37357696  0.87373495  0.62557503  1
  Fe  Fe42  1  0.49963701  0.00055787  0.24866894  1
  Fe  Fe43  1  -0.00021215  0.00124158  0.24863514  1
  Fe  Fe44  1  0.49960854  0.74850568  0.50110582  1
  Fe  Fe45  1  0.74614820  0.74862266  -0.00717724  1
  Fe  Fe46  1  0.12427068  0.37599043  0.62488170  1
  Fe  Fe47  1  -0.00053468  -0.00144509  0.74960373  1
  Fe  Fe48  1  0.25347552  0.24763910  0.24994440  1
  Fe  Fe49  1  0.75154586  0.75122171  0.25284809  1
  Fe  Fe50  1  0.62561308  0.12662254  0.12512328  1
  Fe  Fe51  1  0.62272481  0.37506946  0.37565583  1
  Fe  Fe52  1  0.74768890  0.49986364  -0.00307070  1
  Fe  Fe53  1  0.25225985  0.00366257  0.24882899  1
  Fe  Fe54  1  0.87484806  0.12548766  0.87404494  1
  Fe  Fe55  1  -0.00308254  0.74990801  0.75257766  1
  Fe  Fe56  1  0.12538532  0.37643419  0.37338238  1
  Fe  Fe57  1  0.24904348  -0.00181039  0.49952304  1
  Fe  Fe58  1  0.37576773  0.62287096  0.37613873  1
  Fe  Fe59  1  0.12518295  0.87315986  0.62642929  1
  Fe  Fe60  1  0.00118572  0.25030504  -0.00014622  1
  Fe  Fe61  1  0.87459324  0.37390471  0.12418417  1
  Fe  Fe62  1  0.24967375  0.24944867  0.49866973  1
  Fe  Fe63  1  0.87215970  0.62513231  0.12196431  1
  Fe  Fe64  1  0.62432342  0.62500041  0.37323182  1
  Fe  Fe65  1  0.62521467  0.37495605  0.12576769  1
  Fe  Fe66  1  0.49702389  0.00128069  0.74988020  1
  Fe  Fe67  1  0.12651948  0.87475990  0.12493143  1
  Fe  Fe68  1  0.50084867  0.00031611  0.00032043  1
  Fe  Fe69  1  0.00059628  0.49993584  0.00137669  1
  Fe  Fe70  1  0.50046784  0.75030954  0.75149573  1
  Fe  Fe71  1  0.49983416  0.24971530  0.50193938  1
  Fe  Fe72  1  0.37190648  0.12411785  0.62533381  1
  Fe  Fe73  1  0.87432993  0.12398975  0.37768268  1
  Fe  Fe74  1  -0.00282485  0.25130270  0.74602723  1
  Fe  Fe75  1  0.37658932  0.37707118  0.62330382  1
  Fe  Fe76  1  0.25044084  0.74960228  0.49873367  1
  Fe  Fe77  1  0.62343408  0.37686755  0.62885724  1
  Fe  Fe78  1  0.49708425  0.49957445  0.24831427  1
  Fe  Fe79  1  0.00115397  0.00112940  0.00062523  1
  Fe  Fe80  1  0.75174184  0.49930298  0.25066832  1
  Fe  Fe81  1  0.12678197  0.62344667  0.12556435  1
  Fe  Fe82  1  0.24846503  0.00155021  -0.00022214  1
  Fe  Fe83  1  0.50161060  0.50081782  0.00173083  1
  Fe  Fe84  1  0.12470352  0.62256263  0.37213742  1
  Fe  Fe85  1  0.12612870  0.37521496  0.12807447  1
  Fe  Fe86  1  0.12656701  0.62602394  0.62691522  1
  Fe  Fe87  1  0.24985182  0.49870678  0.00027196  1
  Fe  Fe88  1  0.62479830  0.12552063  0.37667653  1
  Fe  Fe89  1  0.74880064  -0.00169071  0.25302166  1
  Co  Co90  1  0.37443471  0.62616717  0.62597006  1
  Co  Co91  1  0.37516333  0.37538651  0.37760508  1
  Co  Co92  1  -0.00312544  0.50107799  0.24817820  1
  Co  Co93  1  0.62121345  0.62263866  0.87176723  1
  Co  Co94  1  0.87549070  0.38015153  0.62617335  1
  Co  Co95  1  0.25505239  0.50011994  0.24882275  1
  Co  Co96  1  0.87418032  0.62287168  0.37603781  1
  Co  Co97  1  0.25151258  0.25339819  0.74716675  1
  Co  Co98  1  0.37386638  0.62498722  0.12016545  1
  Co  Co99  1  0.25036151  -0.00248416  0.75185772  1
  Co  Co100  1  0.87448534  0.87329652  0.62461915  1
  Co  Co101  1  0.37535928  0.37293251  0.12125818  1
  Co  Co102  1  0.00093802  0.74861177  0.00162149  1
  Co  Co103  1  0.49842198  0.24805111  0.74811978  1
  Co  Co104  1  0.62312815  0.87824004  0.87345565  1
  Co  Co105  1  0.24558391  0.24990184  0.00280115  1
  Co  Co106  1  0.62839719  0.62454365  0.12635295  1
  Co  Co107  1  -0.00049031  0.25048135  0.50137778  1
  Co  Co108  1  0.62042798  0.87259468  0.37444384  1
  Co  Co109  1  0.50467776  0.75002374  0.00213970  1
  Co  Co110  1  0.49487340  0.49969266  0.75044954  1
  Co  Co111  1  0.12407785  0.12603108  0.12522412  1
  Co  Co112  1  0.87649601  0.87545694  0.87808221  1
  Co  Co113  1  0.74824476  -0.00400676  0.49720492  1
  Co  Co114  1  0.87738901  0.62196272  0.87488557  1
  Co  Co115  1  0.87319465  0.12210010  0.62409276  1
  Co  Co116  1  0.00327356  0.50100767  0.74930930  1
  Co  Co117  1  0.37631473  0.12685006  0.12042834  1
  Co  Co118  1  0.12517328  0.12482627  0.37590423  1
  Co  Co119  1  0.87843734  0.87656970  0.37530203  1
  Co  Co120  1  0.75230943  0.25197091  0.74909541  1
  Co  Co121  1  0.50578322  0.24943261  -0.00056645  1
  Co  Co122  1  0.24788016  0.75023379  0.00102589  1
  Co  Co123  1  0.37659382  0.12390971  0.37783798  1
  Co  Co124  1  0.50119479  0.50192272  0.50044968  1
  Co  Co125  1  0.74893551  0.50101839  0.75214565  1
  Co  Co126  1  0.37364677  0.87580865  0.12265226  1
  Co  Co127  1  0.75026849  0.75078069  0.75530470  1
