# generated using pymatgen
data_Fe45Co19
_symmetry_space_group_name_H-M   'P 1'
_cell_length_a   11.41396624
_cell_length_b   11.41467614
_cell_length_c   11.41577523
_cell_angle_alpha   89.99210834
_cell_angle_beta   89.99463329
_cell_angle_gamma   90.00287550
_symmetry_Int_Tables_number   1
_chemical_formula_structural   Fe45Co19
_chemical_formula_sum   'Fe90 Co38'
_cell_volume   1487.32398099
_cell_formula_units_Z   2
loop_
 _symmetry_equiv_pos_site_id
 _symmetry_equiv_pos_as_xyz
  1  'x, y, z'
loop_
 _atom_site_type_symbol
 _atom_site_label
 _atom_site_symmetry_multiplicity
 _atom_site_fract_x
 _atom_site_fract_y
 _atom_site_fract_z
 _atom_site_occupancy
  Fe  Fe0  1  0.50020632  0.75133583  -0.00104457  1
  Fe  Fe1  1  -0.00066110  0.00078384  0.25049925  1
  Fe  Fe2  1  0.62703434  0.87551143  0.12878392  1
  Fe  Fe3  1  0.62305346  0.37518151  0.37524768  1
  Fe  Fe4  1  0.62120947  0.12257653  0.37470996  1
  Fe  Fe5  1  0.12403673  0.87730771  0.12285901  1
  Fe  Fe6  1  -0.00004215  0.75052500  -0.00056678  1
  Fe  Fe7  1  0.62424307  0.87824791  0.87466237  1
  Fe  Fe8  1  0.37519518  0.62596128  0.62646385  1
  Fe  Fe9  1  0.75202618  0.00047733  0.00372035  1
  Fe  Fe10  1  0.00133923  0.74933046  0.25086982  1
  Fe  Fe11  1  0.75139148  0.74926256  0.25284187  1
  Fe  Fe12  1  0.74934047  0.25101976  0.49830748  1
  Fe  Fe13  1  0.62330529  0.37508681  0.12647402  1
  Fe  Fe14  1  0.87502882  0.12474317  0.62037936  1
  Fe  Fe15  1  0.37431304  0.62537258  0.87382636  1
  Fe  Fe16  1  0.25069922  0.24818750  0.75205588  1
  Fe  Fe17  1  0.62670895  0.62532438  0.87328284  1
  Fe  Fe18  1  0.00050212  0.25245876  0.25485965  1
  Fe  Fe19  1  0.25068049  0.25035475  0.25184729  1
  Fe  Fe20  1  0.87443218  0.12668989  0.12865921  1
  Fe  Fe21  1  0.24694960  -0.00216166  0.75056618  1
  Fe  Fe22  1  0.75001471  0.49792175  -0.00092627  1
  Fe  Fe23  1  0.25026882  0.24993819  0.49833678  1
  Fe  Fe24  1  0.87488239  0.62508521  0.12514106  1
  Fe  Fe25  1  0.87444812  0.37545401  0.62552328  1
  Fe  Fe26  1  0.24858026  0.75315844  -0.00435847  1
  Fe  Fe27  1  0.12403330  0.37517442  0.87421287  1
  Fe  Fe28  1  0.12460190  0.62678068  0.62480910  1
  Fe  Fe29  1  0.37450504  0.37299094  0.62604318  1
  Fe  Fe30  1  0.87404468  0.87673519  0.37407879  1
  Fe  Fe31  1  0.12098988  0.12048582  0.87592340  1
  Fe  Fe32  1  0.12715582  0.87450933  0.37700240  1
  Fe  Fe33  1  0.37428188  0.87575599  0.62630386  1
  Fe  Fe34  1  -0.00163074  0.24956240  -0.00041554  1
  Fe  Fe35  1  0.49927392  0.24898218  0.00022730  1
  Fe  Fe36  1  -0.00001426  0.49869756  0.00009258  1
  Fe  Fe37  1  0.49820559  0.75002625  0.25031480  1
  Fe  Fe38  1  0.87889543  0.61889397  0.37469561  1
  Fe  Fe39  1  0.00160822  0.25264143  0.49758348  1
  Fe  Fe40  1  0.62765550  0.37093196  0.87218868  1
  Fe  Fe41  1  0.62822308  0.87062979  0.62290811  1
  Fe  Fe42  1  0.49842558  0.24755477  0.74803215  1
  Fe  Fe43  1  0.37831744  0.12370654  0.37622473  1
  Fe  Fe44  1  0.12581809  0.12558164  0.62366306  1
  Fe  Fe45  1  0.37540041  0.62420374  0.12350469  1
  Fe  Fe46  1  0.50062697  0.75175177  0.75103701  1
  Fe  Fe47  1  0.62318499  0.12647453  0.62223179  1
  Fe  Fe48  1  0.37313090  0.62455904  0.37535139  1
  Fe  Fe49  1  0.50181148  0.49991342  0.50293845  1
  Fe  Fe50  1  0.87195846  0.37342731  0.87190838  1
  Fe  Fe51  1  0.62506052  0.62561962  0.12419503  1
  Fe  Fe52  1  0.00208435  0.75173970  0.75143250  1
  Fe  Fe53  1  0.00171659  0.00036672  0.49930842  1
  Fe  Fe54  1  0.37477525  0.87564170  0.37645707  1
  Fe  Fe55  1  0.49866336  0.75078756  0.49943273  1
  Fe  Fe56  1  0.12628856  0.12651465  0.12550873  1
  Fe  Fe57  1  0.37808702  0.11877091  0.87490262  1
  Fe  Fe58  1  0.24664176  0.75389034  0.75267811  1
  Fe  Fe59  1  0.25199150  0.00143106  0.24882863  1
  Fe  Fe60  1  0.24685442  0.49965116  0.24901558  1
  Fe  Fe61  1  0.87439803  0.62295961  0.87256091  1
  Fe  Fe62  1  0.24776535  0.49916210  0.74996352  1
  Fe  Fe63  1  0.87523301  0.37461300  0.12725096  1
  Fe  Fe64  1  0.87305623  0.62574021  0.62787053  1
  Fe  Fe65  1  0.62698924  0.12538802  0.87489809  1
  Fe  Fe66  1  0.74980615  0.24985887  0.25297638  1
  Fe  Fe67  1  0.75139477  0.75194335  -0.00171223  1
  Fe  Fe68  1  0.37520797  0.87720538  0.12128662  1
  Fe  Fe69  1  0.87845033  0.87952510  0.87515296  1
  Fe  Fe70  1  0.50317580  0.49947227  0.74808831  1
  Fe  Fe71  1  -0.00107792  0.24826225  0.74873575  1
  Fe  Fe72  1  0.12480653  0.62487803  0.12352747  1
  Fe  Fe73  1  0.25005687  0.49811297  -0.00068336  1
  Fe  Fe74  1  0.24963429  0.75002833  0.25027814  1
  Fe  Fe75  1  0.75069265  0.00125181  0.74736985  1
  Fe  Fe76  1  0.62387586  0.12412136  0.12780141  1
  Fe  Fe77  1  0.25170466  0.24848074  -0.00241513  1
  Fe  Fe78  1  0.74876039  0.50039003  0.24974354  1
  Fe  Fe79  1  0.24707666  0.50034875  0.50101078  1
  Fe  Fe80  1  0.00020533  0.74905717  0.49876464  1
  Fe  Fe81  1  0.74767263  0.50119582  0.50429664  1
  Fe  Fe82  1  0.25048489  0.00031257  0.50144027  1
  Fe  Fe83  1  0.37662058  0.37630936  0.37455289  1
  Fe  Fe84  1  0.87333929  0.12473584  0.87508387  1
  Fe  Fe85  1  0.74849469  -0.00135184  0.49700964  1
  Fe  Fe86  1  0.50043738  0.49892784  -0.00179063  1
  Fe  Fe87  1  0.87478071  0.87425608  0.62437299  1
  Fe  Fe88  1  0.62401950  0.62624434  0.37638858  1
  Fe  Fe89  1  0.37625423  0.37436784  0.12553560  1
  Co  Co90  1  0.74688350  0.49945053  0.74786177  1
  Co  Co91  1  0.75210991  0.75289803  0.75409205  1
  Co  Co92  1  -0.00339789  0.00285260  0.00575322  1
  Co  Co93  1  -0.00121746  0.00226974  0.74517681  1
  Co  Co94  1  0.00382729  0.49847062  0.24702660  1
  Co  Co95  1  0.87413600  0.87313785  0.12719878  1
  Co  Co96  1  0.50369081  0.00009149  0.74586977  1
  Co  Co97  1  0.49880195  0.24934619  0.25006249  1
  Co  Co98  1  0.75177955  0.24668349  0.74552168  1
  Co  Co99  1  0.62463982  0.87518879  0.37334783  1
  Co  Co100  1  0.75173415  0.00150524  0.25134678  1
  Co  Co101  1  0.49749036  0.25076738  0.50048317  1
  Co  Co102  1  0.24955954  0.00053645  -0.00119301  1
  Co  Co103  1  0.11926323  0.88034731  0.87741603  1
  Co  Co104  1  0.62402781  0.37054260  0.62634422  1
  Co  Co105  1  0.12590020  0.62314850  0.87564911  1
  Co  Co106  1  0.49996053  -0.00247084  0.50243148  1
  Co  Co107  1  0.62682516  0.63159173  0.62584615  1
  Co  Co108  1  0.37429641  0.12598901  0.12341083  1
  Co  Co109  1  0.12405666  0.87526445  0.62219978  1
  Co  Co110  1  0.75003334  0.24972515  0.00376202  1
  Co  Co111  1  0.49649236  -0.00135578  0.24891815  1
  Co  Co112  1  0.12402805  0.37768084  0.37585318  1
  Co  Co113  1  0.12583661  0.37114542  0.12304244  1
  Co  Co114  1  0.12479516  0.62498177  0.37568963  1
  Co  Co115  1  0.50236943  0.00049078  0.00254296  1
  Co  Co116  1  0.49970171  0.50175153  0.25042698  1
  Co  Co117  1  0.12561304  0.12367065  0.37518803  1
  Co  Co118  1  0.37771173  0.87798399  0.87469970  1
  Co  Co119  1  0.37349503  0.12416507  0.62565771  1
  Co  Co120  1  0.37606918  0.37566589  0.87318252  1
  Co  Co121  1  0.25045365  0.74924969  0.50138917  1
  Co  Co122  1  0.87426564  0.37887612  0.37620388  1
  Co  Co123  1  0.00149640  0.49896202  0.74904536  1
  Co  Co124  1  0.87526990  0.12505375  0.37682712  1
  Co  Co125  1  0.00226252  0.49931055  0.50468671  1
  Co  Co126  1  0.75351890  0.74861454  0.49549707  1
  Co  Co127  1  0.12705013  0.37110063  0.62654175  1
