# generated using pymatgen
data_Fe45Co19
_symmetry_space_group_name_H-M   'P 1'
_cell_length_a   11.41470332
_cell_length_b   11.41502947
_cell_length_c   11.41514737
_cell_angle_alpha   90.00225142
_cell_angle_beta   89.99116601
_cell_angle_gamma   90.00298743
_symmetry_Int_Tables_number   1
_chemical_formula_structural   Fe45Co19
_chemical_formula_sum   'Fe90 Co38'
_cell_volume   1487.38426330
_cell_formula_units_Z   2
loop_
 _symmetry_equiv_pos_site_id
 _symmetry_equiv_pos_as_xyz
  1  'x, y, z'
loop_
 _atom_site_type_symbol
 _atom_site_label
 _atom_site_symmetry_multiplicity
 _atom_site_fract_x
 _atom_site_fract_y
 _atom_site_fract_z
 _atom_site_occupancy
  Fe  Fe0  1  0.24825599  0.24848881  0.49810639  1
  Fe  Fe1  1  0.00165323  0.25485658  0.49851667  1
  Fe  Fe2  1  0.37423171  0.87554984  0.62558761  1
  Fe  Fe3  1  0.49866683  0.49750143  0.49980723  1
  Fe  Fe4  1  0.87505126  0.62536023  0.62405731  1
  Fe  Fe5  1  0.62322348  0.62388661  0.37483573  1
  Fe  Fe6  1  0.12443164  0.62224928  0.37269203  1
  Fe  Fe7  1  0.50225759  0.74895143  0.50188113  1
  Fe  Fe8  1  -0.00157508  0.00071528  0.74921462  1
  Fe  Fe9  1  0.62705469  0.62526773  0.12374648  1
  Fe  Fe10  1  0.62833096  0.87631963  0.62317985  1
  Fe  Fe11  1  -0.00314224  -0.00056098  0.00482433  1
  Fe  Fe12  1  0.37714888  0.62593386  0.87364089  1
  Fe  Fe13  1  0.62405979  0.12455942  0.87690607  1
  Fe  Fe14  1  -0.00175341  0.25237657  0.00588015  1
  Fe  Fe15  1  0.12332801  0.12565052  0.62331100  1
  Fe  Fe16  1  0.75155253  0.00291270  0.74946481  1
  Fe  Fe17  1  0.75165797  0.49857559  -0.00153557  1
  Fe  Fe18  1  0.62646294  0.37544692  0.12446163  1
  Fe  Fe19  1  0.50102154  0.24962537  0.24927534  1
  Fe  Fe20  1  0.24369307  0.24933263  0.25137640  1
  Fe  Fe21  1  0.49935003  0.25213188  0.75209763  1
  Fe  Fe22  1  0.00004294  0.49693896  0.50212945  1
  Fe  Fe23  1  0.75120065  -0.00008559  0.25114401  1
  Fe  Fe24  1  0.50136321  0.75066369  0.24946231  1
  Fe  Fe25  1  0.62638454  0.12347338  0.12340696  1
  Fe  Fe26  1  0.62701678  0.87488192  0.37696402  1
  Fe  Fe27  1  0.37344531  0.37554054  0.37257183  1
  Fe  Fe28  1  0.62346696  0.62411748  0.87435722  1
  Fe  Fe29  1  0.12769279  0.37307992  0.87410665  1
  Fe  Fe30  1  0.74995172  0.25216645  0.25066873  1
  Fe  Fe31  1  0.24932800  0.74960990  0.75197675  1
  Fe  Fe32  1  0.37515176  0.62610923  0.12537316  1
  Fe  Fe33  1  0.49802583  0.49675230  0.00003819  1
  Fe  Fe34  1  0.87049056  0.87270903  0.12482035  1
  Fe  Fe35  1  0.87972900  0.12799656  0.37118436  1
  Fe  Fe36  1  0.24935318  0.00203611  0.49878376  1
  Fe  Fe37  1  0.49852024  0.49653043  0.75092815  1
  Fe  Fe38  1  0.12334281  0.87627765  0.37469553  1
  Fe  Fe39  1  -0.00158721  0.75031959  0.00237922  1
  Fe  Fe40  1  -0.00052649  0.75163726  0.24820094  1
  Fe  Fe41  1  0.24685486  0.00196927  0.24959576  1
  Fe  Fe42  1  0.12457771  0.87541967  0.62449443  1
  Fe  Fe43  1  0.12402446  0.62694798  0.87660125  1
  Fe  Fe44  1  0.75044922  0.50001521  0.25044136  1
  Fe  Fe45  1  0.12436312  0.62539619  0.62529947  1
  Fe  Fe46  1  0.24897548  0.74900518  0.49816075  1
  Fe  Fe47  1  0.37553940  0.12422651  0.37214114  1
  Fe  Fe48  1  0.00111372  0.49683305  0.74903744  1
  Fe  Fe49  1  0.37683983  0.62685277  0.62664642  1
  Fe  Fe50  1  0.87669176  0.62495158  0.37371986  1
  Fe  Fe51  1  0.12542724  0.62557509  0.12485142  1
  Fe  Fe52  1  0.00084479  0.25192643  0.74818304  1
  Fe  Fe53  1  0.37625670  0.12509131  0.62706350  1
  Fe  Fe54  1  0.50175557  0.00271883  0.49991336  1
  Fe  Fe55  1  0.25043043  0.00477298  0.00061049  1
  Fe  Fe56  1  0.75007535  0.49790456  0.49843208  1
  Fe  Fe57  1  0.87329042  0.87230652  0.62206386  1
  Fe  Fe58  1  0.25155821  0.24383052  -0.00280773  1
  Fe  Fe59  1  0.37687217  0.87598092  0.37457354  1
  Fe  Fe60  1  0.75050878  0.25116287  0.75330865  1
  Fe  Fe61  1  0.12459629  0.87623087  0.87819022  1
  Fe  Fe62  1  0.49998578  0.75193380  -0.00048692  1
  Fe  Fe63  1  0.49769510  0.49934416  0.24911053  1
  Fe  Fe64  1  0.74847846  0.74767980  0.74904248  1
  Fe  Fe65  1  0.00024493  0.75104481  0.74934292  1
  Fe  Fe66  1  0.87661130  0.12718206  0.87813677  1
  Fe  Fe67  1  0.50059735  0.25097639  0.49907347  1
  Fe  Fe68  1  0.62737540  0.87585145  0.87726575  1
  Fe  Fe69  1  0.25058007  0.74904400  0.25017694  1
  Fe  Fe70  1  0.00177437  0.49365344  0.24563374  1
  Fe  Fe71  1  0.37158561  0.37264675  0.12522071  1
  Fe  Fe72  1  -0.00205675  -0.00048038  0.49976071  1
  Fe  Fe73  1  0.49812145  0.24964548  -0.00039489  1
  Fe  Fe74  1  0.36924907  0.37289243  0.62871537  1
  Fe  Fe75  1  0.75184208  0.49735051  0.75198822  1
  Fe  Fe76  1  0.87330076  0.87220812  0.37753933  1
  Fe  Fe77  1  -0.00063380  0.49750166  0.00152165  1
  Fe  Fe78  1  0.37459128  0.87673545  0.87515614  1
  Fe  Fe79  1  0.37492584  0.87799061  0.12604401  1
  Fe  Fe80  1  0.87631696  0.62460677  0.87567056  1
  Fe  Fe81  1  0.62549638  0.12551762  0.37606084  1
  Fe  Fe82  1  0.25135496  0.50142643  0.49966643  1
  Fe  Fe83  1  0.87264139  0.12916541  0.62218141  1
  Fe  Fe84  1  0.24679367  0.00426133  0.75198557  1
  Fe  Fe85  1  0.25113365  0.50188630  -0.00133939  1
  Fe  Fe86  1  0.62761644  0.87584816  0.12327830  1
  Fe  Fe87  1  0.50226478  -0.00093512  0.74934368  1
  Fe  Fe88  1  0.62778255  0.37304814  0.62457377  1
  Fe  Fe89  1  0.87364563  0.87381871  0.87562204  1
  Co  Co90  1  0.87549823  0.12794937  0.12866372  1
  Co  Co91  1  0.74935671  0.25010335  -0.00047273  1
  Co  Co92  1  0.62404801  0.61980306  0.62674740  1
  Co  Co93  1  0.25224507  0.74896384  0.00013708  1
  Co  Co94  1  0.75290592  0.00247438  -0.00002290  1
  Co  Co95  1  0.37968315  0.12232033  0.87202237  1
  Co  Co96  1  0.00442644  0.25741945  0.24736042  1
  Co  Co97  1  0.50334883  0.00029261  0.25031719  1
  Co  Co98  1  0.50178555  0.75245681  0.75009839  1
  Co  Co99  1  0.12922436  0.37393513  0.62649795  1
  Co  Co100  1  0.11761310  0.12461584  0.87793373  1
  Co  Co101  1  0.00191765  0.74891147  0.49922802  1
  Co  Co102  1  0.62559997  0.12887458  0.62584320  1
  Co  Co103  1  0.74979723  0.74870197  0.25037090  1
  Co  Co104  1  0.74954638  0.25172490  0.49553367  1
  Co  Co105  1  0.37038219  0.37473636  0.87454417  1
  Co  Co106  1  0.62317337  0.37625576  0.37335216  1
  Co  Co107  1  0.37505054  0.12471757  0.12938319  1
  Co  Co108  1  0.62499798  0.37527843  0.87658220  1
  Co  Co109  1  0.75064759  0.74682006  -0.00099412  1
  Co  Co110  1  0.87536934  0.62311717  0.12535152  1
  Co  Co111  1  0.25166571  0.50099529  0.24858981  1
  Co  Co112  1  0.12163731  0.12442966  0.12626735  1
  Co  Co113  1  0.87636936  0.37482460  0.37329768  1
  Co  Co114  1  0.12657308  0.37902990  0.37692636  1
  Co  Co115  1  0.87740567  0.37346870  0.87629630  1
  Co  Co116  1  0.11933682  0.12335126  0.37353768  1
  Co  Co117  1  0.37715891  0.62563347  0.37497283  1
  Co  Co118  1  0.12748019  0.87495157  0.12309063  1
  Co  Co119  1  0.24857036  0.50359542  0.75138465  1
  Co  Co120  1  0.87246096  0.37378961  0.62460076  1
  Co  Co121  1  0.87071107  0.37496980  0.12546393  1
  Co  Co122  1  0.74806472  0.74521320  0.50059191  1
  Co  Co123  1  0.13170516  0.37502058  0.12074260  1
  Co  Co124  1  0.75174884  0.00441110  0.49917992  1
  Co  Co125  1  -0.00216274  -0.00452148  0.24713234  1
  Co  Co126  1  0.24778860  0.24388176  0.75289336  1
  Co  Co127  1  0.49915408  0.00063441  0.00162456  1
