# generated using pymatgen
data_Fe45Co19
_symmetry_space_group_name_H-M   'P 1'
_cell_length_a   11.41587073
_cell_length_b   11.41503541
_cell_length_c   11.41486322
_cell_angle_alpha   90.00516752
_cell_angle_beta   90.00371038
_cell_angle_gamma   89.99626174
_symmetry_Int_Tables_number   1
_chemical_formula_structural   Fe45Co19
_chemical_formula_sum   'Fe90 Co38'
_cell_volume   1487.50013504
_cell_formula_units_Z   2
loop_
 _symmetry_equiv_pos_site_id
 _symmetry_equiv_pos_as_xyz
  1  'x, y, z'
loop_
 _atom_site_type_symbol
 _atom_site_label
 _atom_site_symmetry_multiplicity
 _atom_site_fract_x
 _atom_site_fract_y
 _atom_site_fract_z
 _atom_site_occupancy
  Fe  Fe0  1  0.87493981  0.12513024  0.12320442  1
  Fe  Fe1  1  0.74641782  0.25392140  0.49708410  1
  Fe  Fe2  1  0.87250518  0.87309413  0.37390694  1
  Fe  Fe3  1  0.62651530  0.62591458  0.37735327  1
  Fe  Fe4  1  0.62689420  0.62348397  0.62434317  1
  Fe  Fe5  1  0.00010831  0.49978965  0.49834290  1
  Fe  Fe6  1  0.24969975  0.75198180  0.74773327  1
  Fe  Fe7  1  0.62612681  0.62404504  0.87445125  1
  Fe  Fe8  1  -0.00260548  0.24637969  0.75019714  1
  Fe  Fe9  1  0.12219844  0.62785185  0.12765039  1
  Fe  Fe10  1  0.25059420  0.50224273  0.24803821  1
  Fe  Fe11  1  0.75078165  0.00180498  0.24983286  1
  Fe  Fe12  1  0.37417959  0.62604883  0.62240451  1
  Fe  Fe13  1  0.12406984  0.37555665  0.12615103  1
  Fe  Fe14  1  0.12407009  0.12379920  0.87561605  1
  Fe  Fe15  1  0.50057938  0.24796697  0.25057148  1
  Fe  Fe16  1  -0.00108655  0.24970350  -0.00132520  1
  Fe  Fe17  1  0.12420474  0.62741965  0.62466751  1
  Fe  Fe18  1  0.49806303  0.25217910  0.75392250  1
  Fe  Fe19  1  0.62220161  0.12438323  0.12212454  1
  Fe  Fe20  1  0.62386686  0.87382864  0.62908610  1
  Fe  Fe21  1  0.00127789  0.24907927  0.50124565  1
  Fe  Fe22  1  0.62522492  0.12495180  0.62658294  1
  Fe  Fe23  1  0.62606821  0.87332851  0.37156225  1
  Fe  Fe24  1  0.25048612  0.25066328  0.50042246  1
  Fe  Fe25  1  0.00043694  -0.00153162  0.24800004  1
  Fe  Fe26  1  0.49985172  -0.00040029  0.24935869  1
  Fe  Fe27  1  0.50030616  -0.00224410  0.49896130  1
  Fe  Fe28  1  0.37710836  0.12400112  0.88005722  1
  Fe  Fe29  1  0.12454794  0.87438065  0.87310356  1
  Fe  Fe30  1  0.25111012  0.24854342  0.75023173  1
  Fe  Fe31  1  0.87590671  0.37658819  0.12635283  1
  Fe  Fe32  1  0.25170481  -0.00164222  0.74891250  1
  Fe  Fe33  1  0.24705206  0.74902582  0.00147434  1
  Fe  Fe34  1  0.12495939  0.37638053  0.37327057  1
  Fe  Fe35  1  0.37463263  0.12270613  0.37548485  1
  Fe  Fe36  1  0.75395464  0.24816227  0.75343060  1
  Fe  Fe37  1  0.25086386  0.24885411  0.00200224  1
  Fe  Fe38  1  0.74775193  -0.00170532  0.50183348  1
  Fe  Fe39  1  0.87233037  0.87538463  0.87375618  1
  Fe  Fe40  1  0.74823187  0.25028571  0.25187502  1
  Fe  Fe41  1  0.75015146  0.25274341  -0.00212159  1
  Fe  Fe42  1  0.49821362  0.74893166  0.75174571  1
  Fe  Fe43  1  0.75319466  0.74701600  0.74808693  1
  Fe  Fe44  1  0.50702384  0.75461731  0.00020612  1
  Fe  Fe45  1  0.24881419  -0.00047610  0.24537995  1
  Fe  Fe46  1  0.62455446  0.37739955  0.12579594  1
  Fe  Fe47  1  0.37863144  0.62641895  0.12161081  1
  Fe  Fe48  1  0.49889250  0.75299227  0.49836224  1
  Fe  Fe49  1  0.12766038  0.87220250  0.37252016  1
  Fe  Fe50  1  0.49950177  0.50397413  0.25069090  1
  Fe  Fe51  1  -0.00028581  0.24847649  0.25022933  1
  Fe  Fe52  1  0.50032347  0.49951789  0.50086308  1
  Fe  Fe53  1  0.37184253  0.62849387  0.37725588  1
  Fe  Fe54  1  0.37605481  0.37655795  0.37527503  1
  Fe  Fe55  1  0.37325081  0.62572162  0.87731144  1
  Fe  Fe56  1  0.49997952  0.49595975  -0.00493569  1
  Fe  Fe57  1  0.12578886  0.37468072  0.62624973  1
  Fe  Fe58  1  -0.00332862  0.00412032  0.74776330  1
  Fe  Fe59  1  0.75067302  0.49888971  -0.00318195  1
  Fe  Fe60  1  0.12615578  0.12350336  0.37532799  1
  Fe  Fe61  1  0.00069735  -0.00175508  0.00211853  1
  Fe  Fe62  1  0.87417548  0.62614597  0.12517446  1
  Fe  Fe63  1  0.12627047  0.37697026  0.87536023  1
  Fe  Fe64  1  0.50176849  0.25027351  0.49947487  1
  Fe  Fe65  1  0.00245627  0.50137489  0.00008488  1
  Fe  Fe66  1  0.12790767  0.62788513  0.37433576  1
  Fe  Fe67  1  0.62515710  0.12455119  0.87672607  1
  Fe  Fe68  1  0.49930288  -0.00214324  0.75480128  1
  Fe  Fe69  1  0.62561265  0.37905442  0.63029347  1
  Fe  Fe70  1  0.00049920  0.75116738  0.49992552  1
  Fe  Fe71  1  0.37591210  0.37512754  0.12392950  1
  Fe  Fe72  1  0.25054265  -0.00453507  0.50332427  1
  Fe  Fe73  1  0.87296625  0.62652685  0.37744737  1
  Fe  Fe74  1  0.25127860  0.50172283  0.74988150  1
  Fe  Fe75  1  0.37626679  0.12345996  0.62450256  1
  Fe  Fe76  1  0.37693043  0.87358642  0.12472698  1
  Fe  Fe77  1  0.25127582  0.24771185  0.24834142  1
  Fe  Fe78  1  0.75079043  0.50024524  0.25332635  1
  Fe  Fe79  1  0.87332835  0.37686678  0.62514468  1
  Fe  Fe80  1  0.74686111  -0.00302791  -0.00045877  1
  Fe  Fe81  1  0.24927836  0.00003722  0.00282182  1
  Fe  Fe82  1  0.87612685  0.87424809  0.62568711  1
  Fe  Fe83  1  0.00066358  0.00075120  0.50155485  1
  Fe  Fe84  1  0.37544298  0.37678564  0.62549164  1
  Fe  Fe85  1  -0.00108262  0.50227455  0.74983505  1
  Fe  Fe86  1  0.87605699  0.62509571  0.87585167  1
  Fe  Fe87  1  0.87224748  0.87129202  0.12572187  1
  Fe  Fe88  1  -0.00009525  0.75061613  -0.00170069  1
  Fe  Fe89  1  0.87383840  0.12569885  0.37750869  1
  Co  Co90  1  -0.00253745  0.74858398  0.75134226  1
  Co  Co91  1  0.12372572  0.87095997  0.12474248  1
  Co  Co92  1  0.87464361  0.12160471  0.87936750  1
  Co  Co93  1  0.50181119  0.74739785  0.24992361  1
  Co  Co94  1  0.74959991  0.49659062  0.49784221  1
  Co  Co95  1  -0.00203478  0.75089136  0.25133161  1
  Co  Co96  1  0.62548162  0.62053583  0.12224566  1
  Co  Co97  1  0.62696300  0.87499634  0.12982611  1
  Co  Co98  1  0.74904112  0.75333246  0.50225005  1
  Co  Co99  1  0.87808146  0.37763085  0.87473975  1
  Co  Co100  1  0.25245873  0.74848641  0.24601070  1
  Co  Co101  1  0.37182595  0.87177752  0.87760905  1
  Co  Co102  1  -0.00053744  0.50263686  0.25158650  1
  Co  Co103  1  0.62979055  0.87294119  0.86929638  1
  Co  Co104  1  0.37978237  0.12370909  0.12226778  1
  Co  Co105  1  0.74794286  0.74963835  -0.00034670  1
  Co  Co106  1  0.37333419  0.87431816  0.37163450  1
  Co  Co107  1  0.12736569  0.12462274  0.62493006  1
  Co  Co108  1  0.87141001  0.12681909  0.61956729  1
  Co  Co109  1  0.24856248  0.49935248  0.50036943  1
  Co  Co110  1  0.12240091  0.12622729  0.12469338  1
  Co  Co111  1  0.74750107  0.74586544  0.24839993  1
  Co  Co112  1  0.24984878  0.75487469  0.50398228  1
  Co  Co113  1  0.49636532  0.50197033  0.75203843  1
  Co  Co114  1  0.24803785  0.50217535  0.00319049  1
  Co  Co115  1  0.12081387  0.87471404  0.62824760  1
  Co  Co116  1  0.87731594  0.37331101  0.37455679  1
  Co  Co117  1  0.62723228  0.37677750  0.87034924  1
  Co  Co118  1  0.12616270  0.62585380  0.87321944  1
  Co  Co119  1  0.36994667  0.37660403  0.87587189  1
  Co  Co120  1  0.75176693  0.00222235  0.74826273  1
  Co  Co121  1  0.62083597  0.37763272  0.37239720  1
  Co  Co122  1  0.50125360  0.25468120  -0.00246884  1
  Co  Co123  1  0.62511190  0.12287642  0.37529914  1
  Co  Co124  1  0.75330413  0.50398368  0.75154025  1
  Co  Co125  1  0.87492151  0.62407961  0.62090800  1
  Co  Co126  1  0.50363155  -0.00687734  -0.00266413  1
  Co  Co127  1  0.37913750  0.87511458  0.62669669  1
