# generated using pymatgen
data_Fe45Co19
_symmetry_space_group_name_H-M   'P 1'
_cell_length_a   11.41466061
_cell_length_b   11.41441862
_cell_length_c   11.41496460
_cell_angle_alpha   90.00777002
_cell_angle_beta   90.00190898
_cell_angle_gamma   90.00025635
_symmetry_Int_Tables_number   1
_chemical_formula_structural   Fe45Co19
_chemical_formula_sum   'Fe90 Co38'
_cell_volume   1487.27529603
_cell_formula_units_Z   2
loop_
 _symmetry_equiv_pos_site_id
 _symmetry_equiv_pos_as_xyz
  1  'x, y, z'
loop_
 _atom_site_type_symbol
 _atom_site_label
 _atom_site_symmetry_multiplicity
 _atom_site_fract_x
 _atom_site_fract_y
 _atom_site_fract_z
 _atom_site_occupancy
  Fe  Fe0  1  0.12545581  0.12724068  0.62775282  1
  Fe  Fe1  1  -0.00025213  0.24925870  -0.00222174  1
  Fe  Fe2  1  0.37348797  0.62671794  0.62609597  1
  Fe  Fe3  1  0.25130609  0.24782850  0.25135831  1
  Fe  Fe4  1  0.74998910  0.24975380  0.50085788  1
  Fe  Fe5  1  0.12415199  0.87485902  0.37380273  1
  Fe  Fe6  1  0.50099883  0.24814890  0.75058617  1
  Fe  Fe7  1  0.37481392  0.87514711  0.37404244  1
  Fe  Fe8  1  0.12102565  0.37369197  0.87019945  1
  Fe  Fe9  1  0.50109318  -0.00058745  0.24976694  1
  Fe  Fe10  1  0.24656973  0.50246286  0.75094017  1
  Fe  Fe11  1  0.37523091  0.12368416  0.12416713  1
  Fe  Fe12  1  0.12397853  0.87184774  0.62701734  1
  Fe  Fe13  1  0.87920474  0.62804013  0.62426431  1
  Fe  Fe14  1  0.62761081  0.87448582  0.12679853  1
  Fe  Fe15  1  0.50066241  0.24874691  0.25096860  1
  Fe  Fe16  1  0.24904633  0.75092633  0.49920391  1
  Fe  Fe17  1  0.87719671  0.37388138  0.62639242  1
  Fe  Fe18  1  0.37578064  0.37527923  0.87460975  1
  Fe  Fe19  1  0.75188741  0.74712275  0.75314188  1
  Fe  Fe20  1  0.75232698  0.75137611  0.49886255  1
  Fe  Fe21  1  0.00031343  0.50124598  0.50207234  1
  Fe  Fe22  1  0.25066870  0.00078868  0.74974322  1
  Fe  Fe23  1  0.24917948  0.50018874  0.50161287  1
  Fe  Fe24  1  0.50127555  -0.00272991  0.50127993  1
  Fe  Fe25  1  0.24871253  0.50338957  0.24799931  1
  Fe  Fe26  1  0.75014736  0.24825629  0.75022401  1
  Fe  Fe27  1  0.74726395  0.00205271  0.74775434  1
  Fe  Fe28  1  0.75379808  0.50184802  0.75096473  1
  Fe  Fe29  1  0.50201041  -0.00247986  0.00109070  1
  Fe  Fe30  1  0.62561765  0.37668281  0.87476164  1
  Fe  Fe31  1  0.62504197  0.37950221  0.37822243  1
  Fe  Fe32  1  0.50197945  0.24899634  0.00045993  1
  Fe  Fe33  1  0.50038729  -0.00114698  0.74808340  1
  Fe  Fe34  1  0.12461174  0.37494264  0.37405170  1
  Fe  Fe35  1  0.25071636  0.24873761  0.49879826  1
  Fe  Fe36  1  0.50085268  0.50280692  0.75087513  1
  Fe  Fe37  1  0.87418646  0.12246945  0.12403161  1
  Fe  Fe38  1  0.49893003  0.75047671  0.50225938  1
  Fe  Fe39  1  0.12228824  0.63044297  0.12058814  1
  Fe  Fe40  1  0.37445514  0.37528310  0.12461492  1
  Fe  Fe41  1  0.49925691  0.50154489  0.24825601  1
  Fe  Fe42  1  0.62578303  0.62500935  0.62469970  1
  Fe  Fe43  1  0.12373241  0.12372998  0.12334889  1
  Fe  Fe44  1  0.75017559  0.24936440  0.25148712  1
  Fe  Fe45  1  0.62599478  0.62472600  0.12179972  1
  Fe  Fe46  1  0.37646671  0.12538330  0.62354749  1
  Fe  Fe47  1  0.37455474  0.62556235  0.37519222  1
  Fe  Fe48  1  0.87581681  0.87783723  0.37793190  1
  Fe  Fe49  1  0.87430171  0.12162985  0.62174907  1
  Fe  Fe50  1  0.24742320  -0.00002926  0.50049364  1
  Fe  Fe51  1  0.87507558  0.37738651  0.37612850  1
  Fe  Fe52  1  -0.00212371  0.24782436  0.25152922  1
  Fe  Fe53  1  0.75327427  0.74858305  0.25083315  1
  Fe  Fe54  1  0.75199000  0.75086944  -0.00256767  1
  Fe  Fe55  1  0.24716744  -0.00473305  0.00136974  1
  Fe  Fe56  1  0.87452184  0.12243915  0.87601224  1
  Fe  Fe57  1  -0.00359964  0.74957221  0.25179224  1
  Fe  Fe58  1  0.62582680  0.87284639  0.62570222  1
  Fe  Fe59  1  0.62620963  0.62411137  0.37773835  1
  Fe  Fe60  1  0.24736560  0.50039845  -0.00172569  1
  Fe  Fe61  1  0.37422490  0.12414261  0.87584423  1
  Fe  Fe62  1  0.00003756  0.24595730  0.49810346  1
  Fe  Fe63  1  0.74900369  0.24852543  -0.00110146  1
  Fe  Fe64  1  0.87767677  0.87556297  0.62569300  1
  Fe  Fe65  1  0.87466049  0.37522825  0.12399076  1
  Fe  Fe66  1  0.74898909  -0.00090302  -0.00008056  1
  Fe  Fe67  1  0.37842705  0.62801066  0.87766135  1
  Fe  Fe68  1  0.12399477  0.62569251  0.37626248  1
  Fe  Fe69  1  0.50023123  0.75008401  0.24792886  1
  Fe  Fe70  1  0.75281051  0.50137502  -0.00216046  1
  Fe  Fe71  1  0.00142901  0.00081941  0.75221562  1
  Fe  Fe72  1  0.37359730  0.62853874  0.12117149  1
  Fe  Fe73  1  -0.00076863  0.00112438  0.25032653  1
  Fe  Fe74  1  -0.00085823  0.50228612  0.24761227  1
  Fe  Fe75  1  -0.00325204  0.75919919  -0.00463253  1
  Fe  Fe76  1  0.12542340  0.37369667  0.12676958  1
  Fe  Fe77  1  0.12365222  0.37269154  0.62771952  1
  Fe  Fe78  1  0.37564581  0.37669675  0.37532974  1
  Fe  Fe79  1  0.24907780  -0.00170599  0.24798497  1
  Fe  Fe80  1  0.24725888  0.74771579  0.75321969  1
  Fe  Fe81  1  0.62388398  0.37621444  0.62369285  1
  Fe  Fe82  1  0.74972541  -0.00005654  0.25279894  1
  Fe  Fe83  1  0.75296085  0.50275525  0.24910534  1
  Fe  Fe84  1  0.37608750  0.37492572  0.62518698  1
  Fe  Fe85  1  0.24840893  0.25063136  -0.00218697  1
  Fe  Fe86  1  0.62557052  0.12421723  0.37835199  1
  Fe  Fe87  1  0.62514235  0.87385278  0.87271728  1
  Fe  Fe88  1  0.62533709  0.37597434  0.12402696  1
  Fe  Fe89  1  0.37639530  0.87283358  0.87380580  1
  Co  Co90  1  0.25001159  0.74990585  0.24969891  1
  Co  Co91  1  0.37192934  0.87348324  0.62594837  1
  Co  Co92  1  0.12603398  0.12518384  0.37270221  1
  Co  Co93  1  0.62371026  0.62524866  0.87593381  1
  Co  Co94  1  0.37522912  0.87393201  0.12624426  1
  Co  Co95  1  0.75283282  0.50095755  0.50361631  1
  Co  Co96  1  0.00116712  -0.00360961  -0.00234472  1
  Co  Co97  1  0.12714427  0.87650355  0.87144135  1
  Co  Co98  1  -0.00043961  0.75202185  0.49826728  1
  Co  Co99  1  0.12646686  0.12446362  0.87504296  1
  Co  Co100  1  0.62605494  0.12399837  0.12631801  1
  Co  Co101  1  0.62362745  0.12510253  0.62301936  1
  Co  Co102  1  0.87630135  0.37537049  0.87407279  1
  Co  Co103  1  0.88066294  0.62276374  0.87705596  1
  Co  Co104  1  0.49901412  0.49965930  0.00047488  1
  Co  Co105  1  0.49984281  0.25044051  0.49839029  1
  Co  Co106  1  0.50306526  0.75347522  0.00164535  1
  Co  Co107  1  0.87338370  0.87711435  0.12705643  1
  Co  Co108  1  0.87777941  0.62680186  0.11993509  1
  Co  Co109  1  -0.00371399  0.24537798  0.75090447  1
  Co  Co110  1  0.62426265  0.87193447  0.37474177  1
  Co  Co111  1  0.00387729  0.00070576  0.50104745  1
  Co  Co112  1  0.24899641  0.75423751  -0.00140002  1
  Co  Co113  1  -0.00000433  0.75158130  0.75356816  1
  Co  Co114  1  0.37487547  0.12132359  0.37584213  1
  Co  Co115  1  0.11964926  0.62573249  0.87922048  1
  Co  Co116  1  0.00177583  0.49480473  0.00198121  1
  Co  Co117  1  0.74771224  -0.00343800  0.50053312  1
  Co  Co118  1  0.25238301  0.25001947  0.75024542  1
  Co  Co119  1  -0.00027753  0.50229612  0.74689210  1
  Co  Co120  1  0.87493481  0.62274528  0.37756372  1
  Co  Co121  1  0.62430952  0.12356850  0.87426729  1
  Co  Co122  1  0.87317859  0.12219405  0.37737609  1
  Co  Co123  1  0.12191292  0.87257854  0.12777851  1
  Co  Co124  1  0.50105534  0.75006446  0.74827019  1
  Co  Co125  1  0.49814958  0.50246763  0.50182535  1
  Co  Co126  1  0.12379455  0.62825649  0.62407780  1
  Co  Co127  1  0.87132132  0.87892368  0.86997450  1
