# generated using pymatgen
data_Fe45Co19
_symmetry_space_group_name_H-M   'P 1'
_cell_length_a   11.41583561
_cell_length_b   11.41590238
_cell_length_c   11.41399128
_cell_angle_alpha   89.99689090
_cell_angle_beta   89.99325788
_cell_angle_gamma   90.00031510
_symmetry_Int_Tables_number   1
_chemical_formula_structural   Fe45Co19
_chemical_formula_sum   'Fe90 Co38'
_cell_volume   1487.49490067
_cell_formula_units_Z   2
loop_
 _symmetry_equiv_pos_site_id
 _symmetry_equiv_pos_as_xyz
  1  'x, y, z'
loop_
 _atom_site_type_symbol
 _atom_site_label
 _atom_site_symmetry_multiplicity
 _atom_site_fract_x
 _atom_site_fract_y
 _atom_site_fract_z
 _atom_site_occupancy
  Fe  Fe0  1  0.50130360  0.24842604  0.75092541  1
  Fe  Fe1  1  0.87648728  0.87407444  0.37518774  1
  Fe  Fe2  1  0.11864438  0.37918122  0.62027780  1
  Fe  Fe3  1  0.12694057  0.62645105  0.87495176  1
  Fe  Fe4  1  0.37743555  0.37732439  0.62457422  1
  Fe  Fe5  1  0.00022391  0.00056957  -0.00170938  1
  Fe  Fe6  1  0.37361410  0.37509503  0.37616933  1
  Fe  Fe7  1  0.87765277  0.87390425  0.12540282  1
  Fe  Fe8  1  0.74974056  0.49721795  0.75048651  1
  Fe  Fe9  1  0.37211682  0.62298101  0.62507987  1
  Fe  Fe10  1  0.00268917  0.25017078  0.25044764  1
  Fe  Fe11  1  0.12069826  0.87814472  0.61882306  1
  Fe  Fe12  1  0.87561446  0.62562873  0.87335865  1
  Fe  Fe13  1  0.75149956  0.49856523  0.00082285  1
  Fe  Fe14  1  0.49772786  0.74621690  -0.00287783  1
  Fe  Fe15  1  0.50173708  0.00106942  0.24983383  1
  Fe  Fe16  1  0.87789523  0.37315303  0.87312068  1
  Fe  Fe17  1  0.25393272  0.25011552  0.00172258  1
  Fe  Fe18  1  0.75106476  -0.00028155  0.50005120  1
  Fe  Fe19  1  0.87848359  0.62515763  0.12470102  1
  Fe  Fe20  1  0.12565268  0.87490894  0.87492379  1
  Fe  Fe21  1  0.74862047  0.25316483  0.24714630  1
  Fe  Fe22  1  0.87305862  0.12809804  0.37393906  1
  Fe  Fe23  1  0.12873498  0.12430677  0.87392023  1
  Fe  Fe24  1  0.24908003  -0.00562187  0.25498615  1
  Fe  Fe25  1  0.75127725  0.74981900  0.50198352  1
  Fe  Fe26  1  0.24747532  0.49834922  0.74853521  1
  Fe  Fe27  1  0.37471956  0.37704323  0.12682439  1
  Fe  Fe28  1  0.49585649  0.00361948  -0.00141983  1
  Fe  Fe29  1  0.62447048  0.62357912  0.12386174  1
  Fe  Fe30  1  0.00216713  0.49962616  -0.00107601  1
  Fe  Fe31  1  0.00260120  0.24840809  0.74972660  1
  Fe  Fe32  1  0.25159889  0.74780990  0.00342196  1
  Fe  Fe33  1  0.62305347  0.37248687  0.87729562  1
  Fe  Fe34  1  0.50031754  0.25146365  0.50074397  1
  Fe  Fe35  1  0.37125195  0.62759241  0.37545762  1
  Fe  Fe36  1  0.50009898  0.74634300  0.49984765  1
  Fe  Fe37  1  0.87553174  0.12561129  0.62578724  1
  Fe  Fe38  1  0.50239131  0.74730690  0.25118210  1
  Fe  Fe39  1  0.87665291  0.87413305  0.87298678  1
  Fe  Fe40  1  0.62700903  0.12669638  0.37665885  1
  Fe  Fe41  1  0.12729857  0.12528511  0.12506075  1
  Fe  Fe42  1  0.12377153  0.37446710  0.37990796  1
  Fe  Fe43  1  0.75051677  -0.00121225  0.00059299  1
  Fe  Fe44  1  0.49597694  0.50197704  -0.00420939  1
  Fe  Fe45  1  0.25052040  0.50176915  0.00190362  1
  Fe  Fe46  1  0.12626738  0.37365921  0.87706144  1
  Fe  Fe47  1  0.62369313  0.87655824  0.62463030  1
  Fe  Fe48  1  0.62473499  0.87411467  0.37579361  1
  Fe  Fe49  1  0.00165870  -0.00001332  0.25251276  1
  Fe  Fe50  1  0.74713573  0.75034394  0.24748437  1
  Fe  Fe51  1  0.75023000  0.75025724  0.00006430  1
  Fe  Fe52  1  0.24941179  0.25188992  0.25054896  1
  Fe  Fe53  1  0.75404718  0.49669179  0.50202791  1
  Fe  Fe54  1  0.87481817  0.12664211  0.87541832  1
  Fe  Fe55  1  0.87695894  0.87587669  0.62538383  1
  Fe  Fe56  1  0.49958281  0.50183882  0.75280252  1
  Fe  Fe57  1  0.12587629  0.12038749  0.62158703  1
  Fe  Fe58  1  0.62611830  0.62142031  0.62378828  1
  Fe  Fe59  1  0.24850710  0.25187448  0.74524386  1
  Fe  Fe60  1  0.24871391  0.75295295  0.74588717  1
  Fe  Fe61  1  0.87960154  0.37434200  0.12627665  1
  Fe  Fe62  1  0.12342940  0.87333853  0.12471358  1
  Fe  Fe63  1  0.25275851  -0.00031175  -0.00148018  1
  Fe  Fe64  1  0.37329498  0.12609292  0.37508168  1
  Fe  Fe65  1  0.62148799  0.37543057  0.12248692  1
  Fe  Fe66  1  0.62693336  0.37743428  0.37624122  1
  Fe  Fe67  1  0.00203581  0.74728375  0.74657067  1
  Fe  Fe68  1  0.74824540  -0.00118989  0.24800606  1
  Fe  Fe69  1  0.37350222  0.12351799  0.62501062  1
  Fe  Fe70  1  0.37792077  0.87689198  0.62559510  1
  Fe  Fe71  1  0.50069190  0.74730798  0.75172942  1
  Fe  Fe72  1  0.75067975  0.25386319  0.50378382  1
  Fe  Fe73  1  0.37697947  0.87401781  0.12665712  1
  Fe  Fe74  1  0.24703241  0.50197398  0.24933287  1
  Fe  Fe75  1  0.00279369  0.50003741  0.25239965  1
  Fe  Fe76  1  0.49937111  0.00109853  0.49797891  1
  Fe  Fe77  1  0.74781228  0.74987119  0.74956850  1
  Fe  Fe78  1  0.74782704  0.00136067  0.75078614  1
  Fe  Fe79  1  0.62445622  0.12729746  0.12104514  1
  Fe  Fe80  1  0.50140890  0.50237497  0.25412769  1
  Fe  Fe81  1  0.12844821  0.62941636  0.38042921  1
  Fe  Fe82  1  0.12686285  0.12519969  0.37919592  1
  Fe  Fe83  1  0.49982007  0.25000580  0.24931983  1
  Fe  Fe84  1  0.49989981  0.00250359  0.75359091  1
  Fe  Fe85  1  0.87107455  0.62393912  0.37263170  1
  Fe  Fe86  1  0.74674785  0.25061847  0.74831815  1
  Fe  Fe87  1  0.62320812  0.87487808  0.87646740  1
  Fe  Fe88  1  0.00246052  0.74924294  0.25153930  1
  Fe  Fe89  1  0.87656393  0.12675076  0.12460721  1
  Co  Co90  1  -0.00479609  0.74410021  0.50288927  1
  Co  Co91  1  0.62463996  0.12347545  0.62350512  1
  Co  Co92  1  0.37462427  0.87254473  0.87505115  1
  Co  Co93  1  0.62149527  0.37854766  0.62521112  1
  Co  Co94  1  0.12575609  0.37396678  0.12439391  1
  Co  Co95  1  0.25336668  0.75572524  0.50307293  1
  Co  Co96  1  0.62182648  0.87414829  0.12263588  1
  Co  Co97  1  0.00187679  0.24862544  -0.00074008  1
  Co  Co98  1  -0.00125645  0.24856649  0.50043668  1
  Co  Co99  1  0.49779949  0.50212435  0.49691138  1
  Co  Co100  1  0.00021042  0.75067672  -0.00284382  1
  Co  Co101  1  0.25326756  -0.00407387  0.49705553  1
  Co  Co102  1  0.87569608  0.37399502  0.37330186  1
  Co  Co103  1  0.37927825  0.87210302  0.37255849  1
  Co  Co104  1  0.36885622  0.62560414  0.87086196  1
  Co  Co105  1  0.49300987  0.24855572  0.00017023  1
  Co  Co106  1  0.63031861  0.62336260  0.37717280  1
  Co  Co107  1  -0.00426859  0.50506032  0.49768432  1
  Co  Co108  1  0.37293382  0.37462592  0.87269670  1
  Co  Co109  1  0.37183451  0.12377218  0.12995532  1
  Co  Co110  1  0.37020418  0.12702899  0.86987351  1
  Co  Co111  1  0.62581648  0.12674597  0.87888016  1
  Co  Co112  1  0.37629391  0.62386737  0.12829621  1
  Co  Co113  1  0.25068132  0.25192602  0.50340530  1
  Co  Co114  1  0.00308819  0.50294638  0.75271018  1
  Co  Co115  1  0.00025295  0.00059574  0.75121607  1
  Co  Co116  1  0.12092708  0.87098157  0.38049722  1
  Co  Co117  1  0.75198159  0.25303438  0.00121463  1
  Co  Co118  1  0.88079237  0.37554932  0.62842994  1
  Co  Co119  1  0.74975390  0.49864263  0.24592767  1
  Co  Co120  1  0.25011108  -0.00399062  0.74843141  1
  Co  Co121  1  0.87263090  0.62181679  0.62952947  1
  Co  Co122  1  0.25180873  0.49794353  0.49991346  1
  Co  Co123  1  0.62783641  0.62391998  0.87501553  1
  Co  Co124  1  -0.00380403  0.00269796  0.49697138  1
  Co  Co125  1  0.24849459  0.75223097  0.24836457  1
  Co  Co126  1  0.12217352  0.62632560  0.12486654  1
  Co  Co127  1  0.12817808  0.62295210  0.62089148  1
