# generated using pymatgen
data_Fe45Co19
_symmetry_space_group_name_H-M   'P 1'
_cell_length_a   11.41633295
_cell_length_b   11.41532116
_cell_length_c   11.41522148
_cell_angle_alpha   89.99488309
_cell_angle_beta   89.99280142
_cell_angle_gamma   90.00298933
_symmetry_Int_Tables_number   1
_chemical_formula_structural   Fe45Co19
_chemical_formula_sum   'Fe90 Co38'
_cell_volume   1487.64428176
_cell_formula_units_Z   2
loop_
 _symmetry_equiv_pos_site_id
 _symmetry_equiv_pos_as_xyz
  1  'x, y, z'
loop_
 _atom_site_type_symbol
 _atom_site_label
 _atom_site_symmetry_multiplicity
 _atom_site_fract_x
 _atom_site_fract_y
 _atom_site_fract_z
 _atom_site_occupancy
  Fe  Fe0  1  0.75137438  0.00309303  0.24502463  1
  Fe  Fe1  1  0.24998907  0.50269917  0.74775782  1
  Fe  Fe2  1  0.12554322  0.37716556  0.37605565  1
  Fe  Fe3  1  0.75416254  0.74917469  0.25038052  1
  Fe  Fe4  1  0.87512526  0.12573470  0.62844262  1
  Fe  Fe5  1  0.62570816  0.37261519  0.37221298  1
  Fe  Fe6  1  0.12445073  0.87468414  0.12748065  1
  Fe  Fe7  1  -0.00357307  0.50343407  0.25174464  1
  Fe  Fe8  1  0.12390399  0.87337935  0.62866485  1
  Fe  Fe9  1  0.62184097  0.37053410  0.12589396  1
  Fe  Fe10  1  0.49835978  0.25160647  0.49781918  1
  Fe  Fe11  1  0.50289597  -0.00348650  0.49856388  1
  Fe  Fe12  1  0.12703676  0.12375757  0.87241298  1
  Fe  Fe13  1  0.12420383  0.37689687  0.12382357  1
  Fe  Fe14  1  0.62631912  0.37522478  0.87795671  1
  Fe  Fe15  1  0.24917546  0.25328146  0.74876506  1
  Fe  Fe16  1  0.12484763  0.12566962  0.62800842  1
  Fe  Fe17  1  0.00050613  0.25093139  -0.00279840  1
  Fe  Fe18  1  0.87705822  0.87413989  0.12467163  1
  Fe  Fe19  1  0.62299350  0.37445283  0.62515489  1
  Fe  Fe20  1  0.00172802  0.00008406  0.25319360  1
  Fe  Fe21  1  0.37605287  0.37827012  0.87541305  1
  Fe  Fe22  1  0.62667816  0.62532038  0.37605478  1
  Fe  Fe23  1  0.25101937  0.49977185  0.24899716  1
  Fe  Fe24  1  -0.00129388  0.49979176  0.49808174  1
  Fe  Fe25  1  0.25163056  0.50545803  0.00012152  1
  Fe  Fe26  1  0.49862589  0.74675530  0.00157850  1
  Fe  Fe27  1  0.87452697  0.62728267  0.62129587  1
  Fe  Fe28  1  0.12357203  0.62506499  0.62400320  1
  Fe  Fe29  1  0.62484282  0.62640377  0.62246672  1
  Fe  Fe30  1  0.37611825  0.62594747  0.62153219  1
  Fe  Fe31  1  0.87687818  0.37491084  0.12439988  1
  Fe  Fe32  1  0.74685217  0.75428610  0.49793640  1
  Fe  Fe33  1  0.62620624  0.12561619  0.37148333  1
  Fe  Fe34  1  0.87561030  0.62410671  0.87858100  1
  Fe  Fe35  1  -0.00243064  0.50051750  0.75202039  1
  Fe  Fe36  1  0.00150661  0.74854437  0.00012837  1
  Fe  Fe37  1  0.62819588  0.12215360  0.87556583  1
  Fe  Fe38  1  0.87364861  0.87563805  0.87561497  1
  Fe  Fe39  1  0.62739036  0.87528462  0.87636995  1
  Fe  Fe40  1  0.37148741  0.62481489  0.37746436  1
  Fe  Fe41  1  0.12388646  0.12437509  0.12516299  1
  Fe  Fe42  1  0.24891436  -0.00141657  0.00090136  1
  Fe  Fe43  1  0.37593713  0.12640485  0.12309272  1
  Fe  Fe44  1  0.25039916  0.24990814  0.24936539  1
  Fe  Fe45  1  0.00100078  0.24999800  0.49984888  1
  Fe  Fe46  1  0.87683355  0.37280611  0.62741915  1
  Fe  Fe47  1  0.37250987  0.12372829  0.87399907  1
  Fe  Fe48  1  0.37480346  0.87348069  0.62325908  1
  Fe  Fe49  1  0.75087919  0.25122323  0.49992942  1
  Fe  Fe50  1  0.37192234  0.87487857  0.37560228  1
  Fe  Fe51  1  0.12510702  0.37870500  0.87529081  1
  Fe  Fe52  1  0.87640640  0.87479662  0.62460289  1
  Fe  Fe53  1  0.37189498  0.12480437  0.37645309  1
  Fe  Fe54  1  0.62484405  0.12446429  0.62633216  1
  Fe  Fe55  1  0.75130551  0.74961830  0.75028230  1
  Fe  Fe56  1  0.24993615  0.25554415  0.50234295  1
  Fe  Fe57  1  0.50159427  0.24978496  0.75287609  1
  Fe  Fe58  1  0.37520546  0.12494806  0.62543737  1
  Fe  Fe59  1  0.12281979  0.62521804  0.12590548  1
  Fe  Fe60  1  0.49963193  -0.00010657  0.00067331  1
  Fe  Fe61  1  0.00313020  0.75171704  0.49301440  1
  Fe  Fe62  1  0.50173237  0.50093562  0.75047220  1
  Fe  Fe63  1  0.49948089  0.75001221  0.74884179  1
  Fe  Fe64  1  0.37780704  0.37455049  0.12319452  1
  Fe  Fe65  1  0.75043648  0.50057585  0.00269507  1
  Fe  Fe66  1  0.75264298  0.49965801  0.25020015  1
  Fe  Fe67  1  0.24716089  0.74942590  0.25152450  1
  Fe  Fe68  1  0.62462850  0.62517277  0.87662944  1
  Fe  Fe69  1  0.37174120  0.87138383  0.87577503  1
  Fe  Fe70  1  0.87268566  0.12508517  0.87173228  1
  Fe  Fe71  1  0.62612859  0.87446758  0.12425283  1
  Fe  Fe72  1  0.49958190  -0.00159530  0.75013974  1
  Fe  Fe73  1  0.75120805  0.49691316  0.49954115  1
  Fe  Fe74  1  0.49867008  0.49805363  0.49777014  1
  Fe  Fe75  1  0.12705633  0.87105002  0.87173202  1
  Fe  Fe76  1  0.24679746  -0.00134096  0.50072813  1
  Fe  Fe77  1  0.87465293  0.12535859  0.37464035  1
  Fe  Fe78  1  0.62597706  0.62631163  0.12533510  1
  Fe  Fe79  1  0.49786750  0.00041076  0.24928571  1
  Fe  Fe80  1  0.49962339  0.74920265  0.25258910  1
  Fe  Fe81  1  0.74789377  -0.00229136  0.50107559  1
  Fe  Fe82  1  0.37225039  0.87242039  0.12471289  1
  Fe  Fe83  1  0.75129520  0.24591568  0.00438964  1
  Fe  Fe84  1  0.75101143  0.49988925  0.74931857  1
  Fe  Fe85  1  0.24980406  0.25051332  -0.00025770  1
  Fe  Fe86  1  0.00099348  0.25055088  0.25198703  1
  Fe  Fe87  1  0.49920866  0.50044773  0.24971743  1
  Fe  Fe88  1  0.00078237  0.00020525  -0.00314767  1
  Fe  Fe89  1  0.00233903  0.00014292  0.49864288  1
  Co  Co90  1  0.25106482  0.74624379  0.74803265  1
  Co  Co91  1  0.75147507  0.00273424  0.00434862  1
  Co  Co92  1  0.25058481  0.49655728  0.50382221  1
  Co  Co93  1  0.24810426  0.74661485  0.00091550  1
  Co  Co94  1  0.37430382  0.62675341  0.12746879  1
  Co  Co95  1  0.50219749  0.75257063  0.49673953  1
  Co  Co96  1  0.75067699  0.74914737  -0.00033683  1
  Co  Co97  1  0.25113704  0.00277040  0.24809836  1
  Co  Co98  1  0.12751019  0.62075758  0.37539585  1
  Co  Co99  1  0.37877253  0.37519965  0.62844050  1
  Co  Co100  1  0.74796487  0.25191129  0.74856346  1
  Co  Co101  1  0.87599104  0.37401428  0.37460752  1
  Co  Co102  1  0.12321877  0.62542122  0.87383797  1
  Co  Co103  1  0.87385553  0.87725278  0.37413936  1
  Co  Co104  1  0.75047310  -0.00307101  0.74738232  1
  Co  Co105  1  0.12736511  0.12678982  0.37514866  1
  Co  Co106  1  0.75332464  0.24873097  0.24720675  1
  Co  Co107  1  -0.00085857  0.74735357  0.25330846  1
  Co  Co108  1  0.49598138  0.24923024  0.25280486  1
  Co  Co109  1  0.25010914  -0.00231222  0.74874795  1
  Co  Co110  1  0.24580663  0.75108698  0.50015264  1
  Co  Co111  1  0.62416906  0.87353394  0.62785899  1
  Co  Co112  1  0.87256925  0.37427377  0.87642341  1
  Co  Co113  1  -0.00301812  0.74838424  0.75055159  1
  Co  Co114  1  0.62711425  0.87670490  0.36922166  1
  Co  Co115  1  0.61975320  0.12687844  0.12630748  1
  Co  Co116  1  0.00159489  0.25078784  0.75322412  1
  Co  Co117  1  0.49937654  0.24856292  -0.00417740  1
  Co  Co118  1  0.37679157  0.62549714  0.87440743  1
  Co  Co119  1  0.87591331  0.62608716  0.12262846  1
  Co  Co120  1  -0.00018487  -0.00031154  0.75100493  1
  Co  Co121  1  -0.00026712  0.50020024  -0.00028798  1
  Co  Co122  1  0.12718062  0.87733803  0.37097310  1
  Co  Co123  1  0.50008829  0.50276524  0.00334889  1
  Co  Co124  1  0.37276201  0.37664677  0.37364916  1
  Co  Co125  1  0.87248616  0.62629155  0.37839932  1
  Co  Co126  1  0.12055368  0.37682608  0.62617282  1
  Co  Co127  1  0.88287108  0.12445817  0.12582082  1
