# generated using pymatgen
data_Fe45Co19
_symmetry_space_group_name_H-M   'P 1'
_cell_length_a   11.41573870
_cell_length_b   11.41448174
_cell_length_c   11.41535926
_cell_angle_alpha   89.99270643
_cell_angle_beta   90.00516580
_cell_angle_gamma   89.99829001
_symmetry_Int_Tables_number   1
_chemical_formula_structural   Fe45Co19
_chemical_formula_sum   'Fe90 Co38'
_cell_volume   1487.47541172
_cell_formula_units_Z   2
loop_
 _symmetry_equiv_pos_site_id
 _symmetry_equiv_pos_as_xyz
  1  'x, y, z'
loop_
 _atom_site_type_symbol
 _atom_site_label
 _atom_site_symmetry_multiplicity
 _atom_site_fract_x
 _atom_site_fract_y
 _atom_site_fract_z
 _atom_site_occupancy
  Fe  Fe0  1  0.87397229  0.12476624  0.87396759  1
  Fe  Fe1  1  0.00045262  0.50092169  0.24904129  1
  Fe  Fe2  1  0.12575327  0.87453659  0.87700062  1
  Fe  Fe3  1  0.12532373  0.87763630  0.37328039  1
  Fe  Fe4  1  0.24962145  0.25231771  0.24710986  1
  Fe  Fe5  1  0.12768798  0.62628220  0.12339989  1
  Fe  Fe6  1  0.87448428  0.87529548  0.87417745  1
  Fe  Fe7  1  0.24807391  0.49915048  0.25075635  1
  Fe  Fe8  1  0.12339554  0.37310652  0.62291075  1
  Fe  Fe9  1  0.37763605  0.37468626  0.37249126  1
  Fe  Fe10  1  0.12450832  0.62534047  0.62271944  1
  Fe  Fe11  1  0.49743783  0.25217143  0.00029567  1
  Fe  Fe12  1  0.37562523  0.12370693  0.12797015  1
  Fe  Fe13  1  0.50340933  0.24901982  0.24968064  1
  Fe  Fe14  1  0.62354813  0.12463293  0.37545731  1
  Fe  Fe15  1  0.62557661  0.37554900  0.62400161  1
  Fe  Fe16  1  0.12434632  0.62597895  0.37628960  1
  Fe  Fe17  1  0.12556106  0.12533616  0.62168584  1
  Fe  Fe18  1  0.62584908  0.87340240  0.87826963  1
  Fe  Fe19  1  0.87424065  0.37359217  0.87466143  1
  Fe  Fe20  1  0.62166588  0.87535183  0.62229402  1
  Fe  Fe21  1  0.37264987  0.62422671  0.12629398  1
  Fe  Fe22  1  0.62542431  0.37427612  0.87559116  1
  Fe  Fe23  1  0.00264249  -0.00031837  0.74902365  1
  Fe  Fe24  1  0.12607750  0.12514970  0.37509344  1
  Fe  Fe25  1  0.87567854  0.87548354  0.37243732  1
  Fe  Fe26  1  0.49805055  0.50029098  -0.00265610  1
  Fe  Fe27  1  0.25766851  0.00138446  0.49917600  1
  Fe  Fe28  1  0.87272612  0.37646270  0.12758589  1
  Fe  Fe29  1  0.75137481  0.74877557  0.74936065  1
  Fe  Fe30  1  0.74564472  -0.00248185  0.24895163  1
  Fe  Fe31  1  0.74839856  -0.00252030  0.49854038  1
  Fe  Fe32  1  0.25410294  0.24935678  0.50013386  1
  Fe  Fe33  1  -0.00166605  -0.00139772  0.00209502  1
  Fe  Fe34  1  -0.00017222  0.24963566  0.74970602  1
  Fe  Fe35  1  0.25315573  0.49547315  0.00022271  1
  Fe  Fe36  1  0.75016969  0.74889402  0.24735413  1
  Fe  Fe37  1  0.12680492  0.62653116  0.87800280  1
  Fe  Fe38  1  0.87278010  0.12177856  0.12669534  1
  Fe  Fe39  1  0.37951095  0.87469106  0.37038397  1
  Fe  Fe40  1  0.49630594  0.74927988  0.00019801  1
  Fe  Fe41  1  0.24951633  0.24906108  0.75020522  1
  Fe  Fe42  1  0.37664463  0.37497670  0.62612815  1
  Fe  Fe43  1  -0.00110624  0.75154772  0.00286395  1
  Fe  Fe44  1  -0.00100479  -0.00002649  0.49952074  1
  Fe  Fe45  1  0.50275163  0.50266188  0.49662614  1
  Fe  Fe46  1  0.75091550  0.50228565  -0.00117744  1
  Fe  Fe47  1  -0.00042456  0.75035092  0.74775034  1
  Fe  Fe48  1  0.62325780  0.12312931  0.62416611  1
  Fe  Fe49  1  0.62617573  0.62556685  0.62340196  1
  Fe  Fe50  1  0.61997485  0.87146572  0.37475959  1
  Fe  Fe51  1  0.75014695  0.50224644  0.75138530  1
  Fe  Fe52  1  0.37356085  0.87617251  0.87176693  1
  Fe  Fe53  1  -0.00125870  0.24944241  0.24962180  1
  Fe  Fe54  1  0.00151237  0.50028195  0.75188292  1
  Fe  Fe55  1  0.74960025  0.25091663  0.49975876  1
  Fe  Fe56  1  0.49821304  0.24742706  0.49911441  1
  Fe  Fe57  1  0.74588184  0.00101004  0.75215707  1
  Fe  Fe58  1  -0.00257697  0.75165692  0.50189201  1
  Fe  Fe59  1  0.12477746  0.12520558  0.12442140  1
  Fe  Fe60  1  0.62573504  0.12343267  0.12200583  1
  Fe  Fe61  1  0.25082397  0.49889461  0.49891445  1
  Fe  Fe62  1  0.12793897  0.87664898  0.62290947  1
  Fe  Fe63  1  0.75329685  0.74941298  0.00116381  1
  Fe  Fe64  1  -0.00305160  0.49962390  0.49892321  1
  Fe  Fe65  1  -0.00112048  0.49959980  0.00009070  1
  Fe  Fe66  1  0.37572139  0.12389099  0.87304815  1
  Fe  Fe67  1  0.37403439  0.62470984  0.62456689  1
  Fe  Fe68  1  0.49932122  0.74924341  0.75033916  1
  Fe  Fe69  1  0.50006528  0.50236652  0.75257390  1
  Fe  Fe70  1  0.62539173  0.62597330  0.12202392  1
  Fe  Fe71  1  0.87348504  0.12337723  0.37418381  1
  Fe  Fe72  1  0.50110588  -0.00206586  0.00072666  1
  Fe  Fe73  1  0.87357105  0.37525672  0.62490076  1
  Fe  Fe74  1  0.25411544  0.75164292  0.49779032  1
  Fe  Fe75  1  0.12388102  0.37315747  0.37532939  1
  Fe  Fe76  1  0.24889771  0.49912950  0.75100850  1
  Fe  Fe77  1  0.87037686  0.37586204  0.37257626  1
  Fe  Fe78  1  0.25061433  -0.00132001  0.00135636  1
  Fe  Fe79  1  0.12533457  0.12738521  0.87963764  1
  Fe  Fe80  1  0.75396453  0.74929262  0.50187243  1
  Fe  Fe81  1  0.87401404  0.12360444  0.62451754  1
  Fe  Fe82  1  0.37484366  0.87435848  0.12974403  1
  Fe  Fe83  1  0.62568224  0.37598921  0.12657354  1
  Fe  Fe84  1  0.50502983  0.50438320  0.25382863  1
  Fe  Fe85  1  0.00135726  0.75141647  0.24753692  1
  Fe  Fe86  1  0.24984625  0.75011626  0.75004037  1
  Fe  Fe87  1  0.12601458  0.37032749  0.88015216  1
  Fe  Fe88  1  0.50251875  0.24913414  0.75129096  1
  Fe  Fe89  1  0.75091526  0.24904391  -0.00019949  1
  Co  Co90  1  0.74819423  0.24744661  0.24892544  1
  Co  Co91  1  0.75011766  0.00006398  -0.00066848  1
  Co  Co92  1  0.62293471  0.12590550  0.87849806  1
  Co  Co93  1  0.37265097  0.62526225  0.87495998  1
  Co  Co94  1  0.25583295  0.25096829  0.00368946  1
  Co  Co95  1  0.37592948  0.87660723  0.62821865  1
  Co  Co96  1  0.87579601  0.62663554  0.37393906  1
  Co  Co97  1  0.24975646  -0.00051750  0.25004539  1
  Co  Co98  1  0.87678025  0.62654926  0.87470155  1
  Co  Co99  1  0.74875832  0.50075658  0.49748653  1
  Co  Co100  1  0.24596269  0.00094898  0.75094858  1
  Co  Co101  1  0.25238678  0.75334279  0.00136860  1
  Co  Co102  1  0.37669667  0.12336593  0.63067476  1
  Co  Co103  1  0.62493871  0.87280832  0.12328855  1
  Co  Co104  1  0.12321811  0.37353422  0.12240641  1
  Co  Co105  1  0.50422603  0.00049838  0.24852232  1
  Co  Co106  1  0.37549405  0.37368910  0.87208824  1
  Co  Co107  1  0.49627007  0.74810821  0.50074155  1
  Co  Co108  1  0.62565530  0.37237053  0.37404427  1
  Co  Co109  1  -0.00531502  0.24933782  0.00288032  1
  Co  Co110  1  0.50061289  0.74524620  0.24805901  1
  Co  Co111  1  0.87599984  0.62284117  0.62541502  1
  Co  Co112  1  0.24850887  0.75023311  0.25171496  1
  Co  Co113  1  0.00049867  0.00092412  0.24954418  1
  Co  Co114  1  0.49587386  0.00130497  0.49858962  1
  Co  Co115  1  0.37936659  0.37773709  0.13060532  1
  Co  Co116  1  0.62534460  0.62706729  0.87663094  1
  Co  Co117  1  0.62810931  0.63137242  0.37789879  1
  Co  Co118  1  0.87358575  0.87732558  0.12613272  1
  Co  Co119  1  0.37335585  0.62403447  0.37376255  1
  Co  Co120  1  0.87377736  0.87905880  0.62666086  1
  Co  Co121  1  0.87531289  0.62392415  0.12569047  1
  Co  Co122  1  -0.00318046  0.25009340  0.49786834  1
  Co  Co123  1  0.74579135  0.50426202  0.25146316  1
  Co  Co124  1  0.74826577  0.24886833  0.74939670  1
  Co  Co125  1  0.50468559  -0.00203491  0.75159603  1
  Co  Co126  1  0.12626533  0.87630267  0.12594466  1
  Co  Co127  1  0.37576095  0.12673635  0.36894509  1
