# generated using pymatgen
data_Fe45Co19
_symmetry_space_group_name_H-M   'P 1'
_cell_length_a   11.41466789
_cell_length_b   11.41741835
_cell_length_c   11.41419162
_cell_angle_alpha   89.99594428
_cell_angle_beta   89.99685980
_cell_angle_gamma   89.99876122
_symmetry_Int_Tables_number   1
_chemical_formula_structural   Fe45Co19
_chemical_formula_sum   'Fe90 Co38'
_cell_volume   1487.56637170
_cell_formula_units_Z   2
loop_
 _symmetry_equiv_pos_site_id
 _symmetry_equiv_pos_as_xyz
  1  'x, y, z'
loop_
 _atom_site_type_symbol
 _atom_site_label
 _atom_site_symmetry_multiplicity
 _atom_site_fract_x
 _atom_site_fract_y
 _atom_site_fract_z
 _atom_site_occupancy
  Fe  Fe0  1  0.50123163  0.74727180  0.24789933  1
  Fe  Fe1  1  0.74825318  0.74948012  0.75318465  1
  Fe  Fe2  1  0.50288140  0.74840790  0.75431844  1
  Fe  Fe3  1  0.37712830  0.62324442  0.37349939  1
  Fe  Fe4  1  0.12782892  0.12525359  0.12975285  1
  Fe  Fe5  1  0.24915550  0.25279951  0.00047976  1
  Fe  Fe6  1  0.75016911  0.74510796  0.25425021  1
  Fe  Fe7  1  0.12441960  0.12511872  0.87514445  1
  Fe  Fe8  1  0.87512051  0.12600133  0.87423559  1
  Fe  Fe9  1  0.12540529  0.87656078  0.37516131  1
  Fe  Fe10  1  0.25006180  0.00112690  0.74845404  1
  Fe  Fe11  1  0.37478062  0.87178718  0.12377771  1
  Fe  Fe12  1  0.62365802  0.37892893  0.37604650  1
  Fe  Fe13  1  0.87347998  0.12641563  0.12498196  1
  Fe  Fe14  1  -0.00213494  -0.00102016  0.50129793  1
  Fe  Fe15  1  0.62472269  0.12545469  0.62205944  1
  Fe  Fe16  1  0.37311256  0.12561376  0.12772578  1
  Fe  Fe17  1  0.37779947  0.37505353  0.87470063  1
  Fe  Fe18  1  0.24985161  0.74981050  0.24995466  1
  Fe  Fe19  1  -0.00036173  0.00050724  0.74657689  1
  Fe  Fe20  1  0.87312248  0.37768516  0.37648312  1
  Fe  Fe21  1  0.87606856  0.12711613  0.37704438  1
  Fe  Fe22  1  0.75187370  0.50203253  0.24947450  1
  Fe  Fe23  1  0.12367610  0.62548862  0.37788683  1
  Fe  Fe24  1  0.87189998  0.87325695  0.37549330  1
  Fe  Fe25  1  0.12577148  0.12784839  0.62198379  1
  Fe  Fe26  1  0.75017204  0.00141249  0.25142936  1
  Fe  Fe27  1  0.50307973  0.50166614  0.75115837  1
  Fe  Fe28  1  0.62488676  0.12675068  0.12373267  1
  Fe  Fe29  1  0.24852483  0.50318436  0.75009289  1
  Fe  Fe30  1  0.50066400  -0.00266679  0.24858665  1
  Fe  Fe31  1  0.12606808  0.37455748  0.37498759  1
  Fe  Fe32  1  0.87323466  0.62211614  0.87605169  1
  Fe  Fe33  1  0.74976750  0.00033969  0.74939302  1
  Fe  Fe34  1  0.50205363  0.50206817  0.50324096  1
  Fe  Fe35  1  0.49870573  0.50232135  0.24474677  1
  Fe  Fe36  1  0.12226904  0.37812586  0.87240309  1
  Fe  Fe37  1  0.49812081  0.25279094  0.24992329  1
  Fe  Fe38  1  0.00095832  0.74659559  0.74872773  1
  Fe  Fe39  1  0.49770990  0.24985816  0.49831957  1
  Fe  Fe40  1  0.25013305  0.24970440  0.75091463  1
  Fe  Fe41  1  0.00176798  0.49723785  0.50444226  1
  Fe  Fe42  1  0.50162722  -0.00060940  0.00054468  1
  Fe  Fe43  1  -0.00069098  -0.00037168  0.25027314  1
  Fe  Fe44  1  0.74930447  0.25153083  -0.00165615  1
  Fe  Fe45  1  0.62765404  0.87341968  0.62213684  1
  Fe  Fe46  1  0.24827927  0.74747900  0.75190934  1
  Fe  Fe47  1  0.37612815  0.87278757  0.62633955  1
  Fe  Fe48  1  0.87605271  0.37521207  0.87291818  1
  Fe  Fe49  1  0.50217628  0.24947816  0.75124309  1
  Fe  Fe50  1  0.37505786  0.37495082  0.62550320  1
  Fe  Fe51  1  0.25164465  0.74919209  0.49972753  1
  Fe  Fe52  1  0.37052235  0.37858000  0.12690786  1
  Fe  Fe53  1  0.25432352  0.00216781  0.49913534  1
  Fe  Fe54  1  0.12325286  0.87427379  0.87427068  1
  Fe  Fe55  1  0.24829346  -0.00269329  0.00165554  1
  Fe  Fe56  1  0.37510776  0.62592106  0.88024165  1
  Fe  Fe57  1  0.62776892  0.87245691  0.12495063  1
  Fe  Fe58  1  0.00113927  0.50169886  0.24863959  1
  Fe  Fe59  1  0.25091546  0.50141722  0.50030245  1
  Fe  Fe60  1  0.74571740  0.49857970  0.74929961  1
  Fe  Fe61  1  0.87430241  0.87317424  0.12677466  1
  Fe  Fe62  1  0.37620542  0.87548897  0.87488961  1
  Fe  Fe63  1  0.75016687  -0.00112745  -0.00147107  1
  Fe  Fe64  1  0.25363416  0.24818733  0.49508417  1
  Fe  Fe65  1  0.00021934  0.00059242  0.00201070  1
  Fe  Fe66  1  -0.00151431  0.75126522  0.50144204  1
  Fe  Fe67  1  0.00000467  0.74761774  0.24965771  1
  Fe  Fe68  1  0.12629416  0.87358673  0.62534441  1
  Fe  Fe69  1  0.37601418  0.12463456  0.87613253  1
  Fe  Fe70  1  0.87435874  0.12834025  0.62263296  1
  Fe  Fe71  1  0.37769914  0.87528591  0.37440111  1
  Fe  Fe72  1  0.37643418  0.62650442  0.62537445  1
  Fe  Fe73  1  0.50060845  0.00075090  0.74860430  1
  Fe  Fe74  1  0.50382348  0.74930877  0.49763629  1
  Fe  Fe75  1  0.87084841  0.37392435  0.62267608  1
  Fe  Fe76  1  0.87240831  0.62550690  0.62221498  1
  Fe  Fe77  1  0.74603701  0.25148990  0.75130124  1
  Fe  Fe78  1  0.00136436  0.25033311  0.00140702  1
  Fe  Fe79  1  0.62207797  0.12196836  0.37623970  1
  Fe  Fe80  1  0.74867746  0.25057221  0.25304350  1
  Fe  Fe81  1  0.62873035  0.62500586  0.11841258  1
  Fe  Fe82  1  0.87571880  0.37348415  0.12711094  1
  Fe  Fe83  1  0.62560654  0.37528121  0.12216251  1
  Fe  Fe84  1  -0.00159535  0.49928609  0.00174944  1
  Fe  Fe85  1  0.87681734  0.87601510  0.87320193  1
  Fe  Fe86  1  0.00079628  0.25191520  0.74667464  1
  Fe  Fe87  1  0.12917009  0.62335110  0.12196143  1
  Fe  Fe88  1  -0.00062821  0.74923993  0.00083012  1
  Fe  Fe89  1  0.00110149  0.25051156  0.25119752  1
  Co  Co90  1  0.74614891  0.50256544  0.50115440  1
  Co  Co91  1  0.49734341  0.50062554  0.00212652  1
  Co  Co92  1  0.75175249  0.75368609  -0.00284880  1
  Co  Co93  1  0.12595501  0.37623862  0.12671029  1
  Co  Co94  1  0.25275993  0.25313291  0.25382892  1
  Co  Co95  1  0.12576446  0.62595849  0.62338551  1
  Co  Co96  1  0.24825110  0.50197468  0.25373419  1
  Co  Co97  1  0.87337594  0.62583242  0.12382927  1
  Co  Co98  1  0.37833862  0.38091981  0.37563662  1
  Co  Co99  1  0.75347175  0.49513834  0.00062654  1
  Co  Co100  1  0.36970612  0.62442597  0.12289528  1
  Co  Co101  1  0.25012294  0.49651896  -0.00374463  1
  Co  Co102  1  0.37576584  0.12754551  0.62713535  1
  Co  Co103  1  0.62770682  0.62187000  0.88091327  1
  Co  Co104  1  0.24883605  0.75298381  -0.00147290  1
  Co  Co105  1  0.74726197  0.74584693  0.49428499  1
  Co  Co106  1  0.37786419  0.12189412  0.36926824  1
  Co  Co107  1  0.62386798  0.12551056  0.87691549  1
  Co  Co108  1  0.62558815  0.87696144  0.37468922  1
  Co  Co109  1  0.62204025  0.62037585  0.37264639  1
  Co  Co110  1  0.49710546  -0.00116968  0.50197681  1
  Co  Co111  1  0.49697659  0.25136176  0.00267090  1
  Co  Co112  1  0.00065047  0.25346789  0.49973841  1
  Co  Co113  1  -0.00075062  0.50057523  0.74472374  1
  Co  Co114  1  0.62485296  0.62818028  0.62701696  1
  Co  Co115  1  0.62290527  0.37340927  0.62312003  1
  Co  Co116  1  0.12470862  0.12331918  0.37356753  1
  Co  Co117  1  0.12285774  0.87403196  0.12635696  1
  Co  Co118  1  0.74749424  0.25010816  0.49649668  1
  Co  Co119  1  0.75255635  0.00024811  0.50019906  1
  Co  Co120  1  0.62208457  0.37622822  0.87865427  1
  Co  Co121  1  0.87858661  0.62143906  0.37823038  1
  Co  Co122  1  0.50072831  0.74982264  -0.00018951  1
  Co  Co123  1  0.12252300  0.62292638  0.87705122  1
  Co  Co124  1  0.87176138  0.87086068  0.62554680  1
  Co  Co125  1  0.62398188  0.87657686  0.87437060  1
  Co  Co126  1  0.13078348  0.37362323  0.62548100  1
  Co  Co127  1  0.25152345  -0.00439559  0.25021580  1
