# generated using pymatgen
data_Fe45Co19
_symmetry_space_group_name_H-M   'P 1'
_cell_length_a   11.41502810
_cell_length_b   11.41399011
_cell_length_c   11.41446912
_cell_angle_alpha   89.99719844
_cell_angle_beta   90.00464096
_cell_angle_gamma   89.99662907
_symmetry_Int_Tables_number   1
_chemical_formula_structural   Fe45Co19
_chemical_formula_sum   'Fe90 Co38'
_cell_volume   1487.20279037
_cell_formula_units_Z   2
loop_
 _symmetry_equiv_pos_site_id
 _symmetry_equiv_pos_as_xyz
  1  'x, y, z'
loop_
 _atom_site_type_symbol
 _atom_site_label
 _atom_site_symmetry_multiplicity
 _atom_site_fract_x
 _atom_site_fract_y
 _atom_site_fract_z
 _atom_site_occupancy
  Fe  Fe0  1  0.50061439  0.74923597  0.75160593  1
  Fe  Fe1  1  0.37308174  0.12427656  0.37312699  1
  Fe  Fe2  1  0.12281102  0.62553245  0.87787490  1
  Fe  Fe3  1  0.12337215  0.12759739  0.37395546  1
  Fe  Fe4  1  0.75572587  0.74994804  0.00268722  1
  Fe  Fe5  1  0.12765363  0.12483245  0.62661054  1
  Fe  Fe6  1  -0.00073449  0.24894742  0.74861224  1
  Fe  Fe7  1  0.24966285  -0.00031795  0.49995356  1
  Fe  Fe8  1  0.62253140  0.37420876  0.37910051  1
  Fe  Fe9  1  0.12306999  0.87431233  0.37757248  1
  Fe  Fe10  1  0.50024998  0.24910266  0.25151966  1
  Fe  Fe11  1  0.49939444  0.00264174  0.50146584  1
  Fe  Fe12  1  0.87955887  0.87676804  0.87789416  1
  Fe  Fe13  1  0.37409131  0.87557282  0.87518704  1
  Fe  Fe14  1  0.62704980  0.37652804  0.87778722  1
  Fe  Fe15  1  -0.00071053  0.74762322  0.49875385  1
  Fe  Fe16  1  0.87531611  0.37487177  0.62420625  1
  Fe  Fe17  1  0.62618522  0.37265026  0.12340775  1
  Fe  Fe18  1  0.75295511  0.75067027  0.75072523  1
  Fe  Fe19  1  0.50105205  0.74428284  0.49523127  1
  Fe  Fe20  1  0.37459003  0.87309526  0.62331777  1
  Fe  Fe21  1  0.12401816  0.62581998  0.62480310  1
  Fe  Fe22  1  0.37603811  0.87323158  0.12617168  1
  Fe  Fe23  1  0.24907013  0.25210303  0.25072764  1
  Fe  Fe24  1  0.49995756  -0.00041639  0.74983437  1
  Fe  Fe25  1  0.75109931  0.49567221  0.24964253  1
  Fe  Fe26  1  0.50222433  -0.00103520  0.24784003  1
  Fe  Fe27  1  -0.00016011  0.50158576  0.49996899  1
  Fe  Fe28  1  0.24846622  0.74753944  0.49809191  1
  Fe  Fe29  1  0.25179311  0.25399668  0.75446684  1
  Fe  Fe30  1  0.87821543  0.37242660  0.37520082  1
  Fe  Fe31  1  0.24821840  0.49732096  -0.00180441  1
  Fe  Fe32  1  0.50109072  0.50223226  0.25150469  1
  Fe  Fe33  1  0.49911181  0.00005153  0.00026026  1
  Fe  Fe34  1  0.50135635  0.50312122  0.00195329  1
  Fe  Fe35  1  0.62900413  0.62503731  0.87454772  1
  Fe  Fe36  1  0.37451745  0.37504749  0.12419249  1
  Fe  Fe37  1  0.75461818  0.50213044  0.00238600  1
  Fe  Fe38  1  0.12291065  0.37332510  0.37622921  1
  Fe  Fe39  1  0.37684437  0.87395866  0.37395833  1
  Fe  Fe40  1  0.12075832  0.87539920  0.11925689  1
  Fe  Fe41  1  0.37606020  0.37669424  0.37715717  1
  Fe  Fe42  1  0.87248018  0.12574552  0.62451983  1
  Fe  Fe43  1  -0.00165400  0.50189977  0.74982486  1
  Fe  Fe44  1  -0.00072887  0.24579873  0.00156721  1
  Fe  Fe45  1  0.75085357  0.25083252  0.25075264  1
  Fe  Fe46  1  0.62574959  0.12448778  0.87542849  1
  Fe  Fe47  1  0.00023149  0.00251199  0.50145799  1
  Fe  Fe48  1  0.50270433  0.49977239  0.74832580  1
  Fe  Fe49  1  0.87680154  0.37611050  0.87820063  1
  Fe  Fe50  1  0.37342113  0.62367271  0.87420811  1
  Fe  Fe51  1  0.24792617  0.75054066  0.24982425  1
  Fe  Fe52  1  0.24808084  0.49788185  0.75227440  1
  Fe  Fe53  1  0.75074528  -0.00269172  0.74892334  1
  Fe  Fe54  1  0.12367887  0.37209165  0.12223359  1
  Fe  Fe55  1  0.75075115  0.49883504  0.50069828  1
  Fe  Fe56  1  0.24827975  0.50187798  0.49742900  1
  Fe  Fe57  1  0.62847663  0.12188758  0.37598131  1
  Fe  Fe58  1  0.62626326  0.12566585  0.12464036  1
  Fe  Fe59  1  0.74913812  0.25383771  0.75049512  1
  Fe  Fe60  1  0.37231586  0.62414419  0.12818310  1
  Fe  Fe61  1  0.24923261  0.00035689  -0.00026069  1
  Fe  Fe62  1  0.37681556  0.37524183  0.62162473  1
  Fe  Fe63  1  0.49834855  0.24947197  -0.00204233  1
  Fe  Fe64  1  0.87480537  0.12201902  0.37301545  1
  Fe  Fe65  1  0.75139804  0.00090987  0.00198337  1
  Fe  Fe66  1  -0.00001144  0.49785829  0.24736448  1
  Fe  Fe67  1  0.49996168  0.25094408  0.75152566  1
  Fe  Fe68  1  0.87620714  0.12265790  0.13033414  1
  Fe  Fe69  1  0.75061675  0.75244846  0.49746127  1
  Fe  Fe70  1  0.37210236  0.12734903  0.12424584  1
  Fe  Fe71  1  0.24598460  0.75425557  0.75184896  1
  Fe  Fe72  1  0.12690139  0.12385220  0.87270829  1
  Fe  Fe73  1  0.00096065  0.75128756  0.75079524  1
  Fe  Fe74  1  0.49828300  0.74766204  0.00092774  1
  Fe  Fe75  1  0.87406964  0.62564399  0.37172303  1
  Fe  Fe76  1  0.37288116  0.62513961  0.62582625  1
  Fe  Fe77  1  0.12483138  0.62473601  0.12507176  1
  Fe  Fe78  1  0.62917892  0.62436743  0.62596267  1
  Fe  Fe79  1  0.62373528  0.87407353  0.62343431  1
  Fe  Fe80  1  0.12467495  0.37350854  0.62475809  1
  Fe  Fe81  1  0.62619859  0.87432131  0.87769848  1
  Fe  Fe82  1  -0.00141400  0.75312036  0.24906323  1
  Fe  Fe83  1  0.87777670  0.87464545  0.62362874  1
  Fe  Fe84  1  0.74994009  0.76002716  0.25059885  1
  Fe  Fe85  1  0.62776923  0.12747931  0.62383973  1
  Fe  Fe86  1  0.24617513  -0.00143497  0.24918395  1
  Fe  Fe87  1  0.87404594  0.12479217  0.87260467  1
  Fe  Fe88  1  0.62859344  0.62810633  0.12865163  1
  Fe  Fe89  1  0.37209206  0.12590480  0.62698567  1
  Co  Co90  1  0.50167207  0.74873963  0.25132511  1
  Co  Co91  1  0.62310090  0.37353832  0.62132851  1
  Co  Co92  1  -0.00008534  -0.00061702  0.74839143  1
  Co  Co93  1  0.75146632  -0.00212630  0.50232603  1
  Co  Co94  1  0.00018339  0.00683610  -0.00044889  1
  Co  Co95  1  0.25098377  0.74993447  -0.00004071  1
  Co  Co96  1  0.00005818  0.25058026  0.24895691  1
  Co  Co97  1  0.12177514  0.62499162  0.37196315  1
  Co  Co98  1  0.11772486  0.37521407  0.87572712  1
  Co  Co99  1  0.63146094  0.62459932  0.37138743  1
  Co  Co100  1  0.87435262  0.62591115  0.62415372  1
  Co  Co101  1  0.24880464  -0.00533980  0.75004852  1
  Co  Co102  1  0.62121070  0.87892840  0.37789133  1
  Co  Co103  1  0.87514336  0.37196066  0.12286959  1
  Co  Co104  1  0.87780453  0.87878698  0.37619883  1
  Co  Co105  1  0.75205961  0.25129346  0.49783424  1
  Co  Co106  1  -0.00441373  0.74498757  0.00201810  1
  Co  Co107  1  0.87291675  0.62587743  0.13321987  1
  Co  Co108  1  0.24970328  0.24994278  0.49855769  1
  Co  Co109  1  0.00490929  -0.00119267  0.25078114  1
  Co  Co110  1  -0.00298351  0.50360149  0.00421556  1
  Co  Co111  1  0.49893070  0.24564170  0.49876333  1
  Co  Co112  1  0.25011107  0.25249834  -0.00421957  1
  Co  Co113  1  0.37374065  0.12268277  0.87438631  1
  Co  Co114  1  0.12337805  0.87522527  0.62171424  1
  Co  Co115  1  0.12053454  0.87583152  0.88031207  1
  Co  Co116  1  0.88007751  0.88054218  0.12303062  1
  Co  Co117  1  0.74764623  -0.00497677  0.24725830  1
  Co  Co118  1  0.50075780  0.50614867  0.49896867  1
  Co  Co119  1  0.12741817  0.12741876  0.12571258  1
  Co  Co120  1  0.24674432  0.49685048  0.25057913  1
  Co  Co121  1  -0.00060986  0.24806179  0.50194373  1
  Co  Co122  1  0.37892817  0.37832166  0.87599914  1
  Co  Co123  1  0.87569242  0.62371825  0.87219977  1
  Co  Co124  1  0.37142070  0.62432754  0.37085477  1
  Co  Co125  1  0.75120508  0.49692759  0.74925365  1
  Co  Co126  1  0.75273219  0.24731731  0.00114624  1
  Co  Co127  1  0.62304105  0.87374410  0.12087532  1
