# generated using pymatgen
data_Fe45Co19
_symmetry_space_group_name_H-M   'P 1'
_cell_length_a   11.41648869
_cell_length_b   11.41497006
_cell_length_c   11.41579367
_cell_angle_alpha   90.00109451
_cell_angle_beta   90.00326584
_cell_angle_gamma   90.00326414
_symmetry_Int_Tables_number   1
_chemical_formula_structural   Fe45Co19
_chemical_formula_sum   'Fe90 Co38'
_cell_volume   1487.69339997
_cell_formula_units_Z   2
loop_
 _symmetry_equiv_pos_site_id
 _symmetry_equiv_pos_as_xyz
  1  'x, y, z'
loop_
 _atom_site_type_symbol
 _atom_site_label
 _atom_site_symmetry_multiplicity
 _atom_site_fract_x
 _atom_site_fract_y
 _atom_site_fract_z
 _atom_site_occupancy
  Fe  Fe0  1  0.24643705  0.25182793  0.50142515  1
  Fe  Fe1  1  -0.00370095  0.00579878  0.49955157  1
  Fe  Fe2  1  0.12458360  0.87703434  0.62307197  1
  Fe  Fe3  1  0.00162206  0.50218224  -0.00229495  1
  Fe  Fe4  1  0.74851425  0.75333482  0.74923949  1
  Fe  Fe5  1  0.62813228  0.62242361  0.37555394  1
  Fe  Fe6  1  0.74777264  0.00120781  -0.00186066  1
  Fe  Fe7  1  0.12182032  0.87500601  0.12801818  1
  Fe  Fe8  1  0.12379870  0.87607815  0.37520618  1
  Fe  Fe9  1  0.87523570  0.37210921  0.12282078  1
  Fe  Fe10  1  0.49815152  0.49977113  0.74949413  1
  Fe  Fe11  1  0.12935464  0.12329565  0.87516506  1
  Fe  Fe12  1  0.24850478  0.74793514  0.49970340  1
  Fe  Fe13  1  0.74876116  0.24847022  0.24714145  1
  Fe  Fe14  1  0.87479522  0.62740931  0.87397575  1
  Fe  Fe15  1  0.00164208  0.00268835  0.00192956  1
  Fe  Fe16  1  0.62225227  0.87791241  0.12603774  1
  Fe  Fe17  1  -0.00290297  0.50051687  0.25210595  1
  Fe  Fe18  1  0.74953608  0.75182084  0.00131101  1
  Fe  Fe19  1  0.24652175  0.74918590  0.00093609  1
  Fe  Fe20  1  0.50352469  0.24806492  0.50152941  1
  Fe  Fe21  1  0.62196018  0.87424498  0.87323042  1
  Fe  Fe22  1  0.00149937  0.74893112  0.74968112  1
  Fe  Fe23  1  0.24935710  0.25372146  0.24957422  1
  Fe  Fe24  1  0.50163718  0.25113687  0.24895341  1
  Fe  Fe25  1  0.87360817  0.12677743  0.87440230  1
  Fe  Fe26  1  0.62362748  0.37497596  0.62568900  1
  Fe  Fe27  1  0.24794676  0.25274913  0.00107589  1
  Fe  Fe28  1  0.12491508  0.62282905  0.37379014  1
  Fe  Fe29  1  0.00009446  0.24477351  0.24909199  1
  Fe  Fe30  1  0.12460504  0.87457942  0.87385021  1
  Fe  Fe31  1  0.25051635  0.25270504  0.74861267  1
  Fe  Fe32  1  0.12503352  0.37918500  0.86996901  1
  Fe  Fe33  1  0.87758045  0.87581467  0.12462302  1
  Fe  Fe34  1  0.87631137  0.37038369  0.37642068  1
  Fe  Fe35  1  0.12784511  0.12345512  0.37296548  1
  Fe  Fe36  1  0.75245704  0.49787877  0.24906230  1
  Fe  Fe37  1  0.37435683  0.37727732  0.62115830  1
  Fe  Fe38  1  0.49799150  0.00228405  -0.00307105  1
  Fe  Fe39  1  0.37694104  0.12522547  0.62503468  1
  Fe  Fe40  1  -0.00071644  0.74616662  0.49912145  1
  Fe  Fe41  1  0.25312681  -0.00037033  0.75024602  1
  Fe  Fe42  1  0.25197739  -0.00177594  0.00071676  1
  Fe  Fe43  1  0.75002976  0.49976222  0.00013703  1
  Fe  Fe44  1  0.50127775  0.74754007  0.00094160  1
  Fe  Fe45  1  0.25281001  -0.00234270  0.25151329  1
  Fe  Fe46  1  0.24962902  0.74888665  0.74787591  1
  Fe  Fe47  1  0.62297110  0.12705542  0.86776829  1
  Fe  Fe48  1  0.50211176  0.25040447  0.00248507  1
  Fe  Fe49  1  0.87662445  0.87470027  0.62516757  1
  Fe  Fe50  1  0.37604199  0.37601598  0.87852667  1
  Fe  Fe51  1  0.87604702  0.62638088  0.12531582  1
  Fe  Fe52  1  0.62609572  0.62377243  0.87317959  1
  Fe  Fe53  1  0.75473100  0.49696232  0.50204917  1
  Fe  Fe54  1  0.37394375  0.62390844  0.87641452  1
  Fe  Fe55  1  0.37737502  0.87226954  0.12761107  1
  Fe  Fe56  1  0.37487964  0.62536028  0.37411021  1
  Fe  Fe57  1  0.87725283  0.87454778  0.87575561  1
  Fe  Fe58  1  0.49906831  0.49819674  0.24883647  1
  Fe  Fe59  1  0.62809439  0.12365623  0.37845415  1
  Fe  Fe60  1  0.74967136  0.75116743  0.24899680  1
  Fe  Fe61  1  0.12587336  0.12498375  0.62635162  1
  Fe  Fe62  1  0.37353690  0.12772780  0.12538040  1
  Fe  Fe63  1  0.62098402  0.88048140  0.62565708  1
  Fe  Fe64  1  0.50212846  0.74963919  0.49888390  1
  Fe  Fe65  1  0.12349046  0.61797443  0.62711967  1
  Fe  Fe66  1  0.87721492  0.87459985  0.37426299  1
  Fe  Fe67  1  0.25435307  0.00049814  0.49788424  1
  Fe  Fe68  1  0.74569247  0.24820258  0.00155750  1
  Fe  Fe69  1  -0.00172835  0.00364585  0.74899548  1
  Fe  Fe70  1  0.37247640  0.62275720  0.12611371  1
  Fe  Fe71  1  0.62363705  0.87676888  0.37483064  1
  Fe  Fe72  1  0.37554650  0.87170274  0.87326768  1
  Fe  Fe73  1  0.37616175  0.62367409  0.62255892  1
  Fe  Fe74  1  0.62626212  0.37609998  0.37536231  1
  Fe  Fe75  1  0.62569370  0.62289577  0.12567534  1
  Fe  Fe76  1  0.62728967  0.62325453  0.62520502  1
  Fe  Fe77  1  0.37687898  0.87466744  0.62327130  1
  Fe  Fe78  1  0.12396063  0.37695817  0.12665728  1
  Fe  Fe79  1  0.12499054  0.62426291  0.12767476  1
  Fe  Fe80  1  0.75447797  0.49601161  0.74844993  1
  Fe  Fe81  1  0.88264768  0.36784085  0.62358514  1
  Fe  Fe82  1  0.37571946  0.37456091  0.37716728  1
  Fe  Fe83  1  0.62376102  0.37595967  0.87507701  1
  Fe  Fe84  1  0.00424606  0.24777823  -0.00026697  1
  Fe  Fe85  1  0.87582225  0.37208105  0.87731085  1
  Fe  Fe86  1  0.74959213  0.75227686  0.49997725  1
  Fe  Fe87  1  0.75330920  0.00203090  0.24973487  1
  Fe  Fe88  1  0.49573484  0.00193079  0.25491783  1
  Fe  Fe89  1  0.12216533  0.37692707  0.37846552  1
  Co  Co90  1  0.25458469  0.49861754  0.74900664  1
  Co  Co91  1  0.75326505  -0.00154219  0.50210021  1
  Co  Co92  1  0.87392470  0.12636897  0.12167495  1
  Co  Co93  1  0.49687672  0.00221101  0.49699142  1
  Co  Co94  1  -0.00425731  0.50264237  0.49936852  1
  Co  Co95  1  0.12980831  0.12429006  0.12599176  1
  Co  Co96  1  0.49737415  0.25311870  0.74733354  1
  Co  Co97  1  0.49645623  0.00136888  0.75172947  1
  Co  Co98  1  0.12562746  0.62399033  0.87046309  1
  Co  Co99  1  0.00445737  0.24428387  0.49836717  1
  Co  Co100  1  -0.00171737  0.00461922  0.25042886  1
  Co  Co101  1  0.62655164  0.37685451  0.12488926  1
  Co  Co102  1  0.37320125  0.12930337  0.87664823  1
  Co  Co103  1  0.75036162  0.25357454  0.74901712  1
  Co  Co104  1  0.75202906  -0.00164449  0.75020199  1
  Co  Co105  1  0.87120629  0.12940350  0.62564495  1
  Co  Co106  1  0.50222309  0.74734216  0.25018961  1
  Co  Co107  1  0.00329171  0.24678584  0.75252932  1
  Co  Co108  1  0.50161112  0.50050754  0.00133167  1
  Co  Co109  1  0.24919869  0.49970198  0.49824916  1
  Co  Co110  1  0.25071631  0.49694353  0.25169904  1
  Co  Co111  1  0.87044606  0.62596728  0.37536840  1
  Co  Co112  1  0.37463133  0.37499941  0.12288279  1
  Co  Co113  1  0.74722936  0.25202373  0.50235696  1
  Co  Co114  1  -0.00041246  0.74877659  0.25192788  1
  Co  Co115  1  0.00208027  0.74849527  -0.00008670  1
  Co  Co116  1  0.87113522  0.12840303  0.37688198  1
  Co  Co117  1  0.62607375  0.12225633  0.62670210  1
  Co  Co118  1  0.37269993  0.13118489  0.37533730  1
  Co  Co119  1  0.24599988  0.50002795  0.00066978  1
  Co  Co120  1  0.62279744  0.12102098  0.12682712  1
  Co  Co121  1  0.12157849  0.37864086  0.62541920  1
  Co  Co122  1  0.50120926  0.49986506  0.49909128  1
  Co  Co123  1  0.37478653  0.86928078  0.37640017  1
  Co  Co124  1  0.24814957  0.75087494  0.25045438  1
  Co  Co125  1  -0.00574776  0.49970404  0.75049359  1
  Co  Co126  1  0.50000980  0.74796375  0.74875663  1
  Co  Co127  1  0.87294046  0.62831477  0.62613453  1
