# generated using pymatgen
data_Fe45Co19
_symmetry_space_group_name_H-M   'P 1'
_cell_length_a   11.41482243
_cell_length_b   11.41444154
_cell_length_c   11.41654118
_cell_angle_alpha   90.00652436
_cell_angle_beta   89.99598467
_cell_angle_gamma   89.99286154
_symmetry_Int_Tables_number   1
_chemical_formula_structural   Fe45Co19
_chemical_formula_sum   'Fe90 Co38'
_cell_volume   1487.50477532
_cell_formula_units_Z   2
loop_
 _symmetry_equiv_pos_site_id
 _symmetry_equiv_pos_as_xyz
  1  'x, y, z'
loop_
 _atom_site_type_symbol
 _atom_site_label
 _atom_site_symmetry_multiplicity
 _atom_site_fract_x
 _atom_site_fract_y
 _atom_site_fract_z
 _atom_site_occupancy
  Fe  Fe0  1  0.50208085  0.25001034  -0.00011124  1
  Fe  Fe1  1  0.62353124  0.87077103  0.87353754  1
  Fe  Fe2  1  0.00051735  0.49887064  0.50090086  1
  Fe  Fe3  1  0.25243472  0.00089397  0.24722650  1
  Fe  Fe4  1  0.75281788  0.50273020  0.74831689  1
  Fe  Fe5  1  0.12822422  0.87766422  0.62728331  1
  Fe  Fe6  1  0.50181377  0.74834941  0.24803219  1
  Fe  Fe7  1  0.00085226  0.49977444  0.24937649  1
  Fe  Fe8  1  0.62570984  0.37896446  0.37536148  1
  Fe  Fe9  1  0.37538225  0.87483791  0.87566624  1
  Fe  Fe10  1  0.87189757  0.87326286  0.37598323  1
  Fe  Fe11  1  0.87335220  0.62792807  0.37633931  1
  Fe  Fe12  1  0.74804363  0.50359591  0.24872975  1
  Fe  Fe13  1  0.37072108  0.37717492  0.37551964  1
  Fe  Fe14  1  0.00084683  0.25165432  0.49972591  1
  Fe  Fe15  1  0.49969777  -0.00027985  0.00284064  1
  Fe  Fe16  1  0.87305827  0.87320343  0.12268124  1
  Fe  Fe17  1  0.37438948  0.37197343  0.12588596  1
  Fe  Fe18  1  0.62540181  0.37668441  0.62536566  1
  Fe  Fe19  1  0.50079851  0.50071131  0.00187303  1
  Fe  Fe20  1  -0.00101602  0.75569940  0.75399869  1
  Fe  Fe21  1  0.62349468  0.87205060  0.62748713  1
  Fe  Fe22  1  0.74675194  -0.00036960  0.50020796  1
  Fe  Fe23  1  0.25310623  0.00193321  0.49986953  1
  Fe  Fe24  1  0.87334856  0.37666051  0.37673589  1
  Fe  Fe25  1  0.62159836  0.62649853  0.87181263  1
  Fe  Fe26  1  0.37618461  0.62517309  0.12607956  1
  Fe  Fe27  1  0.74778941  0.00064003  0.75147174  1
  Fe  Fe28  1  0.62450834  0.87034359  0.12273652  1
  Fe  Fe29  1  0.37488994  0.62014798  0.62454880  1
  Fe  Fe30  1  0.62089173  0.12586448  0.62587146  1
  Fe  Fe31  1  0.25304797  0.74954745  0.74970627  1
  Fe  Fe32  1  0.12700573  0.87346639  0.12418140  1
  Fe  Fe33  1  -0.00025548  0.49752942  0.74835668  1
  Fe  Fe34  1  0.12650521  0.12335616  0.62766109  1
  Fe  Fe35  1  0.00028502  0.49989502  0.00145888  1
  Fe  Fe36  1  0.37721603  0.87587844  0.37291108  1
  Fe  Fe37  1  0.87481952  0.12523128  0.62527220  1
  Fe  Fe38  1  -0.00034946  0.75069830  0.24870831  1
  Fe  Fe39  1  0.87404733  0.62822021  0.12305002  1
  Fe  Fe40  1  0.25342679  0.00123698  0.00127184  1
  Fe  Fe41  1  0.50118142  0.74717817  0.50217559  1
  Fe  Fe42  1  0.74832793  0.24930673  0.49934215  1
  Fe  Fe43  1  0.25523038  0.25307269  0.75054758  1
  Fe  Fe44  1  0.74870697  0.50260602  -0.00076224  1
  Fe  Fe45  1  0.87595217  0.12507256  0.87469013  1
  Fe  Fe46  1  0.49485803  0.49462445  0.74926017  1
  Fe  Fe47  1  0.49891290  0.25283266  0.49892244  1
  Fe  Fe48  1  0.62474765  0.37535537  0.87410980  1
  Fe  Fe49  1  0.00090786  -0.00323564  -0.00404320  1
  Fe  Fe50  1  0.12484986  0.12320335  0.87202467  1
  Fe  Fe51  1  0.12643807  0.37563044  0.87596708  1
  Fe  Fe52  1  0.87476429  0.12532322  0.12340146  1
  Fe  Fe53  1  0.87366627  0.12389239  0.37617351  1
  Fe  Fe54  1  0.38071536  0.12301761  0.37040506  1
  Fe  Fe55  1  0.87481030  0.37466509  0.87527549  1
  Fe  Fe56  1  0.12592599  0.37425653  0.12638563  1
  Fe  Fe57  1  0.74633448  0.00129964  -0.00108811  1
  Fe  Fe58  1  0.37944660  0.12451325  0.62707033  1
  Fe  Fe59  1  0.12511450  0.62547729  0.87505918  1
  Fe  Fe60  1  0.12392125  0.12475158  0.12447561  1
  Fe  Fe61  1  0.37762905  0.62258941  0.37429892  1
  Fe  Fe62  1  0.12506301  0.12403028  0.37488390  1
  Fe  Fe63  1  0.00048687  0.25086264  0.25135208  1
  Fe  Fe64  1  0.25077252  0.74855420  0.49985281  1
  Fe  Fe65  1  -0.00125932  -0.00097483  0.24999760  1
  Fe  Fe66  1  0.37511401  0.62287936  0.87541249  1
  Fe  Fe67  1  0.25071023  0.74957166  0.00035748  1
  Fe  Fe68  1  0.25004039  0.74781357  0.25023888  1
  Fe  Fe69  1  -0.00031400  0.25216830  0.74900633  1
  Fe  Fe70  1  0.87665217  0.62686438  0.87564555  1
  Fe  Fe71  1  0.13110030  0.37513626  0.62190134  1
  Fe  Fe72  1  0.74605327  0.00093957  0.24991485  1
  Fe  Fe73  1  0.74849074  0.24937504  0.75090023  1
  Fe  Fe74  1  0.74936195  0.24907144  -0.00161177  1
  Fe  Fe75  1  0.74738012  0.24789904  0.25159221  1
  Fe  Fe76  1  0.62428369  0.87285067  0.37606821  1
  Fe  Fe77  1  0.24967887  0.50045611  0.00168528  1
  Fe  Fe78  1  0.74910131  0.50691331  0.50427903  1
  Fe  Fe79  1  0.38010246  0.12595061  0.87403198  1
  Fe  Fe80  1  0.37553915  0.87664404  0.62472566  1
  Fe  Fe81  1  0.12443349  0.62404592  0.37349731  1
  Fe  Fe82  1  0.00160754  0.75262102  0.49951851  1
  Fe  Fe83  1  0.87317488  0.87389576  0.62496599  1
  Fe  Fe84  1  0.24958086  0.24779599  -0.00016806  1
  Fe  Fe85  1  0.62580028  0.37505461  0.12530327  1
  Fe  Fe86  1  0.00019598  -0.00046005  0.50112499  1
  Fe  Fe87  1  0.12759764  0.87661603  0.37441583  1
  Fe  Fe88  1  0.87386597  0.37382713  0.12404869  1
  Fe  Fe89  1  0.12447483  0.62556576  0.62772853  1
  Co  Co90  1  0.12462786  0.62673656  0.12384801  1
  Co  Co91  1  0.74784330  0.74667747  -0.00260020  1
  Co  Co92  1  0.74602549  0.74613997  0.50347019  1
  Co  Co93  1  0.49967078  0.49829108  0.24832228  1
  Co  Co94  1  0.12808259  0.37553171  0.37602499  1
  Co  Co95  1  0.75135338  0.74740942  0.74935766  1
  Co  Co96  1  0.62377680  0.12789528  0.12465221  1
  Co  Co97  1  0.62087586  0.12631376  0.87403853  1
  Co  Co98  1  0.49427128  0.74997752  0.74930087  1
  Co  Co99  1  0.37856825  0.12836339  0.12713766  1
  Co  Co100  1  0.50412236  -0.00186219  0.24556801  1
  Co  Co101  1  0.37503392  0.87256776  0.12664764  1
  Co  Co102  1  0.25298474  0.24366506  0.49838025  1
  Co  Co103  1  0.24753037  0.50525808  0.49809815  1
  Co  Co104  1  0.62164205  0.12323722  0.37653363  1
  Co  Co105  1  0.25006892  0.50107520  0.24840851  1
  Co  Co106  1  0.50160927  0.49997202  0.49983763  1
  Co  Co107  1  0.37101044  0.37780539  0.61943709  1
  Co  Co108  1  0.86958144  0.87518327  0.87699932  1
  Co  Co109  1  0.13116971  0.87601596  0.87406004  1
  Co  Co110  1  0.88022715  0.62840912  0.62540346  1
  Co  Co111  1  -0.00246595  -0.00281751  0.75124245  1
  Co  Co112  1  0.00104955  0.75332330  -0.00198385  1
  Co  Co113  1  0.50025115  -0.00204193  0.50105264  1
  Co  Co114  1  0.49811635  0.25603488  0.74895527  1
  Co  Co115  1  0.74812654  0.74962348  0.24935670  1
  Co  Co116  1  0.50296873  0.25370950  0.25297800  1
  Co  Co117  1  0.62397546  0.62574646  0.12454711  1
  Co  Co118  1  0.62383325  0.62467855  0.37364483  1
  Co  Co119  1  0.62006497  0.62393415  0.63090342  1
  Co  Co120  1  0.25516771  0.00083696  0.75047399  1
  Co  Co121  1  0.37523390  0.37479092  0.88036460  1
  Co  Co122  1  0.49832866  0.74831837  -0.00033841  1
  Co  Co123  1  0.50119388  -0.00235688  0.75148775  1
  Co  Co124  1  0.24885211  0.24818898  0.25078064  1
  Co  Co125  1  0.25161922  0.49835138  0.75208515  1
  Co  Co126  1  0.00065035  0.25058399  -0.00060596  1
  Co  Co127  1  0.87255963  0.37455479  0.62383701  1
