# generated using pymatgen
data_Fe45Co19
_symmetry_space_group_name_H-M   'P 1'
_cell_length_a   11.41510491
_cell_length_b   11.41577559
_cell_length_c   11.41549678
_cell_angle_alpha   89.99910993
_cell_angle_beta   90.00341165
_cell_angle_gamma   90.01047080
_symmetry_Int_Tables_number   1
_chemical_formula_structural   Fe45Co19
_chemical_formula_sum   'Fe90 Co38'
_cell_volume   1487.57933889
_cell_formula_units_Z   2
loop_
 _symmetry_equiv_pos_site_id
 _symmetry_equiv_pos_as_xyz
  1  'x, y, z'
loop_
 _atom_site_type_symbol
 _atom_site_label
 _atom_site_symmetry_multiplicity
 _atom_site_fract_x
 _atom_site_fract_y
 _atom_site_fract_z
 _atom_site_occupancy
  Fe  Fe0  1  0.12751810  0.12754309  0.12510736  1
  Fe  Fe1  1  0.00065235  -0.00139656  0.24789290  1
  Fe  Fe2  1  0.00204504  0.50190910  0.00288477  1
  Fe  Fe3  1  0.87155198  0.62589114  0.12315267  1
  Fe  Fe4  1  0.00248531  0.25204628  0.50029712  1
  Fe  Fe5  1  0.12445792  0.62371345  0.37255599  1
  Fe  Fe6  1  0.49645691  0.74825995  0.49590274  1
  Fe  Fe7  1  0.62384729  0.37737838  0.62371133  1
  Fe  Fe8  1  0.25125488  0.74930361  0.49943427  1
  Fe  Fe9  1  0.49760237  0.24777604  0.25285939  1
  Fe  Fe10  1  0.12666653  0.62608421  0.87869917  1
  Fe  Fe11  1  0.87322814  0.12505804  0.12501910  1
  Fe  Fe12  1  0.62342518  0.62520074  0.62426636  1
  Fe  Fe13  1  0.37297852  0.37625033  0.37445876  1
  Fe  Fe14  1  0.37699840  0.37373550  0.12361840  1
  Fe  Fe15  1  0.75314184  0.50295061  0.49978272  1
  Fe  Fe16  1  0.24903810  0.25062417  0.74941974  1
  Fe  Fe17  1  0.12485358  0.87524057  0.87897539  1
  Fe  Fe18  1  0.50004466  0.75171320  0.74854352  1
  Fe  Fe19  1  0.50168686  0.74750867  0.00045674  1
  Fe  Fe20  1  0.74878014  0.25006131  -0.00174063  1
  Fe  Fe21  1  0.37549567  0.62641151  0.12593626  1
  Fe  Fe22  1  0.50116831  0.25083639  0.75070762  1
  Fe  Fe23  1  0.74904932  0.24814858  0.49844753  1
  Fe  Fe24  1  0.49667052  0.00108594  0.25065006  1
  Fe  Fe25  1  0.12471858  0.87287008  0.62570230  1
  Fe  Fe26  1  0.62452016  0.12345219  0.62610820  1
  Fe  Fe27  1  0.50182298  0.50454146  0.25342199  1
  Fe  Fe28  1  0.87712027  0.37720832  0.37499607  1
  Fe  Fe29  1  0.74911239  0.00078080  0.25114892  1
  Fe  Fe30  1  0.12571842  0.87465664  0.37446317  1
  Fe  Fe31  1  0.50159700  0.00326686  0.00015586  1
  Fe  Fe32  1  0.74941765  0.75050586  0.75158289  1
  Fe  Fe33  1  -0.00045491  0.75104266  0.24801174  1
  Fe  Fe34  1  0.87436689  0.12114485  0.87432979  1
  Fe  Fe35  1  0.87543839  0.12348958  0.37490157  1
  Fe  Fe36  1  0.37644605  0.12373045  0.62583639  1
  Fe  Fe37  1  0.25116532  -0.00201626  0.75035339  1
  Fe  Fe38  1  0.50227360  0.50117825  -0.00029621  1
  Fe  Fe39  1  0.24810008  0.49902769  0.50136488  1
  Fe  Fe40  1  0.25395493  0.75242634  0.24902210  1
  Fe  Fe41  1  0.00105822  0.25161303  0.25055532  1
  Fe  Fe42  1  0.12791403  0.87285945  0.11976499  1
  Fe  Fe43  1  0.12279582  0.12463645  0.62816632  1
  Fe  Fe44  1  -0.00133594  0.75126870  0.75321021  1
  Fe  Fe45  1  0.12481953  0.37518215  0.87679015  1
  Fe  Fe46  1  0.50033202  0.25046562  0.49812197  1
  Fe  Fe47  1  0.87441557  0.87450055  0.62405252  1
  Fe  Fe48  1  0.75159271  0.25138228  0.75158350  1
  Fe  Fe49  1  0.87290148  0.87545589  0.12286652  1
  Fe  Fe50  1  0.50030683  -0.00179247  0.50105103  1
  Fe  Fe51  1  0.62437106  0.12744419  0.12555723  1
  Fe  Fe52  1  0.24624707  0.49691458  0.24458345  1
  Fe  Fe53  1  0.37584491  0.37599421  0.87569078  1
  Fe  Fe54  1  0.24852707  0.25131996  0.50047840  1
  Fe  Fe55  1  0.74851111  0.50092725  0.24938563  1
  Fe  Fe56  1  0.62585232  0.87478090  0.37633519  1
  Fe  Fe57  1  0.12784814  0.12569026  0.37293206  1
  Fe  Fe58  1  0.25022289  -0.00129715  0.50136167  1
  Fe  Fe59  1  0.75438134  0.74716922  0.49817841  1
  Fe  Fe60  1  0.12301456  0.12262357  0.87346147  1
  Fe  Fe61  1  0.62377046  0.37428995  0.12597361  1
  Fe  Fe62  1  -0.00068500  -0.00188657  0.49918979  1
  Fe  Fe63  1  0.37543040  0.87608100  0.87705023  1
  Fe  Fe64  1  0.37624506  0.62370061  0.62535901  1
  Fe  Fe65  1  0.37627939  0.37643048  0.62619622  1
  Fe  Fe66  1  0.25444078  -0.00013863  0.24650475  1
  Fe  Fe67  1  0.62527997  0.37666407  0.37598012  1
  Fe  Fe68  1  0.00318753  0.49887150  0.24589569  1
  Fe  Fe69  1  0.74780273  -0.00209654  0.74811504  1
  Fe  Fe70  1  0.87668948  0.12434857  0.62602600  1
  Fe  Fe71  1  0.00002573  0.49953109  0.75091598  1
  Fe  Fe72  1  0.62221390  0.87317656  0.12624451  1
  Fe  Fe73  1  0.62470217  0.87587233  0.87568245  1
  Fe  Fe74  1  0.25127477  0.75040637  0.75106671  1
  Fe  Fe75  1  0.74931071  0.24982604  0.25260157  1
  Fe  Fe76  1  -0.00230150  0.24767786  -0.00231275  1
  Fe  Fe77  1  0.87472000  0.87785237  0.87971618  1
  Fe  Fe78  1  0.87416620  0.37470073  0.12258666  1
  Fe  Fe79  1  0.87737373  0.37559819  0.62556719  1
  Fe  Fe80  1  0.87150295  0.62383607  0.87811752  1
  Fe  Fe81  1  0.25050616  0.50006721  0.75070614  1
  Fe  Fe82  1  0.37629680  0.62384652  0.87476028  1
  Fe  Fe83  1  0.62485514  0.37591300  0.87500416  1
  Fe  Fe84  1  -0.00294248  0.74772681  0.49776734  1
  Fe  Fe85  1  0.74864600  0.50032432  0.75060593  1
  Fe  Fe86  1  0.37788798  0.12486352  0.87498674  1
  Fe  Fe87  1  0.25212929  0.24980459  0.00001901  1
  Fe  Fe88  1  0.74809072  0.74864048  0.25065502  1
  Fe  Fe89  1  0.12283622  0.62530282  0.62598350  1
  Co  Co90  1  -0.00220924  0.74944902  0.00059857  1
  Co  Co91  1  0.00075018  0.00052365  0.00357115  1
  Co  Co92  1  0.75082061  0.00175425  0.50023599  1
  Co  Co93  1  0.25275423  0.25132846  0.24942415  1
  Co  Co94  1  0.87715583  0.62311260  0.36929201  1
  Co  Co95  1  0.87522716  0.37826163  0.87738270  1
  Co  Co96  1  0.37446893  0.87706570  0.37577483  1
  Co  Co97  1  0.62568393  0.87200509  0.62130087  1
  Co  Co98  1  -0.00069279  0.50204455  0.50068872  1
  Co  Co99  1  0.74710392  0.75070091  -0.00007377  1
  Co  Co100  1  0.87389506  0.87585883  0.37327027  1
  Co  Co101  1  0.62579015  0.12465028  0.87266199  1
  Co  Co102  1  0.62508747  0.62670639  0.12529554  1
  Co  Co103  1  -0.00135851  0.25165693  0.75167662  1
  Co  Co104  1  0.62531924  0.62494598  0.87316471  1
  Co  Co105  1  0.49873479  0.74771217  0.25425507  1
  Co  Co106  1  0.12784035  0.63045616  0.12392397  1
  Co  Co107  1  0.74504647  0.49922309  0.00096599  1
  Co  Co108  1  -0.00049437  -0.00374249  0.74917384  1
  Co  Co109  1  0.74677695  0.00082688  0.00244156  1
  Co  Co110  1  0.37286728  0.12398701  0.37737251  1
  Co  Co111  1  0.62375717  0.12317869  0.37484260  1
  Co  Co112  1  0.87582183  0.62532103  0.62982845  1
  Co  Co113  1  0.37839593  0.87383297  0.12196850  1
  Co  Co114  1  0.50273776  0.25067477  -0.00161309  1
  Co  Co115  1  0.50067739  0.49938525  0.75061552  1
  Co  Co116  1  0.50035551  -0.00261213  0.74944410  1
  Co  Co117  1  0.12480786  0.37611437  0.37445230  1
  Co  Co118  1  0.37376980  0.87439175  0.62464575  1
  Co  Co119  1  0.25088771  0.00155847  0.00015289  1
  Co  Co120  1  0.12345199  0.37656616  0.62791093  1
  Co  Co121  1  0.62716271  0.62577657  0.37786227  1
  Co  Co122  1  0.36885283  0.62215177  0.37286999  1
  Co  Co123  1  0.37615814  0.12730469  0.12234074  1
  Co  Co124  1  0.49825879  0.50062496  0.49718311  1
  Co  Co125  1  0.25083621  0.50040056  0.00269330  1
  Co  Co126  1  0.12390675  0.36919623  0.12035314  1
  Co  Co127  1  0.25382231  0.74859680  -0.00118151  1
