# generated using pymatgen
data_Fe45Co19
_symmetry_space_group_name_H-M   'P 1'
_cell_length_a   11.41458770
_cell_length_b   11.41533778
_cell_length_c   11.41463644
_cell_angle_alpha   89.99536431
_cell_angle_beta   90.01155510
_cell_angle_gamma   89.99979196
_symmetry_Int_Tables_number   1
_chemical_formula_structural   Fe45Co19
_chemical_formula_sum   'Fe90 Co38'
_cell_volume   1487.34277824
_cell_formula_units_Z   2
loop_
 _symmetry_equiv_pos_site_id
 _symmetry_equiv_pos_as_xyz
  1  'x, y, z'
loop_
 _atom_site_type_symbol
 _atom_site_label
 _atom_site_symmetry_multiplicity
 _atom_site_fract_x
 _atom_site_fract_y
 _atom_site_fract_z
 _atom_site_occupancy
  Fe  Fe0  1  0.49601854  0.00028789  0.74524766  1
  Fe  Fe1  1  0.12387442  0.87217390  0.87346687  1
  Fe  Fe2  1  0.24909367  0.74881625  -0.00062401  1
  Fe  Fe3  1  0.87536023  0.12492429  0.62314824  1
  Fe  Fe4  1  0.49775211  -0.00138075  0.25110756  1
  Fe  Fe5  1  0.37589371  0.37360216  0.87406647  1
  Fe  Fe6  1  0.37654247  0.62515170  0.87585138  1
  Fe  Fe7  1  0.62353911  0.37433357  0.87149710  1
  Fe  Fe8  1  0.62147052  0.12585254  0.62294226  1
  Fe  Fe9  1  0.12580386  0.87205451  0.62287981  1
  Fe  Fe10  1  0.62470461  0.62546662  0.62699068  1
  Fe  Fe11  1  0.37543577  0.62327846  0.62249250  1
  Fe  Fe12  1  0.74971646  0.00055934  0.74871393  1
  Fe  Fe13  1  0.74705773  -0.00056257  0.49968327  1
  Fe  Fe14  1  0.75613671  0.74755418  0.50523179  1
  Fe  Fe15  1  0.62268224  0.62811016  0.87275521  1
  Fe  Fe16  1  0.74902551  0.24826050  0.74934054  1
  Fe  Fe17  1  0.74959106  0.74556038  0.24929249  1
  Fe  Fe18  1  -0.00072000  0.50139598  0.25002638  1
  Fe  Fe19  1  0.12377952  0.62378237  0.62440520  1
  Fe  Fe20  1  0.49956489  0.74823979  0.25003368  1
  Fe  Fe21  1  0.25057552  0.49957874  0.75105018  1
  Fe  Fe22  1  0.62544079  0.87183135  0.62832712  1
  Fe  Fe23  1  0.12902920  0.12743396  0.62489487  1
  Fe  Fe24  1  0.00258622  0.25349470  0.49983502  1
  Fe  Fe25  1  0.12611530  0.37412230  0.87591174  1
  Fe  Fe26  1  0.37666493  0.37080745  0.62714810  1
  Fe  Fe27  1  0.62372515  0.12212482  0.87537134  1
  Fe  Fe28  1  0.75025595  0.50217743  0.75218809  1
  Fe  Fe29  1  0.37450405  0.37749178  0.12589490  1
  Fe  Fe30  1  0.25075198  0.74826159  0.25244140  1
  Fe  Fe31  1  0.24905499  -0.00148324  -0.00139411  1
  Fe  Fe32  1  0.74688140  0.75495314  -0.00208962  1
  Fe  Fe33  1  0.37557730  0.87501390  0.87349656  1
  Fe  Fe34  1  0.87378484  0.37653334  0.62639694  1
  Fe  Fe35  1  0.25175860  -0.00098356  0.50205465  1
  Fe  Fe36  1  0.12670075  0.12455907  0.12501206  1
  Fe  Fe37  1  -0.00111681  0.24880065  0.25107548  1
  Fe  Fe38  1  0.87713404  0.62548929  0.87860274  1
  Fe  Fe39  1  0.24949117  0.50305728  0.25154301  1
  Fe  Fe40  1  0.25276941  0.74908945  0.74780217  1
  Fe  Fe41  1  0.25265830  0.24848061  0.25150999  1
  Fe  Fe42  1  0.74885859  0.24943916  0.00008998  1
  Fe  Fe43  1  -0.00027908  0.49875395  0.75432101  1
  Fe  Fe44  1  -0.00484562  0.74918488  0.74625457  1
  Fe  Fe45  1  0.00108932  -0.00130010  0.25153231  1
  Fe  Fe46  1  0.50433584  0.49589447  0.49940576  1
  Fe  Fe47  1  0.50133538  -0.00394147  0.00154093  1
  Fe  Fe48  1  0.37267163  0.87441509  0.37557585  1
  Fe  Fe49  1  0.74778896  0.49976793  0.49636781  1
  Fe  Fe50  1  0.87537051  0.12200839  0.12157582  1
  Fe  Fe51  1  0.62611184  0.37362966  0.12989437  1
  Fe  Fe52  1  0.00159554  -0.00198275  0.50027425  1
  Fe  Fe53  1  0.87556345  0.12537010  0.37865391  1
  Fe  Fe54  1  0.62613704  0.87144677  0.37511379  1
  Fe  Fe55  1  0.12641513  0.37433515  0.12601539  1
  Fe  Fe56  1  0.87547240  0.87840783  0.87510183  1
  Fe  Fe57  1  0.00051086  0.75174264  0.25067197  1
  Fe  Fe58  1  -0.00062051  0.49916570  0.49735010  1
  Fe  Fe59  1  0.50469245  0.50443504  0.25144145  1
  Fe  Fe60  1  0.87536083  0.87399058  0.37743594  1
  Fe  Fe61  1  0.87186958  0.37565958  0.37167288  1
  Fe  Fe62  1  0.37387815  0.12278972  0.12334344  1
  Fe  Fe63  1  0.12819265  0.87659083  0.12638409  1
  Fe  Fe64  1  0.62452690  0.12346930  0.12662335  1
  Fe  Fe65  1  0.37277665  0.12570613  0.87207682  1
  Fe  Fe66  1  -0.00045862  0.25140237  -0.00003622  1
  Fe  Fe67  1  0.74647011  0.25258941  0.49993773  1
  Fe  Fe68  1  0.50232428  0.75425748  0.00087530  1
  Fe  Fe69  1  0.62176828  0.12797834  0.37428913  1
  Fe  Fe70  1  0.87271181  0.37725918  0.12630948  1
  Fe  Fe71  1  0.24903535  0.49692078  0.49917330  1
  Fe  Fe72  1  0.37665824  0.37542912  0.37319909  1
  Fe  Fe73  1  0.49689596  0.75100551  0.50180835  1
  Fe  Fe74  1  0.87508676  0.12351287  0.87638684  1
  Fe  Fe75  1  0.49955963  0.25019899  0.00072749  1
  Fe  Fe76  1  0.12358962  0.62729054  0.37796037  1
  Fe  Fe77  1  0.00067086  0.25114357  0.74913534  1
  Fe  Fe78  1  0.74829077  0.49884930  -0.00080728  1
  Fe  Fe79  1  0.37659627  0.62565022  0.12393722  1
  Fe  Fe80  1  0.87510509  0.62411945  0.12162251  1
  Fe  Fe81  1  0.12730694  0.12646625  0.87493719  1
  Fe  Fe82  1  0.00242119  0.00131581  0.74899298  1
  Fe  Fe83  1  0.12675468  0.12492780  0.37571477  1
  Fe  Fe84  1  0.37738655  0.12691181  0.38160544  1
  Fe  Fe85  1  0.12313026  0.62520678  0.12281236  1
  Fe  Fe86  1  0.75094868  0.00194278  0.25198395  1
  Fe  Fe87  1  0.24795080  0.50174251  -0.00124603  1
  Fe  Fe88  1  0.50134314  0.49908249  -0.00057977  1
  Fe  Fe89  1  0.87380935  0.87714912  0.12334020  1
  Co  Co90  1  0.25189160  0.25081375  0.00112354  1
  Co  Co91  1  0.75372737  0.24509242  0.24903314  1
  Co  Co92  1  0.87460778  0.88144155  0.62488817  1
  Co  Co93  1  0.37630824  0.62241478  0.37716010  1
  Co  Co94  1  0.37378478  0.87574547  0.62400752  1
  Co  Co95  1  0.62585896  0.87615909  0.12984701  1
  Co  Co96  1  0.87638235  0.61729255  0.62563871  1
  Co  Co97  1  0.00049167  0.75202981  0.00171786  1
  Co  Co98  1  0.75577713  0.74880808  0.74958050  1
  Co  Co99  1  0.87674546  0.62590857  0.37422829  1
  Co  Co100  1  0.37247201  0.87350555  0.12582695  1
  Co  Co101  1  0.24972326  -0.00245623  0.74884144  1
  Co  Co102  1  0.12655492  0.87372391  0.37768715  1
  Co  Co103  1  0.74642838  -0.00250643  -0.00028626  1
  Co  Co104  1  0.49842304  0.50137811  0.74954722  1
  Co  Co105  1  0.62461868  0.62932678  0.38007251  1
  Co  Co106  1  0.62646367  0.37133537  0.36770967  1
  Co  Co107  1  0.62311582  0.87528532  0.86795867  1
  Co  Co108  1  0.74672355  0.50631491  0.25142248  1
  Co  Co109  1  0.87334808  0.37333902  0.87398649  1
  Co  Co110  1  0.24798947  0.25468986  0.49887228  1
  Co  Co111  1  0.49555495  0.74856809  0.74798889  1
  Co  Co112  1  0.12249893  0.37802643  0.62607345  1
  Co  Co113  1  0.25197546  0.74836269  0.49996435  1
  Co  Co114  1  0.00364675  -0.00077525  -0.00026147  1
  Co  Co115  1  0.00186724  0.49765826  -0.00130037  1
  Co  Co116  1  0.37344585  0.12950907  0.62282368  1
  Co  Co117  1  0.50118769  -0.00362967  0.50092429  1
  Co  Co118  1  0.12514740  0.37574269  0.37081198  1
  Co  Co119  1  0.62414890  0.62627956  0.12090634  1
  Co  Co120  1  -0.00394700  0.74968071  0.50327854  1
  Co  Co121  1  0.25201472  0.00218749  0.25235993  1
  Co  Co122  1  0.24867571  0.25275487  0.74887841  1
  Co  Co123  1  0.50157904  0.24792221  0.74984991  1
  Co  Co124  1  0.50407079  0.25543443  0.50139741  1
  Co  Co125  1  0.12329358  0.62732502  0.87259176  1
  Co  Co126  1  0.62726048  0.37735015  0.63043228  1
  Co  Co127  1  0.49531256  0.24833467  0.24799820  1
