# generated using pymatgen
data_Fe45Co19
_symmetry_space_group_name_H-M   'P 1'
_cell_length_a   11.41590021
_cell_length_b   11.41458117
_cell_length_c   11.41412431
_cell_angle_alpha   90.00550013
_cell_angle_beta   89.99514545
_cell_angle_gamma   90.00336512
_symmetry_Int_Tables_number   1
_chemical_formula_structural   Fe45Co19
_chemical_formula_sum   'Fe90 Co38'
_cell_volume   1487.34849595
_cell_formula_units_Z   2
loop_
 _symmetry_equiv_pos_site_id
 _symmetry_equiv_pos_as_xyz
  1  'x, y, z'
loop_
 _atom_site_type_symbol
 _atom_site_label
 _atom_site_symmetry_multiplicity
 _atom_site_fract_x
 _atom_site_fract_y
 _atom_site_fract_z
 _atom_site_occupancy
  Fe  Fe0  1  0.75004474  0.50171420  0.24984482  1
  Fe  Fe1  1  0.74857733  0.24990834  0.75003334  1
  Fe  Fe2  1  0.49874123  -0.00510569  -0.00128175  1
  Fe  Fe3  1  0.62468988  0.12738355  0.37407454  1
  Fe  Fe4  1  0.87596938  0.37616253  0.37309954  1
  Fe  Fe5  1  0.12739939  0.37277858  0.87694551  1
  Fe  Fe6  1  0.62660774  0.87346827  0.37465708  1
  Fe  Fe7  1  -0.00255385  0.75044113  0.50159637  1
  Fe  Fe8  1  0.25120261  0.75050842  0.24839307  1
  Fe  Fe9  1  0.49878715  0.24915728  0.49980714  1
  Fe  Fe10  1  0.74724293  0.00204131  0.24705396  1
  Fe  Fe11  1  0.00351035  0.00098976  0.24540923  1
  Fe  Fe12  1  0.25057642  0.75120819  0.50237604  1
  Fe  Fe13  1  0.49903984  0.74881890  0.50151872  1
  Fe  Fe14  1  0.37454709  0.12574365  0.62575455  1
  Fe  Fe15  1  0.25087590  0.24984021  0.49990073  1
  Fe  Fe16  1  0.74661866  0.50031722  0.75182777  1
  Fe  Fe17  1  0.24988972  -0.00066058  0.75094452  1
  Fe  Fe18  1  0.12642086  0.62631736  0.87475317  1
  Fe  Fe19  1  0.49892527  0.25165872  0.75278661  1
  Fe  Fe20  1  -0.00104650  0.24871474  0.50038637  1
  Fe  Fe21  1  0.25221667  0.75326266  0.00224521  1
  Fe  Fe22  1  0.24869216  0.50048231  0.24848958  1
  Fe  Fe23  1  0.37677462  0.62350612  0.12251706  1
  Fe  Fe24  1  -0.00105407  0.50134289  0.50084148  1
  Fe  Fe25  1  -0.00214525  0.75029682  0.25074679  1
  Fe  Fe26  1  0.62183481  0.62463487  0.87651797  1
  Fe  Fe27  1  0.12600711  0.37331217  0.62686520  1
  Fe  Fe28  1  0.12460023  0.62624614  0.12524566  1
  Fe  Fe29  1  0.25107254  0.49948750  0.74947889  1
  Fe  Fe30  1  0.87713557  0.62393016  0.87358778  1
  Fe  Fe31  1  0.62688588  0.62616459  0.37487193  1
  Fe  Fe32  1  0.37547326  0.62617461  0.87655314  1
  Fe  Fe33  1  0.62420357  0.37434520  0.37484725  1
  Fe  Fe34  1  0.74882070  0.74979055  -0.00096734  1
  Fe  Fe35  1  0.00139257  0.24937182  0.24757593  1
  Fe  Fe36  1  0.87300610  0.37507162  0.87495839  1
  Fe  Fe37  1  0.62570724  0.12376785  0.62659398  1
  Fe  Fe38  1  0.00061151  0.75050346  -0.00005774  1
  Fe  Fe39  1  0.62409606  0.12582154  0.87761291  1
  Fe  Fe40  1  0.75029141  0.50170260  0.50029773  1
  Fe  Fe41  1  0.87392010  0.12248112  0.62688662  1
  Fe  Fe42  1  0.00074854  0.24968713  0.75230512  1
  Fe  Fe43  1  -0.00090099  -0.00040769  0.49995113  1
  Fe  Fe44  1  -0.00132958  0.75275350  0.74803767  1
  Fe  Fe45  1  0.12485396  0.12495534  0.62651570  1
  Fe  Fe46  1  0.49687914  0.25401333  0.00029338  1
  Fe  Fe47  1  0.75045596  0.75017695  0.75034565  1
  Fe  Fe48  1  0.49940150  -0.00153101  0.75159110  1
  Fe  Fe49  1  0.12593255  0.12637569  0.88202608  1
  Fe  Fe50  1  0.12631115  0.87475437  0.37375192  1
  Fe  Fe51  1  0.62593105  0.37540265  0.12213289  1
  Fe  Fe52  1  0.50098872  0.74944627  0.24864525  1
  Fe  Fe53  1  0.37418194  0.62490350  0.37483917  1
  Fe  Fe54  1  0.87596546  0.37718527  0.62751468  1
  Fe  Fe55  1  0.37283290  0.37771387  0.87531977  1
  Fe  Fe56  1  0.12424069  0.62482041  0.62639097  1
  Fe  Fe57  1  0.62471517  0.87544746  0.12219840  1
  Fe  Fe58  1  -0.00081365  -0.00109649  0.75365332  1
  Fe  Fe59  1  0.25243313  0.49943631  0.50178054  1
  Fe  Fe60  1  0.12469580  0.37495135  0.37320702  1
  Fe  Fe61  1  0.74945129  0.24752509  0.24697570  1
  Fe  Fe62  1  0.37255742  0.12223396  0.87884600  1
  Fe  Fe63  1  0.62717447  0.87602705  0.62544994  1
  Fe  Fe64  1  0.25131116  0.75275877  0.74679908  1
  Fe  Fe65  1  0.75301419  0.74734316  0.50249643  1
  Fe  Fe66  1  0.49954280  0.75127956  0.74953621  1
  Fe  Fe67  1  0.37504851  0.37490431  0.37360668  1
  Fe  Fe68  1  0.12520990  0.87470144  0.87656411  1
  Fe  Fe69  1  0.25013762  -0.00069393  0.50142765  1
  Fe  Fe70  1  0.12852282  0.37177941  0.12356330  1
  Fe  Fe71  1  0.75056785  0.24943487  0.50111712  1
  Fe  Fe72  1  0.87534241  0.62408933  0.12525506  1
  Fe  Fe73  1  0.87384204  0.37623302  0.12468881  1
  Fe  Fe74  1  0.75103382  -0.00134144  0.75599911  1
  Fe  Fe75  1  0.50138193  0.00045798  0.49956146  1
  Fe  Fe76  1  0.75220603  0.24554012  0.00124237  1
  Fe  Fe77  1  0.62428459  0.62410851  0.12266699  1
  Fe  Fe78  1  0.49949295  0.00212612  0.24963905  1
  Fe  Fe79  1  0.49621962  0.24845599  0.24675007  1
  Fe  Fe80  1  0.24942744  0.00302959  0.24371835  1
  Fe  Fe81  1  0.87225030  0.87633628  0.37411341  1
  Fe  Fe82  1  0.12652529  0.12547709  0.37359811  1
  Fe  Fe83  1  0.50116528  0.50014235  0.24937396  1
  Fe  Fe84  1  0.37455525  0.87654210  0.37369150  1
  Fe  Fe85  1  0.87413222  0.87690764  0.12186754  1
  Fe  Fe86  1  0.00146325  0.49877029  -0.00030919  1
  Fe  Fe87  1  0.12297984  0.62475008  0.37421295  1
  Fe  Fe88  1  0.87447720  0.12485620  0.37244977  1
  Fe  Fe89  1  0.62013704  0.37827232  0.62530994  1
  Co  Co90  1  0.62823687  0.37308900  0.87820803  1
  Co  Co91  1  0.37654252  0.62369669  0.62655930  1
  Co  Co92  1  0.24815226  0.50151562  -0.00013754  1
  Co  Co93  1  0.37317374  0.37804670  0.12602859  1
  Co  Co94  1  0.12596560  0.12986474  0.11807283  1
  Co  Co95  1  0.37351856  0.87351885  0.87390313  1
  Co  Co96  1  0.87568479  0.62372153  0.37242868  1
  Co  Co97  1  0.87654151  0.62233599  0.62984308  1
  Co  Co98  1  0.37693612  0.37395779  0.62576565  1
  Co  Co99  1  0.62072907  0.12501007  0.12057393  1
  Co  Co100  1  0.25225080  0.24708363  0.24939548  1
  Co  Co101  1  0.87582715  0.87282141  0.87819349  1
  Co  Co102  1  0.75027026  0.00205914  -0.00196260  1
  Co  Co103  1  0.25084799  0.24813946  0.75188648  1
  Co  Co104  1  0.62278778  0.62294957  0.62641566  1
  Co  Co105  1  0.49913051  0.49847178  0.75497646  1
  Co  Co106  1  0.62501711  0.87418774  0.87568095  1
  Co  Co107  1  0.49851848  0.50211651  0.49719371  1
  Co  Co108  1  0.24880687  -0.00596385  0.00347609  1
  Co  Co109  1  0.37557773  0.12330694  0.12025658  1
  Co  Co110  1  0.37608250  0.87684745  0.62490383  1
  Co  Co111  1  0.00152752  0.49948799  0.24652934  1
  Co  Co112  1  0.74843216  0.00222457  0.49757061  1
  Co  Co113  1  0.75073401  0.50261502  -0.00137786  1
  Co  Co114  1  0.25513796  0.25159182  -0.00000272  1
  Co  Co115  1  0.00383705  0.49754481  0.75345335  1
  Co  Co116  1  0.00113322  -0.00116576  0.00025330  1
  Co  Co117  1  0.37408108  0.12356639  0.37567155  1
  Co  Co118  1  0.50013242  0.49782167  -0.00132244  1
  Co  Co119  1  0.87788349  0.12273311  0.12478412  1
  Co  Co120  1  0.37759050  0.87469526  0.12736538  1
  Co  Co121  1  0.87289577  0.87814047  0.62567225  1
  Co  Co122  1  0.75012026  0.75046590  0.24719567  1
  Co  Co123  1  0.12386560  0.87642117  0.62530884  1
  Co  Co124  1  0.12329970  0.87157311  0.12544707  1
  Co  Co125  1  0.87615033  0.12610463  0.87531678  1
  Co  Co126  1  0.49957570  0.75172783  0.00020340  1
  Co  Co127  1  -0.00358192  0.25353709  -0.00003148  1
