# generated using pymatgen
data_Fe45Co19
_symmetry_space_group_name_H-M   'P 1'
_cell_length_a   11.41412652
_cell_length_b   11.41464009
_cell_length_c   11.41533751
_cell_angle_alpha   90.00077840
_cell_angle_beta   89.99174277
_cell_angle_gamma   89.99125949
_symmetry_Int_Tables_number   1
_chemical_formula_structural   Fe45Co19
_chemical_formula_sum   'Fe90 Co38'
_cell_volume   1487.28312910
_cell_formula_units_Z   2
loop_
 _symmetry_equiv_pos_site_id
 _symmetry_equiv_pos_as_xyz
  1  'x, y, z'
loop_
 _atom_site_type_symbol
 _atom_site_label
 _atom_site_symmetry_multiplicity
 _atom_site_fract_x
 _atom_site_fract_y
 _atom_site_fract_z
 _atom_site_occupancy
  Fe  Fe0  1  0.50400728  -0.00245415  0.74395313  1
  Fe  Fe1  1  0.86906292  0.87149051  0.62401498  1
  Fe  Fe2  1  0.50301983  0.25048426  0.74936072  1
  Fe  Fe3  1  -0.00054198  -0.00175143  0.25037817  1
  Fe  Fe4  1  -0.00055053  0.24985590  -0.00262796  1
  Fe  Fe5  1  0.50002008  0.75369731  0.74943259  1
  Fe  Fe6  1  0.25004358  0.24988860  0.25221182  1
  Fe  Fe7  1  0.37814244  0.62655313  0.12249970  1
  Fe  Fe8  1  0.75280727  0.49576404  0.74717275  1
  Fe  Fe9  1  0.74846658  0.74906155  -0.00280640  1
  Fe  Fe10  1  -0.00140777  0.00002367  0.74664774  1
  Fe  Fe11  1  0.00054078  0.50282955  0.50371053  1
  Fe  Fe12  1  0.87362391  0.87480855  0.37897366  1
  Fe  Fe13  1  0.74842734  0.00312119  0.00088365  1
  Fe  Fe14  1  0.37777559  0.87451165  0.12153822  1
  Fe  Fe15  1  0.12353202  0.37631760  0.37579408  1
  Fe  Fe16  1  0.25168357  0.74673819  0.50149489  1
  Fe  Fe17  1  0.25124306  0.24970837  -0.00346945  1
  Fe  Fe18  1  0.62618107  0.12114821  0.37362946  1
  Fe  Fe19  1  0.37746760  0.87578441  0.37845718  1
  Fe  Fe20  1  0.62394793  0.37629801  0.37625808  1
  Fe  Fe21  1  0.87378033  0.12314189  0.37345813  1
  Fe  Fe22  1  0.12353811  0.87488129  0.12331353  1
  Fe  Fe23  1  0.12545749  0.62531160  0.62861711  1
  Fe  Fe24  1  0.62513000  0.37479391  0.62065238  1
  Fe  Fe25  1  0.62391834  0.87367760  0.12510430  1
  Fe  Fe26  1  0.75029176  0.75142600  0.25147826  1
  Fe  Fe27  1  0.24959233  0.24997612  0.50011574  1
  Fe  Fe28  1  0.25033289  -0.00173982  0.24993062  1
  Fe  Fe29  1  0.62428795  0.37299128  0.12679533  1
  Fe  Fe30  1  0.25324771  0.75381418  0.75169803  1
  Fe  Fe31  1  0.37477165  0.12263381  0.62411235  1
  Fe  Fe32  1  0.62418090  0.87892066  0.87604256  1
  Fe  Fe33  1  0.37875210  0.12120096  0.87269791  1
  Fe  Fe34  1  0.25211788  0.75032121  0.25064057  1
  Fe  Fe35  1  0.25205613  0.75158833  -0.00353713  1
  Fe  Fe36  1  0.25016971  0.00209697  0.50084882  1
  Fe  Fe37  1  0.75069940  0.49960503  0.25064310  1
  Fe  Fe38  1  0.49743742  0.50362995  0.50111603  1
  Fe  Fe39  1  0.00000275  0.74925090  -0.00175886  1
  Fe  Fe40  1  0.87777653  0.62708808  0.37379896  1
  Fe  Fe41  1  0.37573535  0.12555568  0.12715062  1
  Fe  Fe42  1  -0.00080409  0.50040487  0.24754228  1
  Fe  Fe43  1  0.12470556  0.62556999  0.37435859  1
  Fe  Fe44  1  0.50009570  0.75077189  0.50221215  1
  Fe  Fe45  1  0.25167347  0.49811638  -0.00235234  1
  Fe  Fe46  1  0.49945129  0.24580076  0.49771559  1
  Fe  Fe47  1  0.25167710  0.00094774  -0.00091503  1
  Fe  Fe48  1  0.25166807  0.49750980  0.75037259  1
  Fe  Fe49  1  0.00076692  0.24622044  0.50106891  1
  Fe  Fe50  1  -0.00122330  0.49951701  -0.00060160  1
  Fe  Fe51  1  -0.00235631  0.00252237  -0.00130140  1
  Fe  Fe52  1  0.87651056  0.37513549  0.37676952  1
  Fe  Fe53  1  0.87417581  0.37181101  0.12546432  1
  Fe  Fe54  1  0.50019375  0.49724106  0.74990278  1
  Fe  Fe55  1  0.62553528  0.62665309  0.62704060  1
  Fe  Fe56  1  0.74850428  0.24898132  0.49856085  1
  Fe  Fe57  1  0.12321025  0.62374199  0.87242328  1
  Fe  Fe58  1  0.75107333  0.49994037  0.00182218  1
  Fe  Fe59  1  0.87389055  0.87553461  0.87393536  1
  Fe  Fe60  1  0.50186023  0.24804270  -0.00178129  1
  Fe  Fe61  1  0.87370024  0.12710391  0.12831867  1
  Fe  Fe62  1  0.12425163  0.62709315  0.12518246  1
  Fe  Fe63  1  0.12491616  0.37325559  0.12404485  1
  Fe  Fe64  1  0.37472864  0.37660768  0.37667260  1
  Fe  Fe65  1  0.12646887  0.87685372  0.62443851  1
  Fe  Fe66  1  0.25011271  0.24920200  0.75066677  1
  Fe  Fe67  1  0.62237388  0.62684964  0.37356541  1
  Fe  Fe68  1  0.37815275  0.62400216  0.87449903  1
  Fe  Fe69  1  0.12294357  0.87486619  0.37767821  1
  Fe  Fe70  1  0.87569521  0.62498895  0.87278786  1
  Fe  Fe71  1  0.62461678  0.62203013  0.87432833  1
  Fe  Fe72  1  0.62593650  0.12662438  0.12937246  1
  Fe  Fe73  1  0.12436467  0.12286035  0.37512543  1
  Fe  Fe74  1  0.87422497  0.62950141  0.62773036  1
  Fe  Fe75  1  0.37583872  0.37514996  0.62409470  1
  Fe  Fe76  1  0.62375589  0.62653686  0.12527637  1
  Fe  Fe77  1  0.86883221  0.12812588  0.87109231  1
  Fe  Fe78  1  0.12247049  0.37374885  0.62746281  1
  Fe  Fe79  1  0.62730984  0.37430313  0.87669996  1
  Fe  Fe80  1  0.12428864  0.12420692  0.87194080  1
  Fe  Fe81  1  0.87530863  0.87327116  0.12345305  1
  Fe  Fe82  1  0.37681334  0.37285740  0.12444661  1
  Fe  Fe83  1  0.49842342  0.50043757  0.24950970  1
  Fe  Fe84  1  0.49985544  -0.00126732  0.25155357  1
  Fe  Fe85  1  0.75109192  0.50340024  0.50053932  1
  Fe  Fe86  1  0.12461628  0.12495855  0.12542668  1
  Fe  Fe87  1  0.12437354  0.87781802  0.87497620  1
  Fe  Fe88  1  0.87033691  0.12712262  0.62692127  1
  Fe  Fe89  1  0.25172539  0.50102708  0.25024375  1
  Co  Co90  1  0.12667470  0.12446809  0.62603278  1
  Co  Co91  1  0.49827973  0.75168092  0.25122573  1
  Co  Co92  1  0.12385090  0.37537258  0.87350905  1
  Co  Co93  1  0.74822502  -0.00205038  0.74851911  1
  Co  Co94  1  0.62559062  0.87581325  0.37732309  1
  Co  Co95  1  0.75055099  -0.00283126  0.24874463  1
  Co  Co96  1  0.37527121  0.62463607  0.37687284  1
  Co  Co97  1  0.87411119  0.62798902  0.12504470  1
  Co  Co98  1  0.49956389  0.24939472  0.25410422  1
  Co  Co99  1  -0.00025560  0.75249489  0.25035009  1
  Co  Co100  1  0.00112224  0.75392807  0.74937888  1
  Co  Co101  1  -0.00136437  0.24937596  0.75061273  1
  Co  Co102  1  0.37347157  0.12235119  0.37559377  1
  Co  Co103  1  0.62708298  0.12696187  0.62577928  1
  Co  Co104  1  0.50283417  0.00347214  0.00253659  1
  Co  Co105  1  0.74850272  0.74536146  0.49701020  1
  Co  Co106  1  0.74928715  0.25242569  0.25361760  1
  Co  Co107  1  -0.00419219  0.49758028  0.74876605  1
  Co  Co108  1  0.50178234  0.74956713  -0.00386531  1
  Co  Co109  1  0.24864999  0.50010059  0.50238244  1
  Co  Co110  1  0.63084095  0.87131103  0.62143239  1
  Co  Co111  1  0.50065106  0.49807519  0.00015578  1
  Co  Co112  1  0.62671708  0.12406008  0.87103793  1
  Co  Co113  1  0.87298611  0.37320309  0.87663613  1
  Co  Co114  1  0.00066296  0.74992681  0.50266066  1
  Co  Co115  1  0.37835470  0.87996029  0.87612100  1
  Co  Co116  1  0.37277374  0.87746506  0.62241725  1
  Co  Co117  1  0.74670754  0.75049192  0.75432958  1
  Co  Co118  1  0.74744252  0.24756092  0.00113380  1
  Co  Co119  1  0.74857145  0.00217230  0.50212484  1
  Co  Co120  1  0.00093681  0.24925352  0.25134205  1
  Co  Co121  1  0.37682966  0.37375582  0.87424893  1
  Co  Co122  1  0.87564744  0.37213705  0.62047252  1
  Co  Co123  1  0.50351018  0.00038225  0.50235593  1
  Co  Co124  1  -0.00273727  0.00035954  0.50372391  1
  Co  Co125  1  0.24968487  -0.00074318  0.75070207  1
  Co  Co126  1  0.37554270  0.62446175  0.62776120  1
  Co  Co127  1  0.74693323  0.25603048  0.74709429  1
