# generated using pymatgen
data_Fe45Co19
_symmetry_space_group_name_H-M   'P 1'
_cell_length_a   11.41407384
_cell_length_b   11.41537163
_cell_length_c   11.41519456
_cell_angle_alpha   90.00350171
_cell_angle_beta   89.99827771
_cell_angle_gamma   90.00109538
_symmetry_Int_Tables_number   1
_chemical_formula_structural   Fe45Co19
_chemical_formula_sum   'Fe90 Co38'
_cell_volume   1487.35298538
_cell_formula_units_Z   2
loop_
 _symmetry_equiv_pos_site_id
 _symmetry_equiv_pos_as_xyz
  1  'x, y, z'
loop_
 _atom_site_type_symbol
 _atom_site_label
 _atom_site_symmetry_multiplicity
 _atom_site_fract_x
 _atom_site_fract_y
 _atom_site_fract_z
 _atom_site_occupancy
  Fe  Fe0  1  0.00175728  0.50112640  0.50039833  1
  Fe  Fe1  1  0.62538034  0.87499129  0.37335611  1
  Fe  Fe2  1  0.00042327  0.00081485  0.00142077  1
  Fe  Fe3  1  -0.00260031  0.24973078  0.24952769  1
  Fe  Fe4  1  0.00446880  0.74807493  -0.00421508  1
  Fe  Fe5  1  0.38057787  0.87444087  0.12072140  1
  Fe  Fe6  1  0.49992981  0.74835621  0.24991860  1
  Fe  Fe7  1  0.62698165  0.36953999  0.12535542  1
  Fe  Fe8  1  0.75130480  0.74987165  0.50028335  1
  Fe  Fe9  1  0.24912790  0.00079616  0.75068059  1
  Fe  Fe10  1  0.12360117  0.87531711  0.62670226  1
  Fe  Fe11  1  -0.00106126  -0.00007222  0.75067390  1
  Fe  Fe12  1  0.87198162  0.87341579  0.12105197  1
  Fe  Fe13  1  0.87566668  0.12591294  0.87587755  1
  Fe  Fe14  1  0.12300748  0.37332157  0.62711405  1
  Fe  Fe15  1  0.50093073  0.25283882  0.75227062  1
  Fe  Fe16  1  -0.00088114  -0.00044116  0.50123080  1
  Fe  Fe17  1  0.37569746  0.37359896  0.62312106  1
  Fe  Fe18  1  0.00429897  0.50204257  0.00092597  1
  Fe  Fe19  1  0.74215991  0.00269340  -0.00038810  1
  Fe  Fe20  1  0.87378152  0.37276392  0.12121628  1
  Fe  Fe21  1  0.87330919  0.87585149  0.37521585  1
  Fe  Fe22  1  0.37862596  0.87576269  0.87981752  1
  Fe  Fe23  1  0.12484118  0.62653269  0.62945184  1
  Fe  Fe24  1  0.25215733  0.75164150  0.24935392  1
  Fe  Fe25  1  0.49901387  0.74701673  0.75427563  1
  Fe  Fe26  1  0.75065392  0.25686108  0.75000859  1
  Fe  Fe27  1  0.24802025  0.50096088  0.50127673  1
  Fe  Fe28  1  0.75171120  -0.00297084  0.75090057  1
  Fe  Fe29  1  0.62464954  0.87328376  0.62753998  1
  Fe  Fe30  1  0.75343015  0.50019851  0.24797249  1
  Fe  Fe31  1  0.00222866  0.24881167  0.49876726  1
  Fe  Fe32  1  0.62515438  0.37376285  0.37306537  1
  Fe  Fe33  1  0.12324268  0.37482982  0.12795449  1
  Fe  Fe34  1  0.25023639  0.75173945  0.75326171  1
  Fe  Fe35  1  0.37433274  0.12449535  0.87669870  1
  Fe  Fe36  1  0.25103132  0.24961215  0.25060370  1
  Fe  Fe37  1  0.74575513  0.74867844  -0.00415034  1
  Fe  Fe38  1  0.37649647  0.12658568  0.12273813  1
  Fe  Fe39  1  0.24915000  0.74967966  0.49807763  1
  Fe  Fe40  1  0.12394996  0.62331706  0.37026292  1
  Fe  Fe41  1  0.74847637  0.00025725  0.50214675  1
  Fe  Fe42  1  0.62693272  0.62759652  0.12652429  1
  Fe  Fe43  1  -0.00254536  0.49951657  0.75172842  1
  Fe  Fe44  1  -0.00078087  0.75005785  0.49865557  1
  Fe  Fe45  1  0.87415707  0.62503330  0.62596154  1
  Fe  Fe46  1  0.50286954  0.50197006  0.00063980  1
  Fe  Fe47  1  0.24703168  0.24902992  0.49858341  1
  Fe  Fe48  1  0.24941336  -0.00052012  0.50059245  1
  Fe  Fe49  1  0.49934774  0.49926426  0.75107311  1
  Fe  Fe50  1  0.24638441  0.24960845  0.75162020  1
  Fe  Fe51  1  0.49999365  0.49975599  0.24831024  1
  Fe  Fe52  1  0.75001466  0.49824615  0.50312454  1
  Fe  Fe53  1  -0.00477454  0.74945735  0.25070039  1
  Fe  Fe54  1  0.87243044  0.12809318  0.12262062  1
  Fe  Fe55  1  0.12436951  0.12142272  0.37070789  1
  Fe  Fe56  1  0.50032920  0.50213260  0.49938853  1
  Fe  Fe57  1  0.74946726  0.25142559  0.50029783  1
  Fe  Fe58  1  0.87532409  0.62705102  0.12231804  1
  Fe  Fe59  1  0.74889206  -0.00009339  0.24720288  1
  Fe  Fe60  1  0.87428091  0.37661410  0.87952297  1
  Fe  Fe61  1  0.87428133  0.12361960  0.37449953  1
  Fe  Fe62  1  0.50517338  0.24741775  -0.00329228  1
  Fe  Fe63  1  0.24534607  0.25148261  -0.00157742  1
  Fe  Fe64  1  0.75316941  0.75171376  0.75437084  1
  Fe  Fe65  1  0.62769512  0.62502959  0.37321309  1
  Fe  Fe66  1  0.37401422  0.62521052  0.62436681  1
  Fe  Fe67  1  0.25045209  0.49941924  0.24793134  1
  Fe  Fe68  1  0.12494791  0.12432570  0.12610838  1
  Fe  Fe69  1  0.37572014  0.87435506  0.62388874  1
  Fe  Fe70  1  0.87619104  0.12777322  0.62665678  1
  Fe  Fe71  1  0.37513623  0.12546957  0.62439760  1
  Fe  Fe72  1  0.62682115  0.62400349  0.62875884  1
  Fe  Fe73  1  0.37205690  0.62614260  0.12256269  1
  Fe  Fe74  1  0.37758816  0.87645391  0.37528423  1
  Fe  Fe75  1  0.37646413  0.37295010  0.12327768  1
  Fe  Fe76  1  0.37412016  0.37691042  0.37525008  1
  Fe  Fe77  1  0.36893639  0.62233191  0.87909526  1
  Fe  Fe78  1  0.49914788  -0.00015190  0.74996734  1
  Fe  Fe79  1  0.24938113  -0.00164364  0.00121938  1
  Fe  Fe80  1  0.12379027  0.87789430  0.37093812  1
  Fe  Fe81  1  0.50132014  0.24814506  0.49776853  1
  Fe  Fe82  1  -0.00243573  0.75119858  0.75525237  1
  Fe  Fe83  1  0.12406879  0.87515525  0.12699458  1
  Fe  Fe84  1  0.50265796  0.00279702  0.24676701  1
  Fe  Fe85  1  0.50031576  0.74878304  0.49952807  1
  Fe  Fe86  1  0.37302373  0.37668308  0.87763655  1
  Fe  Fe87  1  0.62500410  0.12661738  0.62688059  1
  Fe  Fe88  1  0.37617429  0.12226843  0.37511845  1
  Fe  Fe89  1  0.87756810  0.37755900  0.37594049  1
  Co  Co90  1  -0.00409391  0.50046104  0.24634142  1
  Co  Co91  1  0.25253038  0.49724526  0.74683351  1
  Co  Co92  1  0.00250593  0.25086160  -0.00005405  1
  Co  Co93  1  0.62353717  0.87136261  0.12344073  1
  Co  Co94  1  0.88017500  0.37349167  0.62249842  1
  Co  Co95  1  0.00065505  0.25076048  0.75438642  1
  Co  Co96  1  0.62084637  0.37505866  0.62363475  1
  Co  Co97  1  0.75302962  0.74969067  0.24990549  1
  Co  Co98  1  0.12584418  0.62719085  0.12807157  1
  Co  Co99  1  0.12414450  0.37668545  0.37213951  1
  Co  Co100  1  0.62973759  0.62068650  0.87147713  1
  Co  Co101  1  0.87467250  0.87740308  0.88043628  1
  Co  Co102  1  0.74753997  0.50139511  0.00443527  1
  Co  Co103  1  0.24687572  0.75274972  -0.00021028  1
  Co  Co104  1  0.12511392  0.37836551  0.87335482  1
  Co  Co105  1  0.50265567  0.74354838  -0.00314833  1
  Co  Co106  1  0.25422739  -0.00090104  0.24718220  1
  Co  Co107  1  0.12352391  0.12251592  0.87701660  1
  Co  Co108  1  0.87424951  0.62243586  0.37703957  1
  Co  Co109  1  0.75186033  0.49399213  0.74640903  1
  Co  Co110  1  0.87271265  0.62183536  0.87685373  1
  Co  Co111  1  0.74707611  0.24733843  -0.00442682  1
  Co  Co112  1  0.37379096  0.62340748  0.37378157  1
  Co  Co113  1  0.12428452  0.87814694  0.87463002  1
  Co  Co114  1  0.62711419  0.37914143  0.87771031  1
  Co  Co115  1  0.12316214  0.12438134  0.62617322  1
  Co  Co116  1  0.75486274  0.25158167  0.25300299  1
  Co  Co117  1  0.24553314  0.49770947  0.00398601  1
  Co  Co118  1  0.62662270  0.13256012  0.12955940  1
  Co  Co119  1  0.62664970  0.12521301  0.86800265  1
  Co  Co120  1  0.50649086  0.00607301  0.00090450  1
  Co  Co121  1  0.62619534  0.12519574  0.37393909  1
  Co  Co122  1  0.50264444  -0.00034240  0.50220024  1
  Co  Co123  1  0.49695682  0.24974950  0.25221654  1
  Co  Co124  1  -0.00592179  -0.00018594  0.24660840  1
  Co  Co125  1  0.12934050  0.62215672  0.87293570  1
  Co  Co126  1  0.62227600  0.87531926  0.87548857  1
  Co  Co127  1  0.87630910  0.87409991  0.62438447  1
