# generated using pymatgen
data_Fe45Co19
_symmetry_space_group_name_H-M   'P 1'
_cell_length_a   11.41580295
_cell_length_b   11.41547717
_cell_length_c   11.41320120
_cell_angle_alpha   89.99635437
_cell_angle_beta   90.00861791
_cell_angle_gamma   89.99832458
_symmetry_Int_Tables_number   1
_chemical_formula_structural   Fe45Co19
_chemical_formula_sum   'Fe90 Co38'
_cell_volume   1487.33227113
_cell_formula_units_Z   2
loop_
 _symmetry_equiv_pos_site_id
 _symmetry_equiv_pos_as_xyz
  1  'x, y, z'
loop_
 _atom_site_type_symbol
 _atom_site_label
 _atom_site_symmetry_multiplicity
 _atom_site_fract_x
 _atom_site_fract_y
 _atom_site_fract_z
 _atom_site_occupancy
  Fe  Fe0  1  0.87593348  0.37628272  0.37250976  1
  Fe  Fe1  1  0.24836027  0.00293075  0.49578337  1
  Fe  Fe2  1  0.12301726  0.37298486  0.37386393  1
  Fe  Fe3  1  0.50078278  0.50129529  0.49878359  1
  Fe  Fe4  1  0.00037461  0.00091888  0.00175153  1
  Fe  Fe5  1  0.37702022  0.62378075  0.37279250  1
  Fe  Fe6  1  0.50065550  0.49772463  0.75166143  1
  Fe  Fe7  1  0.00288801  -0.00140872  0.24995483  1
  Fe  Fe8  1  0.00162453  0.50433149  0.24763610  1
  Fe  Fe9  1  0.87688786  0.37504829  0.87700608  1
  Fe  Fe10  1  0.87329142  0.62780765  0.37086768  1
  Fe  Fe11  1  0.62335361  0.87268383  0.62266608  1
  Fe  Fe12  1  0.37443731  0.37676141  0.62323680  1
  Fe  Fe13  1  0.50002904  0.24925971  0.24996357  1
  Fe  Fe14  1  0.87436695  0.87292078  0.12651848  1
  Fe  Fe15  1  0.87361240  0.12542301  0.87650726  1
  Fe  Fe16  1  -0.00085061  0.74913516  0.50182154  1
  Fe  Fe17  1  0.12776215  0.62812563  0.37246653  1
  Fe  Fe18  1  0.24894751  -0.00238106  0.75089372  1
  Fe  Fe19  1  0.62199914  0.87282360  0.12344145  1
  Fe  Fe20  1  0.62482356  0.37492208  0.37180667  1
  Fe  Fe21  1  0.24950449  0.49837431  0.49707809  1
  Fe  Fe22  1  0.25455132  0.75285213  0.24776931  1
  Fe  Fe23  1  0.74843269  -0.00192218  0.74984998  1
  Fe  Fe24  1  0.50112682  0.00149119  0.74973499  1
  Fe  Fe25  1  0.75221241  0.25302276  0.00542429  1
  Fe  Fe26  1  0.74789148  -0.00094350  0.49888996  1
  Fe  Fe27  1  -0.00106204  0.24919848  0.49937253  1
  Fe  Fe28  1  0.24845398  0.49876090  0.00009662  1
  Fe  Fe29  1  0.62047644  0.86792216  0.37784916  1
  Fe  Fe30  1  0.37157371  0.62188714  0.87169144  1
  Fe  Fe31  1  0.62571007  0.62703643  0.87534080  1
  Fe  Fe32  1  0.63112139  0.62389613  0.12400132  1
  Fe  Fe33  1  0.62475867  0.62559703  0.62357658  1
  Fe  Fe34  1  0.74934719  0.50228210  0.49616041  1
  Fe  Fe35  1  0.75074457  0.75122161  0.74967299  1
  Fe  Fe36  1  0.49393791  0.74957912  0.74533445  1
  Fe  Fe37  1  0.87357506  0.62366041  0.62622844  1
  Fe  Fe38  1  0.87377740  0.12436600  0.37137580  1
  Fe  Fe39  1  0.37405227  0.12587129  0.87562013  1
  Fe  Fe40  1  0.25604942  0.74977340  0.50347565  1
  Fe  Fe41  1  0.12478922  0.12783416  0.87755276  1
  Fe  Fe42  1  0.74798325  -0.00356186  0.25178886  1
  Fe  Fe43  1  0.00108468  0.50262702  0.49846434  1
  Fe  Fe44  1  0.25288646  0.25098467  0.25242302  1
  Fe  Fe45  1  0.87378759  0.37631825  0.62505251  1
  Fe  Fe46  1  0.74801264  0.49763207  0.75261012  1
  Fe  Fe47  1  0.37357189  0.12189647  0.12761945  1
  Fe  Fe48  1  0.87658135  0.87433472  0.87440255  1
  Fe  Fe49  1  0.74938791  -0.00384986  -0.00002610  1
  Fe  Fe50  1  0.62599726  0.37380272  0.62351943  1
  Fe  Fe51  1  0.12606806  0.12714879  0.12580754  1
  Fe  Fe52  1  0.13006677  0.62488065  0.62761245  1
  Fe  Fe53  1  0.49674139  0.74584953  0.00343225  1
  Fe  Fe54  1  0.50167312  -0.00057701  0.25152306  1
  Fe  Fe55  1  0.00295824  0.50016239  0.75050667  1
  Fe  Fe56  1  0.25233071  0.74898216  0.00096890  1
  Fe  Fe57  1  -0.00345728  0.24983903  0.24520262  1
  Fe  Fe58  1  0.62792950  0.12693849  0.87620228  1
  Fe  Fe59  1  0.24890719  0.49752852  0.24949162  1
  Fe  Fe60  1  0.12336383  0.37204048  0.87952892  1
  Fe  Fe61  1  0.37511112  0.12430102  0.62262696  1
  Fe  Fe62  1  0.00099260  -0.00039108  0.74836067  1
  Fe  Fe63  1  0.12672323  0.87291582  0.12519433  1
  Fe  Fe64  1  0.12494473  0.87234045  0.87562359  1
  Fe  Fe65  1  0.62800780  0.12504292  0.12729352  1
  Fe  Fe66  1  0.50072126  0.00321093  0.00008518  1
  Fe  Fe67  1  0.50276382  0.50358658  0.24781728  1
  Fe  Fe68  1  0.62115591  0.87267182  0.87579471  1
  Fe  Fe69  1  0.49756448  0.24910539  0.49549498  1
  Fe  Fe70  1  0.87174442  0.12582310  0.62642615  1
  Fe  Fe71  1  0.87433928  0.62498763  0.87718527  1
  Fe  Fe72  1  0.87566309  0.87246069  0.37546412  1
  Fe  Fe73  1  0.37842167  0.87725789  0.37406864  1
  Fe  Fe74  1  0.12490219  0.87231816  0.37572167  1
  Fe  Fe75  1  -0.00014992  0.74658522  0.00374741  1
  Fe  Fe76  1  0.00070944  0.00084202  0.50043903  1
  Fe  Fe77  1  0.25203870  0.25373766  0.75141099  1
  Fe  Fe78  1  -0.00093552  0.24966083  0.75010119  1
  Fe  Fe79  1  0.62121926  0.37322984  0.88120417  1
  Fe  Fe80  1  0.12543802  0.37430859  0.62189602  1
  Fe  Fe81  1  0.37667958  0.87555808  0.87741447  1
  Fe  Fe82  1  0.00215115  0.75017926  0.74786072  1
  Fe  Fe83  1  0.24972196  0.00045871  0.00116324  1
  Fe  Fe84  1  0.12676759  0.12724793  0.62346865  1
  Fe  Fe85  1  0.62569783  0.12792792  0.62393801  1
  Fe  Fe86  1  0.49925493  0.25064085  0.75177238  1
  Fe  Fe87  1  0.75060183  0.25063708  0.49623026  1
  Fe  Fe88  1  0.00203412  0.50285389  0.00458224  1
  Fe  Fe89  1  0.37875967  0.37661516  0.12189878  1
  Co  Co90  1  0.49328489  0.74685808  0.50452896  1
  Co  Co91  1  0.62147782  0.62907771  0.37610021  1
  Co  Co92  1  0.49957330  0.24413185  0.00240981  1
  Co  Co93  1  0.62147224  0.37656382  0.12411127  1
  Co  Co94  1  0.50056997  0.50657506  0.00031992  1
  Co  Co95  1  0.12887090  0.62663347  0.12755861  1
  Co  Co96  1  0.87261821  0.12028201  0.12609828  1
  Co  Co97  1  0.37757837  0.37893721  0.37302302  1
  Co  Co98  1  0.37687023  0.87913031  0.12413036  1
  Co  Co99  1  0.50376990  0.00201996  0.49842434  1
  Co  Co100  1  0.74994874  0.75302594  -0.00057444  1
  Co  Co101  1  0.37600459  0.12102182  0.37356323  1
  Co  Co102  1  0.12668472  0.62644088  0.87475337  1
  Co  Co103  1  0.12612908  0.87485545  0.62293946  1
  Co  Co104  1  0.25280479  0.75401007  0.74847260  1
  Co  Co105  1  0.37505773  0.88251364  0.62304258  1
  Co  Co106  1  0.24654067  -0.00154269  0.25095729  1
  Co  Co107  1  0.37124817  0.62088567  0.12649418  1
  Co  Co108  1  0.49861872  0.74726694  0.24502092  1
  Co  Co109  1  0.87460682  0.87559581  0.62463591  1
  Co  Co110  1  0.75086890  0.25257906  0.24735494  1
  Co  Co111  1  0.74971849  0.49772218  -0.00250311  1
  Co  Co112  1  0.87019366  0.62516190  0.12561343  1
  Co  Co113  1  0.74791652  0.49980985  0.25268876  1
  Co  Co114  1  0.00059710  0.74917560  0.24787551  1
  Co  Co115  1  0.75183365  0.74812127  0.49970376  1
  Co  Co116  1  -0.00347617  0.24922098  0.00410656  1
  Co  Co117  1  0.37181431  0.61681051  0.62832977  1
  Co  Co118  1  0.12559390  0.37303332  0.12599637  1
  Co  Co119  1  0.12281369  0.12857398  0.37239856  1
  Co  Co120  1  0.25274482  0.25081974  0.49535234  1
  Co  Co121  1  0.25278316  0.24981486  0.00154580  1
  Co  Co122  1  0.74723290  0.75135046  0.25071560  1
  Co  Co123  1  0.74955568  0.25351745  0.75239431  1
  Co  Co124  1  0.87420699  0.38181307  0.12708016  1
  Co  Co125  1  0.37891084  0.37585247  0.88052081  1
  Co  Co126  1  0.24746912  0.49294635  0.75358688  1
  Co  Co127  1  0.62623233  0.12717056  0.37278603  1
