# generated using pymatgen
data_Fe45Co19
_symmetry_space_group_name_H-M   'P 1'
_cell_length_a   11.41398181
_cell_length_b   11.41407162
_cell_length_c   11.41442961
_cell_angle_alpha   89.99354186
_cell_angle_beta   89.99880709
_cell_angle_gamma   90.00059413
_symmetry_Int_Tables_number   1
_chemical_formula_structural   Fe45Co19
_chemical_formula_sum   'Fe90 Co38'
_cell_volume   1487.07194687
_cell_formula_units_Z   2
loop_
 _symmetry_equiv_pos_site_id
 _symmetry_equiv_pos_as_xyz
  1  'x, y, z'
loop_
 _atom_site_type_symbol
 _atom_site_label
 _atom_site_symmetry_multiplicity
 _atom_site_fract_x
 _atom_site_fract_y
 _atom_site_fract_z
 _atom_site_occupancy
  Fe  Fe0  1  0.87546745  0.62454377  0.62282893  1
  Fe  Fe1  1  0.49890017  0.75209252  0.75068735  1
  Fe  Fe2  1  0.62658058  0.62438035  0.87437177  1
  Fe  Fe3  1  0.12653055  0.87427038  0.87372376  1
  Fe  Fe4  1  0.49812736  0.49847874  0.24865401  1
  Fe  Fe5  1  0.12569748  0.87599827  0.62552845  1
  Fe  Fe6  1  0.62599100  0.62616286  0.62493410  1
  Fe  Fe7  1  0.62550783  0.62438658  0.37482780  1
  Fe  Fe8  1  0.25100108  0.49881224  0.00119342  1
  Fe  Fe9  1  0.87395385  0.62701079  0.87659919  1
  Fe  Fe10  1  0.87391151  0.62597056  0.37513298  1
  Fe  Fe11  1  0.37325971  0.87540461  0.87366055  1
  Fe  Fe12  1  0.37020364  0.62842546  0.87562073  1
  Fe  Fe13  1  0.49724789  0.24690649  0.49537363  1
  Fe  Fe14  1  0.62301048  0.37413641  0.62422581  1
  Fe  Fe15  1  -0.00186358  -0.00026226  0.00060750  1
  Fe  Fe16  1  0.37748547  0.62809559  0.12379908  1
  Fe  Fe17  1  0.62271879  0.37351294  0.37539777  1
  Fe  Fe18  1  -0.00041239  0.50011231  0.24925278  1
  Fe  Fe19  1  0.75012620  0.75199854  0.74923101  1
  Fe  Fe20  1  0.75110714  0.49805464  0.75009066  1
  Fe  Fe21  1  0.75224720  0.00062748  0.25118830  1
  Fe  Fe22  1  0.12541374  0.12431888  0.87490555  1
  Fe  Fe23  1  0.74760646  0.75225953  0.00159221  1
  Fe  Fe24  1  0.37321453  0.12721781  0.12529656  1
  Fe  Fe25  1  0.12561506  0.12467195  0.62660525  1
  Fe  Fe26  1  0.62317443  0.87675032  0.37673256  1
  Fe  Fe27  1  0.25186571  0.00143199  0.50324618  1
  Fe  Fe28  1  0.12510273  0.62477998  0.12361442  1
  Fe  Fe29  1  0.62303556  0.37404365  0.12446730  1
  Fe  Fe30  1  0.00031601  0.75117971  0.00027228  1
  Fe  Fe31  1  0.75312321  0.00008916  0.49853513  1
  Fe  Fe32  1  0.62523509  0.12115316  0.87399683  1
  Fe  Fe33  1  0.87627534  0.37253223  0.87372890  1
  Fe  Fe34  1  0.25380734  0.25349173  0.25011066  1
  Fe  Fe35  1  0.12695330  0.62157339  0.37612992  1
  Fe  Fe36  1  0.00209088  0.25154290  0.49979888  1
  Fe  Fe37  1  0.12730530  0.37393652  0.12451649  1
  Fe  Fe38  1  0.24920897  -0.00142253  0.24815242  1
  Fe  Fe39  1  0.25015843  0.25187128  0.49982725  1
  Fe  Fe40  1  0.75422567  -0.00286489  -0.00120988  1
  Fe  Fe41  1  0.74859425  0.24758659  0.25161120  1
  Fe  Fe42  1  0.49965985  0.74849936  0.49866743  1
  Fe  Fe43  1  0.12211782  0.38114613  0.62714485  1
  Fe  Fe44  1  0.37390505  0.12253060  0.87275650  1
  Fe  Fe45  1  0.24927909  -0.00053867  0.00173124  1
  Fe  Fe46  1  0.49516746  0.00279177  0.50252219  1
  Fe  Fe47  1  0.62376803  0.87869948  0.87320505  1
  Fe  Fe48  1  0.62452022  0.12364449  0.12551744  1
  Fe  Fe49  1  0.87474583  0.37255655  0.37444554  1
  Fe  Fe50  1  0.37593517  0.37509832  0.87628615  1
  Fe  Fe51  1  0.74943630  0.49829981  0.50007540  1
  Fe  Fe52  1  0.37324133  0.87543080  0.37626246  1
  Fe  Fe53  1  0.37652412  0.37542364  0.62371036  1
  Fe  Fe54  1  0.24785879  0.74923444  0.50164330  1
  Fe  Fe55  1  0.00028409  0.00013261  0.49680670  1
  Fe  Fe56  1  0.00133180  0.24818801  0.24942759  1
  Fe  Fe57  1  0.74972533  0.49913696  0.24836458  1
  Fe  Fe58  1  0.50139617  0.50191054  -0.00050006  1
  Fe  Fe59  1  0.24921041  0.74939005  0.24977301  1
  Fe  Fe60  1  0.49899192  0.00212723  0.25061627  1
  Fe  Fe61  1  0.24798940  0.25221605  0.75076555  1
  Fe  Fe62  1  0.00135464  0.24943713  0.00116065  1
  Fe  Fe63  1  0.87566096  0.12675902  0.62388824  1
  Fe  Fe64  1  0.49953097  0.50057493  0.75029653  1
  Fe  Fe65  1  0.62120890  0.87405504  0.12506973  1
  Fe  Fe66  1  -0.00169532  0.49902353  0.00025825  1
  Fe  Fe67  1  0.74957565  0.25057717  -0.00069240  1
  Fe  Fe68  1  0.87836936  0.87341825  0.37167699  1
  Fe  Fe69  1  0.62528134  0.87603960  0.62391028  1
  Fe  Fe70  1  0.12065574  0.87510842  0.12895795  1
  Fe  Fe71  1  0.87619088  0.87365063  0.62680405  1
  Fe  Fe72  1  0.37865379  0.87203477  0.12479004  1
  Fe  Fe73  1  0.87754415  0.37535035  0.62580380  1
  Fe  Fe74  1  0.62589368  0.12396099  0.62375992  1
  Fe  Fe75  1  0.12355460  0.37709037  0.87425617  1
  Fe  Fe76  1  0.00444530  0.74527988  0.75044027  1
  Fe  Fe77  1  0.50104958  0.24900619  0.75195523  1
  Fe  Fe78  1  0.74973258  0.24889915  0.75000678  1
  Fe  Fe79  1  0.00228336  0.74926294  0.49870962  1
  Fe  Fe80  1  0.74956222  0.49871669  0.00128699  1
  Fe  Fe81  1  -0.00264563  0.00153364  0.75197902  1
  Fe  Fe82  1  0.12778122  0.37871530  0.37385433  1
  Fe  Fe83  1  0.12750411  0.12361156  0.37364681  1
  Fe  Fe84  1  0.37341429  0.62473135  0.62532288  1
  Fe  Fe85  1  0.37333299  0.62118644  0.37550215  1
  Fe  Fe86  1  0.87424254  0.62638691  0.12552604  1
  Fe  Fe87  1  0.87618374  0.12492632  0.12523949  1
  Fe  Fe88  1  0.50001082  0.24756994  -0.00016054  1
  Fe  Fe89  1  0.74775220  0.75079176  0.24922683  1
  Co  Co90  1  0.25168533  0.50025841  0.24542304  1
  Co  Co91  1  0.75045689  0.75149456  0.49850434  1
  Co  Co92  1  -0.00066739  0.50495656  0.75368349  1
  Co  Co93  1  0.49963260  0.74989976  0.25441096  1
  Co  Co94  1  0.62481607  0.12341007  0.37628478  1
  Co  Co95  1  0.37097662  0.12345443  0.37287816  1
  Co  Co96  1  0.49790758  -0.00058139  0.74563363  1
  Co  Co97  1  0.12442218  0.61974578  0.62237026  1
  Co  Co98  1  0.12839861  0.62495687  0.87913294  1
  Co  Co99  1  0.12664194  0.87664022  0.37450421  1
  Co  Co100  1  0.12674062  0.12616020  0.12572178  1
  Co  Co101  1  0.25081395  0.49786456  0.50259392  1
  Co  Co102  1  0.87628187  0.12795426  0.37655175  1
  Co  Co103  1  0.24639774  0.74867051  0.74737040  1
  Co  Co104  1  0.49805659  0.24954530  0.25107867  1
  Co  Co105  1  0.87782923  0.87323245  0.12874788  1
  Co  Co106  1  0.24896877  0.75385097  0.00378309  1
  Co  Co107  1  0.37654772  0.37318714  0.12147109  1
  Co  Co108  1  0.50220823  0.50206186  0.50081650  1
  Co  Co109  1  0.62456715  0.37573317  0.87577273  1
  Co  Co110  1  0.75314956  0.00108313  0.75017541  1
  Co  Co111  1  0.25066816  0.49957653  0.75042360  1
  Co  Co112  1  0.25075086  -0.00009011  0.74825728  1
  Co  Co113  1  0.00151151  0.24844994  0.74906172  1
  Co  Co114  1  0.87640890  0.87139091  0.87309389  1
  Co  Co115  1  0.74961556  0.25119488  0.50051014  1
  Co  Co116  1  -0.00238397  0.49915549  0.49632973  1
  Co  Co117  1  0.37337741  0.87165013  0.62447888  1
  Co  Co118  1  0.37348188  0.12987051  0.62782627  1
  Co  Co119  1  0.62303805  0.62571832  0.12550008  1
  Co  Co120  1  0.49785606  0.00088455  0.00125922  1
  Co  Co121  1  0.50171415  0.75029707  -0.00419268  1
  Co  Co122  1  -0.00053567  0.00397357  0.25130347  1
  Co  Co123  1  0.87418066  0.37324534  0.12621074  1
  Co  Co124  1  0.87570648  0.12818685  0.87650385  1
  Co  Co125  1  0.24998261  0.24934965  -0.00312116  1
  Co  Co126  1  0.37542420  0.37865806  0.37710171  1
  Co  Co127  1  0.00273304  0.74603041  0.25198688  1
