# generated using pymatgen
data_Fe45Co19
_symmetry_space_group_name_H-M   'P 1'
_cell_length_a   11.41505842
_cell_length_b   11.41543355
_cell_length_c   11.41441686
_cell_angle_alpha   89.99186146
_cell_angle_beta   89.99603671
_cell_angle_gamma   90.00769202
_symmetry_Int_Tables_number   1
_chemical_formula_structural   Fe45Co19
_chemical_formula_sum   'Fe90 Co38'
_cell_volume   1487.38798297
_cell_formula_units_Z   2
loop_
 _symmetry_equiv_pos_site_id
 _symmetry_equiv_pos_as_xyz
  1  'x, y, z'
loop_
 _atom_site_type_symbol
 _atom_site_label
 _atom_site_symmetry_multiplicity
 _atom_site_fract_x
 _atom_site_fract_y
 _atom_site_fract_z
 _atom_site_occupancy
  Fe  Fe0  1  0.37434745  0.12505343  0.12402026  1
  Fe  Fe1  1  0.37440568  0.12549885  0.62581145  1
  Fe  Fe2  1  -0.00159117  0.50117274  -0.00194575  1
  Fe  Fe3  1  0.12444296  0.37672483  0.62583919  1
  Fe  Fe4  1  0.49891713  -0.00054262  0.00093247  1
  Fe  Fe5  1  0.87689251  0.87312110  0.12528540  1
  Fe  Fe6  1  0.75199626  0.50101684  0.25211720  1
  Fe  Fe7  1  0.37476527  0.87179745  0.87463616  1
  Fe  Fe8  1  0.50040652  0.24855749  0.25024449  1
  Fe  Fe9  1  0.87528966  0.62459609  0.12325652  1
  Fe  Fe10  1  0.62781493  0.62553802  0.37773311  1
  Fe  Fe11  1  0.12378077  0.37780647  0.12453205  1
  Fe  Fe12  1  0.37444812  0.12555124  0.37560529  1
  Fe  Fe13  1  0.87563761  0.37639411  0.12584472  1
  Fe  Fe14  1  0.75268059  0.24861541  0.50144717  1
  Fe  Fe15  1  0.24658928  0.75065374  0.00037014  1
  Fe  Fe16  1  0.12600772  0.12258598  0.62474172  1
  Fe  Fe17  1  0.24737236  0.25151329  0.25057064  1
  Fe  Fe18  1  0.12128415  0.12658256  0.87573711  1
  Fe  Fe19  1  0.37489338  0.62767121  0.87233633  1
  Fe  Fe20  1  0.37898674  0.87041613  0.37069998  1
  Fe  Fe21  1  0.62501950  0.12540435  0.87590549  1
  Fe  Fe22  1  -0.00433880  0.50297968  0.50212599  1
  Fe  Fe23  1  0.00375702  0.74841291  0.24906291  1
  Fe  Fe24  1  0.49831592  0.50178951  -0.00041719  1
  Fe  Fe25  1  0.50036326  0.74815060  0.00183995  1
  Fe  Fe26  1  0.00320309  0.75006193  0.49990948  1
  Fe  Fe27  1  0.75152095  -0.00213938  0.25259776  1
  Fe  Fe28  1  0.50460260  0.74893823  0.50180605  1
  Fe  Fe29  1  0.87792368  0.87127530  0.87728337  1
  Fe  Fe30  1  0.62777626  0.12017697  0.62456523  1
  Fe  Fe31  1  0.36957927  0.62647497  0.12912534  1
  Fe  Fe32  1  -0.00554516  0.50399168  0.74673526  1
  Fe  Fe33  1  0.62636760  0.37764195  0.87484491  1
  Fe  Fe34  1  0.62411835  0.87439612  0.87643780  1
  Fe  Fe35  1  0.24972534  0.25057083  0.50168685  1
  Fe  Fe36  1  0.75085978  -0.00294512  0.75281793  1
  Fe  Fe37  1  0.74990884  0.25209628  0.00046305  1
  Fe  Fe38  1  0.12551590  0.87472927  0.62597159  1
  Fe  Fe39  1  0.50268541  0.25094384  0.74774706  1
  Fe  Fe40  1  0.00190928  0.24927664  0.24973269  1
  Fe  Fe41  1  0.87598210  0.12822639  0.87318415  1
  Fe  Fe42  1  0.62552579  0.12364192  0.37548478  1
  Fe  Fe43  1  0.12380772  0.12231064  0.37670700  1
  Fe  Fe44  1  0.75211807  -0.00131294  -0.00015631  1
  Fe  Fe45  1  0.87481526  0.87320006  0.62335358  1
  Fe  Fe46  1  0.37556756  0.87188306  0.62772388  1
  Fe  Fe47  1  0.62872148  0.38082158  0.62263004  1
  Fe  Fe48  1  0.87633238  0.37267202  0.37568371  1
  Fe  Fe49  1  0.25127249  -0.00359654  0.49887259  1
  Fe  Fe50  1  0.00018933  -0.00062024  0.74995685  1
  Fe  Fe51  1  0.50045536  0.25096731  0.50237389  1
  Fe  Fe52  1  -0.00008207  0.50186851  0.25248718  1
  Fe  Fe53  1  0.49840163  0.50352642  0.25302401  1
  Fe  Fe54  1  0.87233046  0.63111367  0.37719674  1
  Fe  Fe55  1  0.49891393  -0.00073716  0.75120441  1
  Fe  Fe56  1  0.24831622  -0.00127278  -0.00157363  1
  Fe  Fe57  1  -0.00075032  0.74753452  0.74966399  1
  Fe  Fe58  1  0.12228408  0.87723121  0.12224887  1
  Fe  Fe59  1  0.24741753  0.25033990  -0.00008350  1
  Fe  Fe60  1  0.25413492  0.50225944  0.50278649  1
  Fe  Fe61  1  0.25011672  0.50093027  -0.00091096  1
  Fe  Fe62  1  0.50571971  0.74927240  0.74740352  1
  Fe  Fe63  1  -0.00101129  -0.00077025  0.25275896  1
  Fe  Fe64  1  0.37482138  0.37365661  0.87244972  1
  Fe  Fe65  1  0.75269946  -0.00518348  0.49527923  1
  Fe  Fe66  1  0.49919916  -0.00253103  0.49834537  1
  Fe  Fe67  1  0.25062568  -0.00304117  0.25070637  1
  Fe  Fe68  1  0.37610878  0.37615649  0.37694912  1
  Fe  Fe69  1  0.62968245  0.62341530  0.87328491  1
  Fe  Fe70  1  0.12387205  0.37499295  0.87172233  1
  Fe  Fe71  1  0.49907382  0.50169317  0.74587229  1
  Fe  Fe72  1  0.75034206  0.74981076  0.00079465  1
  Fe  Fe73  1  0.37626813  0.37513908  0.12500907  1
  Fe  Fe74  1  0.62271058  0.87515452  0.12789726  1
  Fe  Fe75  1  0.87702547  0.12534182  0.12482549  1
  Fe  Fe76  1  0.62810809  0.62278378  0.12430151  1
  Fe  Fe77  1  0.24961400  -0.00125388  0.75237910  1
  Fe  Fe78  1  0.25117159  0.50368780  0.74669632  1
  Fe  Fe79  1  0.87509900  0.37268020  0.87216833  1
  Fe  Fe80  1  0.12321347  0.37671705  0.37864668  1
  Fe  Fe81  1  0.12943528  0.62377827  0.37376385  1
  Fe  Fe82  1  0.37618242  0.12752654  0.87506260  1
  Fe  Fe83  1  0.62528356  0.37657914  0.37692275  1
  Fe  Fe84  1  0.62382252  0.37725501  0.12501238  1
  Fe  Fe85  1  0.75043955  0.24981612  0.25034735  1
  Fe  Fe86  1  0.24936112  0.75043397  0.50032512  1
  Fe  Fe87  1  0.12366496  0.62583366  0.87412741  1
  Fe  Fe88  1  -0.00258317  0.24624545  0.50439348  1
  Fe  Fe89  1  0.62497106  0.12451431  0.12407019  1
  Co  Co90  1  0.24466679  0.75506622  0.24909690  1
  Co  Co91  1  0.37669961  0.62973834  0.62586686  1
  Co  Co92  1  0.37104402  0.62816273  0.37334812  1
  Co  Co93  1  0.87271705  0.62781279  0.87665306  1
  Co  Co94  1  0.12245990  0.87303003  0.87466526  1
  Co  Co95  1  0.00214291  0.74692712  0.00125220  1
  Co  Co96  1  0.63076795  0.62032451  0.62375589  1
  Co  Co97  1  -0.00186618  0.00099960  -0.00198622  1
  Co  Co98  1  0.24732270  0.74897000  0.74979295  1
  Co  Co99  1  0.74998839  0.75017957  0.24830320  1
  Co  Co100  1  0.00000558  0.25149696  0.00111081  1
  Co  Co101  1  0.50184878  0.74411459  0.24790314  1
  Co  Co102  1  0.12223977  0.87659228  0.37670974  1
  Co  Co103  1  0.75193977  0.49853362  -0.00040789  1
  Co  Co104  1  0.87652048  0.12536822  0.37463290  1
  Co  Co105  1  0.49873237  0.00305532  0.24992408  1
  Co  Co106  1  0.87397692  0.37467701  0.62484598  1
  Co  Co107  1  0.74679027  0.25045368  0.74815037  1
  Co  Co108  1  -0.00231148  0.00015290  0.50151806  1
  Co  Co109  1  0.37355774  0.37378178  0.62650828  1
  Co  Co110  1  0.49668131  0.50302442  0.50005550  1
  Co  Co111  1  0.62142507  0.87433750  0.36932573  1
  Co  Co112  1  0.75636881  0.50209273  0.74966261  1
  Co  Co113  1  0.62523421  0.88014798  0.62675005  1
  Co  Co114  1  0.87765994  0.86983509  0.37509832  1
  Co  Co115  1  0.12662012  0.62130925  0.12614733  1
  Co  Co116  1  0.74876602  0.75223969  0.74995288  1
  Co  Co117  1  0.75605391  0.49953028  0.49738086  1
  Co  Co118  1  0.24797225  0.24833787  0.75018779  1
  Co  Co119  1  0.00004866  0.24935752  0.74518973  1
  Co  Co120  1  0.12446564  0.62502056  0.62436926  1
  Co  Co121  1  0.37653935  0.87368810  0.12505759  1
  Co  Co122  1  0.25020225  0.49582259  0.25149237  1
  Co  Co123  1  0.50103260  0.25130242  -0.00046955  1
  Co  Co124  1  0.74398858  0.75702676  0.50065249  1
  Co  Co125  1  0.87122424  0.12095926  0.62726792  1
  Co  Co126  1  0.86906267  0.63078469  0.62097517  1
  Co  Co127  1  0.12398343  0.12250328  0.12583000  1
