# generated using pymatgen
data_Fe45Co19
_symmetry_space_group_name_H-M   'P 1'
_cell_length_a   11.41504308
_cell_length_b   11.41518060
_cell_length_c   11.41513705
_cell_angle_alpha   90.00431930
_cell_angle_beta   89.99036487
_cell_angle_gamma   90.00640092
_symmetry_Int_Tables_number   1
_chemical_formula_structural   Fe45Co19
_chemical_formula_sum   'Fe90 Co38'
_cell_volume   1487.44686697
_cell_formula_units_Z   2
loop_
 _symmetry_equiv_pos_site_id
 _symmetry_equiv_pos_as_xyz
  1  'x, y, z'
loop_
 _atom_site_type_symbol
 _atom_site_label
 _atom_site_symmetry_multiplicity
 _atom_site_fract_x
 _atom_site_fract_y
 _atom_site_fract_z
 _atom_site_occupancy
  Fe  Fe0  1  0.24952762  0.25173536  -0.00101477  1
  Fe  Fe1  1  0.62533853  0.62773142  0.37565557  1
  Fe  Fe2  1  0.24486043  0.24718907  0.25282243  1
  Fe  Fe3  1  0.37247443  0.37465746  0.62372396  1
  Fe  Fe4  1  0.75175869  0.00233896  0.75071162  1
  Fe  Fe5  1  0.50066266  0.24684400  0.25213455  1
  Fe  Fe6  1  0.74851346  0.24897683  -0.00080706  1
  Fe  Fe7  1  0.87398130  0.12435557  0.12306721  1
  Fe  Fe8  1  0.24953442  0.49773587  0.00113425  1
  Fe  Fe9  1  0.87830962  0.12253661  0.37682249  1
  Fe  Fe10  1  -0.00102720  0.50131027  0.00057791  1
  Fe  Fe11  1  0.12600108  0.62214462  0.37429277  1
  Fe  Fe12  1  0.87670759  0.37472717  0.12657929  1
  Fe  Fe13  1  0.37579674  0.12340966  0.87846042  1
  Fe  Fe14  1  -0.00161131  0.75240548  0.50213741  1
  Fe  Fe15  1  0.24787850  0.75332302  0.00004058  1
  Fe  Fe16  1  0.24897027  0.75250311  0.50023170  1
  Fe  Fe17  1  0.37521494  0.12478489  0.12399875  1
  Fe  Fe18  1  0.00412472  0.25170684  0.50010463  1
  Fe  Fe19  1  0.62720526  0.12480695  0.62284800  1
  Fe  Fe20  1  0.62453363  0.37239927  0.87229874  1
  Fe  Fe21  1  0.62871085  0.62488542  0.62348319  1
  Fe  Fe22  1  0.49686603  0.24810024  0.74864881  1
  Fe  Fe23  1  0.12514026  0.62634915  0.12505846  1
  Fe  Fe24  1  0.24848104  -0.00308339  -0.00007927  1
  Fe  Fe25  1  0.75254746  0.24778887  0.25089522  1
  Fe  Fe26  1  0.00077347  0.24820743  0.00083558  1
  Fe  Fe27  1  0.12463070  0.12224568  0.87402840  1
  Fe  Fe28  1  0.24841308  0.00032861  0.25280759  1
  Fe  Fe29  1  0.75035721  0.75070888  0.75003994  1
  Fe  Fe30  1  0.49545885  -0.00064182  0.74819547  1
  Fe  Fe31  1  0.75267115  0.75094091  0.25243081  1
  Fe  Fe32  1  0.49925351  0.49987389  0.74940987  1
  Fe  Fe33  1  0.00224471  -0.00348606  0.50609338  1
  Fe  Fe34  1  0.00230931  0.00332094  0.24570340  1
  Fe  Fe35  1  0.74867013  -0.00045234  0.25452019  1
  Fe  Fe36  1  0.87685552  0.87289367  0.12467199  1
  Fe  Fe37  1  0.74797993  -0.00129335  -0.00005497  1
  Fe  Fe38  1  0.62837415  0.62531062  0.12288314  1
  Fe  Fe39  1  0.87523643  0.37263745  0.87377280  1
  Fe  Fe40  1  0.62559830  0.37391963  0.12647087  1
  Fe  Fe41  1  0.49977534  0.49682784  -0.00100953  1
  Fe  Fe42  1  0.37485629  0.62588126  0.12311502  1
  Fe  Fe43  1  0.12431774  0.37636852  0.87164950  1
  Fe  Fe44  1  0.36897375  0.12016456  0.61953699  1
  Fe  Fe45  1  0.49863567  0.75201904  0.74684901  1
  Fe  Fe46  1  0.37514109  0.37266867  0.12649198  1
  Fe  Fe47  1  0.62299754  0.12560173  0.87589790  1
  Fe  Fe48  1  0.37483111  0.62579251  0.87614050  1
  Fe  Fe49  1  0.75400599  0.75508590  0.49750090  1
  Fe  Fe50  1  0.12213296  0.37478022  0.12936576  1
  Fe  Fe51  1  0.62360943  0.87608719  0.12889838  1
  Fe  Fe52  1  0.62212810  0.87646548  0.87337934  1
  Fe  Fe53  1  0.75352368  0.50266553  0.24976527  1
  Fe  Fe54  1  0.00018708  0.24594304  0.74962810  1
  Fe  Fe55  1  0.12075315  0.87487166  0.37215771  1
  Fe  Fe56  1  0.87466927  0.12359534  0.62438660  1
  Fe  Fe57  1  0.49899903  0.24734157  0.49876601  1
  Fe  Fe58  1  0.62536806  0.37333853  0.62559571  1
  Fe  Fe59  1  0.37605105  0.87646798  0.12568112  1
  Fe  Fe60  1  -0.00364232  0.74941203  0.74893935  1
  Fe  Fe61  1  0.24316717  0.25127732  0.49753265  1
  Fe  Fe62  1  0.25023842  0.49973181  0.74836120  1
  Fe  Fe63  1  0.87949566  0.37596784  0.37241277  1
  Fe  Fe64  1  0.37418017  0.62492384  0.62397702  1
  Fe  Fe65  1  0.37422581  0.62446482  0.37586350  1
  Fe  Fe66  1  0.75097215  0.49801113  0.49910474  1
  Fe  Fe67  1  0.49954992  0.50162999  0.25065375  1
  Fe  Fe68  1  -0.00281301  0.74545559  0.24916776  1
  Fe  Fe69  1  0.75239199  0.50009801  0.75089286  1
  Fe  Fe70  1  0.87687515  0.37585981  0.62773036  1
  Fe  Fe71  1  0.12575128  0.62522905  0.87365138  1
  Fe  Fe72  1  0.75295785  0.25044454  0.50034542  1
  Fe  Fe73  1  0.87610509  0.87631933  0.87492970  1
  Fe  Fe74  1  0.38038848  0.87445910  0.37823027  1
  Fe  Fe75  1  0.37161984  0.37598358  0.37474288  1
  Fe  Fe76  1  0.50169828  0.75267511  0.00128939  1
  Fe  Fe77  1  0.62606319  0.62527724  0.87673506  1
  Fe  Fe78  1  0.00252349  0.49913631  0.50137079  1
  Fe  Fe79  1  0.25416545  0.75402293  0.74864580  1
  Fe  Fe80  1  0.00240717  -0.00158537  0.00121224  1
  Fe  Fe81  1  0.49960208  0.50049745  0.49964670  1
  Fe  Fe82  1  0.50233003  0.00428249  0.25481185  1
  Fe  Fe83  1  0.12414680  0.87572348  0.87047793  1
  Fe  Fe84  1  0.62480175  0.87768117  0.62096048  1
  Fe  Fe85  1  0.24993990  0.24827866  0.75061104  1
  Fe  Fe86  1  0.25155867  0.75093627  0.25124460  1
  Fe  Fe87  1  0.87241820  0.62789603  0.88037125  1
  Fe  Fe88  1  0.12383608  0.62557775  0.62624415  1
  Fe  Fe89  1  0.62557241  0.37319890  0.37506298  1
  Co  Co90  1  0.25393764  -0.00249963  0.75177902  1
  Co  Co91  1  0.37395429  0.37545259  0.87319843  1
  Co  Co92  1  -0.00167018  0.00150266  0.74779175  1
  Co  Co93  1  -0.00345142  0.50604389  0.24733663  1
  Co  Co94  1  0.87598020  0.12354744  0.87785671  1
  Co  Co95  1  0.00390338  0.75211346  -0.00110758  1
  Co  Co96  1  0.62993314  0.12908684  0.37721670  1
  Co  Co97  1  0.24500224  -0.00508109  0.49531974  1
  Co  Co98  1  0.87505425  0.62429573  0.37931824  1
  Co  Co99  1  0.12799011  0.12247973  0.62592880  1
  Co  Co100  1  -0.00327648  0.50343941  0.75182109  1
  Co  Co101  1  0.75151642  0.24743476  0.74976973  1
  Co  Co102  1  0.88113353  0.87845045  0.37260895  1
  Co  Co103  1  0.87219340  0.87580471  0.62732254  1
  Co  Co104  1  0.12675631  0.87454747  0.62978027  1
  Co  Co105  1  0.37552655  0.87894337  0.61851502  1
  Co  Co106  1  0.37081473  0.12566022  0.37679152  1
  Co  Co107  1  0.25134976  0.50148882  0.24721168  1
  Co  Co108  1  0.12407232  0.37529140  0.62988713  1
  Co  Co109  1  0.24764938  0.49965647  0.50247969  1
  Co  Co110  1  0.50085648  0.25151282  -0.00032658  1
  Co  Co111  1  0.37635042  0.87378262  0.87796433  1
  Co  Co112  1  0.50298721  0.00544131  0.49664660  1
  Co  Co113  1  0.87183152  0.62906293  0.11822753  1
  Co  Co114  1  0.49950579  0.74800526  0.24787251  1
  Co  Co115  1  0.12495256  0.87321834  0.12888385  1
  Co  Co116  1  0.50206700  -0.00104560  0.00146176  1
  Co  Co117  1  0.00137880  0.24540209  0.25026236  1
  Co  Co118  1  0.75054304  -0.00206217  0.49655245  1
  Co  Co119  1  0.49938598  0.74707670  0.50355672  1
  Co  Co120  1  0.12823367  0.12528203  0.12254131  1
  Co  Co121  1  0.12039251  0.12157569  0.37738197  1
  Co  Co122  1  0.62552427  0.12564749  0.12552233  1
  Co  Co123  1  0.87333700  0.62480513  0.62280820  1
  Co  Co124  1  0.74641973  0.75693156  -0.00030375  1
  Co  Co125  1  0.12378855  0.37950778  0.36959924  1
  Co  Co126  1  0.75057856  0.49549009  -0.00124498  1
  Co  Co127  1  0.62068635  0.87169759  0.37711666  1
