# generated using pymatgen
data_Fe45Co19
_symmetry_space_group_name_H-M   'P 1'
_cell_length_a   11.41459757
_cell_length_b   11.41537305
_cell_length_c   11.41492172
_cell_angle_alpha   90.00557774
_cell_angle_beta   90.00814749
_cell_angle_gamma   89.99930959
_symmetry_Int_Tables_number   1
_chemical_formula_structural   Fe45Co19
_chemical_formula_sum   'Fe90 Co38'
_cell_volume   1487.38584666
_cell_formula_units_Z   2
loop_
 _symmetry_equiv_pos_site_id
 _symmetry_equiv_pos_as_xyz
  1  'x, y, z'
loop_
 _atom_site_type_symbol
 _atom_site_label
 _atom_site_symmetry_multiplicity
 _atom_site_fract_x
 _atom_site_fract_y
 _atom_site_fract_z
 _atom_site_occupancy
  Fe  Fe0  1  0.87601926  0.87445858  0.87486428  1
  Fe  Fe1  1  0.87599015  0.62423441  0.12426837  1
  Fe  Fe2  1  0.75167065  0.74820456  0.25177423  1
  Fe  Fe3  1  0.87712364  0.12642298  0.87598707  1
  Fe  Fe4  1  0.12426929  0.12264311  0.12782707  1
  Fe  Fe5  1  0.49832645  0.49944045  -0.00088787  1
  Fe  Fe6  1  0.12449204  0.87531130  0.87260477  1
  Fe  Fe7  1  0.87609424  0.37503934  0.12679227  1
  Fe  Fe8  1  0.75435065  0.00007978  0.50316992  1
  Fe  Fe9  1  0.87855322  0.12674502  0.37837537  1
  Fe  Fe10  1  0.75335453  0.00103173  0.24906112  1
  Fe  Fe11  1  0.74800088  0.24998511  0.50151844  1
  Fe  Fe12  1  0.12470624  0.12515314  0.87508183  1
  Fe  Fe13  1  0.75231163  0.00169851  0.00230359  1
  Fe  Fe14  1  0.00012912  0.50335440  0.74896916  1
  Fe  Fe15  1  0.62800783  0.37648750  0.37352858  1
  Fe  Fe16  1  0.75140495  0.50252571  0.74907790  1
  Fe  Fe17  1  0.62609839  0.87600497  0.87275463  1
  Fe  Fe18  1  0.49791211  0.50069909  0.24973921  1
  Fe  Fe19  1  0.37383202  0.62882597  0.87891669  1
  Fe  Fe20  1  0.24740035  0.74820030  0.74819824  1
  Fe  Fe21  1  0.00331088  0.25103223  0.74998412  1
  Fe  Fe22  1  0.37435950  0.62807317  0.62300430  1
  Fe  Fe23  1  0.75057871  0.49919682  -0.00115876  1
  Fe  Fe24  1  0.49670905  0.24365181  0.74844393  1
  Fe  Fe25  1  0.37162003  0.37597553  0.12810527  1
  Fe  Fe26  1  0.25275013  0.00435656  0.75091870  1
  Fe  Fe27  1  0.37196021  0.37069087  0.87302497  1
  Fe  Fe28  1  0.50092745  0.75000199  0.75166232  1
  Fe  Fe29  1  0.00215541  0.25221365  -0.00007360  1
  Fe  Fe30  1  0.75020594  0.24781845  0.24778615  1
  Fe  Fe31  1  0.37011199  0.12712372  0.37712998  1
  Fe  Fe32  1  0.62515522  0.87789669  0.37429184  1
  Fe  Fe33  1  0.37301726  0.87535330  0.62429608  1
  Fe  Fe34  1  0.62546383  0.12357558  0.37554974  1
  Fe  Fe35  1  -0.00344461  -0.00012550  0.74724036  1
  Fe  Fe36  1  0.50109380  0.75121853  0.49933180  1
  Fe  Fe37  1  0.62370678  0.62417511  0.12423286  1
  Fe  Fe38  1  0.24906074  0.49972115  -0.00055446  1
  Fe  Fe39  1  0.25047823  0.50176214  0.74973776  1
  Fe  Fe40  1  0.37340155  0.87317673  0.37447463  1
  Fe  Fe41  1  0.00174465  0.75150974  -0.00049299  1
  Fe  Fe42  1  0.87672751  0.87304151  0.37665345  1
  Fe  Fe43  1  0.37334042  0.12571452  0.12434225  1
  Fe  Fe44  1  0.00586236  0.75473577  0.50209310  1
  Fe  Fe45  1  0.49786689  0.00160190  0.24908489  1
  Fe  Fe46  1  0.75413676  0.00247508  0.74598180  1
  Fe  Fe47  1  0.62658628  0.87504880  0.12716070  1
  Fe  Fe48  1  0.87813024  0.12595591  0.12416663  1
  Fe  Fe49  1  0.87375176  0.62874742  0.62028545  1
  Fe  Fe50  1  0.62575082  0.62593789  0.62429197  1
  Fe  Fe51  1  0.37466565  0.87154776  0.12453930  1
  Fe  Fe52  1  0.87621402  0.37527645  0.87381914  1
  Fe  Fe53  1  0.62713905  0.62178210  0.37639796  1
  Fe  Fe54  1  -0.00244237  0.49892199  0.25637256  1
  Fe  Fe55  1  0.50047747  -0.00058774  0.00077057  1
  Fe  Fe56  1  0.12360052  0.12231250  0.62337076  1
  Fe  Fe57  1  0.00576773  0.25380060  0.49634113  1
  Fe  Fe58  1  0.37361665  0.62495746  0.37704931  1
  Fe  Fe59  1  0.49949361  0.00080158  0.50095651  1
  Fe  Fe60  1  0.00122370  0.49840964  -0.00263975  1
  Fe  Fe61  1  0.12648972  0.62156658  0.38099145  1
  Fe  Fe62  1  0.50122779  0.25049756  0.00121697  1
  Fe  Fe63  1  0.12447298  0.62224357  0.12443203  1
  Fe  Fe64  1  0.62298545  0.37367154  0.62608903  1
  Fe  Fe65  1  0.62556135  0.12522266  0.87627870  1
  Fe  Fe66  1  0.87586378  0.37276424  0.62422624  1
  Fe  Fe67  1  0.62485568  0.37418703  0.87322586  1
  Fe  Fe68  1  0.49643851  0.00404719  0.74892252  1
  Fe  Fe69  1  0.37364714  0.87310027  0.87674122  1
  Fe  Fe70  1  0.24497368  -0.00417129  0.49684787  1
  Fe  Fe71  1  0.24585879  0.25181838  0.00174838  1
  Fe  Fe72  1  0.50015261  0.74838814  0.25016502  1
  Fe  Fe73  1  -0.00083001  0.74729210  0.25073344  1
  Fe  Fe74  1  0.24946073  0.74700753  0.24950836  1
  Fe  Fe75  1  0.49869674  0.49733087  0.50037214  1
  Fe  Fe76  1  0.00535591  0.25452261  0.25337160  1
  Fe  Fe77  1  0.75083480  0.24784152  0.74967263  1
  Fe  Fe78  1  0.12333665  0.87638506  0.12893669  1
  Fe  Fe79  1  0.49910069  0.24865966  0.25141292  1
  Fe  Fe80  1  -0.00186570  -0.00112580  0.25097703  1
  Fe  Fe81  1  0.37381256  0.36913683  0.62380383  1
  Fe  Fe82  1  0.75014741  0.74869259  -0.00246615  1
  Fe  Fe83  1  0.00148686  0.74760717  0.74888635  1
  Fe  Fe84  1  0.12643622  0.37945914  0.62484855  1
  Fe  Fe85  1  0.62663352  0.87486064  0.62659263  1
  Fe  Fe86  1  0.49730430  0.50119701  0.75028225  1
  Fe  Fe87  1  0.24783363  -0.00179064  0.00052986  1
  Fe  Fe88  1  0.62668122  0.37468984  0.12648943  1
  Fe  Fe89  1  0.36945808  0.37348430  0.37457437  1
  Co  Co90  1  0.12463971  0.12121615  0.37235608  1
  Co  Co91  1  0.00101008  -0.00403972  0.50076267  1
  Co  Co92  1  0.24282079  0.24976183  0.50024430  1
  Co  Co93  1  0.12444912  0.37998247  0.12687673  1
  Co  Co94  1  0.87559337  0.87339742  0.12489851  1
  Co  Co95  1  0.25031935  0.50462893  0.24894592  1
  Co  Co96  1  0.37539046  0.62650132  0.12158046  1
  Co  Co97  1  0.37363388  0.12720612  0.87986576  1
  Co  Co98  1  0.12734676  0.87789839  0.63024909  1
  Co  Co99  1  0.87409629  0.86990073  0.62465103  1
  Co  Co100  1  0.12590186  0.62455731  0.87562495  1
  Co  Co101  1  0.62396713  0.12494368  0.12528933  1
  Co  Co102  1  0.37218708  0.12522183  0.61764461  1
  Co  Co103  1  -0.00537088  0.49600635  0.49778859  1
  Co  Co104  1  0.87765030  0.62433215  0.87603734  1
  Co  Co105  1  0.24713252  0.75324480  0.50035199  1
  Co  Co106  1  0.12617366  0.37655544  0.87215419  1
  Co  Co107  1  0.25250598  -0.00106729  0.24949515  1
  Co  Co108  1  0.87554734  0.62837338  0.38042077  1
  Co  Co109  1  0.75174982  0.49778657  0.50217283  1
  Co  Co110  1  0.13192826  0.38212888  0.37604324  1
  Co  Co111  1  0.74612060  0.75258242  0.49727611  1
  Co  Co112  1  0.50353669  0.75184233  -0.00072305  1
  Co  Co113  1  0.62423971  0.12467187  0.62413292  1
  Co  Co114  1  0.12497467  0.62144028  0.62064582  1
  Co  Co115  1  0.24423115  0.75208974  0.00244068  1
  Co  Co116  1  0.24823897  0.24661409  0.74720908  1
  Co  Co117  1  0.12391975  0.87422027  0.36910607  1
  Co  Co118  1  0.75350021  0.50268778  0.25010900  1
  Co  Co119  1  0.25531867  0.49979884  0.50390371  1
  Co  Co120  1  0.87992768  0.12959166  0.62166983  1
  Co  Co121  1  0.75202014  0.25049824  0.00043730  1
  Co  Co122  1  0.24585420  0.25024899  0.24912097  1
  Co  Co123  1  0.87065435  0.37172280  0.37428636  1
  Co  Co124  1  0.00112065  -0.00123144  0.00024976  1
  Co  Co125  1  0.62282699  0.62249913  0.87489467  1
  Co  Co126  1  0.75049240  0.74744918  0.75331618  1
  Co  Co127  1  0.50161576  0.25072544  0.49716219  1
