# generated using pymatgen
data_Fe45Co19
_symmetry_space_group_name_H-M   'P 1'
_cell_length_a   11.41537388
_cell_length_b   11.41479682
_cell_length_c   11.41401872
_cell_angle_alpha   90.00060941
_cell_angle_beta   90.00579889
_cell_angle_gamma   89.99874852
_symmetry_Int_Tables_number   1
_chemical_formula_structural   Fe45Co19
_chemical_formula_sum   'Fe90 Co38'
_cell_volume   1487.29426672
_cell_formula_units_Z   2
loop_
 _symmetry_equiv_pos_site_id
 _symmetry_equiv_pos_as_xyz
  1  'x, y, z'
loop_
 _atom_site_type_symbol
 _atom_site_label
 _atom_site_symmetry_multiplicity
 _atom_site_fract_x
 _atom_site_fract_y
 _atom_site_fract_z
 _atom_site_occupancy
  Fe  Fe0  1  0.87052526  0.87576492  0.12449237  1
  Fe  Fe1  1  0.62371381  0.87625960  0.37351380  1
  Fe  Fe2  1  -0.00001245  0.25128582  0.75095796  1
  Fe  Fe3  1  0.87568153  0.12613571  0.12496138  1
  Fe  Fe4  1  0.25193032  0.75155865  0.25051026  1
  Fe  Fe5  1  0.00034773  -0.00175347  0.50374535  1
  Fe  Fe6  1  0.50145429  0.75062112  0.75037532  1
  Fe  Fe7  1  0.12349306  0.62478893  0.62226322  1
  Fe  Fe8  1  0.37745405  0.62199697  0.62317263  1
  Fe  Fe9  1  0.12544089  0.87380748  0.87556592  1
  Fe  Fe10  1  0.74987908  0.74861795  0.75084892  1
  Fe  Fe11  1  0.50314095  -0.00063112  0.75177209  1
  Fe  Fe12  1  0.37725004  0.37630411  0.37608679  1
  Fe  Fe13  1  0.50071170  0.00267797  0.00150548  1
  Fe  Fe14  1  0.12762831  0.37267874  0.12336997  1
  Fe  Fe15  1  -0.00340598  0.25147382  0.49976367  1
  Fe  Fe16  1  -0.00182339  0.75195542  0.74632953  1
  Fe  Fe17  1  0.00021076  0.50001745  0.74975722  1
  Fe  Fe18  1  0.37481756  0.87767810  0.87594041  1
  Fe  Fe19  1  0.87411742  0.37623404  0.12987511  1
  Fe  Fe20  1  0.74696950  0.00337561  0.24894202  1
  Fe  Fe21  1  0.50109755  0.25273173  0.75798013  1
  Fe  Fe22  1  0.00126970  0.50026600  0.00231128  1
  Fe  Fe23  1  0.37801813  0.37629152  0.62457344  1
  Fe  Fe24  1  -0.00421620  0.49814933  0.49672088  1
  Fe  Fe25  1  0.12452567  0.62541760  0.87629025  1
  Fe  Fe26  1  0.62709429  0.37047024  0.12264660  1
  Fe  Fe27  1  0.87216136  0.87570368  0.87629181  1
  Fe  Fe28  1  0.74715703  0.74835712  0.24713714  1
  Fe  Fe29  1  0.62445941  0.13288031  0.37546695  1
  Fe  Fe30  1  0.87491109  0.62157199  0.12984715  1
  Fe  Fe31  1  0.00133240  0.24950507  0.24949594  1
  Fe  Fe32  1  0.37493531  0.12409164  0.36985601  1
  Fe  Fe33  1  0.24789159  0.00299069  0.00238291  1
  Fe  Fe34  1  0.12787281  0.37669217  0.87755176  1
  Fe  Fe35  1  0.62656632  0.87582890  0.62419273  1
  Fe  Fe36  1  0.50027958  0.74959059  0.49930969  1
  Fe  Fe37  1  0.12394555  0.87508567  0.37619204  1
  Fe  Fe38  1  0.00084063  0.00056444  0.24844746  1
  Fe  Fe39  1  -0.00178004  0.25091603  -0.00065179  1
  Fe  Fe40  1  0.62624667  0.62258440  0.37465793  1
  Fe  Fe41  1  0.00144610  -0.00237412  0.74648747  1
  Fe  Fe42  1  0.37741883  0.87785656  0.12838881  1
  Fe  Fe43  1  0.25042686  0.25078395  0.75246491  1
  Fe  Fe44  1  0.49983607  0.00236909  0.49837215  1
  Fe  Fe45  1  -0.00064451  0.00053682  0.00141045  1
  Fe  Fe46  1  0.50369603  0.49530236  0.25021661  1
  Fe  Fe47  1  0.75019622  0.49118583  0.49777429  1
  Fe  Fe48  1  0.25166699  0.74858839  0.74999430  1
  Fe  Fe49  1  -0.00239112  0.74855455  0.00121664  1
  Fe  Fe50  1  0.24788034  0.49897307  0.24924476  1
  Fe  Fe51  1  0.25201000  0.74805813  0.00132689  1
  Fe  Fe52  1  0.37055902  0.37252735  0.12175233  1
  Fe  Fe53  1  0.24945770  0.50053834  0.74864640  1
  Fe  Fe54  1  0.37708762  0.62251703  0.12606064  1
  Fe  Fe55  1  0.62625318  0.62324227  0.62280918  1
  Fe  Fe56  1  0.74884003  0.00439408  0.75261346  1
  Fe  Fe57  1  0.62441023  0.12972149  0.12143041  1
  Fe  Fe58  1  0.25233679  0.25024039  0.49963223  1
  Fe  Fe59  1  0.37657526  0.12637206  0.62853538  1
  Fe  Fe60  1  0.87061890  0.37604619  0.87189861  1
  Fe  Fe61  1  0.62800277  0.87537150  0.88003878  1
  Fe  Fe62  1  0.75068278  0.50121633  0.00261635  1
  Fe  Fe63  1  0.37254134  0.12730304  0.12770984  1
  Fe  Fe64  1  0.37578501  0.87524695  0.62331889  1
  Fe  Fe65  1  0.87408218  0.62299388  0.87461390  1
  Fe  Fe66  1  0.12284168  0.12486643  0.87502669  1
  Fe  Fe67  1  0.74878408  0.00280871  0.49920320  1
  Fe  Fe68  1  0.25187305  0.74917687  0.49845569  1
  Fe  Fe69  1  -0.00209727  0.74844692  0.25137661  1
  Fe  Fe70  1  0.50222699  0.75100130  0.24970159  1
  Fe  Fe71  1  0.50039003  0.49544206  -0.00053396  1
  Fe  Fe72  1  0.12438127  0.87337254  0.12561064  1
  Fe  Fe73  1  0.62577443  0.62326471  0.87782084  1
  Fe  Fe74  1  0.50090840  0.75061897  0.00117470  1
  Fe  Fe75  1  0.25057589  0.00127898  0.50035242  1
  Fe  Fe76  1  0.87498022  0.12655472  0.37457496  1
  Fe  Fe77  1  0.62401802  0.13053099  0.62376321  1
  Fe  Fe78  1  0.37650826  0.62163659  0.37470490  1
  Fe  Fe79  1  0.87347476  0.62283137  0.62248002  1
  Fe  Fe80  1  0.12349411  0.62474838  0.37513166  1
  Fe  Fe81  1  0.12509797  0.12471263  0.37444394  1
  Fe  Fe82  1  0.12396400  0.37467479  0.37562153  1
  Fe  Fe83  1  0.87362361  0.87581600  0.37472801  1
  Fe  Fe84  1  0.50428956  0.49726681  0.75088337  1
  Fe  Fe85  1  0.75159056  0.75126467  0.49889140  1
  Fe  Fe86  1  0.24792476  0.00051141  0.74811435  1
  Fe  Fe87  1  0.12432370  0.37439034  0.62320528  1
  Fe  Fe88  1  0.87526275  0.12655078  0.62658881  1
  Fe  Fe89  1  0.37662977  0.62185953  0.87607111  1
  Co  Co90  1  0.49806098  0.25217536  0.24757929  1
  Co  Co91  1  0.74785445  0.24819635  0.75023843  1
  Co  Co92  1  0.62492232  0.12790389  0.87962668  1
  Co  Co93  1  0.86995080  0.87750539  0.62501486  1
  Co  Co94  1  0.87864491  0.12488927  0.87299985  1
  Co  Co95  1  0.50411541  0.49905390  0.49876814  1
  Co  Co96  1  0.50482580  0.00325138  0.24940786  1
  Co  Co97  1  0.24796983  0.50412527  0.00194717  1
  Co  Co98  1  0.75576983  0.24845827  -0.00130673  1
  Co  Co99  1  0.62202319  0.36990313  0.62357570  1
  Co  Co100  1  0.62187826  0.62200060  0.12412744  1
  Co  Co101  1  0.87611200  0.37417883  0.62969737  1
  Co  Co102  1  0.62687751  0.87650110  0.12255726  1
  Co  Co103  1  0.12832507  0.87234461  0.62305556  1
  Co  Co104  1  -0.00329254  0.75121134  0.50100709  1
  Co  Co105  1  0.37783248  0.87761185  0.37435373  1
  Co  Co106  1  0.74431233  0.49733212  0.25207609  1
  Co  Co107  1  0.25112761  0.24532507  -0.00470300  1
  Co  Co108  1  0.75033558  0.24838725  0.24926299  1
  Co  Co109  1  0.12496217  0.12913229  0.62458207  1
  Co  Co110  1  0.24945993  0.49885154  0.50009066  1
  Co  Co111  1  0.75520778  0.25406833  0.50171860  1
  Co  Co112  1  0.74706137  0.50004223  0.74684822  1
  Co  Co113  1  0.75187676  0.00471325  0.00031719  1
  Co  Co114  1  0.63121326  0.37464783  0.87792701  1
  Co  Co115  1  0.12493186  0.62721481  0.12656433  1
  Co  Co116  1  0.37046583  0.37901592  0.87656353  1
  Co  Co117  1  0.49519490  0.24884529  0.49868636  1
  Co  Co118  1  0.24719740  -0.00120432  0.24944522  1
  Co  Co119  1  0.12512674  0.12844740  0.12541066  1
  Co  Co120  1  0.24918786  0.25215149  0.25303515  1
  Co  Co121  1  0.75096962  0.74530664  0.00244091  1
  Co  Co122  1  0.87203260  0.62323249  0.37355117  1
  Co  Co123  1  0.49557350  0.25179044  -0.00377900  1
  Co  Co124  1  0.62371971  0.36717030  0.37619139  1
  Co  Co125  1  0.87508185  0.37350777  0.36756939  1
  Co  Co126  1  0.37527498  0.12119103  0.87318032  1
  Co  Co127  1  0.00406754  0.49979131  0.24995665  1
