# generated using pymatgen
data_Fe45Co19
_symmetry_space_group_name_H-M   'P 1'
_cell_length_a   11.41383828
_cell_length_b   11.41473146
_cell_length_c   11.41483847
_cell_angle_alpha   89.99887664
_cell_angle_beta   89.99204254
_cell_angle_gamma   89.99491690
_symmetry_Int_Tables_number   1
_chemical_formula_structural   Fe45Co19
_chemical_formula_sum   'Fe90 Co38'
_cell_volume   1487.19247061
_cell_formula_units_Z   2
loop_
 _symmetry_equiv_pos_site_id
 _symmetry_equiv_pos_as_xyz
  1  'x, y, z'
loop_
 _atom_site_type_symbol
 _atom_site_label
 _atom_site_symmetry_multiplicity
 _atom_site_fract_x
 _atom_site_fract_y
 _atom_site_fract_z
 _atom_site_occupancy
  Fe  Fe0  1  -0.00000082  0.25145540  0.50025159  1
  Fe  Fe1  1  -0.00006531  0.74605959  0.24971556  1
  Fe  Fe2  1  0.87592304  0.62333336  0.62793569  1
  Fe  Fe3  1  0.12133520  0.12313938  0.62429423  1
  Fe  Fe4  1  0.75270571  0.49950011  -0.00090817  1
  Fe  Fe5  1  0.87662834  0.12474212  0.37533921  1
  Fe  Fe6  1  0.12693275  0.37563510  0.37676907  1
  Fe  Fe7  1  0.25080695  0.50022392  0.24878517  1
  Fe  Fe8  1  0.37390275  0.87495203  0.12483872  1
  Fe  Fe9  1  -0.00054623  0.74809495  0.49964680  1
  Fe  Fe10  1  0.12581646  0.12706316  0.37451365  1
  Fe  Fe11  1  0.74696735  -0.00129993  0.49676800  1
  Fe  Fe12  1  0.74819364  0.24708512  0.24860457  1
  Fe  Fe13  1  0.24981131  -0.00007429  0.24839115  1
  Fe  Fe14  1  0.62507596  0.37542599  0.12528988  1
  Fe  Fe15  1  0.62576172  0.62756190  0.37540459  1
  Fe  Fe16  1  0.12506732  0.62510139  0.12229996  1
  Fe  Fe17  1  0.75171864  0.25062875  0.49992688  1
  Fe  Fe18  1  0.25070212  0.50041793  0.50223089  1
  Fe  Fe19  1  0.62546416  0.12535401  0.87672111  1
  Fe  Fe20  1  0.74915462  0.24894375  0.74740498  1
  Fe  Fe21  1  0.74937015  -0.00056344  0.74923695  1
  Fe  Fe22  1  0.00137766  0.00141231  0.00119324  1
  Fe  Fe23  1  -0.00077774  0.75163685  0.75131730  1
  Fe  Fe24  1  0.37235245  0.62684626  0.37582558  1
  Fe  Fe25  1  0.25052031  0.74811165  0.74928977  1
  Fe  Fe26  1  0.49963364  -0.00244314  0.00005526  1
  Fe  Fe27  1  0.49839413  0.24904201  0.74829931  1
  Fe  Fe28  1  0.49900410  0.49891492  0.25224285  1
  Fe  Fe29  1  0.62368821  0.62455062  0.12528726  1
  Fe  Fe30  1  0.00013483  -0.00083031  0.24958793  1
  Fe  Fe31  1  0.50113671  0.00009100  0.75129147  1
  Fe  Fe32  1  0.37591161  0.12402654  0.12418551  1
  Fe  Fe33  1  0.87411789  0.87495609  0.87659031  1
  Fe  Fe34  1  0.00066282  0.49700090  0.75359551  1
  Fe  Fe35  1  -0.00127290  0.25232275  0.00098742  1
  Fe  Fe36  1  0.75136236  0.74875154  0.00254121  1
  Fe  Fe37  1  0.25161174  0.24928147  0.74568278  1
  Fe  Fe38  1  0.37575897  0.62308972  0.62585127  1
  Fe  Fe39  1  0.25191597  0.25214885  0.24914259  1
  Fe  Fe40  1  0.62256215  0.37343102  0.37684084  1
  Fe  Fe41  1  0.37393697  0.12311004  0.87533907  1
  Fe  Fe42  1  0.12666170  0.87490190  0.87652858  1
  Fe  Fe43  1  0.37674892  0.62489960  0.12299486  1
  Fe  Fe44  1  0.49937676  0.75131778  0.75185512  1
  Fe  Fe45  1  0.62739998  0.37366889  0.87395749  1
  Fe  Fe46  1  0.37574290  0.87688520  0.62395270  1
  Fe  Fe47  1  0.12617690  0.62552156  0.37785177  1
  Fe  Fe48  1  0.49863569  0.25039749  0.24896997  1
  Fe  Fe49  1  0.00071318  0.25187943  0.24891726  1
  Fe  Fe50  1  0.87650245  0.12719761  0.87317975  1
  Fe  Fe51  1  0.87368018  0.87440804  0.37316156  1
  Fe  Fe52  1  0.75159354  0.00182609  0.00364232  1
  Fe  Fe53  1  0.87556869  0.38001242  0.37111314  1
  Fe  Fe54  1  0.25024104  0.24932742  0.00136370  1
  Fe  Fe55  1  0.62724635  0.62745445  0.87367940  1
  Fe  Fe56  1  0.37369320  0.12604477  0.37700487  1
  Fe  Fe57  1  0.37258343  0.37568536  0.87299895  1
  Fe  Fe58  1  0.75073977  0.75078537  0.50167928  1
  Fe  Fe59  1  0.74945773  0.50074188  0.49920326  1
  Fe  Fe60  1  0.62584961  0.62620709  0.62619791  1
  Fe  Fe61  1  0.87681112  0.87775958  0.62449753  1
  Fe  Fe62  1  0.50184245  -0.00391541  0.49407229  1
  Fe  Fe63  1  0.62347679  0.12385022  0.62179010  1
  Fe  Fe64  1  -0.00332474  0.49740695  -0.00191705  1
  Fe  Fe65  1  0.75364967  0.74697306  0.24818052  1
  Fe  Fe66  1  0.12820348  0.87088557  0.37490059  1
  Fe  Fe67  1  0.49951764  0.25123822  -0.00055941  1
  Fe  Fe68  1  0.12316264  0.87483027  0.62426493  1
  Fe  Fe69  1  0.49505679  0.25101587  0.50230820  1
  Fe  Fe70  1  0.50019324  0.49968568  -0.00186226  1
  Fe  Fe71  1  0.12494661  0.62464848  0.87448490  1
  Fe  Fe72  1  0.62617453  0.87343517  0.87455289  1
  Fe  Fe73  1  -0.00380700  0.74813077  0.00050274  1
  Fe  Fe74  1  0.49976052  0.75241123  0.49812653  1
  Fe  Fe75  1  0.12514822  0.87362460  0.12425108  1
  Fe  Fe76  1  0.62300710  0.37639978  0.62343905  1
  Fe  Fe77  1  0.87533968  0.37656662  0.62691179  1
  Fe  Fe78  1  0.24812171  -0.00017119  0.49949199  1
  Fe  Fe79  1  0.75164057  0.24986194  0.00309536  1
  Fe  Fe80  1  0.62643498  0.87822073  0.12985425  1
  Fe  Fe81  1  0.25158669  0.50003881  -0.00201751  1
  Fe  Fe82  1  0.12536938  0.37573367  0.12420035  1
  Fe  Fe83  1  0.12615870  0.37673911  0.62504051  1
  Fe  Fe84  1  0.50072351  0.49967462  0.75141805  1
  Fe  Fe85  1  0.87806692  0.12180974  0.62449545  1
  Fe  Fe86  1  0.12454457  0.12671372  0.87470624  1
  Fe  Fe87  1  0.49713721  0.75202198  0.25050694  1
  Fe  Fe88  1  0.25323076  0.74982623  -0.00138378  1
  Fe  Fe89  1  0.24913426  -0.00025885  0.75043893  1
  Co  Co90  1  0.87360834  0.62531841  0.87237002  1
  Co  Co91  1  0.74498941  0.50071170  0.25188577  1
  Co  Co92  1  0.00132110  0.25117247  0.74773714  1
  Co  Co93  1  0.37407711  0.87534056  0.87445782  1
  Co  Co94  1  0.24933189  0.50205363  0.75105587  1
  Co  Co95  1  0.87283337  0.37190011  0.87241095  1
  Co  Co96  1  0.12783487  0.37312283  0.87518183  1
  Co  Co97  1  0.37679057  0.62551255  0.87578794  1
  Co  Co98  1  -0.00079594  0.49914237  0.49951615  1
  Co  Co99  1  0.24953424  0.24946874  0.50391801  1
  Co  Co100  1  0.37404561  0.37503592  0.37788592  1
  Co  Co101  1  0.87449707  0.37765294  0.12966341  1
  Co  Co102  1  0.87786258  0.12578108  0.12620063  1
  Co  Co103  1  0.75190196  0.75331666  0.74853637  1
  Co  Co104  1  0.12128814  0.62309258  0.62643906  1
  Co  Co105  1  0.50182057  0.75281958  0.00088462  1
  Co  Co106  1  0.24846443  0.00038711  0.00113661  1
  Co  Co107  1  0.62248478  0.12821665  0.37647256  1
  Co  Co108  1  0.36944721  0.87274661  0.37570130  1
  Co  Co109  1  0.00059322  -0.00155702  0.75355289  1
  Co  Co110  1  0.62176631  0.12343778  0.12429298  1
  Co  Co111  1  0.00207500  -0.00116060  0.49536566  1
  Co  Co112  1  0.37685949  0.11975359  0.62293977  1
  Co  Co113  1  0.12446165  0.12657345  0.12626487  1
  Co  Co114  1  0.75089811  0.00599713  0.25105745  1
  Co  Co115  1  0.49754985  -0.00055218  0.25353275  1
  Co  Co116  1  0.87491090  0.62261206  0.37444885  1
  Co  Co117  1  0.62301410  0.87511154  0.62571988  1
  Co  Co118  1  0.62876440  0.87251754  0.36953040  1
  Co  Co119  1  0.00530849  0.50289382  0.25000410  1
  Co  Co120  1  0.24937225  0.74853928  0.50542395  1
  Co  Co121  1  0.74823992  0.49859086  0.74972947  1
  Co  Co122  1  0.24965473  0.74761438  0.24650033  1
  Co  Co123  1  0.87564901  0.62019987  0.12668762  1
  Co  Co124  1  0.50064382  0.50295260  0.49788876  1
  Co  Co125  1  0.87568643  0.87559165  0.12641227  1
  Co  Co126  1  0.37530350  0.37932682  0.62527543  1
  Co  Co127  1  0.37523378  0.37621399  0.12348055  1
