# generated using pymatgen
data_Fe45Co19
_symmetry_space_group_name_H-M   'P 1'
_cell_length_a   11.41512493
_cell_length_b   11.41479815
_cell_length_c   11.41534666
_cell_angle_alpha   90.00833066
_cell_angle_beta   89.99953561
_cell_angle_gamma   89.99265970
_symmetry_Int_Tables_number   1
_chemical_formula_structural   Fe45Co19
_chemical_formula_sum   'Fe90 Co38'
_cell_volume   1487.43501737
_cell_formula_units_Z   2
loop_
 _symmetry_equiv_pos_site_id
 _symmetry_equiv_pos_as_xyz
  1  'x, y, z'
loop_
 _atom_site_type_symbol
 _atom_site_label
 _atom_site_symmetry_multiplicity
 _atom_site_fract_x
 _atom_site_fract_y
 _atom_site_fract_z
 _atom_site_occupancy
  Fe  Fe0  1  0.25056500  0.25295111  0.49797696  1
  Fe  Fe1  1  0.37732383  0.12498907  0.62200129  1
  Fe  Fe2  1  0.49629591  0.25130671  0.00148342  1
  Fe  Fe3  1  0.24746408  0.74677926  0.75147288  1
  Fe  Fe4  1  0.00394729  0.50162046  0.25007500  1
  Fe  Fe5  1  0.62402154  0.37514744  0.37297310  1
  Fe  Fe6  1  0.87478139  0.37541958  0.62510279  1
  Fe  Fe7  1  0.12700950  0.62279821  0.62253287  1
  Fe  Fe8  1  0.50023383  0.74732559  0.24690880  1
  Fe  Fe9  1  0.62470083  0.37439740  0.87706792  1
  Fe  Fe10  1  0.37350676  0.62249466  0.62482831  1
  Fe  Fe11  1  0.37212363  0.37684266  0.36981554  1
  Fe  Fe12  1  0.62382841  0.12486263  0.87599204  1
  Fe  Fe13  1  0.25012536  0.74139541  0.24791272  1
  Fe  Fe14  1  0.37241948  0.87439364  0.62758531  1
  Fe  Fe15  1  0.00071707  -0.00043730  0.74928781  1
  Fe  Fe16  1  0.74958718  0.74903091  0.49892870  1
  Fe  Fe17  1  0.12592156  0.12490419  0.12230009  1
  Fe  Fe18  1  0.12092844  0.62779243  0.88069903  1
  Fe  Fe19  1  0.49890048  0.50050371  0.75289029  1
  Fe  Fe20  1  0.74754909  0.50119805  0.24801411  1
  Fe  Fe21  1  0.74827040  0.00218958  0.25217993  1
  Fe  Fe22  1  0.12478778  0.87281767  0.87449559  1
  Fe  Fe23  1  0.87616329  0.62525081  0.37522576  1
  Fe  Fe24  1  0.49987355  -0.00180610  0.75166433  1
  Fe  Fe25  1  0.87255960  0.87308042  0.62887961  1
  Fe  Fe26  1  0.75054115  0.50268978  0.75256535  1
  Fe  Fe27  1  0.00083237  0.74988577  0.24763064  1
  Fe  Fe28  1  0.87643320  0.12400982  0.12581978  1
  Fe  Fe29  1  0.87502658  0.62434793  0.62533030  1
  Fe  Fe30  1  0.50202218  0.75031585  0.75277081  1
  Fe  Fe31  1  0.25272772  0.00454002  0.25226437  1
  Fe  Fe32  1  0.87756837  0.12457374  0.37438516  1
  Fe  Fe33  1  0.74934902  -0.00010120  0.49990262  1
  Fe  Fe34  1  0.62377483  0.62427517  0.37558349  1
  Fe  Fe35  1  0.62786696  0.87499075  0.62787954  1
  Fe  Fe36  1  0.75104691  0.24767133  0.75097051  1
  Fe  Fe37  1  0.49676701  0.00175971  0.25197703  1
  Fe  Fe38  1  0.24895460  0.24851353  0.75129263  1
  Fe  Fe39  1  0.00182023  0.24939895  0.24836424  1
  Fe  Fe40  1  0.62308121  0.62371040  0.88087134  1
  Fe  Fe41  1  0.24996966  0.00223502  0.75178179  1
  Fe  Fe42  1  0.62670336  0.87527797  0.12627583  1
  Fe  Fe43  1  0.49817597  0.75212598  0.49974635  1
  Fe  Fe44  1  0.00088514  -0.00285280  0.50024329  1
  Fe  Fe45  1  0.61873320  0.12660772  0.37903818  1
  Fe  Fe46  1  0.00211734  0.49723277  0.49804318  1
  Fe  Fe47  1  0.75095716  0.75088793  0.00010013  1
  Fe  Fe48  1  0.75202389  0.00092961  -0.00193661  1
  Fe  Fe49  1  -0.00157847  0.49746715  0.00210504  1
  Fe  Fe50  1  0.62146910  0.12515599  0.62155812  1
  Fe  Fe51  1  0.37324320  0.37422313  0.87431782  1
  Fe  Fe52  1  0.49733154  -0.00481721  -0.00334946  1
  Fe  Fe53  1  0.62437101  0.87417807  0.37363255  1
  Fe  Fe54  1  0.87573547  0.37524811  0.37317043  1
  Fe  Fe55  1  0.37302965  0.87350786  0.12562397  1
  Fe  Fe56  1  0.00157617  0.75244344  0.50243986  1
  Fe  Fe57  1  0.74789446  0.24901281  0.24876696  1
  Fe  Fe58  1  0.25116004  0.50151126  0.00056854  1
  Fe  Fe59  1  0.00158055  0.50107217  0.75157976  1
  Fe  Fe60  1  0.12497235  0.37269090  0.87708826  1
  Fe  Fe61  1  0.37691492  0.62848345  0.88022223  1
  Fe  Fe62  1  0.37028053  0.37915074  0.62800415  1
  Fe  Fe63  1  0.37157620  0.37446010  0.12779293  1
  Fe  Fe64  1  0.87532378  0.87559319  0.37278625  1
  Fe  Fe65  1  0.12676712  0.37702305  0.62580912  1
  Fe  Fe66  1  0.62766639  0.37695626  0.62626073  1
  Fe  Fe67  1  0.12372339  0.12614165  0.37654083  1
  Fe  Fe68  1  0.25274800  0.00057826  -0.00270248  1
  Fe  Fe69  1  0.62401836  0.62252859  0.62325861  1
  Fe  Fe70  1  0.25182907  0.74859830  0.49843871  1
  Fe  Fe71  1  0.75020621  0.25143467  0.49884927  1
  Fe  Fe72  1  0.87275160  0.87619503  0.12878940  1
  Fe  Fe73  1  0.75089811  0.49758542  0.00198190  1
  Fe  Fe74  1  0.12696254  0.87332086  0.37336294  1
  Fe  Fe75  1  0.87672572  0.37296944  0.87499149  1
  Fe  Fe76  1  0.25295341  -0.00181290  0.49722063  1
  Fe  Fe77  1  0.62159708  0.12491228  0.12346755  1
  Fe  Fe78  1  0.49910887  0.25168251  0.74857662  1
  Fe  Fe79  1  -0.00170658  -0.00275984  0.00024132  1
  Fe  Fe80  1  0.50102729  0.50201457  0.24403598  1
  Fe  Fe81  1  0.12704668  0.87455203  0.12555519  1
  Fe  Fe82  1  0.12899703  0.37466285  0.12726069  1
  Fe  Fe83  1  0.12397618  0.12533341  0.62284722  1
  Fe  Fe84  1  0.87253660  0.87269624  0.86927943  1
  Fe  Fe85  1  0.12163445  0.12797577  0.87728351  1
  Fe  Fe86  1  0.87742663  0.12660560  0.62504073  1
  Fe  Fe87  1  0.49852355  0.49680560  0.50026915  1
  Fe  Fe88  1  0.87486828  0.62488481  0.12503641  1
  Fe  Fe89  1  0.75290390  0.24984017  0.00185832  1
  Co  Co90  1  0.49773175  0.49549196  0.00212365  1
  Co  Co91  1  -0.00410888  0.75504612  0.00241989  1
  Co  Co92  1  0.12895901  0.87574309  0.62533878  1
  Co  Co93  1  0.37789304  0.62644818  0.11938932  1
  Co  Co94  1  -0.00085755  0.25183682  0.00465513  1
  Co  Co95  1  0.37604721  0.12330742  0.12213325  1
  Co  Co96  1  0.62440022  0.37233681  0.12402841  1
  Co  Co97  1  0.87735486  0.62539748  0.87695019  1
  Co  Co98  1  0.24851715  0.50400594  0.75646072  1
  Co  Co99  1  0.75032057  0.50018126  0.49818809  1
  Co  Co100  1  0.00077913  0.25277647  0.49927741  1
  Co  Co101  1  0.37717191  0.12598056  0.87374596  1
  Co  Co102  1  0.12272025  0.62722300  0.37786141  1
  Co  Co103  1  0.25196495  0.24903883  -0.00024321  1
  Co  Co104  1  0.50227778  0.75728995  -0.00048244  1
  Co  Co105  1  0.37133674  0.87215584  0.87265184  1
  Co  Co106  1  0.87526248  0.37596455  0.12878490  1
  Co  Co107  1  0.49822539  -0.00713362  0.49957837  1
  Co  Co108  1  0.24792863  0.50831535  0.24868322  1
  Co  Co109  1  0.37912800  0.12762514  0.38037392  1
  Co  Co110  1  0.24941861  0.49958529  0.49480216  1
  Co  Co111  1  0.87907774  0.12667048  0.87574287  1
  Co  Co112  1  0.62537257  0.62612839  0.12025693  1
  Co  Co113  1  0.00342508  0.74821206  0.74781189  1
  Co  Co114  1  0.12724885  0.37390509  0.37065954  1
  Co  Co115  1  0.25120379  0.24374682  0.25066579  1
  Co  Co116  1  0.37878798  0.62268706  0.37541124  1
  Co  Co117  1  0.63063110  0.87665710  0.87252397  1
  Co  Co118  1  0.24887523  0.75044509  0.00146511  1
  Co  Co119  1  0.74967620  0.74835248  0.25081327  1
  Co  Co120  1  0.75018255  0.00626621  0.74934513  1
  Co  Co121  1  0.12138554  0.62560567  0.11967572  1
  Co  Co122  1  0.37282407  0.87105545  0.37077252  1
  Co  Co123  1  0.49820320  0.25893440  0.50191708  1
  Co  Co124  1  0.00167692  0.25183829  0.74880758  1
  Co  Co125  1  0.00273975  -0.00024681  0.24887340  1
  Co  Co126  1  0.74695859  0.74246714  0.75081710  1
  Co  Co127  1  0.49820592  0.24827882  0.24866503  1
