# generated using pymatgen
data_Fe45Co19
_symmetry_space_group_name_H-M   'P 1'
_cell_length_a   11.41552537
_cell_length_b   11.41462120
_cell_length_c   11.41624317
_cell_angle_alpha   90.00366266
_cell_angle_beta   89.99263893
_cell_angle_gamma   89.99330058
_symmetry_Int_Tables_number   1
_chemical_formula_structural   Fe45Co19
_chemical_formula_sum   'Fe90 Co38'
_cell_volume   1487.58095854
_cell_formula_units_Z   2
loop_
 _symmetry_equiv_pos_site_id
 _symmetry_equiv_pos_as_xyz
  1  'x, y, z'
loop_
 _atom_site_type_symbol
 _atom_site_label
 _atom_site_symmetry_multiplicity
 _atom_site_fract_x
 _atom_site_fract_y
 _atom_site_fract_z
 _atom_site_occupancy
  Fe  Fe0  1  0.50209376  0.00013584  0.24940982  1
  Fe  Fe1  1  0.50060218  0.24913673  0.25131203  1
  Fe  Fe2  1  0.12376184  0.37726041  0.87395367  1
  Fe  Fe3  1  0.49762974  0.25152496  0.49804496  1
  Fe  Fe4  1  0.62435882  0.12088558  0.88125849  1
  Fe  Fe5  1  0.37503103  0.37706524  0.62487160  1
  Fe  Fe6  1  0.37519227  0.62587604  0.87343447  1
  Fe  Fe7  1  0.49805754  0.74661295  0.49786933  1
  Fe  Fe8  1  0.12145907  0.37671631  0.37415002  1
  Fe  Fe9  1  -0.00412338  0.75051842  0.49981982  1
  Fe  Fe10  1  0.74812662  0.49975623  0.24966114  1
  Fe  Fe11  1  0.50369229  0.50412737  0.25073092  1
  Fe  Fe12  1  0.62551846  0.87739082  0.87788839  1
  Fe  Fe13  1  0.24530542  0.50439133  0.25079794  1
  Fe  Fe14  1  0.50099807  0.50486857  0.50050409  1
  Fe  Fe15  1  0.24601146  -0.00152938  0.74604936  1
  Fe  Fe16  1  0.00174017  -0.00138184  0.50313977  1
  Fe  Fe17  1  0.62330295  0.12376586  0.37901694  1
  Fe  Fe18  1  0.50078980  0.24796708  0.75007015  1
  Fe  Fe19  1  0.75166767  0.75348692  0.00233590  1
  Fe  Fe20  1  0.50151718  0.50306430  0.74783528  1
  Fe  Fe21  1  0.62480900  0.87329647  0.37555738  1
  Fe  Fe22  1  0.37562827  0.87252452  0.12920378  1
  Fe  Fe23  1  0.12438175  0.62525462  0.87755987  1
  Fe  Fe24  1  0.12629666  0.37462072  0.12555742  1
  Fe  Fe25  1  0.25070307  0.24966410  0.74954001  1
  Fe  Fe26  1  0.87481854  0.62385546  0.87654915  1
  Fe  Fe27  1  0.12416480  0.87488087  0.87416970  1
  Fe  Fe28  1  0.37522761  0.87353344  0.37255482  1
  Fe  Fe29  1  0.87639630  0.37597796  0.87205197  1
  Fe  Fe30  1  0.87536188  0.12372403  0.37508942  1
  Fe  Fe31  1  0.87481218  0.12487670  0.12529300  1
  Fe  Fe32  1  0.62199055  0.37535511  0.12244854  1
  Fe  Fe33  1  0.37503031  0.12706516  0.12717073  1
  Fe  Fe34  1  0.87320726  0.88010538  0.87102229  1
  Fe  Fe35  1  0.87630851  0.87634001  0.37124667  1
  Fe  Fe36  1  0.74889985  0.50114818  0.74951349  1
  Fe  Fe37  1  0.87421905  0.62006455  0.37499775  1
  Fe  Fe38  1  0.12507703  0.12359290  0.87550341  1
  Fe  Fe39  1  0.62543684  0.37617437  0.37669056  1
  Fe  Fe40  1  0.37521403  0.62720894  0.12814243  1
  Fe  Fe41  1  0.62836992  0.86911728  0.62376758  1
  Fe  Fe42  1  -0.00060304  0.74945477  0.75025973  1
  Fe  Fe43  1  0.74940360  -0.00200990  0.50103071  1
  Fe  Fe44  1  0.24813173  -0.00059911  0.49973566  1
  Fe  Fe45  1  0.50401535  -0.00008229  0.74507049  1
  Fe  Fe46  1  0.00237509  0.24833494  0.24974162  1
  Fe  Fe47  1  0.00270731  0.00245072  0.24961859  1
  Fe  Fe48  1  -0.00068787  0.24961705  -0.00071562  1
  Fe  Fe49  1  0.75381012  0.25371279  0.49862166  1
  Fe  Fe50  1  0.50227807  0.74757390  0.74911464  1
  Fe  Fe51  1  0.74793373  0.24899024  0.25070596  1
  Fe  Fe52  1  0.37237702  0.87049824  0.62566629  1
  Fe  Fe53  1  0.74748216  0.24651544  0.75155683  1
  Fe  Fe54  1  0.62570497  0.62508938  0.87788267  1
  Fe  Fe55  1  -0.00286780  0.75111226  0.00161318  1
  Fe  Fe56  1  0.12431616  0.87466365  0.12496799  1
  Fe  Fe57  1  0.74787029  -0.00000095  0.24734218  1
  Fe  Fe58  1  0.37654626  0.87615863  0.87212992  1
  Fe  Fe59  1  0.75060525  0.24943219  0.00000397  1
  Fe  Fe60  1  0.62560678  0.37450125  0.62466927  1
  Fe  Fe61  1  0.87304722  0.87572767  0.62926516  1
  Fe  Fe62  1  0.49976792  0.75025510  0.00153466  1
  Fe  Fe63  1  0.25128495  0.25014963  -0.00011715  1
  Fe  Fe64  1  0.87034073  0.62463768  0.62380861  1
  Fe  Fe65  1  0.37420880  0.37810763  0.37288670  1
  Fe  Fe66  1  -0.00343169  0.25343193  0.50030774  1
  Fe  Fe67  1  0.12442048  0.87219160  0.37601051  1
  Fe  Fe68  1  0.87429420  0.12376917  0.62748406  1
  Fe  Fe69  1  0.37600089  0.12404778  0.62174675  1
  Fe  Fe70  1  0.87571171  0.37571380  0.12809526  1
  Fe  Fe71  1  0.75058094  0.49845477  0.00121498  1
  Fe  Fe72  1  0.25181151  -0.00083699  0.00097596  1
  Fe  Fe73  1  0.37546949  0.37478225  0.12722588  1
  Fe  Fe74  1  0.25168039  0.75202114  -0.00048760  1
  Fe  Fe75  1  0.62187313  0.37614766  0.87710875  1
  Fe  Fe76  1  0.25120872  0.24948195  0.49588562  1
  Fe  Fe77  1  0.74905783  0.74979672  0.24879258  1
  Fe  Fe78  1  0.12666091  0.62891659  0.62267942  1
  Fe  Fe79  1  0.24926644  0.50199274  0.75015183  1
  Fe  Fe80  1  0.25303259  0.50010516  -0.00004560  1
  Fe  Fe81  1  -0.00251115  0.00036464  0.00025712  1
  Fe  Fe82  1  0.37609541  0.12240581  0.87351104  1
  Fe  Fe83  1  -0.00106326  0.49975409  0.00277153  1
  Fe  Fe84  1  0.12468581  0.37509086  0.62567234  1
  Fe  Fe85  1  0.37734080  0.37574477  0.87451430  1
  Fe  Fe86  1  0.00044422  0.24790935  0.75083947  1
  Fe  Fe87  1  0.00206387  0.74472732  0.24806722  1
  Fe  Fe88  1  0.25035038  0.50325191  0.49883196  1
  Fe  Fe89  1  0.24743370  0.00296828  0.25181316  1
  Co  Co90  1  -0.00274940  0.49822771  0.50394660  1
  Co  Co91  1  0.24899398  0.24807614  0.25325892  1
  Co  Co92  1  0.75370791  -0.00250895  0.00478417  1
  Co  Co93  1  0.87414496  0.37430438  0.63218480  1
  Co  Co94  1  0.00440647  -0.00051805  0.74734079  1
  Co  Co95  1  0.49581485  -0.00141455  0.00341201  1
  Co  Co96  1  0.12547551  0.12442421  0.12240147  1
  Co  Co97  1  0.37492581  0.62549676  0.37056498  1
  Co  Co98  1  0.12162204  0.62573267  0.38052657  1
  Co  Co99  1  0.00360886  0.50450097  0.24687486  1
  Co  Co100  1  0.87795533  0.87514318  0.12921666  1
  Co  Co101  1  0.75083397  0.74922320  0.75417312  1
  Co  Co102  1  0.12506872  0.12850425  0.62256820  1
  Co  Co103  1  0.12220511  0.12605636  0.37839089  1
  Co  Co104  1  0.24835451  0.74975282  0.75375586  1
  Co  Co105  1  0.00046851  0.50438798  0.74757792  1
  Co  Co106  1  0.62397692  0.12502130  0.12216481  1
  Co  Co107  1  0.49724796  0.50217322  0.00075855  1
  Co  Co108  1  0.62357348  0.87434045  0.12377249  1
  Co  Co109  1  0.74398014  0.00216413  0.74733016  1
  Co  Co110  1  0.12652762  0.86851378  0.62310700  1
  Co  Co111  1  0.24505100  0.74834377  0.25098201  1
  Co  Co112  1  0.63033545  0.62548270  0.37882962  1
  Co  Co113  1  0.62420062  0.12798240  0.61847985  1
  Co  Co114  1  0.25378355  0.74862041  0.49514449  1
  Co  Co115  1  0.87243463  0.62427830  0.12474207  1
  Co  Co116  1  0.87819933  0.37788377  0.36867731  1
  Co  Co117  1  0.63057894  0.62715825  0.62143279  1
  Co  Co118  1  0.50054988  -0.00598713  0.50219608  1
  Co  Co119  1  0.62638701  0.62556424  0.12223047  1
  Co  Co120  1  0.87413403  0.12230306  0.87365393  1
  Co  Co121  1  0.75286603  0.49386067  0.50022891  1
  Co  Co122  1  0.37274319  0.62658252  0.62692094  1
  Co  Co123  1  0.49729799  0.24986473  -0.00056241  1
  Co  Co124  1  0.75462616  0.75322985  0.49599839  1
  Co  Co125  1  0.12662377  0.62644949  0.11912131  1
  Co  Co126  1  0.50478775  0.74776776  0.25163478  1
  Co  Co127  1  0.37803897  0.12246854  0.37657654  1
