# generated using pymatgen
data_Fe45Co19
_symmetry_space_group_name_H-M   'P 1'
_cell_length_a   11.41523459
_cell_length_b   11.41461356
_cell_length_c   11.41539859
_cell_angle_alpha   89.98837106
_cell_angle_beta   90.00250010
_cell_angle_gamma   90.01833766
_symmetry_Int_Tables_number   1
_chemical_formula_structural   Fe45Co19
_chemical_formula_sum   'Fe90 Co38'
_cell_volume   1487.43194025
_cell_formula_units_Z   2
loop_
 _symmetry_equiv_pos_site_id
 _symmetry_equiv_pos_as_xyz
  1  'x, y, z'
loop_
 _atom_site_type_symbol
 _atom_site_label
 _atom_site_symmetry_multiplicity
 _atom_site_fract_x
 _atom_site_fract_y
 _atom_site_fract_z
 _atom_site_occupancy
  Fe  Fe0  1  0.75425480  0.74780352  -0.00156250  1
  Fe  Fe1  1  0.87115872  0.37159588  0.12708643  1
  Fe  Fe2  1  0.37679141  0.62458581  0.12637786  1
  Fe  Fe3  1  0.12268414  0.87497773  0.87718911  1
  Fe  Fe4  1  0.12631153  0.62662434  0.62339421  1
  Fe  Fe5  1  0.49966963  0.75138311  -0.00045087  1
  Fe  Fe6  1  0.25033412  0.74884480  -0.00129436  1
  Fe  Fe7  1  0.37306119  0.37187376  0.12522392  1
  Fe  Fe8  1  -0.00189255  0.75045264  0.49922832  1
  Fe  Fe9  1  0.24882963  0.24957285  0.75301784  1
  Fe  Fe10  1  0.12552281  0.37975828  0.87549820  1
  Fe  Fe11  1  0.37647569  0.62611676  0.62479696  1
  Fe  Fe12  1  0.50118147  0.49933250  0.50222895  1
  Fe  Fe13  1  0.25046345  0.49972036  0.50073066  1
  Fe  Fe14  1  -0.00128700  -0.00138219  0.50037275  1
  Fe  Fe15  1  0.50315015  0.74699861  0.75173613  1
  Fe  Fe16  1  0.62600212  0.87587399  0.87515807  1
  Fe  Fe17  1  0.37757148  0.62447719  0.37444432  1
  Fe  Fe18  1  0.00083502  0.74998586  0.25035426  1
  Fe  Fe19  1  0.25276269  0.24873332  0.49802536  1
  Fe  Fe20  1  0.25034487  0.49985938  0.25056624  1
  Fe  Fe21  1  0.74938272  0.00264072  0.75044696  1
  Fe  Fe22  1  0.50228248  0.75118630  0.24991603  1
  Fe  Fe23  1  0.49908345  0.49818662  0.00149508  1
  Fe  Fe24  1  0.24892547  0.74946597  0.25147702  1
  Fe  Fe25  1  0.12452964  0.37507183  0.37638057  1
  Fe  Fe26  1  0.25234838  0.00050919  0.50117447  1
  Fe  Fe27  1  0.12545266  0.12793537  0.12402734  1
  Fe  Fe28  1  0.62700971  0.37275648  0.12576865  1
  Fe  Fe29  1  0.50127489  0.00173654  0.00288432  1
  Fe  Fe30  1  0.25077647  0.75122893  0.49731334  1
  Fe  Fe31  1  0.87630242  0.12569551  0.87530490  1
  Fe  Fe32  1  0.87242354  0.62266194  0.62692714  1
  Fe  Fe33  1  0.87531719  0.37635280  0.37576683  1
  Fe  Fe34  1  0.37546867  0.87488932  0.62785901  1
  Fe  Fe35  1  -0.00014026  0.25233545  0.74640935  1
  Fe  Fe36  1  -0.00263448  0.25067362  0.50270702  1
  Fe  Fe37  1  0.75075182  0.25040181  0.49947693  1
  Fe  Fe38  1  0.87416384  0.12250529  0.37472982  1
  Fe  Fe39  1  -0.00044863  -0.00059311  0.74930813  1
  Fe  Fe40  1  0.12813854  0.37305818  0.12418064  1
  Fe  Fe41  1  0.62321175  0.37617148  0.87202194  1
  Fe  Fe42  1  0.12469436  0.87640590  0.37358005  1
  Fe  Fe43  1  0.37595971  0.37716925  0.87269828  1
  Fe  Fe44  1  -0.00139624  0.25268206  -0.00166512  1
  Fe  Fe45  1  0.63061696  0.12986445  0.12248770  1
  Fe  Fe46  1  0.24735657  -0.00017042  0.75179748  1
  Fe  Fe47  1  -0.00190514  0.24849607  0.25121496  1
  Fe  Fe48  1  -0.00123406  0.00104264  0.00202399  1
  Fe  Fe49  1  0.62101925  0.12071783  0.37589194  1
  Fe  Fe50  1  0.12508508  0.87436005  0.62414040  1
  Fe  Fe51  1  0.12512554  0.12563070  0.62502182  1
  Fe  Fe52  1  0.62787707  0.87418924  0.12630465  1
  Fe  Fe53  1  0.87488169  0.87569612  0.12815580  1
  Fe  Fe54  1  0.37634422  0.12457880  0.87583255  1
  Fe  Fe55  1  0.74926489  0.74566415  0.75347794  1
  Fe  Fe56  1  0.12364528  0.62394952  0.12371476  1
  Fe  Fe57  1  0.24817332  0.00138828  -0.00134651  1
  Fe  Fe58  1  0.49940924  0.24724277  0.24868107  1
  Fe  Fe59  1  0.37966605  0.88041378  0.37316003  1
  Fe  Fe60  1  0.00000772  0.49861649  0.24856239  1
  Fe  Fe61  1  0.75229295  0.00126705  0.00034016  1
  Fe  Fe62  1  0.87493808  0.38035490  0.86891199  1
  Fe  Fe63  1  -0.00349896  0.74972095  0.00004087  1
  Fe  Fe64  1  0.37670303  0.37469813  0.37272975  1
  Fe  Fe65  1  0.62228916  0.37287627  0.37562097  1
  Fe  Fe66  1  0.62543474  0.62691845  0.37634336  1
  Fe  Fe67  1  0.50060063  0.24985377  -0.00218272  1
  Fe  Fe68  1  0.87288994  0.87466577  0.62738306  1
  Fe  Fe69  1  0.24929740  0.74904122  0.75261407  1
  Fe  Fe70  1  0.12490974  0.12513885  0.37529297  1
  Fe  Fe71  1  0.50334070  0.00451974  0.74707244  1
  Fe  Fe72  1  -0.00122883  0.75007870  0.75131328  1
  Fe  Fe73  1  0.37712284  0.87686677  0.87454662  1
  Fe  Fe74  1  0.37719188  0.37421102  0.62909047  1
  Fe  Fe75  1  0.37649364  0.62200491  0.87502963  1
  Fe  Fe76  1  0.00054285  0.49862580  0.50380106  1
  Fe  Fe77  1  0.74726857  0.49822981  0.50237269  1
  Fe  Fe78  1  0.12161066  0.62055122  0.87655917  1
  Fe  Fe79  1  0.37316102  0.87541030  0.12438157  1
  Fe  Fe80  1  0.49724253  0.24544821  0.50334477  1
  Fe  Fe81  1  0.87403440  0.62444865  0.37448917  1
  Fe  Fe82  1  0.74686504  -0.00353348  0.50133237  1
  Fe  Fe83  1  0.62561667  0.62433727  0.12310495  1
  Fe  Fe84  1  0.50363900  0.75589121  0.50009948  1
  Fe  Fe85  1  0.75257751  0.49952897  -0.00104690  1
  Fe  Fe86  1  0.25079099  0.00301442  0.24821126  1
  Fe  Fe87  1  0.74848855  0.24910995  0.75021609  1
  Fe  Fe88  1  0.87219773  0.87497345  0.37129537  1
  Fe  Fe89  1  0.74789985  0.49982013  0.25107111  1
  Co  Co90  1  0.74945178  0.24906421  0.25601494  1
  Co  Co91  1  0.24901445  0.25002751  -0.00614641  1
  Co  Co92  1  0.74974539  0.00369106  0.24846420  1
  Co  Co93  1  0.62276422  0.37053428  0.62525330  1
  Co  Co94  1  0.74900718  0.74779040  0.24945189  1
  Co  Co95  1  0.75046144  0.75324113  0.49993262  1
  Co  Co96  1  0.37123985  0.12520483  0.62853318  1
  Co  Co97  1  0.50096846  -0.00150745  0.50698477  1
  Co  Co98  1  0.62506395  0.62741458  0.62085066  1
  Co  Co99  1  0.25237468  0.50054649  0.00136671  1
  Co  Co100  1  0.12560609  0.87480579  0.12447121  1
  Co  Co101  1  0.87825906  0.61848475  0.87240608  1
  Co  Co102  1  0.12042702  0.12494357  0.87417263  1
  Co  Co103  1  0.87419987  0.87701446  0.87483159  1
  Co  Co104  1  0.74216884  0.50265155  0.74839588  1
  Co  Co105  1  0.62445696  0.87807893  0.37124971  1
  Co  Co106  1  0.50138230  0.24606594  0.75150482  1
  Co  Co107  1  -0.00069361  0.00251513  0.24841428  1
  Co  Co108  1  0.62680389  0.87343347  0.63062974  1
  Co  Co109  1  0.62415822  0.62455091  0.88140542  1
  Co  Co110  1  0.87261555  0.12994791  0.12314942  1
  Co  Co111  1  0.00441964  0.49762990  0.74369902  1
  Co  Co112  1  0.37217685  0.12877981  0.12111962  1
  Co  Co113  1  -0.00364568  0.49604141  0.00341725  1
  Co  Co114  1  0.87400041  0.12408479  0.62457691  1
  Co  Co115  1  0.86983379  0.37618922  0.62639427  1
  Co  Co116  1  0.24958858  0.50141883  0.74807722  1
  Co  Co117  1  0.75168889  0.25370154  -0.00667925  1
  Co  Co118  1  0.25120743  0.24898525  0.25377156  1
  Co  Co119  1  0.50112780  0.00274463  0.24216900  1
  Co  Co120  1  0.12378197  0.62331676  0.37576165  1
  Co  Co121  1  0.12879214  0.37156581  0.62204050  1
  Co  Co122  1  0.62614778  0.12374180  0.87760022  1
  Co  Co123  1  0.37919017  0.12091965  0.37478610  1
  Co  Co124  1  0.87504478  0.62384504  0.12657456  1
  Co  Co125  1  0.50229164  0.49891616  0.24942321  1
  Co  Co126  1  0.62798720  0.12789251  0.62312851  1
  Co  Co127  1  0.50374153  0.50365865  0.74799236  1
