# generated using pymatgen
data_Fe45Co19
_symmetry_space_group_name_H-M   'P 1'
_cell_length_a   11.41480637
_cell_length_b   11.41484080
_cell_length_c   11.41561037
_cell_angle_alpha   89.99402596
_cell_angle_beta   89.99890421
_cell_angle_gamma   90.00715514
_symmetry_Int_Tables_number   1
_chemical_formula_structural   Fe45Co19
_chemical_formula_sum   'Fe90 Co38'
_cell_volume   1487.43343451
_cell_formula_units_Z   2
loop_
 _symmetry_equiv_pos_site_id
 _symmetry_equiv_pos_as_xyz
  1  'x, y, z'
loop_
 _atom_site_type_symbol
 _atom_site_label
 _atom_site_symmetry_multiplicity
 _atom_site_fract_x
 _atom_site_fract_y
 _atom_site_fract_z
 _atom_site_occupancy
  Fe  Fe0  1  0.62589528  0.62374334  0.62633305  1
  Fe  Fe1  1  0.87140506  0.62559795  0.12061120  1
  Fe  Fe2  1  0.24773721  0.25400587  -0.00043477  1
  Fe  Fe3  1  0.25127156  0.74845924  0.75198038  1
  Fe  Fe4  1  0.74638451  0.49725903  0.49804854  1
  Fe  Fe5  1  0.24919624  0.25276503  0.74921129  1
  Fe  Fe6  1  0.87406974  0.37142310  0.37767959  1
  Fe  Fe7  1  0.87267360  0.12247351  0.12373905  1
  Fe  Fe8  1  0.25563241  -0.00239782  0.24954344  1
  Fe  Fe9  1  0.87883404  0.37509929  0.87567751  1
  Fe  Fe10  1  0.12387865  0.87474021  0.62639588  1
  Fe  Fe11  1  0.49894857  0.50012564  0.74890457  1
  Fe  Fe12  1  0.50029547  0.00420475  -0.00033694  1
  Fe  Fe13  1  0.75165909  0.00197206  0.75000099  1
  Fe  Fe14  1  0.00131446  0.75047170  0.00115452  1
  Fe  Fe15  1  0.25024586  0.75189807  0.49857755  1
  Fe  Fe16  1  0.37568107  0.12641937  0.87533661  1
  Fe  Fe17  1  0.37063189  0.12762660  0.38088107  1
  Fe  Fe18  1  0.62506590  0.37469713  0.87185188  1
  Fe  Fe19  1  0.25236197  0.49655864  0.24974555  1
  Fe  Fe20  1  0.87324265  0.62570524  0.37667584  1
  Fe  Fe21  1  0.74716011  0.74935185  0.75217010  1
  Fe  Fe22  1  0.74832086  0.49892702  0.25098740  1
  Fe  Fe23  1  0.50277383  0.49533015  0.00270594  1
  Fe  Fe24  1  0.12597096  0.87608966  0.37384616  1
  Fe  Fe25  1  0.25102237  0.49452531  0.49992229  1
  Fe  Fe26  1  0.75100420  0.75246247  0.24906637  1
  Fe  Fe27  1  -0.00078057  0.00254871  0.75106204  1
  Fe  Fe28  1  0.12247395  0.37711927  0.62973218  1
  Fe  Fe29  1  0.62650340  0.12616101  0.37378001  1
  Fe  Fe30  1  0.87553289  0.87585388  0.37616226  1
  Fe  Fe31  1  0.37650584  0.87411959  0.62614223  1
  Fe  Fe32  1  0.62390601  0.87827617  0.12729568  1
  Fe  Fe33  1  0.74918565  0.00131751  0.49914350  1
  Fe  Fe34  1  -0.00292152  0.50012708  0.24875147  1
  Fe  Fe35  1  0.37483596  0.62264525  0.62404303  1
  Fe  Fe36  1  0.37589049  0.12976909  0.12250650  1
  Fe  Fe37  1  0.62578725  0.12551432  0.62736055  1
  Fe  Fe38  1  0.12530311  0.62327627  0.37514445  1
  Fe  Fe39  1  0.24686796  0.49530784  0.00095356  1
  Fe  Fe40  1  0.25377199  0.75143490  0.25034717  1
  Fe  Fe41  1  0.24901995  0.75126048  -0.00116169  1
  Fe  Fe42  1  0.00306875  0.00289587  0.49844861  1
  Fe  Fe43  1  0.75243576  0.50046064  0.75122825  1
  Fe  Fe44  1  0.37047781  0.12877514  0.62112285  1
  Fe  Fe45  1  0.37711291  0.62299507  0.37606337  1
  Fe  Fe46  1  0.37655491  0.62326485  0.87639104  1
  Fe  Fe47  1  0.12562644  0.62441194  0.62447126  1
  Fe  Fe48  1  0.12751627  0.12625504  0.12796129  1
  Fe  Fe49  1  0.37738736  0.87517279  0.87457477  1
  Fe  Fe50  1  0.74764182  0.75133025  0.50004800  1
  Fe  Fe51  1  0.49961676  0.00020884  0.50215398  1
  Fe  Fe52  1  0.49862311  0.74781954  0.24809561  1
  Fe  Fe53  1  0.75034498  0.24749282  0.24991232  1
  Fe  Fe54  1  0.75239258  0.24818427  0.75089237  1
  Fe  Fe55  1  0.50158004  0.74977067  0.50242556  1
  Fe  Fe56  1  0.50254157  0.74985200  -0.00072773  1
  Fe  Fe57  1  -0.00235564  0.00144928  0.25043695  1
  Fe  Fe58  1  0.87339729  0.62699313  0.62301829  1
  Fe  Fe59  1  0.50362435  0.25376829  0.50060177  1
  Fe  Fe60  1  0.87322527  0.62422193  0.87993398  1
  Fe  Fe61  1  -0.00121817  0.50099343  0.50071800  1
  Fe  Fe62  1  0.25164471  -0.00011085  0.74999064  1
  Fe  Fe63  1  0.00584511  0.24668771  0.49879377  1
  Fe  Fe64  1  0.00228156  0.25031578  0.00032837  1
  Fe  Fe65  1  0.00039879  0.24824216  0.25193610  1
  Fe  Fe66  1  0.87456443  0.37496412  0.12371226  1
  Fe  Fe67  1  0.12555723  0.62381550  0.12645191  1
  Fe  Fe68  1  0.62091536  0.87772510  0.86936204  1
  Fe  Fe69  1  0.12444914  0.12636115  0.87261932  1
  Fe  Fe70  1  0.25005765  -0.00007380  -0.00027551  1
  Fe  Fe71  1  0.37470189  0.37546761  0.87454694  1
  Fe  Fe72  1  -0.00195369  0.74974934  0.24992271  1
  Fe  Fe73  1  0.87563378  0.12644506  0.62260378  1
  Fe  Fe74  1  0.00184841  0.00121715  0.00023490  1
  Fe  Fe75  1  0.87545689  0.87423493  0.62371421  1
  Fe  Fe76  1  0.12369723  0.62060294  0.87395355  1
  Fe  Fe77  1  0.74771391  -0.00010950  -0.00071272  1
  Fe  Fe78  1  0.25148462  0.25430784  0.25321408  1
  Fe  Fe79  1  0.62253640  0.87496094  0.37468382  1
  Fe  Fe80  1  0.37423578  0.62325688  0.12293034  1
  Fe  Fe81  1  -0.00029493  0.74810174  0.75012829  1
  Fe  Fe82  1  0.62845526  0.62355401  0.12261080  1
  Fe  Fe83  1  0.49915093  0.24866187  0.74991832  1
  Fe  Fe84  1  0.12608547  0.87538777  0.12515873  1
  Fe  Fe85  1  0.87630703  0.87505505  0.87648464  1
  Fe  Fe86  1  0.87435255  0.37250481  0.62302969  1
  Fe  Fe87  1  0.74606341  0.25011614  -0.00024824  1
  Fe  Fe88  1  0.49708232  0.00330410  0.25061761  1
  Fe  Fe89  1  0.50460443  0.49650744  0.49901123  1
  Co  Co90  1  0.62541515  0.87648550  0.62698164  1
  Co  Co91  1  0.62378826  0.62212270  0.87612255  1
  Co  Co92  1  0.13097009  0.12231394  0.37258162  1
  Co  Co93  1  0.62524155  0.12539960  0.12584328  1
  Co  Co94  1  0.12150785  0.37612624  0.87076015  1
  Co  Co95  1  0.50278069  0.25122911  -0.00253413  1
  Co  Co96  1  -0.00191776  0.24747780  0.74908453  1
  Co  Co97  1  0.37706140  0.87458583  0.12136086  1
  Co  Co98  1  0.24439833  0.25695789  0.49884219  1
  Co  Co99  1  0.37654288  0.37388305  0.62469149  1
  Co  Co100  1  0.49978563  0.74656770  0.74876059  1
  Co  Co101  1  0.87503054  0.12526465  0.87826770  1
  Co  Co102  1  0.75075123  0.00026923  0.25203033  1
  Co  Co103  1  0.12815706  0.12433347  0.62703740  1
  Co  Co104  1  0.24982253  -0.00388876  0.50153094  1
  Co  Co105  1  0.50193544  0.50359942  0.24868994  1
  Co  Co106  1  0.12465683  0.87619792  0.87434066  1
  Co  Co107  1  0.25192300  0.50031268  0.74969532  1
  Co  Co108  1  0.87400751  0.12754377  0.37662519  1
  Co  Co109  1  0.37810778  0.37302748  0.12635966  1
  Co  Co110  1  0.87488427  0.87653621  0.12272138  1
  Co  Co111  1  0.12363372  0.37413629  0.12828197  1
  Co  Co112  1  0.00169986  0.49904274  0.00259883  1
  Co  Co113  1  -0.00469348  0.50276680  0.74835920  1
  Co  Co114  1  0.49718949  0.24482660  0.25198807  1
  Co  Co115  1  0.62416373  0.37207782  0.36972868  1
  Co  Co116  1  0.62207854  0.37143110  0.13045385  1
  Co  Co117  1  0.74758327  0.49450808  -0.00022073  1
  Co  Co118  1  0.62510616  0.62746857  0.37480348  1
  Co  Co119  1  0.62680035  0.37487505  0.62972118  1
  Co  Co120  1  0.74584339  0.75462577  -0.00204899  1
  Co  Co121  1  0.00136099  0.74945856  0.49867129  1
  Co  Co122  1  0.74598643  0.24967452  0.50067523  1
  Co  Co123  1  0.37882624  0.87392404  0.37658565  1
  Co  Co124  1  0.38022098  0.37551567  0.37449329  1
  Co  Co125  1  0.12150005  0.37840307  0.37298839  1
  Co  Co126  1  0.49615679  0.00469917  0.74622995  1
  Co  Co127  1  0.62466345  0.12438615  0.87286728  1
