# generated using pymatgen
data_Fe45Co19
_symmetry_space_group_name_H-M   'P 1'
_cell_length_a   11.41498263
_cell_length_b   11.41351479
_cell_length_c   11.41504436
_cell_angle_alpha   89.99644288
_cell_angle_beta   89.99999497
_cell_angle_gamma   89.99507355
_symmetry_Int_Tables_number   1
_chemical_formula_structural   Fe45Co19
_chemical_formula_sum   'Fe90 Co38'
_cell_volume   1487.20987994
_cell_formula_units_Z   2
loop_
 _symmetry_equiv_pos_site_id
 _symmetry_equiv_pos_as_xyz
  1  'x, y, z'
loop_
 _atom_site_type_symbol
 _atom_site_label
 _atom_site_symmetry_multiplicity
 _atom_site_fract_x
 _atom_site_fract_y
 _atom_site_fract_z
 _atom_site_occupancy
  Fe  Fe0  1  0.00154727  0.74962279  0.50159327  1
  Fe  Fe1  1  0.00021824  0.00150589  0.49965532  1
  Fe  Fe2  1  0.62614298  0.12320833  0.12680700  1
  Fe  Fe3  1  -0.00541658  0.00351469  0.75247912  1
  Fe  Fe4  1  0.12895285  0.12635743  0.37301284  1
  Fe  Fe5  1  0.12342834  0.87579700  0.37443135  1
  Fe  Fe6  1  0.75274997  -0.00064018  -0.00243312  1
  Fe  Fe7  1  0.37554711  0.87215645  0.87671460  1
  Fe  Fe8  1  0.62668176  0.87748044  0.12718484  1
  Fe  Fe9  1  0.62401927  0.87831583  0.37356081  1
  Fe  Fe10  1  0.74973193  -0.00058368  0.50154260  1
  Fe  Fe11  1  0.24802233  0.75520698  0.50113322  1
  Fe  Fe12  1  0.12449391  0.37330389  0.37282520  1
  Fe  Fe13  1  0.49941604  0.75138901  0.24911538  1
  Fe  Fe14  1  0.75205555  0.49785398  0.25074524  1
  Fe  Fe15  1  0.62226728  0.12183997  0.37306673  1
  Fe  Fe16  1  0.62471687  0.62261300  0.62542135  1
  Fe  Fe17  1  0.00187519  0.24918943  -0.00067273  1
  Fe  Fe18  1  0.12530393  0.12428008  0.12656441  1
  Fe  Fe19  1  0.12416919  0.37478015  0.12652450  1
  Fe  Fe20  1  0.75284169  0.75145378  0.25118961  1
  Fe  Fe21  1  0.24919098  0.49795813  0.50212022  1
  Fe  Fe22  1  0.37381475  0.37117749  0.37661425  1
  Fe  Fe23  1  0.37659091  0.37105277  0.62582722  1
  Fe  Fe24  1  0.49974943  0.24918015  -0.00164758  1
  Fe  Fe25  1  0.12615840  0.12355867  0.87418277  1
  Fe  Fe26  1  0.24900490  -0.00211479  -0.00146768  1
  Fe  Fe27  1  0.49934555  0.49906439  0.49950926  1
  Fe  Fe28  1  0.87544746  0.62327718  0.62364708  1
  Fe  Fe29  1  0.87503426  0.12664798  0.37630770  1
  Fe  Fe30  1  0.24652263  0.75545335  0.74918093  1
  Fe  Fe31  1  0.87723529  0.37493524  0.12360189  1
  Fe  Fe32  1  0.37217908  0.62982640  0.12261408  1
  Fe  Fe33  1  0.62742737  0.12397938  0.87209694  1
  Fe  Fe34  1  0.12687380  0.37470113  0.87364262  1
  Fe  Fe35  1  0.62525515  0.87683938  0.87215384  1
  Fe  Fe36  1  0.87767631  0.87475045  0.62591421  1
  Fe  Fe37  1  0.74853849  0.25112399  -0.00119822  1
  Fe  Fe38  1  0.74900533  0.49672613  0.49860439  1
  Fe  Fe39  1  0.87608848  0.62375506  0.12126139  1
  Fe  Fe40  1  0.62156312  0.37670571  0.12522857  1
  Fe  Fe41  1  0.87775314  0.37315072  0.62414378  1
  Fe  Fe42  1  0.37821364  0.87790844  0.37778486  1
  Fe  Fe43  1  0.62397131  0.87555700  0.62726940  1
  Fe  Fe44  1  0.75094803  0.74950796  0.74947872  1
  Fe  Fe45  1  0.62539159  0.62378740  0.37492946  1
  Fe  Fe46  1  0.49548683  0.00300731  0.74688007  1
  Fe  Fe47  1  0.50179693  0.75010474  0.50069751  1
  Fe  Fe48  1  0.12611094  0.62445957  0.62523682  1
  Fe  Fe49  1  0.50079513  0.74733619  0.75210090  1
  Fe  Fe50  1  0.62196987  0.37418220  0.62706347  1
  Fe  Fe51  1  0.37330893  0.62638303  0.37717485  1
  Fe  Fe52  1  0.87748304  0.37254830  0.87468254  1
  Fe  Fe53  1  0.00042049  0.50080810  0.75043144  1
  Fe  Fe54  1  0.00411577  0.75030101  -0.00139984  1
  Fe  Fe55  1  0.49564094  0.50225786  0.75305523  1
  Fe  Fe56  1  0.75101188  0.25142165  0.25119104  1
  Fe  Fe57  1  0.12394308  0.37580991  0.62728186  1
  Fe  Fe58  1  -0.00388861  -0.00042786  0.24959292  1
  Fe  Fe59  1  0.12551158  0.87494566  0.12669571  1
  Fe  Fe60  1  0.62630980  0.12667463  0.62755452  1
  Fe  Fe61  1  -0.00150857  0.75046665  0.24967098  1
  Fe  Fe62  1  0.25043239  0.50044621  0.00103885  1
  Fe  Fe63  1  0.50045620  -0.00066925  0.00086739  1
  Fe  Fe64  1  0.37318265  0.12624585  0.87550784  1
  Fe  Fe65  1  0.25333250  0.00001569  0.25165090  1
  Fe  Fe66  1  -0.00080786  0.50028890  0.25063670  1
  Fe  Fe67  1  0.74908187  0.75114833  0.50030493  1
  Fe  Fe68  1  0.37356278  0.87206167  0.12214033  1
  Fe  Fe69  1  0.49730219  0.50440377  -0.00423617  1
  Fe  Fe70  1  0.62573462  0.62344302  0.12446440  1
  Fe  Fe71  1  0.25123393  0.49976059  0.24851235  1
  Fe  Fe72  1  0.37309281  0.62715773  0.62539168  1
  Fe  Fe73  1  -0.00218105  -0.00044556  -0.00149257  1
  Fe  Fe74  1  0.74748709  0.25188691  0.49908023  1
  Fe  Fe75  1  0.49709122  0.50117360  0.25111589  1
  Fe  Fe76  1  0.12803181  0.62322719  0.87320519  1
  Fe  Fe77  1  0.00338183  0.24872825  0.50121079  1
  Fe  Fe78  1  0.24989744  0.25106023  0.00230859  1
  Fe  Fe79  1  0.12852343  0.12007061  0.62720025  1
  Fe  Fe80  1  0.49681757  0.24808517  0.25084239  1
  Fe  Fe81  1  0.87548089  0.62376573  0.37782317  1
  Fe  Fe82  1  0.25070884  0.24905275  0.74875994  1
  Fe  Fe83  1  0.75066528  0.49816728  0.75091354  1
  Fe  Fe84  1  0.87456122  0.12545636  0.12373303  1
  Fe  Fe85  1  0.12638850  0.62520931  0.37449347  1
  Fe  Fe86  1  0.37394149  0.12518607  0.12397372  1
  Fe  Fe87  1  0.74740501  0.75070751  -0.00097688  1
  Fe  Fe88  1  0.87403845  0.62455425  0.87690608  1
  Fe  Fe89  1  0.62275957  0.37525429  0.87363397  1
  Co  Co90  1  0.00315704  0.50006352  0.50017411  1
  Co  Co91  1  -0.00073301  0.24853316  0.24919733  1
  Co  Co92  1  0.75042573  0.25200281  0.74996899  1
  Co  Co93  1  0.25254646  0.25005272  0.24694516  1
  Co  Co94  1  0.25149150  0.49862122  0.74744661  1
  Co  Co95  1  0.00088462  0.74602467  0.75056447  1
  Co  Co96  1  0.49838538  0.24655056  0.75175475  1
  Co  Co97  1  0.37681227  0.87270542  0.62498866  1
  Co  Co98  1  0.49568303  0.00051841  0.24730154  1
  Co  Co99  1  0.87369486  0.12750837  0.62323216  1
  Co  Co100  1  0.50314573  0.24900879  0.49902149  1
  Co  Co101  1  0.00226132  0.24754807  0.74912976  1
  Co  Co102  1  0.12008473  0.87948401  0.62837457  1
  Co  Co103  1  0.24501231  0.25162637  0.50208763  1
  Co  Co104  1  0.87598706  0.87529166  0.37838633  1
  Co  Co105  1  0.25153526  0.75245017  0.25299484  1
  Co  Co106  1  0.36938782  0.62955136  0.87471863  1
  Co  Co107  1  0.12603973  0.62582367  0.12769852  1
  Co  Co108  1  0.75476704  -0.00008875  0.25100272  1
  Co  Co109  1  0.87353859  0.12854644  0.87558737  1
  Co  Co110  1  0.25534685  -0.00194020  0.75032158  1
  Co  Co111  1  0.62264563  0.37600768  0.37218269  1
  Co  Co112  1  0.75415439  0.00012138  0.74906239  1
  Co  Co113  1  0.62822883  0.62362092  0.87428380  1
  Co  Co114  1  0.37290699  0.37349219  0.87503306  1
  Co  Co115  1  0.37319640  0.12591448  0.37963152  1
  Co  Co116  1  0.25001839  -0.00409679  0.50069815  1
  Co  Co117  1  0.12188699  0.87943151  0.87173686  1
  Co  Co118  1  0.74950352  0.49676051  -0.00057617  1
  Co  Co119  1  0.37161149  0.12815380  0.62032719  1
  Co  Co120  1  0.00347483  0.49985154  -0.00168294  1
  Co  Co121  1  0.87504351  0.87414680  0.12241980  1
  Co  Co122  1  0.37801722  0.37557433  0.12262579  1
  Co  Co123  1  0.24301292  0.75154198  -0.00201113  1
  Co  Co124  1  0.87824991  0.37347021  0.37760751  1
  Co  Co125  1  0.50466135  0.74932000  -0.00047728  1
  Co  Co126  1  0.50057179  0.00185060  0.50509645  1
  Co  Co127  1  0.87550638  0.87208006  0.87396339  1
