# generated using pymatgen
data_Fe45Co19
_symmetry_space_group_name_H-M   'P 1'
_cell_length_a   11.41453698
_cell_length_b   11.41556695
_cell_length_c   11.41526410
_cell_angle_alpha   89.99885149
_cell_angle_beta   90.00232282
_cell_angle_gamma   90.00042478
_symmetry_Int_Tables_number   1
_chemical_formula_structural   Fe45Co19
_chemical_formula_sum   'Fe90 Co38'
_cell_volume   1487.44784821
_cell_formula_units_Z   2
loop_
 _symmetry_equiv_pos_site_id
 _symmetry_equiv_pos_as_xyz
  1  'x, y, z'
loop_
 _atom_site_type_symbol
 _atom_site_label
 _atom_site_symmetry_multiplicity
 _atom_site_fract_x
 _atom_site_fract_y
 _atom_site_fract_z
 _atom_site_occupancy
  Fe  Fe0  1  0.87448295  0.12172673  0.12384479  1
  Fe  Fe1  1  0.49826327  0.50050332  0.25224158  1
  Fe  Fe2  1  0.74708379  -0.00150456  0.49459219  1
  Fe  Fe3  1  0.62495986  0.37114438  0.87585381  1
  Fe  Fe4  1  0.62281151  0.87407958  0.36805756  1
  Fe  Fe5  1  0.49827678  0.74808244  0.75034296  1
  Fe  Fe6  1  0.87380966  0.87631816  0.62249868  1
  Fe  Fe7  1  0.00107633  0.24895059  0.50108569  1
  Fe  Fe8  1  0.37561667  0.87683131  0.62602074  1
  Fe  Fe9  1  0.87236521  0.62506973  0.62332129  1
  Fe  Fe10  1  0.25149306  0.75087997  0.24734044  1
  Fe  Fe11  1  0.74732730  0.49772639  0.49838112  1
  Fe  Fe12  1  -0.00351781  0.74919049  0.24892737  1
  Fe  Fe13  1  0.12660912  0.62382211  0.62472458  1
  Fe  Fe14  1  0.62283724  0.37675554  0.62675273  1
  Fe  Fe15  1  0.49967094  0.00203687  0.75300191  1
  Fe  Fe16  1  0.25142584  0.24794698  0.24917665  1
  Fe  Fe17  1  -0.00108357  0.74994128  0.74857530  1
  Fe  Fe18  1  0.50314117  0.00180371  -0.00045725  1
  Fe  Fe19  1  0.37368817  0.87250669  0.87614143  1
  Fe  Fe20  1  0.12529056  0.37525685  0.62715887  1
  Fe  Fe21  1  0.87955192  0.37834921  0.12509615  1
  Fe  Fe22  1  -0.00101889  0.00104065  0.75154701  1
  Fe  Fe23  1  0.25153780  0.75096968  0.50188246  1
  Fe  Fe24  1  0.49888121  0.24422061  0.24716520  1
  Fe  Fe25  1  0.74838955  0.25054838  0.50062276  1
  Fe  Fe26  1  0.75159245  0.24925564  0.74954672  1
  Fe  Fe27  1  0.50027769  0.50091209  -0.00073146  1
  Fe  Fe28  1  0.12451513  0.12237276  0.12394625  1
  Fe  Fe29  1  0.12282278  0.37151641  0.87252366  1
  Fe  Fe30  1  0.62300405  0.37232567  0.37305919  1
  Fe  Fe31  1  0.12665550  0.87184287  0.87339528  1
  Fe  Fe32  1  0.12740985  0.62635125  0.37399887  1
  Fe  Fe33  1  0.12621029  0.12688156  0.87328422  1
  Fe  Fe34  1  0.25006964  0.25069238  -0.00051684  1
  Fe  Fe35  1  0.25028692  0.00113333  0.25088572  1
  Fe  Fe36  1  0.49576903  0.24711571  0.75110744  1
  Fe  Fe37  1  0.62258743  0.37298846  0.12493470  1
  Fe  Fe38  1  0.87326645  0.62588271  0.87792095  1
  Fe  Fe39  1  0.62400888  0.62350444  0.62358093  1
  Fe  Fe40  1  0.87429785  0.88125685  0.12831223  1
  Fe  Fe41  1  0.62793722  0.62508169  0.12755197  1
  Fe  Fe42  1  0.62614425  0.62650875  0.37244193  1
  Fe  Fe43  1  0.12320908  0.87483495  0.37376993  1
  Fe  Fe44  1  0.37666144  0.12369811  0.37747761  1
  Fe  Fe45  1  0.25032840  -0.00104140  0.49992996  1
  Fe  Fe46  1  0.12322921  0.87581592  0.62557640  1
  Fe  Fe47  1  0.25398003  0.49928774  0.49655891  1
  Fe  Fe48  1  0.74958432  0.75094300  0.74863571  1
  Fe  Fe49  1  0.62474736  0.12239294  0.62518753  1
  Fe  Fe50  1  0.12545247  0.37303960  0.37433968  1
  Fe  Fe51  1  0.87561331  0.37284031  0.37369455  1
  Fe  Fe52  1  -0.00167540  0.75149990  0.00265493  1
  Fe  Fe53  1  0.62659257  0.87692867  0.62813057  1
  Fe  Fe54  1  0.37811250  0.87512443  0.37199032  1
  Fe  Fe55  1  0.12783590  0.12526232  0.62740722  1
  Fe  Fe56  1  0.37407671  0.62430154  0.12404568  1
  Fe  Fe57  1  0.50096349  0.75045920  0.49972462  1
  Fe  Fe58  1  0.74953093  0.24819310  0.24779533  1
  Fe  Fe59  1  -0.00144020  0.74867958  0.49883063  1
  Fe  Fe60  1  0.87415970  0.12715290  0.87751908  1
  Fe  Fe61  1  0.37571685  0.37398173  0.12435297  1
  Fe  Fe62  1  0.12798399  0.62978510  0.87654707  1
  Fe  Fe63  1  0.12256927  0.62334546  0.12461068  1
  Fe  Fe64  1  0.74514360  -0.00084952  -0.00275537  1
  Fe  Fe65  1  0.00159122  0.24605772  0.24952740  1
  Fe  Fe66  1  0.25226594  0.25001770  0.50225223  1
  Fe  Fe67  1  0.24966687  0.49900566  -0.00138434  1
  Fe  Fe68  1  0.25403251  0.50123535  0.75326594  1
  Fe  Fe69  1  -0.00111961  0.50133058  0.75265639  1
  Fe  Fe70  1  0.74919515  0.75272137  0.00439143  1
  Fe  Fe71  1  0.49767866  0.50224215  0.75426586  1
  Fe  Fe72  1  0.75033356  0.49631647  0.00075535  1
  Fe  Fe73  1  0.12143344  0.87789911  0.12765175  1
  Fe  Fe74  1  0.49955082  0.24994065  0.50250072  1
  Fe  Fe75  1  0.87591193  0.37647884  0.62597984  1
  Fe  Fe76  1  0.87073623  0.62576429  0.37300028  1
  Fe  Fe77  1  0.37653402  0.37819885  0.62504794  1
  Fe  Fe78  1  0.49921742  0.24530895  0.00020114  1
  Fe  Fe79  1  0.25242642  0.49913552  0.25198087  1
  Fe  Fe80  1  0.74968603  0.49883557  0.75234460  1
  Fe  Fe81  1  0.87330084  0.87508621  0.87472908  1
  Fe  Fe82  1  -0.00076733  0.50034822  0.49725294  1
  Fe  Fe83  1  0.50190818  0.75159609  0.00342101  1
  Fe  Fe84  1  0.12294638  0.37681643  0.12596695  1
  Fe  Fe85  1  0.62599579  0.62750671  0.87681350  1
  Fe  Fe86  1  0.37814739  0.87837900  0.12628207  1
  Fe  Fe87  1  0.24829000  -0.00233002  -0.00085118  1
  Fe  Fe88  1  0.00063342  0.00248161  0.49546399  1
  Fe  Fe89  1  0.87336188  0.12268232  0.62240788  1
  Co  Co90  1  0.50244056  -0.00321247  0.49963381  1
  Co  Co91  1  0.25526925  0.25079906  0.74936373  1
  Co  Co92  1  0.49889118  0.74747734  0.24659662  1
  Co  Co93  1  0.74840167  0.49632464  0.24918840  1
  Co  Co94  1  0.87587329  0.37299841  0.87466246  1
  Co  Co95  1  0.00180954  -0.00045602  -0.00367583  1
  Co  Co96  1  0.62663442  0.12874385  0.87490578  1
  Co  Co97  1  0.62905840  0.12372298  0.12235282  1
  Co  Co98  1  0.37157758  0.12313169  0.12222743  1
  Co  Co99  1  0.74689023  0.75259049  0.49930965  1
  Co  Co100  1  0.87365342  0.12750615  0.37539896  1
  Co  Co101  1  0.00042493  0.00387247  0.25466876  1
  Co  Co102  1  0.37194599  0.12299041  0.87731425  1
  Co  Co103  1  0.62471507  0.87779652  0.12914531  1
  Co  Co104  1  0.75085738  0.00139482  0.75156496  1
  Co  Co105  1  0.00045019  0.24974035  0.00208667  1
  Co  Co106  1  0.87497419  0.62062558  0.12418048  1
  Co  Co107  1  0.37738453  0.37389192  0.87858683  1
  Co  Co108  1  0.62446733  0.87329586  0.87303363  1
  Co  Co109  1  0.25004127  -0.00145842  0.75041025  1
  Co  Co110  1  0.24931517  0.75303408  0.00650594  1
  Co  Co111  1  0.62244078  0.12743487  0.37716384  1
  Co  Co112  1  0.25188779  0.74998240  0.74545790  1
  Co  Co113  1  0.75290404  0.75214342  0.24632108  1
  Co  Co114  1  0.87617703  0.87515189  0.37403451  1
  Co  Co115  1  -0.00278939  0.24780699  0.74784502  1
  Co  Co116  1  0.00174041  0.50016741  -0.00437685  1
  Co  Co117  1  0.75194609  0.25316330  0.00304225  1
  Co  Co118  1  0.00055920  0.50144310  0.25426091  1
  Co  Co119  1  0.12873069  0.12624738  0.37604451  1
  Co  Co120  1  0.50043630  0.49995957  0.49474001  1
  Co  Co121  1  0.50162358  0.00639557  0.24764889  1
  Co  Co122  1  0.74721959  0.00342035  0.25477530  1
  Co  Co123  1  0.37478939  0.62924299  0.37526050  1
  Co  Co124  1  0.37672187  0.62275220  0.62248367  1
  Co  Co125  1  0.37539922  0.12143810  0.62335301  1
  Co  Co126  1  0.37665722  0.37003971  0.37388103  1
  Co  Co127  1  0.37332289  0.62985048  0.87951802  1
