# generated using pymatgen
data_Fe45Co19
_symmetry_space_group_name_H-M   'P 1'
_cell_length_a   11.41543587
_cell_length_b   11.41466177
_cell_length_c   11.41549079
_cell_angle_alpha   90.00030805
_cell_angle_beta   90.00040855
_cell_angle_gamma   90.00840772
_symmetry_Int_Tables_number   1
_chemical_formula_structural   Fe45Co19
_chemical_formula_sum   'Fe90 Co38'
_cell_volume   1487.47655381
_cell_formula_units_Z   2
loop_
 _symmetry_equiv_pos_site_id
 _symmetry_equiv_pos_as_xyz
  1  'x, y, z'
loop_
 _atom_site_type_symbol
 _atom_site_label
 _atom_site_symmetry_multiplicity
 _atom_site_fract_x
 _atom_site_fract_y
 _atom_site_fract_z
 _atom_site_occupancy
  Fe  Fe0  1  0.87585879  0.87319171  0.12735070  1
  Fe  Fe1  1  0.37268667  0.62585076  0.87561022  1
  Fe  Fe2  1  0.37647141  0.37508367  0.37156284  1
  Fe  Fe3  1  0.62119242  0.87695605  0.62327957  1
  Fe  Fe4  1  0.62101550  0.12209684  0.62365078  1
  Fe  Fe5  1  -0.00131928  0.50056965  -0.00060433  1
  Fe  Fe6  1  0.74887556  0.75176219  0.74681222  1
  Fe  Fe7  1  0.62337217  0.87656189  0.12367463  1
  Fe  Fe8  1  0.25162132  0.25159149  0.00136742  1
  Fe  Fe9  1  0.50407525  0.25238626  0.25018442  1
  Fe  Fe10  1  0.12947979  0.62964800  0.87694786  1
  Fe  Fe11  1  0.25363717  0.24635743  0.49978720  1
  Fe  Fe12  1  -0.00103537  -0.00025993  -0.00083193  1
  Fe  Fe13  1  0.12689790  0.12456118  0.87655783  1
  Fe  Fe14  1  0.87457726  0.37530074  0.62829917  1
  Fe  Fe15  1  0.87469086  0.37232380  0.12691757  1
  Fe  Fe16  1  0.87609055  0.37427429  0.37233579  1
  Fe  Fe17  1  0.00060809  0.00010819  0.75148118  1
  Fe  Fe18  1  0.75381180  0.50166093  0.49962152  1
  Fe  Fe19  1  0.87282975  0.87618725  0.87417265  1
  Fe  Fe20  1  0.37809207  0.12761868  0.12591627  1
  Fe  Fe21  1  0.12596849  0.37604956  0.12535802  1
  Fe  Fe22  1  0.62485902  0.62361477  0.87451599  1
  Fe  Fe23  1  0.12808993  0.87781206  0.37641335  1
  Fe  Fe24  1  0.87371820  0.62537263  0.87456329  1
  Fe  Fe25  1  0.12460947  0.62467070  0.12302050  1
  Fe  Fe26  1  0.25179187  0.75024863  0.50019489  1
  Fe  Fe27  1  0.62478822  0.62323918  0.12259748  1
  Fe  Fe28  1  0.87718002  0.62662103  0.62514078  1
  Fe  Fe29  1  0.50120160  0.74824602  0.24953837  1
  Fe  Fe30  1  0.25133578  -0.00077904  0.00145560  1
  Fe  Fe31  1  0.49991963  0.00215450  -0.00153560  1
  Fe  Fe32  1  0.37753058  0.87891055  0.62200820  1
  Fe  Fe33  1  0.62630232  0.62574845  0.37693815  1
  Fe  Fe34  1  0.37427492  0.37341826  0.87349083  1
  Fe  Fe35  1  0.62659365  0.87538372  0.87617748  1
  Fe  Fe36  1  0.37614922  0.62434872  0.37303408  1
  Fe  Fe37  1  0.00084950  0.50032487  0.75059140  1
  Fe  Fe38  1  0.37434086  0.37446062  0.62664337  1
  Fe  Fe39  1  0.74716114  0.00097653  0.24936118  1
  Fe  Fe40  1  0.12405397  0.87564704  0.12325601  1
  Fe  Fe41  1  0.62358802  0.62318839  0.62551384  1
  Fe  Fe42  1  0.24881178  0.49981059  0.75130985  1
  Fe  Fe43  1  0.12394759  0.37356410  0.87481916  1
  Fe  Fe44  1  0.62780198  0.37624989  0.87243898  1
  Fe  Fe45  1  0.00187519  0.75200531  0.75274101  1
  Fe  Fe46  1  0.87374787  0.12392784  0.62541562  1
  Fe  Fe47  1  0.75065974  -0.00237723  0.50122157  1
  Fe  Fe48  1  0.37361733  0.12632682  0.87387065  1
  Fe  Fe49  1  0.87270356  0.87204730  0.37293851  1
  Fe  Fe50  1  0.50080924  0.24914356  0.74953316  1
  Fe  Fe51  1  0.37258677  0.87348666  0.87488518  1
  Fe  Fe52  1  0.12626237  0.12482072  0.62248590  1
  Fe  Fe53  1  0.24800898  0.74855335  0.24959273  1
  Fe  Fe54  1  -0.00142131  0.00001131  0.49886258  1
  Fe  Fe55  1  0.62502651  0.37338246  0.12487992  1
  Fe  Fe56  1  0.00021085  0.24810954  0.74981220  1
  Fe  Fe57  1  0.75062119  0.75156666  0.00182366  1
  Fe  Fe58  1  0.49777047  0.74976431  0.00128958  1
  Fe  Fe59  1  0.87510871  0.12700502  0.37412864  1
  Fe  Fe60  1  0.49736666  0.49628006  0.00018151  1
  Fe  Fe61  1  0.87055438  0.12633793  0.87457466  1
  Fe  Fe62  1  0.12138172  0.62134502  0.37590270  1
  Fe  Fe63  1  0.24980663  -0.00021236  0.74774924  1
  Fe  Fe64  1  -0.00149679  0.25062035  0.50071439  1
  Fe  Fe65  1  0.00201628  0.00323464  0.25043501  1
  Fe  Fe66  1  0.62475830  0.87047921  0.37774424  1
  Fe  Fe67  1  0.37347579  0.61974697  0.12597995  1
  Fe  Fe68  1  0.12426560  0.87546909  0.62319365  1
  Fe  Fe69  1  -0.00220927  0.75056946  0.49623321  1
  Fe  Fe70  1  0.24649146  0.24756486  0.25039959  1
  Fe  Fe71  1  0.49821516  0.74977877  0.74950523  1
  Fe  Fe72  1  -0.00087932  0.24908235  0.00113767  1
  Fe  Fe73  1  0.62883670  0.12406921  0.87587590  1
  Fe  Fe74  1  0.62445107  0.12769736  0.37716246  1
  Fe  Fe75  1  0.50126565  -0.00015019  0.25401788  1
  Fe  Fe76  1  0.24976949  0.49839623  0.49793529  1
  Fe  Fe77  1  0.49893441  0.49863059  0.49867196  1
  Fe  Fe78  1  0.12177947  0.37387994  0.37492856  1
  Fe  Fe79  1  0.62536399  0.37773838  0.62597915  1
  Fe  Fe80  1  0.37485229  0.62280125  0.62505584  1
  Fe  Fe81  1  0.87635217  0.62845353  0.12861050  1
  Fe  Fe82  1  0.75257648  0.49765086  -0.00091422  1
  Fe  Fe83  1  0.87199250  0.12697987  0.12609333  1
  Fe  Fe84  1  0.74900178  0.25113483  0.50087525  1
  Fe  Fe85  1  0.37577544  0.87630876  0.12822675  1
  Fe  Fe86  1  0.24956235  0.00446337  0.25284458  1
  Fe  Fe87  1  0.12469781  0.62539527  0.62369162  1
  Fe  Fe88  1  0.74908852  0.49995353  0.25085685  1
  Fe  Fe89  1  0.12585663  0.37415582  0.62468527  1
  Co  Co90  1  0.62592068  0.37631632  0.37702768  1
  Co  Co91  1  0.49962129  0.25296720  0.50173948  1
  Co  Co92  1  0.25407570  0.00364348  0.49877604  1
  Co  Co93  1  0.87539161  0.37268492  0.87304280  1
  Co  Co94  1  0.75044415  -0.00013096  0.00350270  1
  Co  Co95  1  0.74563186  0.75008236  0.24808692  1
  Co  Co96  1  0.50073236  0.25134685  -0.00192411  1
  Co  Co97  1  0.37309484  0.87213265  0.37330364  1
  Co  Co98  1  0.37445379  0.37448715  0.12915322  1
  Co  Co99  1  0.74849135  0.25135960  0.00039463  1
  Co  Co100  1  0.37863356  0.12887626  0.37278254  1
  Co  Co101  1  0.12264376  0.12583847  0.37943071  1
  Co  Co102  1  0.24669311  0.50021169  0.25201963  1
  Co  Co103  1  0.25065464  0.49720378  -0.00171093  1
  Co  Co104  1  0.62285538  0.12552224  0.12459119  1
  Co  Co105  1  0.37924295  0.12291029  0.62587410  1
  Co  Co106  1  -0.00025448  0.49948976  0.24831324  1
  Co  Co107  1  0.12801046  0.87443121  0.87616868  1
  Co  Co108  1  0.49698702  0.49975636  0.75106379  1
  Co  Co109  1  -0.00223954  0.49888927  0.50103765  1
  Co  Co110  1  0.50007615  -0.00003058  0.75505503  1
  Co  Co111  1  0.12599390  0.12390159  0.12106044  1
  Co  Co112  1  0.25232681  0.75180996  0.74559450  1
  Co  Co113  1  0.49743769  0.00009767  0.49334881  1
  Co  Co114  1  0.75298666  0.50113288  0.74971047  1
  Co  Co115  1  0.74997227  -0.00118083  0.74649863  1
  Co  Co116  1  0.74793662  0.24870388  0.74727942  1
  Co  Co117  1  0.74731268  0.24973613  0.25138887  1
  Co  Co118  1  0.50373034  0.50005303  0.25006174  1
  Co  Co119  1  0.87890781  0.87431729  0.62562440  1
  Co  Co120  1  0.49757669  0.74848869  0.50058988  1
  Co  Co121  1  -0.00070863  0.75115301  -0.00144172  1
  Co  Co122  1  0.25231332  0.75169439  0.00492732  1
  Co  Co123  1  0.75152123  0.75006075  0.50360623  1
  Co  Co124  1  0.87426459  0.62652887  0.37176896  1
  Co  Co125  1  0.00464023  0.75082138  0.25234624  1
  Co  Co126  1  0.24984429  0.24878702  0.74896630  1
  Co  Co127  1  0.00289461  0.24716455  0.24817315  1
