# generated using pymatgen
data_Fe45Co19
_symmetry_space_group_name_H-M   'P 1'
_cell_length_a   11.41597953
_cell_length_b   11.41414238
_cell_length_c   11.41615088
_cell_angle_alpha   89.99447401
_cell_angle_beta   89.99371534
_cell_angle_gamma   89.99828968
_symmetry_Int_Tables_number   1
_chemical_formula_structural   Fe45Co19
_chemical_formula_sum   'Fe90 Co38'
_cell_volume   1487.56572122
_cell_formula_units_Z   2
loop_
 _symmetry_equiv_pos_site_id
 _symmetry_equiv_pos_as_xyz
  1  'x, y, z'
loop_
 _atom_site_type_symbol
 _atom_site_label
 _atom_site_symmetry_multiplicity
 _atom_site_fract_x
 _atom_site_fract_y
 _atom_site_fract_z
 _atom_site_occupancy
  Fe  Fe0  1  0.12494813  0.87703339  0.12049535  1
  Fe  Fe1  1  0.62227814  0.12463970  0.87764909  1
  Fe  Fe2  1  0.37685419  0.87411479  0.12630014  1
  Fe  Fe3  1  0.12562654  0.62613577  0.87480477  1
  Fe  Fe4  1  0.25218169  0.49892383  0.00011318  1
  Fe  Fe5  1  0.12682925  0.12321398  0.12189481  1
  Fe  Fe6  1  -0.00052552  0.00073626  0.49935169  1
  Fe  Fe7  1  0.62539256  0.62834315  0.12596478  1
  Fe  Fe8  1  0.62011182  0.12582829  0.12363264  1
  Fe  Fe9  1  0.12724947  0.12554368  0.37659296  1
  Fe  Fe10  1  0.50246583  0.00021963  0.75050438  1
  Fe  Fe11  1  0.87282891  0.12476102  0.87539145  1
  Fe  Fe12  1  0.12497545  0.62585021  0.37462099  1
  Fe  Fe13  1  -0.00352604  0.49892478  0.00025319  1
  Fe  Fe14  1  0.24864500  -0.00062899  0.24808130  1
  Fe  Fe15  1  0.62636244  0.63002602  0.87279473  1
  Fe  Fe16  1  0.37859678  0.37363479  0.12780278  1
  Fe  Fe17  1  -0.00006497  0.49752039  0.24865312  1
  Fe  Fe18  1  -0.00106695  0.24927204  0.50077873  1
  Fe  Fe19  1  0.37551696  0.62807109  0.12728391  1
  Fe  Fe20  1  0.49640635  0.24722462  0.49723866  1
  Fe  Fe21  1  0.87338667  0.12457492  0.12448559  1
  Fe  Fe22  1  0.62513960  0.37530619  0.87638397  1
  Fe  Fe23  1  0.25204228  0.25043995  0.25163997  1
  Fe  Fe24  1  0.62609450  0.87646760  0.37680446  1
  Fe  Fe25  1  0.62390096  0.87299497  0.12072712  1
  Fe  Fe26  1  0.87689517  0.87601249  0.62471287  1
  Fe  Fe27  1  0.37373216  0.62471529  0.62630305  1
  Fe  Fe28  1  0.75097542  0.49983252  0.24937266  1
  Fe  Fe29  1  0.00003613  0.24897856  0.25044070  1
  Fe  Fe30  1  0.12593536  0.12220831  0.87826646  1
  Fe  Fe31  1  0.62586521  0.62655840  0.37552898  1
  Fe  Fe32  1  0.74802362  -0.00039214  0.24938569  1
  Fe  Fe33  1  0.37458448  0.62684173  0.87272007  1
  Fe  Fe34  1  0.00121602  0.00102745  0.75201700  1
  Fe  Fe35  1  0.50143511  0.50161226  0.74879715  1
  Fe  Fe36  1  0.12499841  0.37470220  0.62375900  1
  Fe  Fe37  1  0.75062546  0.49854144  0.50026780  1
  Fe  Fe38  1  0.24930002  0.49906075  0.74961238  1
  Fe  Fe39  1  0.24827110  0.74862406  0.50161191  1
  Fe  Fe40  1  0.00045909  0.00132315  0.24983985  1
  Fe  Fe41  1  0.25077300  0.24754997  0.74720572  1
  Fe  Fe42  1  0.74965803  0.24972596  0.00062856  1
  Fe  Fe43  1  -0.00240262  0.74985080  -0.00116893  1
  Fe  Fe44  1  0.00172412  0.75007324  0.74949873  1
  Fe  Fe45  1  0.75128141  0.49826034  0.74917836  1
  Fe  Fe46  1  0.12575695  0.37326827  0.87658352  1
  Fe  Fe47  1  0.37774820  0.87446673  0.87318849  1
  Fe  Fe48  1  0.62149271  0.37571189  0.62212894  1
  Fe  Fe49  1  0.50080747  0.50160560  0.25083303  1
  Fe  Fe50  1  0.75292191  0.75331296  0.49950891  1
  Fe  Fe51  1  0.24870258  0.49873812  0.25067474  1
  Fe  Fe52  1  0.25100995  0.49833245  0.49960689  1
  Fe  Fe53  1  0.87027032  0.12279502  0.37696188  1
  Fe  Fe54  1  0.62663873  0.62752260  0.62471077  1
  Fe  Fe55  1  0.74735580  -0.00032591  0.75015799  1
  Fe  Fe56  1  0.62389114  0.87398354  0.62528968  1
  Fe  Fe57  1  -0.00204939  0.24987563  0.00014969  1
  Fe  Fe58  1  0.12492114  0.87544732  0.37679018  1
  Fe  Fe59  1  0.87275963  0.87453631  0.12469182  1
  Fe  Fe60  1  0.49918554  0.50160825  -0.00094420  1
  Fe  Fe61  1  0.75431686  0.50365520  0.00040878  1
  Fe  Fe62  1  0.87479062  0.37386309  0.37515060  1
  Fe  Fe63  1  0.25397103  0.24987368  0.50115586  1
  Fe  Fe64  1  0.00053018  0.50027447  0.50003435  1
  Fe  Fe65  1  0.12498342  0.62518314  0.12402954  1
  Fe  Fe66  1  0.00115213  0.75245168  0.25110943  1
  Fe  Fe67  1  0.25102292  0.00219412  0.50220731  1
  Fe  Fe68  1  0.37481483  0.62647597  0.37282577  1
  Fe  Fe69  1  0.37316070  0.87456341  0.37417716  1
  Fe  Fe70  1  0.62414601  0.12285740  0.61925354  1
  Fe  Fe71  1  0.37785793  0.37273544  0.87098467  1
  Fe  Fe72  1  0.24838816  0.00018126  0.75162292  1
  Fe  Fe73  1  0.87316024  0.12442085  0.62402808  1
  Fe  Fe74  1  0.37537407  0.87585383  0.62632823  1
  Fe  Fe75  1  0.12514878  0.37351652  0.12440116  1
  Fe  Fe76  1  0.12450143  0.87525134  0.62511941  1
  Fe  Fe77  1  0.25136808  0.75161646  -0.00110245  1
  Fe  Fe78  1  0.62385179  0.37498858  0.12409158  1
  Fe  Fe79  1  0.87523622  0.62520485  0.62555203  1
  Fe  Fe80  1  0.50077442  0.00072522  0.25251561  1
  Fe  Fe81  1  -0.00049200  0.24998833  0.74987363  1
  Fe  Fe82  1  0.25575346  0.24750702  0.00017828  1
  Fe  Fe83  1  0.74797933  0.25086735  0.74738908  1
  Fe  Fe84  1  -0.00028711  0.49784826  0.75100107  1
  Fe  Fe85  1  0.49880493  0.75000345  0.49988622  1
  Fe  Fe86  1  0.74663377  0.24958923  0.25186266  1
  Fe  Fe87  1  0.87173477  0.87561855  0.87605400  1
  Fe  Fe88  1  0.87484354  0.62780335  0.37334892  1
  Fe  Fe89  1  0.62213658  0.37603365  0.37672357  1
  Co  Co90  1  0.37750956  0.12541662  0.87101733  1
  Co  Co91  1  0.37311526  0.12152198  0.37325361  1
  Co  Co92  1  0.50436465  0.24882281  0.74822643  1
  Co  Co93  1  0.49924163  0.74906731  0.74795585  1
  Co  Co94  1  0.87550728  0.62566138  0.87142955  1
  Co  Co95  1  0.37751352  0.37733151  0.37438540  1
  Co  Co96  1  0.87320994  0.37329582  0.12541367  1
  Co  Co97  1  0.25578614  -0.00008581  -0.00095960  1
  Co  Co98  1  0.49881476  0.74849901  -0.00094595  1
  Co  Co99  1  0.62741142  0.12204536  0.37961539  1
  Co  Co100  1  0.24672656  0.75126632  0.24918753  1
  Co  Co101  1  0.37745539  0.12265333  0.62693813  1
  Co  Co102  1  0.87592621  0.37506598  0.62524180  1
  Co  Co103  1  0.49768199  -0.00194735  0.49830154  1
  Co  Co104  1  0.74815910  0.00067127  -0.00002934  1
  Co  Co105  1  0.87550741  0.62756577  0.12905647  1
  Co  Co106  1  0.75168743  0.75288608  0.74824111  1
  Co  Co107  1  0.87267758  0.37357127  0.87529695  1
  Co  Co108  1  0.75086846  0.74781727  -0.00037243  1
  Co  Co109  1  0.24866540  0.75144191  0.74980849  1
  Co  Co110  1  0.12429330  0.12418995  0.62451377  1
  Co  Co111  1  0.37783032  0.37546242  0.62677890  1
  Co  Co112  1  0.62484298  0.87228668  0.87628634  1
  Co  Co113  1  0.37746463  0.12459398  0.12868523  1
  Co  Co114  1  0.50192809  0.75134350  0.25232267  1
  Co  Co115  1  0.12436537  0.87566636  0.87702791  1
  Co  Co116  1  0.87593536  0.87671757  0.37366692  1
  Co  Co117  1  0.50184563  0.24777470  0.25455915  1
  Co  Co118  1  0.49890902  0.50409084  0.50041875  1
  Co  Co119  1  0.49756015  -0.00009665  -0.00079738  1
  Co  Co120  1  0.75121332  -0.00455656  0.50220777  1
  Co  Co121  1  0.74952861  0.25252016  0.50073621  1
  Co  Co122  1  0.00032997  0.74973419  0.50052297  1
  Co  Co123  1  0.12477308  0.37332540  0.37629141  1
  Co  Co124  1  -0.00335589  0.00065318  -0.00011099  1
  Co  Co125  1  0.49764670  0.25103124  -0.00059688  1
  Co  Co126  1  0.74836274  0.75261080  0.25119567  1
  Co  Co127  1  0.12559042  0.62378107  0.62646452  1
