# generated using pymatgen
data_Fe45Co19
_symmetry_space_group_name_H-M   'P 1'
_cell_length_a   11.41491451
_cell_length_b   11.41345990
_cell_length_c   11.41607251
_cell_angle_alpha   89.99794775
_cell_angle_beta   89.99811463
_cell_angle_gamma   90.00640748
_symmetry_Int_Tables_number   1
_chemical_formula_structural   Fe45Co19
_chemical_formula_sum   'Fe90 Co38'
_cell_volume   1487.32780141
_cell_formula_units_Z   2
loop_
 _symmetry_equiv_pos_site_id
 _symmetry_equiv_pos_as_xyz
  1  'x, y, z'
loop_
 _atom_site_type_symbol
 _atom_site_label
 _atom_site_symmetry_multiplicity
 _atom_site_fract_x
 _atom_site_fract_y
 _atom_site_fract_z
 _atom_site_occupancy
  Fe  Fe0  1  0.37646193  0.62570944  0.37444099  1
  Fe  Fe1  1  0.25121236  0.00141598  0.24562500  1
  Fe  Fe2  1  0.62528956  0.37346977  0.37251145  1
  Fe  Fe3  1  0.49795642  0.75158525  0.74946413  1
  Fe  Fe4  1  0.00055704  0.75263497  0.49963324  1
  Fe  Fe5  1  0.62325317  0.37197737  0.62656073  1
  Fe  Fe6  1  0.49665764  0.00160464  0.00245852  1
  Fe  Fe7  1  0.24913828  0.00206917  0.50106383  1
  Fe  Fe8  1  0.87418516  0.12184466  0.62374658  1
  Fe  Fe9  1  0.74970132  0.75089684  0.49918184  1
  Fe  Fe10  1  0.75068242  0.75117837  0.74970015  1
  Fe  Fe11  1  0.12313438  0.12509074  0.87569560  1
  Fe  Fe12  1  0.12607620  0.12449370  0.62687280  1
  Fe  Fe13  1  0.50027697  0.24754880  0.49860430  1
  Fe  Fe14  1  0.25128438  0.74874095  0.75078771  1
  Fe  Fe15  1  0.87821306  0.37251385  0.37548625  1
  Fe  Fe16  1  0.75144566  0.75057394  0.00036945  1
  Fe  Fe17  1  0.87953794  0.12449805  0.37833877  1
  Fe  Fe18  1  0.37689083  0.62419956  0.87650243  1
  Fe  Fe19  1  0.00059065  0.25080650  0.74815987  1
  Fe  Fe20  1  0.00277641  0.49859033  0.50003015  1
  Fe  Fe21  1  0.62647512  0.87717090  0.12433323  1
  Fe  Fe22  1  0.12495776  0.87440574  0.87551898  1
  Fe  Fe23  1  0.62489781  0.87514880  0.87557827  1
  Fe  Fe24  1  -0.00058147  -0.00257674  -0.00191408  1
  Fe  Fe25  1  0.49989843  0.24685646  0.24887571  1
  Fe  Fe26  1  -0.00045874  -0.00369373  0.25029638  1
  Fe  Fe27  1  0.62425784  0.62503351  0.87403960  1
  Fe  Fe28  1  0.12943452  0.37820279  0.62537255  1
  Fe  Fe29  1  0.75021956  0.49851808  0.75090543  1
  Fe  Fe30  1  0.24645896  0.50166893  0.00015935  1
  Fe  Fe31  1  0.75285547  0.24764817  0.24937904  1
  Fe  Fe32  1  0.62707584  0.37267650  0.12499439  1
  Fe  Fe33  1  0.62410771  0.62600713  0.37368481  1
  Fe  Fe34  1  -0.00065080  0.75026101  0.74866456  1
  Fe  Fe35  1  0.75131155  0.24874429  -0.00094493  1
  Fe  Fe36  1  0.49706539  0.49373849  0.75186081  1
  Fe  Fe37  1  0.00191674  0.49688205  0.24796329  1
  Fe  Fe38  1  0.24636983  0.24756478  0.24878175  1
  Fe  Fe39  1  0.00192790  0.49790858  0.00299831  1
  Fe  Fe40  1  0.24507117  0.24603009  -0.00007452  1
  Fe  Fe41  1  0.62511439  0.87644153  0.37364965  1
  Fe  Fe42  1  0.12162653  0.12530819  0.37402561  1
  Fe  Fe43  1  0.87746377  0.62799858  0.12721248  1
  Fe  Fe44  1  0.37210095  0.37176312  0.12287203  1
  Fe  Fe45  1  0.49805426  0.00091095  0.75028557  1
  Fe  Fe46  1  0.37388683  0.87557970  0.87851582  1
  Fe  Fe47  1  0.00163815  0.49932481  0.74919878  1
  Fe  Fe48  1  0.37555997  0.12630642  0.62645897  1
  Fe  Fe49  1  0.25103017  0.74926646  0.50030795  1
  Fe  Fe50  1  0.87340003  0.87861398  0.62418663  1
  Fe  Fe51  1  0.49908533  0.75226948  0.24704680  1
  Fe  Fe52  1  -0.00149035  0.00003154  0.75083088  1
  Fe  Fe53  1  0.49969153  0.49772900  0.49919731  1
  Fe  Fe54  1  0.87660753  0.62589497  0.87521916  1
  Fe  Fe55  1  0.37246354  0.62113030  0.62514150  1
  Fe  Fe56  1  0.62595427  0.62672107  0.12584443  1
  Fe  Fe57  1  0.75235840  0.00075288  0.25114297  1
  Fe  Fe58  1  0.24934385  0.50039006  0.25057149  1
  Fe  Fe59  1  0.24754984  0.24955524  0.49844636  1
  Fe  Fe60  1  0.87521155  0.37570134  0.62404217  1
  Fe  Fe61  1  0.75039462  0.24873989  0.75095771  1
  Fe  Fe62  1  0.75056335  0.49987616  0.00051980  1
  Fe  Fe63  1  0.49883933  0.49903320  0.24756259  1
  Fe  Fe64  1  0.49859905  0.75129212  0.50197225  1
  Fe  Fe65  1  0.75362553  0.00059318  -0.00374873  1
  Fe  Fe66  1  0.62412942  0.62334791  0.62635504  1
  Fe  Fe67  1  0.50177975  0.49943277  0.00151054  1
  Fe  Fe68  1  0.87593289  0.62432095  0.62396830  1
  Fe  Fe69  1  0.75051791  0.49967886  0.24995992  1
  Fe  Fe70  1  0.37254111  0.62915230  0.12392458  1
  Fe  Fe71  1  0.87600645  0.62759467  0.37293501  1
  Fe  Fe72  1  0.87768083  0.37340326  0.87661800  1
  Fe  Fe73  1  0.12672593  0.87450073  0.62615962  1
  Fe  Fe74  1  0.87869199  0.12480544  0.12272716  1
  Fe  Fe75  1  0.74914638  0.49943791  0.49875528  1
  Fe  Fe76  1  0.12750140  0.87175524  0.12292611  1
  Fe  Fe77  1  0.49706305  0.00295699  0.24701932  1
  Fe  Fe78  1  0.25117786  0.00010708  0.75198477  1
  Fe  Fe79  1  0.25369660  0.25298623  0.75357234  1
  Fe  Fe80  1  0.62596500  0.87852215  0.62569020  1
  Fe  Fe81  1  0.12388596  0.62614131  0.37326185  1
  Fe  Fe82  1  0.12673739  0.87571767  0.37546782  1
  Fe  Fe83  1  0.74903096  0.24733751  0.50027173  1
  Fe  Fe84  1  0.50092006  0.24900436  -0.00151823  1
  Fe  Fe85  1  0.50069445  0.00369212  0.49974867  1
  Fe  Fe86  1  0.62374992  0.12527443  0.87303647  1
  Fe  Fe87  1  0.37316151  0.37336598  0.37465235  1
  Fe  Fe88  1  0.12272708  0.62554267  0.87471359  1
  Fe  Fe89  1  0.37445003  0.87757529  0.37466427  1
  Co  Co90  1  0.75166365  0.00139830  0.75393165  1
  Co  Co91  1  0.50104975  0.75051758  0.00082349  1
  Co  Co92  1  0.12640649  0.62472812  0.62493415  1
  Co  Co93  1  0.12756648  0.37429091  0.12576480  1
  Co  Co94  1  0.62712009  0.37483735  0.87628795  1
  Co  Co95  1  0.87309663  0.37383244  0.12423005  1
  Co  Co96  1  0.37359888  0.12779015  0.12326713  1
  Co  Co97  1  0.37409828  0.12339956  0.87639305  1
  Co  Co98  1  0.37216406  0.87277272  0.12296086  1
  Co  Co99  1  0.25101749  0.49984056  0.75394076  1
  Co  Co100  1  0.62548922  0.12488146  0.37194183  1
  Co  Co101  1  0.00274323  0.24985058  0.50430795  1
  Co  Co102  1  0.87373392  0.87556828  0.37617965  1
  Co  Co103  1  0.12356743  0.37277475  0.37406587  1
  Co  Co104  1  0.62317822  0.12545369  0.62932047  1
  Co  Co105  1  0.24919196  0.00148347  0.00164799  1
  Co  Co106  1  0.62711396  0.12425367  0.12396094  1
  Co  Co107  1  0.37230002  0.37545907  0.88224680  1
  Co  Co108  1  0.00126469  0.75433766  0.25016743  1
  Co  Co109  1  0.37334343  0.87772984  0.62421826  1
  Co  Co110  1  0.12052108  0.12176287  0.12474709  1
  Co  Co111  1  0.49556050  0.25304286  0.75370144  1
  Co  Co112  1  0.74919175  0.75161784  0.24956240  1
  Co  Co113  1  0.12387162  0.37415545  0.87466545  1
  Co  Co114  1  0.25073709  0.75046994  0.25223948  1
  Co  Co115  1  0.87923123  0.12829213  0.87581667  1
  Co  Co116  1  0.24852577  0.50114548  0.49521416  1
  Co  Co117  1  0.74718470  0.00203647  0.49795718  1
  Co  Co118  1  0.87427929  0.87457331  0.12459394  1
  Co  Co119  1  -0.00009743  0.75075968  0.00099761  1
  Co  Co120  1  0.00267302  0.25244397  0.00304796  1
  Co  Co121  1  0.00011386  0.25082918  0.24697001  1
  Co  Co122  1  0.00313932  -0.00084053  0.50160637  1
  Co  Co123  1  0.12523362  0.62778643  0.12670728  1
  Co  Co124  1  0.87607817  0.87256274  0.87396823  1
  Co  Co125  1  0.37211812  0.37464421  0.62123745  1
  Co  Co126  1  0.24910016  0.74866421  -0.00327361  1
  Co  Co127  1  0.37231163  0.12433691  0.37407816  1
