# generated using pymatgen
data_Fe45Co19
_symmetry_space_group_name_H-M   'P 1'
_cell_length_a   11.41480841
_cell_length_b   11.41403716
_cell_length_c   11.41624952
_cell_angle_alpha   90.00321242
_cell_angle_beta   90.00385380
_cell_angle_gamma   89.98810560
_symmetry_Int_Tables_number   1
_chemical_formula_structural   Fe45Co19
_chemical_formula_sum   'Fe90 Co38'
_cell_volume   1487.41223716
_cell_formula_units_Z   2
loop_
 _symmetry_equiv_pos_site_id
 _symmetry_equiv_pos_as_xyz
  1  'x, y, z'
loop_
 _atom_site_type_symbol
 _atom_site_label
 _atom_site_symmetry_multiplicity
 _atom_site_fract_x
 _atom_site_fract_y
 _atom_site_fract_z
 _atom_site_occupancy
  Fe  Fe0  1  0.87586510  0.37688583  0.62547732  1
  Fe  Fe1  1  0.12397363  0.12367693  0.12694226  1
  Fe  Fe2  1  0.62440537  0.62727476  0.37453789  1
  Fe  Fe3  1  0.00243884  -0.00022387  0.74972625  1
  Fe  Fe4  1  0.37506959  0.37615046  0.12494336  1
  Fe  Fe5  1  0.00137633  0.24955668  0.74933650  1
  Fe  Fe6  1  0.62562605  0.37303553  0.37819729  1
  Fe  Fe7  1  0.75166671  0.74936138  0.24947020  1
  Fe  Fe8  1  0.24995550  -0.00729256  0.25115281  1
  Fe  Fe9  1  0.50075310  -0.00052045  0.50179611  1
  Fe  Fe10  1  0.74836420  0.00147372  -0.00103841  1
  Fe  Fe11  1  0.74970299  -0.00134300  0.50059418  1
  Fe  Fe12  1  0.12695055  0.63333816  0.37641303  1
  Fe  Fe13  1  0.49987397  0.24796589  0.25092811  1
  Fe  Fe14  1  0.87926976  0.62350290  0.87539849  1
  Fe  Fe15  1  0.12268010  0.87363124  0.62509418  1
  Fe  Fe16  1  0.75119801  0.74974485  -0.00113523  1
  Fe  Fe17  1  0.50106220  0.74883452  0.75112294  1
  Fe  Fe18  1  0.12439165  0.37400276  0.12670065  1
  Fe  Fe19  1  0.25077083  0.24963603  0.25009319  1
  Fe  Fe20  1  -0.00129915  0.24985287  0.49959433  1
  Fe  Fe21  1  0.74848948  0.49888935  0.49981679  1
  Fe  Fe22  1  0.37541744  0.12168687  0.37515921  1
  Fe  Fe23  1  -0.00059163  0.25118967  0.25209200  1
  Fe  Fe24  1  0.62542697  0.12731388  0.62508110  1
  Fe  Fe25  1  0.87444108  0.12594141  0.12464383  1
  Fe  Fe26  1  0.50074653  0.49749415  0.75099893  1
  Fe  Fe27  1  0.74801445  0.00077092  0.75087573  1
  Fe  Fe28  1  0.00168517  0.50235013  0.24956913  1
  Fe  Fe29  1  0.75135065  0.75094657  0.50180274  1
  Fe  Fe30  1  0.25120117  0.24990379  0.50068009  1
  Fe  Fe31  1  0.24682333  0.50119604  0.74653358  1
  Fe  Fe32  1  0.74555844  0.00139793  0.25038900  1
  Fe  Fe33  1  0.00204503  -0.00428052  0.25265091  1
  Fe  Fe34  1  0.62641036  0.87357893  0.62680936  1
  Fe  Fe35  1  0.74835854  0.49977931  0.75144711  1
  Fe  Fe36  1  0.24956673  -0.00296691  0.50073278  1
  Fe  Fe37  1  0.49868160  0.74827704  0.50243098  1
  Fe  Fe38  1  0.50015180  0.50025209  -0.00150818  1
  Fe  Fe39  1  0.12645559  0.12442674  0.87442686  1
  Fe  Fe40  1  0.87690166  0.62501094  0.12329276  1
  Fe  Fe41  1  0.24836211  0.50326544  0.24907867  1
  Fe  Fe42  1  0.50022517  0.00084588  0.74919879  1
  Fe  Fe43  1  0.62575909  0.87384190  0.87468001  1
  Fe  Fe44  1  0.87593004  0.87479554  0.12641835  1
  Fe  Fe45  1  0.75155654  0.74720871  0.74923187  1
  Fe  Fe46  1  0.75211312  0.49668756  -0.00215363  1
  Fe  Fe47  1  0.87420779  0.62421730  0.37640997  1
  Fe  Fe48  1  0.62347865  0.87383806  0.37424918  1
  Fe  Fe49  1  0.62400833  0.62308844  0.62567007  1
  Fe  Fe50  1  0.37298524  0.62323072  0.87403023  1
  Fe  Fe51  1  0.12458811  0.37622535  0.87457204  1
  Fe  Fe52  1  0.62300945  0.87451572  0.12441291  1
  Fe  Fe53  1  0.74945842  0.49986211  0.25086836  1
  Fe  Fe54  1  -0.00605808  0.75380715  0.50180682  1
  Fe  Fe55  1  0.00463259  0.50374920  0.74661954  1
  Fe  Fe56  1  0.24966037  0.24953153  0.00124191  1
  Fe  Fe57  1  0.50101224  0.49971220  0.25100401  1
  Fe  Fe58  1  0.00134569  0.50015468  0.50034882  1
  Fe  Fe59  1  0.49856791  0.24841546  -0.00230349  1
  Fe  Fe60  1  0.12618975  0.12474035  0.62394541  1
  Fe  Fe61  1  0.00114423  -0.00284863  -0.00043886  1
  Fe  Fe62  1  0.49751076  0.25245366  0.74972518  1
  Fe  Fe63  1  0.87506588  0.12251380  0.62468065  1
  Fe  Fe64  1  0.25183538  0.25187874  0.74778821  1
  Fe  Fe65  1  0.50295887  0.00246102  -0.00141695  1
  Fe  Fe66  1  0.74939713  0.25260803  0.75162708  1
  Fe  Fe67  1  0.87554722  0.12468464  0.87476145  1
  Fe  Fe68  1  0.37251320  0.12308635  0.87254852  1
  Fe  Fe69  1  0.24584799  -0.00342205  0.00026149  1
  Fe  Fe70  1  0.37468594  0.12103098  0.12656658  1
  Fe  Fe71  1  0.37311642  0.37722514  0.37589795  1
  Fe  Fe72  1  0.25010900  0.50308983  0.50326785  1
  Fe  Fe73  1  0.12466242  0.63325097  0.12288380  1
  Fe  Fe74  1  0.37293741  0.87655602  0.87387791  1
  Fe  Fe75  1  0.62468918  0.62495464  0.12358171  1
  Fe  Fe76  1  0.49750627  0.74811091  -0.00125195  1
  Fe  Fe77  1  -0.00172831  0.25269142  -0.00024838  1
  Fe  Fe78  1  0.87506637  0.12213519  0.37672336  1
  Fe  Fe79  1  0.49540009  0.75094251  0.24694925  1
  Fe  Fe80  1  0.37388597  0.62689324  0.37511637  1
  Fe  Fe81  1  0.12577775  0.37541850  0.37603223  1
  Fe  Fe82  1  0.49816093  0.25063566  0.50169492  1
  Fe  Fe83  1  0.12551650  0.12327340  0.37539723  1
  Fe  Fe84  1  0.24791600  0.50112928  0.00121650  1
  Fe  Fe85  1  0.75110452  0.24934989  0.25281803  1
  Fe  Fe86  1  0.24591895  0.74772570  0.75017922  1
  Fe  Fe87  1  0.87587575  0.87446597  0.87135832  1
  Fe  Fe88  1  0.62718998  0.37172004  0.12238077  1
  Fe  Fe89  1  0.37449279  0.87380674  0.62707213  1
  Co  Co90  1  0.25630896  0.75393917  0.24640472  1
  Co  Co91  1  0.50237141  0.00106079  0.25055727  1
  Co  Co92  1  0.12254911  0.62436278  0.87887486  1
  Co  Co93  1  0.75427374  0.25116759  -0.00529758  1
  Co  Co94  1  0.62450920  0.12651351  0.87279344  1
  Co  Co95  1  0.87446781  0.87733213  0.62884110  1
  Co  Co96  1  0.37727728  0.62372999  0.62850273  1
  Co  Co97  1  0.12512885  0.37307653  0.62312469  1
  Co  Co98  1  0.00111858  -0.00211854  0.49938843  1
  Co  Co99  1  0.87690207  0.37779849  0.37509663  1
  Co  Co100  1  0.87389552  0.37434793  0.12806688  1
  Co  Co101  1  0.62462735  0.37586262  0.62357319  1
  Co  Co102  1  0.37427069  0.12440303  0.62483227  1
  Co  Co103  1  0.12603333  0.86786244  0.37640740  1
  Co  Co104  1  0.75408794  0.25099726  0.50121197  1
  Co  Co105  1  0.62485673  0.12597617  0.37916925  1
  Co  Co106  1  0.12339597  0.62965535  0.61977757  1
  Co  Co107  1  0.87400020  0.62238327  0.62427583  1
  Co  Co108  1  -0.00098024  0.75398671  -0.00329296  1
  Co  Co109  1  0.37773548  0.87466437  0.37798095  1
  Co  Co110  1  0.37500760  0.62207803  0.12392367  1
  Co  Co111  1  0.24837993  -0.00053980  0.74738303  1
  Co  Co112  1  0.37527427  0.37868107  0.62308269  1
  Co  Co113  1  0.25276908  0.75132985  -0.00117648  1
  Co  Co114  1  -0.00442486  0.74935482  0.25228319  1
  Co  Co115  1  0.12257541  0.86939924  0.12680675  1
  Co  Co116  1  0.87953096  0.37812717  0.87051913  1
  Co  Co117  1  0.62542522  0.62517282  0.87603776  1
  Co  Co118  1  0.12450567  0.87417810  0.87283317  1
  Co  Co119  1  0.25440189  0.75107344  0.50422782  1
  Co  Co120  1  0.00027897  0.74779557  0.74886061  1
  Co  Co121  1  0.50002106  0.50240933  0.49748862  1
  Co  Co122  1  0.62702900  0.12866619  0.12295131  1
  Co  Co123  1  0.00084521  0.49728043  0.00387367  1
  Co  Co124  1  0.37753994  0.87936467  0.12078512  1
  Co  Co125  1  0.87203050  0.87695042  0.37362539  1
  Co  Co126  1  0.37184478  0.37670712  0.87613646  1
  Co  Co127  1  0.62376860  0.37371212  0.87641893  1
