# generated using pymatgen
data_Fe45Co19
_symmetry_space_group_name_H-M   'P 1'
_cell_length_a   11.41499516
_cell_length_b   11.41533551
_cell_length_c   11.41422078
_cell_angle_alpha   89.99726236
_cell_angle_beta   89.98982641
_cell_angle_gamma   90.00931575
_symmetry_Int_Tables_number   1
_chemical_formula_structural   Fe45Co19
_chemical_formula_sum   'Fe90 Co38'
_cell_volume   1487.34140289
_cell_formula_units_Z   2
loop_
 _symmetry_equiv_pos_site_id
 _symmetry_equiv_pos_as_xyz
  1  'x, y, z'
loop_
 _atom_site_type_symbol
 _atom_site_label
 _atom_site_symmetry_multiplicity
 _atom_site_fract_x
 _atom_site_fract_y
 _atom_site_fract_z
 _atom_site_occupancy
  Fe  Fe0  1  0.49578910  0.49544477  0.49936164  1
  Fe  Fe1  1  0.12757723  0.37618024  0.62509881  1
  Fe  Fe2  1  0.37642414  0.12788729  0.37195168  1
  Fe  Fe3  1  0.74842470  0.24949268  0.00091560  1
  Fe  Fe4  1  0.50565789  0.75130144  0.24817806  1
  Fe  Fe5  1  0.12599562  0.62383929  0.37728269  1
  Fe  Fe6  1  0.87539946  0.12518897  0.87369518  1
  Fe  Fe7  1  0.24706826  0.24700838  -0.00159665  1
  Fe  Fe8  1  0.00064059  0.24888987  0.49697360  1
  Fe  Fe9  1  0.87376504  0.62731208  0.87594053  1
  Fe  Fe10  1  0.75346981  0.00164616  0.49765473  1
  Fe  Fe11  1  0.62440623  0.37298152  0.37490326  1
  Fe  Fe12  1  0.37955057  0.62746945  0.12317696  1
  Fe  Fe13  1  0.12477521  0.37620779  0.12291854  1
  Fe  Fe14  1  0.74906011  0.00056458  0.74937682  1
  Fe  Fe15  1  0.37403070  0.87269292  0.37205770  1
  Fe  Fe16  1  0.37553276  0.62826371  0.87798952  1
  Fe  Fe17  1  0.87824780  0.12564887  0.12815554  1
  Fe  Fe18  1  0.62915386  0.87612426  0.37138551  1
  Fe  Fe19  1  0.50407356  0.74881099  0.75122025  1
  Fe  Fe20  1  0.87659093  0.37379187  0.62658720  1
  Fe  Fe21  1  0.50093483  -0.00094393  0.74999177  1
  Fe  Fe22  1  0.37690136  0.62495077  0.62384282  1
  Fe  Fe23  1  0.12750606  0.37521678  0.37478728  1
  Fe  Fe24  1  0.49333688  -0.00504899  0.00242748  1
  Fe  Fe25  1  0.37715305  0.87328559  0.62667101  1
  Fe  Fe26  1  0.00241033  0.24876012  -0.00182518  1
  Fe  Fe27  1  0.00583205  0.24778749  0.75367929  1
  Fe  Fe28  1  0.24678960  0.74878118  0.24816975  1
  Fe  Fe29  1  0.87423991  0.87402617  0.62465868  1
  Fe  Fe30  1  0.37135011  0.12145408  0.87398784  1
  Fe  Fe31  1  0.25186480  0.50089520  0.00078136  1
  Fe  Fe32  1  0.87266023  0.87542538  0.13216867  1
  Fe  Fe33  1  0.37373888  0.37170695  0.12634984  1
  Fe  Fe34  1  -0.00030259  0.00038188  0.25897291  1
  Fe  Fe35  1  0.62561933  0.87446202  0.62399140  1
  Fe  Fe36  1  0.74830583  0.74805422  0.50032165  1
  Fe  Fe37  1  0.12658115  0.12459644  0.62205637  1
  Fe  Fe38  1  0.75308550  0.00161973  0.00242477  1
  Fe  Fe39  1  0.74848999  0.74824672  0.00738358  1
  Fe  Fe40  1  0.87391285  0.37426235  0.87445150  1
  Fe  Fe41  1  0.37174343  0.37379689  0.87175559  1
  Fe  Fe42  1  0.62273819  0.12694379  0.37687599  1
  Fe  Fe43  1  0.62655572  0.87622289  0.87782014  1
  Fe  Fe44  1  0.74849030  0.24840337  0.74942141  1
  Fe  Fe45  1  0.25226919  0.00024294  0.24703237  1
  Fe  Fe46  1  0.25546244  0.25426554  0.50054527  1
  Fe  Fe47  1  0.62007940  0.12181737  0.12493905  1
  Fe  Fe48  1  0.12271586  0.62614886  0.12195917  1
  Fe  Fe49  1  0.49930872  0.24863659  0.75025843  1
  Fe  Fe50  1  -0.00136928  0.50004906  -0.00138391  1
  Fe  Fe51  1  -0.00067234  0.75129408  0.49717741  1
  Fe  Fe52  1  0.87442400  0.62614095  0.37302448  1
  Fe  Fe53  1  0.00128566  0.49932368  0.24989130  1
  Fe  Fe54  1  0.25120880  0.75601854  0.00223480  1
  Fe  Fe55  1  0.62297024  0.37411624  0.62568564  1
  Fe  Fe56  1  0.37673702  0.62563688  0.37448165  1
  Fe  Fe57  1  0.50046780  0.25337501  -0.00066753  1
  Fe  Fe58  1  0.62335131  0.62343507  0.37676614  1
  Fe  Fe59  1  0.74852377  0.50215882  0.74999670  1
  Fe  Fe60  1  0.49835707  -0.00220854  0.49731827  1
  Fe  Fe61  1  0.74954583  0.50368225  0.24604242  1
  Fe  Fe62  1  0.62373524  0.12341995  0.87696129  1
  Fe  Fe63  1  0.62451211  0.62301707  0.88227452  1
  Fe  Fe64  1  0.87064246  0.87399251  0.87341711  1
  Fe  Fe65  1  0.12269824  0.11900683  0.12263933  1
  Fe  Fe66  1  0.25165408  0.74805711  0.50025104  1
  Fe  Fe67  1  0.24624310  0.50396027  0.75056773  1
  Fe  Fe68  1  0.75110416  0.49864419  0.50086086  1
  Fe  Fe69  1  0.00238621  0.75134383  0.25230187  1
  Fe  Fe70  1  0.74731233  0.24776502  0.24838027  1
  Fe  Fe71  1  0.87471077  0.37430816  0.12576316  1
  Fe  Fe72  1  0.87469441  0.37187849  0.37252036  1
  Fe  Fe73  1  -0.00000375  0.50040328  0.49981200  1
  Fe  Fe74  1  0.24741465  0.75036729  0.74970831  1
  Fe  Fe75  1  0.00340991  0.50338677  0.75190955  1
  Fe  Fe76  1  0.25031577  0.50206480  0.24882136  1
  Fe  Fe77  1  -0.00049914  0.75478667  0.00087504  1
  Fe  Fe78  1  0.49925341  0.49678446  0.24748593  1
  Fe  Fe79  1  0.00066809  0.00019705  0.74937447  1
  Fe  Fe80  1  0.87509015  0.62717166  0.62666000  1
  Fe  Fe81  1  0.00314310  0.75062214  0.75210039  1
  Fe  Fe82  1  0.12356466  0.87554143  0.62056229  1
  Fe  Fe83  1  0.87590991  0.12548503  0.62304402  1
  Fe  Fe84  1  0.24715897  0.24845558  0.24730428  1
  Fe  Fe85  1  0.12750728  0.88195424  0.87841803  1
  Fe  Fe86  1  0.37488724  0.12445307  0.62631889  1
  Fe  Fe87  1  0.25151255  -0.00085868  0.49928152  1
  Fe  Fe88  1  0.50128584  0.50166417  0.75286156  1
  Fe  Fe89  1  0.62399714  0.12571066  0.62171604  1
  Co  Co90  1  0.62698224  0.88071157  0.12595257  1
  Co  Co91  1  0.00392984  0.25029678  0.24924673  1
  Co  Co92  1  0.12939480  0.87506171  0.37625802  1
  Co  Co93  1  0.74464203  0.74285708  0.24525100  1
  Co  Co94  1  0.24810290  -0.00130922  0.74619616  1
  Co  Co95  1  0.62259930  0.62280152  0.62100358  1
  Co  Co96  1  0.37380298  0.37775526  0.63201055  1
  Co  Co97  1  0.25304454  0.49951953  0.49835440  1
  Co  Co98  1  0.75047052  0.25168893  0.50110706  1
  Co  Co99  1  0.12199630  0.87924747  0.12653272  1
  Co  Co100  1  0.37384037  0.37350845  0.36890012  1
  Co  Co101  1  0.87427192  0.12998969  0.37512271  1
  Co  Co102  1  0.50329702  0.25160279  0.24843101  1
  Co  Co103  1  -0.00701595  -0.00248609  -0.00050688  1
  Co  Co104  1  0.49526377  0.25284541  0.50112558  1
  Co  Co105  1  0.49771884  -0.00049101  0.25161821  1
  Co  Co106  1  0.74466683  0.74769476  0.74974113  1
  Co  Co107  1  0.75354453  0.50053182  0.00194848  1
  Co  Co108  1  0.62721566  0.37501686  0.87396535  1
  Co  Co109  1  0.12607315  0.37793358  0.87608754  1
  Co  Co110  1  0.49569134  0.49279587  -0.00093021  1
  Co  Co111  1  0.62690719  0.37718956  0.12393168  1
  Co  Co112  1  0.61822235  0.61997746  0.11960836  1
  Co  Co113  1  0.37711669  0.87033890  0.13136714  1
  Co  Co114  1  0.50079137  0.75290878  0.49800690  1
  Co  Co115  1  0.24641484  0.24740236  0.75242837  1
  Co  Co116  1  0.37798618  0.12932220  0.12557655  1
  Co  Co117  1  0.86937296  0.87156828  0.37260051  1
  Co  Co118  1  0.37411807  0.87497376  0.86969751  1
  Co  Co119  1  0.12983367  0.12593279  0.37604562  1
  Co  Co120  1  0.25776658  -0.00345622  0.00646712  1
  Co  Co121  1  0.50011763  0.75615017  0.00057488  1
  Co  Co122  1  0.12736503  0.11599823  0.87941170  1
  Co  Co123  1  0.12447778  0.62626205  0.62151681  1
  Co  Co124  1  0.75072355  0.00599268  0.25153153  1
  Co  Co125  1  0.88027784  0.62582362  0.12566736  1
  Co  Co126  1  0.12569818  0.62757884  0.88089489  1
  Co  Co127  1  -0.00126861  0.00071308  0.49537130  1
