# generated using pymatgen
data_Fe45Co19
_symmetry_space_group_name_H-M   'P 1'
_cell_length_a   11.41490812
_cell_length_b   11.41428463
_cell_length_c   11.41583731
_cell_angle_alpha   89.99660478
_cell_angle_beta   90.00978416
_cell_angle_gamma   89.99282678
_symmetry_Int_Tables_number   1
_chemical_formula_structural   Fe45Co19
_chemical_formula_sum   'Fe90 Co38'
_cell_volume   1487.40377276
_cell_formula_units_Z   2
loop_
 _symmetry_equiv_pos_site_id
 _symmetry_equiv_pos_as_xyz
  1  'x, y, z'
loop_
 _atom_site_type_symbol
 _atom_site_label
 _atom_site_symmetry_multiplicity
 _atom_site_fract_x
 _atom_site_fract_y
 _atom_site_fract_z
 _atom_site_occupancy
  Fe  Fe0  1  0.50383863  -0.00457634  0.00310405  1
  Fe  Fe1  1  0.49922211  0.49957683  0.50030794  1
  Fe  Fe2  1  0.12430554  0.12273220  0.37770190  1
  Fe  Fe3  1  0.74958001  0.75048033  0.75006456  1
  Fe  Fe4  1  0.24929709  0.25021047  -0.00078754  1
  Fe  Fe5  1  0.62357835  0.12695416  0.37663962  1
  Fe  Fe6  1  0.87644107  0.37510200  0.37244758  1
  Fe  Fe7  1  0.62873447  0.62643123  0.62013314  1
  Fe  Fe8  1  0.25010842  0.00041138  0.75162825  1
  Fe  Fe9  1  0.62591972  0.12321531  0.62234975  1
  Fe  Fe10  1  0.75449626  0.74985692  0.25322170  1
  Fe  Fe11  1  0.12358754  0.37398256  0.37163926  1
  Fe  Fe12  1  0.49949231  0.74737571  0.74561817  1
  Fe  Fe13  1  0.37613438  0.87301211  0.12820650  1
  Fe  Fe14  1  0.87445948  0.37511071  0.12589881  1
  Fe  Fe15  1  0.50095763  0.24848070  0.24812902  1
  Fe  Fe16  1  0.75136691  -0.00418263  0.49877503  1
  Fe  Fe17  1  0.87236384  0.62400425  0.62226396  1
  Fe  Fe18  1  0.24887533  0.24770899  0.75271823  1
  Fe  Fe19  1  0.50092066  0.50358025  0.24940309  1
  Fe  Fe20  1  0.12622336  0.11922606  0.11854616  1
  Fe  Fe21  1  0.75051043  0.24771328  0.24902494  1
  Fe  Fe22  1  0.24831638  0.50425697  0.75240929  1
  Fe  Fe23  1  0.37562560  0.12422627  0.87741341  1
  Fe  Fe24  1  -0.00010839  0.24963678  -0.00068603  1
  Fe  Fe25  1  0.25132700  0.24909140  0.49837755  1
  Fe  Fe26  1  0.37439899  0.37177159  0.37178750  1
  Fe  Fe27  1  0.62300280  0.87078881  0.37549457  1
  Fe  Fe28  1  0.87258482  0.37527910  0.63067253  1
  Fe  Fe29  1  0.12358997  0.87702413  0.87634348  1
  Fe  Fe30  1  0.24958650  0.49978998  0.49698949  1
  Fe  Fe31  1  0.87257218  0.12554823  0.87671002  1
  Fe  Fe32  1  0.75178357  0.49888725  -0.00202932  1
  Fe  Fe33  1  0.62351754  0.62902880  0.87762227  1
  Fe  Fe34  1  0.00040526  0.75429958  0.00487251  1
  Fe  Fe35  1  0.74678831  -0.00049818  0.25001192  1
  Fe  Fe36  1  0.75159023  0.75876462  -0.00182737  1
  Fe  Fe37  1  0.37440036  0.37564736  0.62687820  1
  Fe  Fe38  1  0.50134315  -0.00051876  0.25036021  1
  Fe  Fe39  1  0.12071509  0.37627066  0.87224995  1
  Fe  Fe40  1  0.00085509  0.74824796  0.74825828  1
  Fe  Fe41  1  0.87589641  0.37489722  0.87074731  1
  Fe  Fe42  1  0.50075951  0.50364422  0.74983147  1
  Fe  Fe43  1  -0.00264857  0.24883534  0.50295915  1
  Fe  Fe44  1  0.24978026  0.74825995  0.75291011  1
  Fe  Fe45  1  0.24724650  0.50267077  -0.00227409  1
  Fe  Fe46  1  0.12493791  0.37431406  0.62722442  1
  Fe  Fe47  1  -0.00391400  0.75317616  0.49871992  1
  Fe  Fe48  1  0.62654372  0.12512916  0.88002228  1
  Fe  Fe49  1  0.62603681  0.37411578  0.87389501  1
  Fe  Fe50  1  0.62727242  0.37631170  0.62661388  1
  Fe  Fe51  1  0.37579642  0.37626134  0.87427200  1
  Fe  Fe52  1  0.87065293  0.11990982  0.12130180  1
  Fe  Fe53  1  0.50212974  0.24835934  0.74949044  1
  Fe  Fe54  1  0.37192904  0.37602231  0.12726531  1
  Fe  Fe55  1  0.00092927  0.00398213  0.75105263  1
  Fe  Fe56  1  0.62748746  0.62755519  0.37931434  1
  Fe  Fe57  1  -0.00140821  0.49856900  0.50171689  1
  Fe  Fe58  1  0.50111252  0.25146844  0.00193069  1
  Fe  Fe59  1  0.25025482  0.75210592  0.49847064  1
  Fe  Fe60  1  -0.00186142  0.75039071  0.24750859  1
  Fe  Fe61  1  0.37535361  0.12451116  0.12478715  1
  Fe  Fe62  1  0.62867877  0.62896496  0.12332687  1
  Fe  Fe63  1  0.37315089  0.62553842  0.12401350  1
  Fe  Fe64  1  0.24762952  0.74966509  0.24978146  1
  Fe  Fe65  1  0.87637215  0.12200254  0.37614766  1
  Fe  Fe66  1  0.12598135  0.12435817  0.62380202  1
  Fe  Fe67  1  0.75081503  0.50244866  0.25078843  1
  Fe  Fe68  1  0.37927119  0.87336136  0.87410277  1
  Fe  Fe69  1  0.37382720  0.87469952  0.62486294  1
  Fe  Fe70  1  0.37522453  0.12522727  0.62318971  1
  Fe  Fe71  1  0.12539033  0.87638865  0.62450387  1
  Fe  Fe72  1  0.87893789  0.62584208  0.87764672  1
  Fe  Fe73  1  0.00123154  0.24470564  0.24685760  1
  Fe  Fe74  1  -0.00193147  0.50409800  0.24659643  1
  Fe  Fe75  1  0.49693938  -0.00281930  0.49773593  1
  Fe  Fe76  1  0.24910151  0.75127244  -0.00086249  1
  Fe  Fe77  1  0.37613559  0.62781138  0.37657810  1
  Fe  Fe78  1  0.75112310  0.25081171  0.50126100  1
  Fe  Fe79  1  0.62688558  0.37445688  0.12597504  1
  Fe  Fe80  1  0.12239032  0.87775560  0.37447849  1
  Fe  Fe81  1  0.12633647  0.62566375  0.62342904  1
  Fe  Fe82  1  0.12651138  0.37712295  0.12756925  1
  Fe  Fe83  1  0.25078877  0.00111249  0.25171337  1
  Fe  Fe84  1  0.74807067  -0.00158318  0.75360391  1
  Fe  Fe85  1  0.50135145  0.00088302  0.74958928  1
  Fe  Fe86  1  0.12137310  0.62481955  0.37427431  1
  Fe  Fe87  1  0.62511623  0.37370146  0.37431498  1
  Fe  Fe88  1  0.50067331  0.50141597  0.00125687  1
  Fe  Fe89  1  0.87486893  0.87761489  0.62764975  1
  Co  Co90  1  0.87827189  0.87989028  0.37116842  1
  Co  Co91  1  0.75562266  0.75555391  0.49867020  1
  Co  Co92  1  0.87241645  0.62708969  0.12132314  1
  Co  Co93  1  0.12647279  0.12133576  0.87876250  1
  Co  Co94  1  0.87604259  0.62290461  0.37681042  1
  Co  Co95  1  -0.00068144  0.49826647  0.00232964  1
  Co  Co96  1  0.37664111  0.12724529  0.37455658  1
  Co  Co97  1  -0.00447075  -0.00249643  -0.00234286  1
  Co  Co98  1  0.74927770  0.50514952  0.75370853  1
  Co  Co99  1  0.50028072  0.25171932  0.50182896  1
  Co  Co100  1  0.37115226  0.62449819  0.62403199  1
  Co  Co101  1  -0.00055683  -0.00109173  0.50296999  1
  Co  Co102  1  0.62774465  0.12497810  0.12238022  1
  Co  Co103  1  0.74740847  -0.00822652  -0.00300493  1
  Co  Co104  1  0.24703832  0.24487340  0.24873684  1
  Co  Co105  1  0.75115911  0.25352182  0.00034709  1
  Co  Co106  1  0.61953503  0.87235344  0.87134321  1
  Co  Co107  1  0.75137917  0.49639745  0.49820139  1
  Co  Co108  1  0.37509525  0.87217075  0.37307216  1
  Co  Co109  1  0.12564776  0.62436896  0.12505938  1
  Co  Co110  1  0.74727610  0.24710072  0.74926544  1
  Co  Co111  1  0.62561654  0.87515972  0.62480890  1
  Co  Co112  1  0.87191014  0.12148470  0.62546231  1
  Co  Co113  1  -0.00041268  0.50381285  0.74741762  1
  Co  Co114  1  0.62672327  0.87075125  0.12904327  1
  Co  Co115  1  0.25101732  0.50334590  0.25302553  1
  Co  Co116  1  0.49823893  0.75138943  0.50307550  1
  Co  Co117  1  0.12527755  0.87873948  0.12477075  1
  Co  Co118  1  0.87890750  0.87355019  0.87088106  1
  Co  Co119  1  0.00013478  0.24511288  0.74970037  1
  Co  Co120  1  0.11983949  0.62666738  0.87710455  1
  Co  Co121  1  0.50058128  0.74637605  0.24984923  1
  Co  Co122  1  0.00244766  0.00283965  0.24789159  1
  Co  Co123  1  0.25190738  -0.00126163  0.49878303  1
  Co  Co124  1  0.25530277  -0.00440079  -0.00077289  1
  Co  Co125  1  0.49919055  0.75193014  0.00319471  1
  Co  Co126  1  0.37706471  0.62591113  0.87636548  1
  Co  Co127  1  0.87425992  0.87920998  0.12929140  1
