# generated using pymatgen
data_Fe45Co19
_symmetry_space_group_name_H-M   'P 1'
_cell_length_a   11.41578050
_cell_length_b   11.41624032
_cell_length_c   11.41698274
_cell_angle_alpha   90.00175479
_cell_angle_beta   90.00198338
_cell_angle_gamma   89.99555620
_symmetry_Int_Tables_number   1
_chemical_formula_structural   Fe45Co19
_chemical_formula_sum   'Fe90 Co38'
_cell_volume   1487.92162253
_cell_formula_units_Z   2
loop_
 _symmetry_equiv_pos_site_id
 _symmetry_equiv_pos_as_xyz
  1  'x, y, z'
loop_
 _atom_site_type_symbol
 _atom_site_label
 _atom_site_symmetry_multiplicity
 _atom_site_fract_x
 _atom_site_fract_y
 _atom_site_fract_z
 _atom_site_occupancy
  Fe  Fe0  1  0.00009067  0.24981612  0.24870465  1
  Fe  Fe1  1  0.25123914  0.74692825  0.00252846  1
  Fe  Fe2  1  0.12648816  0.87511853  0.12605751  1
  Fe  Fe3  1  0.37546222  0.62413223  0.62259066  1
  Fe  Fe4  1  0.49763427  -0.00289125  0.49586904  1
  Fe  Fe5  1  0.87724985  0.12405320  0.62405663  1
  Fe  Fe6  1  0.00032051  -0.00261728  0.49799178  1
  Fe  Fe7  1  0.13106434  0.87266382  0.37245253  1
  Fe  Fe8  1  0.49858726  -0.00210339  -0.00311920  1
  Fe  Fe9  1  0.00081057  0.75040935  0.24915766  1
  Fe  Fe10  1  0.12810347  0.87445484  0.87337519  1
  Fe  Fe11  1  0.87439421  0.12567877  0.87464829  1
  Fe  Fe12  1  -0.00030226  0.00022116  0.75149254  1
  Fe  Fe13  1  0.62382412  0.12584181  0.87402514  1
  Fe  Fe14  1  0.74930433  0.25027565  0.50090576  1
  Fe  Fe15  1  0.37459838  0.37447071  0.37665273  1
  Fe  Fe16  1  0.50155564  0.49764304  0.25367814  1
  Fe  Fe17  1  0.87216945  0.87578038  0.87417025  1
  Fe  Fe18  1  0.74827759  0.49850321  0.25152028  1
  Fe  Fe19  1  0.62485608  0.62352446  0.12349282  1
  Fe  Fe20  1  0.74828920  -0.00066947  0.50020397  1
  Fe  Fe21  1  0.25064787  0.50135868  0.25073643  1
  Fe  Fe22  1  0.87499697  0.37478163  0.37639298  1
  Fe  Fe23  1  0.87537206  0.12576360  0.37559174  1
  Fe  Fe24  1  0.49996116  0.25111752  0.74938831  1
  Fe  Fe25  1  0.24988019  0.24947273  0.50428513  1
  Fe  Fe26  1  0.12323835  0.62597779  0.87344604  1
  Fe  Fe27  1  0.87293280  0.62775658  0.37632699  1
  Fe  Fe28  1  0.49971078  0.75343175  0.49819566  1
  Fe  Fe29  1  0.62791119  0.62653872  0.37813205  1
  Fe  Fe30  1  0.12762322  0.62647960  0.37868351  1
  Fe  Fe31  1  -0.00055715  -0.00092515  -0.00055450  1
  Fe  Fe32  1  0.87697550  0.37824087  0.62490691  1
  Fe  Fe33  1  0.12577215  0.87626300  0.62771732  1
  Fe  Fe34  1  0.74912169  0.25045714  0.74795657  1
  Fe  Fe35  1  0.62352358  0.87727668  0.62736052  1
  Fe  Fe36  1  0.25372899  -0.00086950  0.50288922  1
  Fe  Fe37  1  0.50036268  0.75023815  0.75236825  1
  Fe  Fe38  1  0.49595439  0.00077582  0.25387456  1
  Fe  Fe39  1  0.00039893  0.50043452  0.25172802  1
  Fe  Fe40  1  0.50243071  0.50010927  0.75137063  1
  Fe  Fe41  1  0.37561652  0.37667148  0.62437156  1
  Fe  Fe42  1  0.62435085  0.62282641  0.62313451  1
  Fe  Fe43  1  0.12531449  0.37719491  0.12324069  1
  Fe  Fe44  1  0.62205176  0.12264879  0.62603306  1
  Fe  Fe45  1  0.00152985  0.25080234  0.74947829  1
  Fe  Fe46  1  0.25065809  0.74879751  0.74726256  1
  Fe  Fe47  1  0.49863460  0.25291142  0.00222828  1
  Fe  Fe48  1  0.37754553  0.62055781  0.12351395  1
  Fe  Fe49  1  0.75129245  -0.00005633  0.24997079  1
  Fe  Fe50  1  0.12640632  0.37431334  0.37628847  1
  Fe  Fe51  1  0.24801794  0.50068432  0.74862312  1
  Fe  Fe52  1  0.62245445  0.12810942  0.12806466  1
  Fe  Fe53  1  0.87648639  0.12514081  0.12493997  1
  Fe  Fe54  1  0.62498779  0.12874901  0.37221982  1
  Fe  Fe55  1  0.74868225  0.25080535  0.00083369  1
  Fe  Fe56  1  -0.00135904  0.75032071  -0.00078380  1
  Fe  Fe57  1  0.74836097  0.00009177  0.00044264  1
  Fe  Fe58  1  0.49500660  -0.00094696  0.75437125  1
  Fe  Fe59  1  0.00086169  0.75027759  0.50218709  1
  Fe  Fe60  1  0.62488090  0.87555881  0.12737485  1
  Fe  Fe61  1  0.25256650  0.25017472  0.00228714  1
  Fe  Fe62  1  0.74874089  0.75096683  0.00052860  1
  Fe  Fe63  1  0.87421308  0.87594132  0.62626693  1
  Fe  Fe64  1  0.24945312  0.24721421  0.74616096  1
  Fe  Fe65  1  0.50384884  0.49629371  -0.00264495  1
  Fe  Fe66  1  0.50022804  0.75252991  -0.00155552  1
  Fe  Fe67  1  0.12684914  0.12514347  0.37625266  1
  Fe  Fe68  1  0.87416043  0.37713738  0.87572008  1
  Fe  Fe69  1  0.74849672  0.74915199  0.74901040  1
  Fe  Fe70  1  0.25428669  0.24793579  0.24690696  1
  Fe  Fe71  1  0.62470955  0.37838204  0.62259126  1
  Fe  Fe72  1  0.12347210  0.62255705  0.12390633  1
  Fe  Fe73  1  0.00020623  -0.00155338  0.25081674  1
  Fe  Fe74  1  0.87733942  0.62215954  0.62630215  1
  Fe  Fe75  1  0.50041136  0.25031806  0.49929719  1
  Fe  Fe76  1  0.87384266  0.62217135  0.87311184  1
  Fe  Fe77  1  0.00171528  0.25037328  0.50103058  1
  Fe  Fe78  1  0.25260136  0.00068108  -0.00156369  1
  Fe  Fe79  1  0.37307086  0.87523054  0.12754872  1
  Fe  Fe80  1  0.37634389  0.62476414  0.87598212  1
  Fe  Fe81  1  0.12501760  0.37487527  0.87688882  1
  Fe  Fe82  1  0.87097541  0.87113802  0.37381378  1
  Fe  Fe83  1  0.12423681  0.12442556  0.12444577  1
  Fe  Fe84  1  0.87529093  0.37648912  0.12281694  1
  Fe  Fe85  1  0.49969792  0.75005481  0.25148717  1
  Fe  Fe86  1  0.37249873  0.62737633  0.37757438  1
  Fe  Fe87  1  0.87381936  0.62442995  0.12462259  1
  Fe  Fe88  1  0.12610813  0.12518456  0.87419630  1
  Fe  Fe89  1  0.37375136  0.37515906  0.87440548  1
  Co  Co90  1  0.37888627  0.12469800  0.62435465  1
  Co  Co91  1  0.37774841  0.12248535  0.12244212  1
  Co  Co92  1  0.37126935  0.87150612  0.87483873  1
  Co  Co93  1  0.25044594  0.75174907  0.50490445  1
  Co  Co94  1  0.37537703  0.12877469  0.87536623  1
  Co  Co95  1  0.37443548  0.38066469  0.12414854  1
  Co  Co96  1  0.49952487  0.50018171  0.49744269  1
  Co  Co97  1  0.62493508  0.37289569  0.12846056  1
  Co  Co98  1  0.25172990  0.00448997  0.24961817  1
  Co  Co99  1  0.74764659  0.74873862  0.24720463  1
  Co  Co100  1  0.75346407  0.25123812  0.24985960  1
  Co  Co101  1  0.62789091  0.87380128  0.37333209  1
  Co  Co102  1  0.62529391  0.37190114  0.37502029  1
  Co  Co103  1  0.00038448  0.50134675  -0.00139689  1
  Co  Co104  1  0.74877399  0.75083737  0.50514374  1
  Co  Co105  1  0.00335670  0.49789671  0.75157614  1
  Co  Co106  1  0.37350005  0.12761024  0.37850330  1
  Co  Co107  1  0.75094748  0.49971326  0.49939798  1
  Co  Co108  1  0.25084943  0.74481630  0.24516618  1
  Co  Co109  1  0.12319481  0.62385299  0.62387417  1
  Co  Co110  1  0.36953187  0.87153245  0.37154996  1
  Co  Co111  1  0.62559681  0.37276766  0.87368697  1
  Co  Co112  1  0.49407498  0.25125936  0.24902857  1
  Co  Co113  1  0.00006795  0.24993492  -0.00016933  1
  Co  Co114  1  0.74672274  0.49849969  -0.00044107  1
  Co  Co115  1  0.25018132  0.49954978  0.50124868  1
  Co  Co116  1  0.87491321  0.87392894  0.12568264  1
  Co  Co117  1  0.74651300  0.49970432  0.74994215  1
  Co  Co118  1  0.12222082  0.12243532  0.62419629  1
  Co  Co119  1  0.12343642  0.37700862  0.62297414  1
  Co  Co120  1  0.24904778  0.50205753  -0.00260508  1
  Co  Co121  1  0.00077377  0.50118818  0.49795010  1
  Co  Co122  1  0.62735258  0.87495617  0.87291054  1
  Co  Co123  1  0.75054542  0.00263601  0.74917861  1
  Co  Co124  1  0.62487738  0.62632953  0.87650259  1
  Co  Co125  1  0.37758814  0.87429364  0.62678967  1
  Co  Co126  1  0.25358308  0.00310978  0.74905746  1
  Co  Co127  1  -0.00041815  0.75153225  0.75000541  1
