# generated using pymatgen
data_Fe45Co19
_symmetry_space_group_name_H-M   'P 1'
_cell_length_a   11.41666956
_cell_length_b   11.41385613
_cell_length_c   11.41434490
_cell_angle_alpha   89.99269732
_cell_angle_beta   89.99939206
_cell_angle_gamma   90.00382904
_symmetry_Int_Tables_number   1
_chemical_formula_structural   Fe45Co19
_chemical_formula_sum   'Fe90 Co38'
_cell_volume   1487.38299496
_cell_formula_units_Z   2
loop_
 _symmetry_equiv_pos_site_id
 _symmetry_equiv_pos_as_xyz
  1  'x, y, z'
loop_
 _atom_site_type_symbol
 _atom_site_label
 _atom_site_symmetry_multiplicity
 _atom_site_fract_x
 _atom_site_fract_y
 _atom_site_fract_z
 _atom_site_occupancy
  Fe  Fe0  1  0.87424452  0.12343023  0.12337891  1
  Fe  Fe1  1  0.74912150  0.25131361  0.24775958  1
  Fe  Fe2  1  0.49673752  0.74611487  0.24807072  1
  Fe  Fe3  1  0.74927119  0.24814431  0.74721071  1
  Fe  Fe4  1  0.62252125  0.62336418  0.62612469  1
  Fe  Fe5  1  0.24897016  -0.00232817  -0.00041204  1
  Fe  Fe6  1  0.87709694  0.37514156  0.62429723  1
  Fe  Fe7  1  0.87759242  0.62437219  0.62417624  1
  Fe  Fe8  1  0.62386684  0.62441210  0.37463579  1
  Fe  Fe9  1  0.75024456  -0.00113830  0.25111222  1
  Fe  Fe10  1  0.12379235  0.37779493  0.12621251  1
  Fe  Fe11  1  0.87329302  0.87291070  0.37711383  1
  Fe  Fe12  1  0.25463944  0.50396855  0.24944682  1
  Fe  Fe13  1  0.87287850  0.12507929  0.87580072  1
  Fe  Fe14  1  0.12267868  0.12153170  0.62342975  1
  Fe  Fe15  1  0.87010595  0.87417138  0.87389982  1
  Fe  Fe16  1  0.87285762  0.12332023  0.37801310  1
  Fe  Fe17  1  0.87468217  0.37537496  0.87656160  1
  Fe  Fe18  1  0.12509553  0.37688480  0.62433464  1
  Fe  Fe19  1  0.62589671  0.87215602  0.37211180  1
  Fe  Fe20  1  0.87633170  0.87651451  0.62435364  1
  Fe  Fe21  1  0.25219089  0.50382418  0.50422709  1
  Fe  Fe22  1  0.12584870  0.62599563  0.12408978  1
  Fe  Fe23  1  0.00085348  0.24814201  0.75031841  1
  Fe  Fe24  1  0.87322579  0.62593169  0.87703681  1
  Fe  Fe25  1  0.87420223  0.37561039  0.37650788  1
  Fe  Fe26  1  0.75091062  0.74595020  0.24663375  1
  Fe  Fe27  1  0.38147333  0.12296051  0.62068195  1
  Fe  Fe28  1  0.37610229  0.87244141  0.87078804  1
  Fe  Fe29  1  0.12556854  0.12308272  0.12428244  1
  Fe  Fe30  1  0.74739604  0.75094275  0.50416011  1
  Fe  Fe31  1  0.49701904  0.49846579  0.50017917  1
  Fe  Fe32  1  0.62443197  0.12432351  0.37827759  1
  Fe  Fe33  1  0.87735021  0.37869146  0.12198691  1
  Fe  Fe34  1  0.24982066  0.49958413  -0.00135757  1
  Fe  Fe35  1  0.37544621  0.12467390  0.12247086  1
  Fe  Fe36  1  0.62314185  0.37449961  0.62628297  1
  Fe  Fe37  1  0.75139995  0.50150411  0.50036284  1
  Fe  Fe38  1  0.37025728  0.87036113  0.37730090  1
  Fe  Fe39  1  0.62571646  0.37729759  0.37453200  1
  Fe  Fe40  1  0.50278861  -0.00353992  -0.00194701  1
  Fe  Fe41  1  -0.00258138  0.50391937  0.25265512  1
  Fe  Fe42  1  0.50054046  0.24817886  0.75016222  1
  Fe  Fe43  1  -0.00094815  0.50049241  0.75207133  1
  Fe  Fe44  1  0.12683561  0.37629908  0.37547925  1
  Fe  Fe45  1  0.49825384  -0.00177218  0.25242487  1
  Fe  Fe46  1  0.37437186  0.37519115  0.37595886  1
  Fe  Fe47  1  0.49874950  0.75065818  0.50187622  1
  Fe  Fe48  1  0.37513725  0.37100045  0.87625399  1
  Fe  Fe49  1  0.00156125  0.75163614  -0.00172467  1
  Fe  Fe50  1  0.50316773  0.75086633  -0.00028250  1
  Fe  Fe51  1  0.12777037  0.62633140  0.37752221  1
  Fe  Fe52  1  0.25103139  0.25026825  0.24751904  1
  Fe  Fe53  1  0.25097091  0.24881475  0.50107455  1
  Fe  Fe54  1  0.62791091  0.62640263  0.87363663  1
  Fe  Fe55  1  0.12629320  0.87489972  0.86955171  1
  Fe  Fe56  1  0.12699965  0.37333334  0.87311835  1
  Fe  Fe57  1  0.50060295  0.25136440  0.25033548  1
  Fe  Fe58  1  0.00366943  0.24939633  -0.00158636  1
  Fe  Fe59  1  0.12605524  0.62808207  0.87071459  1
  Fe  Fe60  1  0.74847316  0.00189904  0.74643451  1
  Fe  Fe61  1  0.87562158  0.87564079  0.12548140  1
  Fe  Fe62  1  0.74638957  0.75214878  0.00363441  1
  Fe  Fe63  1  0.75343699  0.50427515  0.24934982  1
  Fe  Fe64  1  0.49812721  0.50007269  0.75232101  1
  Fe  Fe65  1  0.74901859  0.24824799  0.50302576  1
  Fe  Fe66  1  0.24931139  -0.00088500  0.25077512  1
  Fe  Fe67  1  0.61915398  0.87734395  0.63046488  1
  Fe  Fe68  1  0.74726561  0.25277586  0.00100786  1
  Fe  Fe69  1  0.37401533  0.87332509  0.12562270  1
  Fe  Fe70  1  0.62446861  0.12173998  0.12525472  1
  Fe  Fe71  1  0.62661122  0.12428186  0.87591629  1
  Fe  Fe72  1  -0.00011847  0.24907973  0.25175057  1
  Fe  Fe73  1  0.00300995  0.74968242  0.50293168  1
  Fe  Fe74  1  0.24834275  0.75242011  0.00038526  1
  Fe  Fe75  1  0.00051445  0.24893107  0.49854311  1
  Fe  Fe76  1  0.37521865  0.12530445  0.37650698  1
  Fe  Fe77  1  -0.00137155  0.00006809  0.75104898  1
  Fe  Fe78  1  0.00151696  0.74989665  0.24990120  1
  Fe  Fe79  1  0.37278406  0.62867901  0.87395644  1
  Fe  Fe80  1  0.75128415  0.49984904  0.74991022  1
  Fe  Fe81  1  0.62154615  0.38174544  0.12416589  1
  Fe  Fe82  1  0.37849716  0.37682322  0.12073514  1
  Fe  Fe83  1  0.25045937  0.24672445  0.74768285  1
  Fe  Fe84  1  0.25218708  0.50109482  0.74856364  1
  Fe  Fe85  1  0.00161909  -0.00023656  0.25330633  1
  Fe  Fe86  1  0.12922192  0.87443364  0.37880835  1
  Fe  Fe87  1  0.00052027  -0.00104668  -0.00231866  1
  Fe  Fe88  1  0.37332710  0.12731051  0.87917692  1
  Fe  Fe89  1  0.25321502  -0.00017595  0.74709622  1
  Co  Co90  1  0.12166753  0.62273974  0.62863366  1
  Co  Co91  1  0.49916902  0.50308446  -0.00688214  1
  Co  Co92  1  0.74801833  0.49958410  -0.00109612  1
  Co  Co93  1  0.12322646  0.87760717  0.62683068  1
  Co  Co94  1  0.62163563  0.62111622  0.12623048  1
  Co  Co95  1  0.24637051  0.25175725  0.00248922  1
  Co  Co96  1  0.50010561  0.25408986  0.49791403  1
  Co  Co97  1  0.00050086  -0.00086335  0.49677650  1
  Co  Co98  1  0.50023366  -0.00581179  0.49506923  1
  Co  Co99  1  -0.00291179  0.75064858  0.75032165  1
  Co  Co100  1  0.62716526  0.87419006  0.86995148  1
  Co  Co101  1  0.37366333  0.62869432  0.37872959  1
  Co  Co102  1  0.50379784  0.24914199  0.00060119  1
  Co  Co103  1  0.49496245  0.50225421  0.25321411  1
  Co  Co104  1  0.38050308  0.87497768  0.62795369  1
  Co  Co105  1  0.62344950  0.87557622  0.12949948  1
  Co  Co106  1  0.37886255  0.62647989  0.62744748  1
  Co  Co107  1  0.74646657  -0.00339669  0.50210521  1
  Co  Co108  1  0.37475405  0.62619810  0.12056789  1
  Co  Co109  1  0.87733085  0.12318265  0.62360355  1
  Co  Co110  1  0.62437591  0.37471512  0.87239893  1
  Co  Co111  1  0.25260629  -0.00102996  0.50318314  1
  Co  Co112  1  0.61930825  0.12370165  0.62157987  1
  Co  Co113  1  0.50142692  0.74742543  0.75229085  1
  Co  Co114  1  0.87411885  0.62945622  0.37852941  1
  Co  Co115  1  0.49860360  0.00370513  0.75542030  1
  Co  Co116  1  -0.00010431  0.50090407  0.49792320  1
  Co  Co117  1  0.75087044  0.74876820  0.74547017  1
  Co  Co118  1  0.37513243  0.37384319  0.62726681  1
  Co  Co119  1  0.12794088  0.12552564  0.37554245  1
  Co  Co120  1  0.12745443  0.12296355  0.87438333  1
  Co  Co121  1  0.87727961  0.62560613  0.12013774  1
  Co  Co122  1  0.24974586  0.75127862  0.74267790  1
  Co  Co123  1  0.74724420  -0.00303288  0.00064297  1
  Co  Co124  1  0.24929867  0.74864308  0.24854052  1
  Co  Co125  1  0.12473622  0.87595575  0.12539655  1
  Co  Co126  1  0.00431984  0.50174131  -0.00359116  1
  Co  Co127  1  0.24954848  0.74849028  0.50959846  1
