# generated using pymatgen
data_Fe45Co19
_symmetry_space_group_name_H-M   'P 1'
_cell_length_a   11.41549873
_cell_length_b   11.41539837
_cell_length_c   11.41545579
_cell_angle_alpha   89.99442848
_cell_angle_beta   90.00789036
_cell_angle_gamma   90.00312223
_symmetry_Int_Tables_number   1
_chemical_formula_structural   Fe45Co19
_chemical_formula_sum   'Fe90 Co38'
_cell_volume   1487.57616658
_cell_formula_units_Z   2
loop_
 _symmetry_equiv_pos_site_id
 _symmetry_equiv_pos_as_xyz
  1  'x, y, z'
loop_
 _atom_site_type_symbol
 _atom_site_label
 _atom_site_symmetry_multiplicity
 _atom_site_fract_x
 _atom_site_fract_y
 _atom_site_fract_z
 _atom_site_occupancy
  Fe  Fe0  1  0.12377353  0.87576543  0.62722536  1
  Fe  Fe1  1  0.00210077  0.50066066  0.00910145  1
  Fe  Fe2  1  0.87925083  0.62568075  0.37237413  1
  Fe  Fe3  1  0.87771979  0.62531266  0.87822037  1
  Fe  Fe4  1  0.12264855  0.62176927  0.37138059  1
  Fe  Fe5  1  0.62323517  0.12256726  0.37646130  1
  Fe  Fe6  1  0.12612676  0.12393095  0.12755703  1
  Fe  Fe7  1  0.87452559  0.12617131  0.62332860  1
  Fe  Fe8  1  0.62228513  0.37663690  0.87492511  1
  Fe  Fe9  1  0.87806767  0.87372159  0.87499669  1
  Fe  Fe10  1  0.49729226  0.00040766  0.00349774  1
  Fe  Fe11  1  0.00462232  0.74873769  0.00375593  1
  Fe  Fe12  1  0.74928134  0.74954121  0.25143288  1
  Fe  Fe13  1  0.00030211  -0.00091642  0.50036902  1
  Fe  Fe14  1  0.74879953  0.25074329  0.25113590  1
  Fe  Fe15  1  0.49851618  0.25142362  0.50095835  1
  Fe  Fe16  1  0.37343788  0.62790911  0.87814806  1
  Fe  Fe17  1  0.25019888  -0.00096510  0.49914307  1
  Fe  Fe18  1  0.74712446  0.74832968  -0.00093685  1
  Fe  Fe19  1  -0.00127527  0.49672791  0.49969428  1
  Fe  Fe20  1  0.25148955  0.00120495  -0.00005096  1
  Fe  Fe21  1  0.12650737  0.87849394  0.12929538  1
  Fe  Fe22  1  0.74983733  0.50136002  0.00002618  1
  Fe  Fe23  1  0.87480080  0.87252753  0.12495015  1
  Fe  Fe24  1  0.12206716  0.12343646  0.37284304  1
  Fe  Fe25  1  0.24790539  0.75255772  0.25250376  1
  Fe  Fe26  1  0.49802631  0.25019102  0.75048263  1
  Fe  Fe27  1  0.49538955  0.50234693  0.25068781  1
  Fe  Fe28  1  0.12563775  0.12318464  0.62719588  1
  Fe  Fe29  1  0.87667648  0.37553206  0.87651187  1
  Fe  Fe30  1  0.49628703  0.00035334  0.24897859  1
  Fe  Fe31  1  0.74986790  0.74804116  0.75174277  1
  Fe  Fe32  1  0.50255957  0.75433180  0.49991802  1
  Fe  Fe33  1  0.50119378  0.25001892  0.24850790  1
  Fe  Fe34  1  0.37567446  0.12127798  0.62654098  1
  Fe  Fe35  1  0.62470367  0.62578141  0.62309340  1
  Fe  Fe36  1  0.25181307  0.49818901  0.25122964  1
  Fe  Fe37  1  0.75215347  0.00001575  0.25125811  1
  Fe  Fe38  1  0.49657669  0.50106420  0.74863240  1
  Fe  Fe39  1  0.37435269  0.87461770  0.37542904  1
  Fe  Fe40  1  0.62320769  0.37727016  0.62465323  1
  Fe  Fe41  1  0.24792092  0.75001004  0.75037860  1
  Fe  Fe42  1  0.49763467  0.50191873  0.00046708  1
  Fe  Fe43  1  0.50029559  0.75184759  0.74979460  1
  Fe  Fe44  1  0.62337007  0.12094741  0.62378003  1
  Fe  Fe45  1  -0.00061667  0.00131372  0.00192121  1
  Fe  Fe46  1  0.74882865  -0.00412303  0.49765888  1
  Fe  Fe47  1  0.62507018  0.12389772  0.12518323  1
  Fe  Fe48  1  0.12550302  0.62291589  0.62401063  1
  Fe  Fe49  1  0.49836376  0.74954711  0.24842238  1
  Fe  Fe50  1  0.75104162  -0.00008184  0.75049885  1
  Fe  Fe51  1  0.24543932  0.75134988  0.49831575  1
  Fe  Fe52  1  0.74982927  0.25040322  0.74957000  1
  Fe  Fe53  1  0.24842287  0.25021254  0.25240072  1
  Fe  Fe54  1  0.00172468  0.24993132  0.00254831  1
  Fe  Fe55  1  0.62461701  0.87526531  0.12656145  1
  Fe  Fe56  1  0.87909319  0.87137933  0.37451338  1
  Fe  Fe57  1  0.25283201  0.49997899  0.75150824  1
  Fe  Fe58  1  0.62406523  0.87587926  0.87545855  1
  Fe  Fe59  1  0.25125752  0.24866551  0.75327844  1
  Fe  Fe60  1  0.75144241  0.50079748  0.74995306  1
  Fe  Fe61  1  0.75316145  0.49941064  0.25034147  1
  Fe  Fe62  1  0.87637822  0.62721450  0.62336134  1
  Fe  Fe63  1  0.24980067  0.25059866  0.49906247  1
  Fe  Fe64  1  0.12641639  0.62327141  0.87757301  1
  Fe  Fe65  1  0.12179553  0.87904906  0.87142031  1
  Fe  Fe66  1  0.62292293  0.62453451  0.37621513  1
  Fe  Fe67  1  0.87796186  0.12888603  0.37522844  1
  Fe  Fe68  1  0.37467105  0.62750453  0.62144178  1
  Fe  Fe69  1  0.87626202  0.87081098  0.62525326  1
  Fe  Fe70  1  0.87689328  0.12565090  0.87520130  1
  Fe  Fe71  1  0.00033253  0.50034640  0.74996178  1
  Fe  Fe72  1  0.75110257  0.00059596  0.00010403  1
  Fe  Fe73  1  0.12573391  0.37593024  0.87724937  1
  Fe  Fe74  1  0.74733393  0.24987883  -0.00091759  1
  Fe  Fe75  1  0.12744380  0.37593820  0.62434676  1
  Fe  Fe76  1  0.75171301  0.49916685  0.49934997  1
  Fe  Fe77  1  0.36963383  0.63032713  0.12140645  1
  Fe  Fe78  1  0.74985348  0.25288922  0.50016732  1
  Fe  Fe79  1  0.62487502  0.37689145  0.12482803  1
  Fe  Fe80  1  0.87520587  0.12738954  0.12719361  1
  Fe  Fe81  1  0.62160580  0.12333792  0.87492265  1
  Fe  Fe82  1  0.62557634  0.62537237  0.12485389  1
  Fe  Fe83  1  0.00103872  0.24983085  0.74861437  1
  Fe  Fe84  1  0.37370929  0.37255041  0.12362093  1
  Fe  Fe85  1  0.25208743  0.24729811  -0.00384440  1
  Fe  Fe86  1  0.62265298  0.37731231  0.37527816  1
  Fe  Fe87  1  0.37608329  0.12505455  0.37492478  1
  Fe  Fe88  1  0.37509443  0.87547522  0.87580251  1
  Fe  Fe89  1  0.25470966  0.49821320  0.49672671  1
  Co  Co90  1  0.37638957  0.37186818  0.37389588  1
  Co  Co91  1  0.12349375  0.87851984  0.37272452  1
  Co  Co92  1  0.13164908  0.62573592  0.12750302  1
  Co  Co93  1  0.37297808  0.12833553  0.12600320  1
  Co  Co94  1  -0.00340677  0.00047292  0.24981259  1
  Co  Co95  1  0.37306824  0.87169323  0.12470188  1
  Co  Co96  1  0.24435913  0.75540962  -0.00256701  1
  Co  Co97  1  0.87735896  0.37259437  0.37407758  1
  Co  Co98  1  0.62307394  0.87577186  0.37028691  1
  Co  Co99  1  0.50212619  0.74970672  0.00046125  1
  Co  Co100  1  0.37270008  0.37431936  0.62504644  1
  Co  Co101  1  0.00337898  0.74972533  0.24722294  1
  Co  Co102  1  0.49655514  0.49884055  0.49904003  1
  Co  Co103  1  0.12329881  0.12275300  0.87466515  1
  Co  Co104  1  0.37454874  0.62958917  0.37700271  1
  Co  Co105  1  0.49933843  -0.00377491  0.49930614  1
  Co  Co106  1  0.62339410  0.62358418  0.87392405  1
  Co  Co107  1  0.37840276  0.12177114  0.87360272  1
  Co  Co108  1  0.13107178  0.37288471  0.12313629  1
  Co  Co109  1  0.74901764  0.75020580  0.49672432  1
  Co  Co110  1  0.12348255  0.37659824  0.37601958  1
  Co  Co111  1  0.37146616  0.87450307  0.62432488  1
  Co  Co112  1  -0.00306462  0.00194559  0.74774469  1
  Co  Co113  1  0.00244025  0.74613792  0.75024534  1
  Co  Co114  1  0.62861180  0.87467859  0.62605441  1
  Co  Co115  1  0.50018690  -0.00377727  0.74767593  1
  Co  Co116  1  0.50024652  0.24948271  0.00083831  1
  Co  Co117  1  0.00439298  0.74898601  0.49933393  1
  Co  Co118  1  0.87101492  0.37235245  0.12431468  1
  Co  Co119  1  0.25053593  -0.00014508  0.75134442  1
  Co  Co120  1  -0.00009068  0.49637697  0.24293586  1
  Co  Co121  1  0.25122376  0.49978859  -0.00000745  1
  Co  Co122  1  0.00246132  0.25076583  0.50241494  1
  Co  Co123  1  0.25374048  0.00053437  0.25095358  1
  Co  Co124  1  0.87594781  0.37457982  0.62617008  1
  Co  Co125  1  0.00257880  0.25439855  0.24785041  1
  Co  Co126  1  0.87319112  0.62844260  0.12570956  1
  Co  Co127  1  0.37589149  0.37560621  0.87639621  1
