# generated using pymatgen
data_Fe45Co19
_symmetry_space_group_name_H-M   'P 1'
_cell_length_a   11.41389029
_cell_length_b   11.41586547
_cell_length_c   11.41508990
_cell_angle_alpha   89.99518639
_cell_angle_beta   89.99294346
_cell_angle_gamma   89.99902493
_symmetry_Int_Tables_number   1
_chemical_formula_structural   Fe45Co19
_chemical_formula_sum   'Fe90 Co38'
_cell_volume   1487.37975896
_cell_formula_units_Z   2
loop_
 _symmetry_equiv_pos_site_id
 _symmetry_equiv_pos_as_xyz
  1  'x, y, z'
loop_
 _atom_site_type_symbol
 _atom_site_label
 _atom_site_symmetry_multiplicity
 _atom_site_fract_x
 _atom_site_fract_y
 _atom_site_fract_z
 _atom_site_occupancy
  Fe  Fe0  1  0.87831516  0.87856557  0.38032559  1
  Fe  Fe1  1  0.24887013  0.74865368  0.50005279  1
  Fe  Fe2  1  0.24732277  0.49678258  0.74852486  1
  Fe  Fe3  1  0.37310897  0.87692402  0.37675797  1
  Fe  Fe4  1  0.37171366  0.62262100  0.37371965  1
  Fe  Fe5  1  0.24749635  0.75295033  0.25030127  1
  Fe  Fe6  1  0.37523478  0.12567934  0.62362747  1
  Fe  Fe7  1  0.62550569  0.12854111  0.62690932  1
  Fe  Fe8  1  0.25111322  -0.00247163  0.74919625  1
  Fe  Fe9  1  0.00161124  0.74832148  0.00034957  1
  Fe  Fe10  1  0.11967553  0.37201216  0.87520184  1
  Fe  Fe11  1  0.50103735  0.24911367  -0.00180669  1
  Fe  Fe12  1  0.24752490  0.49654804  0.24857496  1
  Fe  Fe13  1  0.25074435  0.25205604  0.25075079  1
  Fe  Fe14  1  0.87671542  0.87715802  0.62104438  1
  Fe  Fe15  1  0.87691896  0.62285203  0.87456196  1
  Fe  Fe16  1  0.50261266  0.00067515  0.49787826  1
  Fe  Fe17  1  0.49894612  0.74996903  0.49805242  1
  Fe  Fe18  1  0.87646834  0.62403784  0.12502004  1
  Fe  Fe19  1  0.62832070  0.12231535  0.37119360  1
  Fe  Fe20  1  -0.00541241  0.25365857  0.25005559  1
  Fe  Fe21  1  0.87609648  0.12089085  0.37803648  1
  Fe  Fe22  1  0.87959290  0.37711200  0.87684475  1
  Fe  Fe23  1  0.62604935  0.37332315  0.87318869  1
  Fe  Fe24  1  -0.00078216  0.74859393  0.74772685  1
  Fe  Fe25  1  0.12558266  0.87388696  0.62411979  1
  Fe  Fe26  1  0.49925094  0.49998673  0.49953233  1
  Fe  Fe27  1  0.49893417  0.74902368  -0.00213373  1
  Fe  Fe28  1  0.62750322  0.12515052  0.12993980  1
  Fe  Fe29  1  0.62480701  0.62610573  0.62643352  1
  Fe  Fe30  1  0.37500677  0.12619453  0.12516742  1
  Fe  Fe31  1  0.24433003  0.00256802  0.49836365  1
  Fe  Fe32  1  0.75392431  0.75226852  0.25255339  1
  Fe  Fe33  1  0.50082558  -0.00044762  0.75121702  1
  Fe  Fe34  1  0.00239300  -0.00373587  0.24965836  1
  Fe  Fe35  1  0.49786305  0.49749590  0.25118098  1
  Fe  Fe36  1  0.75238496  0.25022687  0.49738388  1
  Fe  Fe37  1  0.74948694  0.50120844  -0.00084789  1
  Fe  Fe38  1  0.87874335  0.87501888  0.12321188  1
  Fe  Fe39  1  0.62595794  0.62422555  0.37449377  1
  Fe  Fe40  1  0.24545403  0.00266299  0.00161525  1
  Fe  Fe41  1  0.24755711  -0.00116782  0.24981914  1
  Fe  Fe42  1  0.49844914  0.49799702  0.74897481  1
  Fe  Fe43  1  0.62322677  0.87316866  0.62561720  1
  Fe  Fe44  1  0.24536448  0.49922863  0.00145220  1
  Fe  Fe45  1  0.37173351  0.62544823  0.62768863  1
  Fe  Fe46  1  0.62525996  0.62618754  0.87196316  1
  Fe  Fe47  1  0.37271403  0.62403934  0.12493335  1
  Fe  Fe48  1  0.37393204  0.87693317  0.12293171  1
  Fe  Fe49  1  0.12534139  0.62481285  0.87144609  1
  Fe  Fe50  1  0.12106613  0.37415740  0.37743379  1
  Fe  Fe51  1  0.00310449  0.74510856  0.49968729  1
  Fe  Fe52  1  0.87481857  0.12352392  0.12605478  1
  Fe  Fe53  1  0.62805018  0.37294809  0.12678496  1
  Fe  Fe54  1  0.75018640  0.75032087  0.00011065  1
  Fe  Fe55  1  0.25101956  0.25127731  0.75102695  1
  Fe  Fe56  1  0.37377687  0.37328017  0.12304630  1
  Fe  Fe57  1  0.37520529  0.37148488  0.62106601  1
  Fe  Fe58  1  0.62565875  0.62520002  0.12762863  1
  Fe  Fe59  1  0.00174641  0.49893532  0.24642824  1
  Fe  Fe60  1  0.75322274  0.49949564  0.74636631  1
  Fe  Fe61  1  0.75299694  0.75036423  0.74885143  1
  Fe  Fe62  1  0.37494861  0.37565385  0.87704595  1
  Fe  Fe63  1  0.37518159  0.12386061  0.87519661  1
  Fe  Fe64  1  0.88210749  0.37623678  0.61897842  1
  Fe  Fe65  1  0.24946252  0.75024088  -0.00271215  1
  Fe  Fe66  1  0.12208333  0.12696491  0.87315549  1
  Fe  Fe67  1  0.49863999  0.25077018  0.25318884  1
  Fe  Fe68  1  0.87591634  0.87642419  0.87573287  1
  Fe  Fe69  1  0.62300754  0.37205430  0.62424674  1
  Fe  Fe70  1  0.12295283  0.12875537  0.12649544  1
  Fe  Fe71  1  0.62634539  0.37513961  0.37542804  1
  Fe  Fe72  1  0.75266206  0.49718654  0.25174121  1
  Fe  Fe73  1  0.24518690  0.50069957  0.50148209  1
  Fe  Fe74  1  0.62516101  0.87560588  0.12839731  1
  Fe  Fe75  1  0.50400609  0.00140026  -0.00109105  1
  Fe  Fe76  1  0.50124360  0.50073301  -0.00000649  1
  Fe  Fe77  1  0.74896046  0.75036917  0.49898277  1
  Fe  Fe78  1  0.74906155  -0.00050094  -0.00045302  1
  Fe  Fe79  1  0.24519831  0.24795355  0.49966301  1
  Fe  Fe80  1  -0.00094909  0.00232170  0.74614721  1
  Fe  Fe81  1  0.37333250  0.12559100  0.37528007  1
  Fe  Fe82  1  0.87561242  0.12446280  0.87441546  1
  Fe  Fe83  1  0.74954490  -0.00097430  0.74911328  1
  Fe  Fe84  1  0.75216921  0.24918953  0.00072464  1
  Fe  Fe85  1  0.75482916  0.25204432  0.74849581  1
  Fe  Fe86  1  0.49301078  0.75288007  0.75302045  1
  Fe  Fe87  1  0.49797541  0.75149138  0.25149646  1
  Fe  Fe88  1  0.87624508  0.62063579  0.37794835  1
  Fe  Fe89  1  0.12321025  0.87701962  0.87505576  1
  Co  Co90  1  0.12572246  0.62444936  0.37047495  1
  Co  Co91  1  0.00129101  0.00251039  0.00077564  1
  Co  Co92  1  -0.00213271  0.75100804  0.25214111  1
  Co  Co93  1  0.87300295  0.37754954  0.12214516  1
  Co  Co94  1  0.50167133  0.24804443  0.49559673  1
  Co  Co95  1  0.49658631  -0.00011609  0.25174265  1
  Co  Co96  1  0.75571195  0.25191973  0.25388861  1
  Co  Co97  1  0.12444230  0.36971327  0.12363252  1
  Co  Co98  1  0.37449158  0.87768445  0.62065221  1
  Co  Co99  1  0.74554967  -0.00083321  0.50181651  1
  Co  Co100  1  0.12261235  0.12719705  0.36854278  1
  Co  Co101  1  -0.00300793  0.24740826  0.74736382  1
  Co  Co102  1  0.87394107  0.62457230  0.62198402  1
  Co  Co103  1  0.49647992  0.25033574  0.75170533  1
  Co  Co104  1  0.12369329  0.87345674  0.12376849  1
  Co  Co105  1  0.12338476  0.87428764  0.37724782  1
  Co  Co106  1  0.37160420  0.37478509  0.37838619  1
  Co  Co107  1  0.74704509  0.49887373  0.50307163  1
  Co  Co108  1  0.00742407  0.50640518  0.50420929  1
  Co  Co109  1  0.00066128  0.50204806  0.74637506  1
  Co  Co110  1  0.62646603  0.87310263  0.87417309  1
  Co  Co111  1  0.88092237  0.37914560  0.38220307  1
  Co  Co112  1  0.12915601  0.62895542  0.63020766  1
  Co  Co113  1  0.62541894  0.87567990  0.37211522  1
  Co  Co114  1  0.24928548  0.24849324  -0.00242548  1
  Co  Co115  1  0.12842522  0.12654366  0.63070974  1
  Co  Co116  1  -0.00269295  0.24850139  0.00156641  1
  Co  Co117  1  0.62810734  0.12768904  0.87221132  1
  Co  Co118  1  0.37265194  0.62124238  0.87456174  1
  Co  Co119  1  0.12540695  0.62851404  0.12732257  1
  Co  Co120  1  0.25336584  0.75525581  0.75226497  1
  Co  Co121  1  0.87180867  0.12306762  0.62232506  1
  Co  Co122  1  0.12143268  0.37124106  0.62465364  1
  Co  Co123  1  0.00323282  0.50100726  0.00323842  1
  Co  Co124  1  0.37448425  0.88023972  0.87964404  1
  Co  Co125  1  0.75475913  -0.00390470  0.24974656  1
  Co  Co126  1  0.00208400  0.24241801  0.50216891  1
  Co  Co127  1  0.00672493  0.00583147  0.50333326  1
