# generated using pymatgen
data_Fe45Co19
_symmetry_space_group_name_H-M   'P 1'
_cell_length_a   11.41622804
_cell_length_b   11.41492077
_cell_length_c   11.41409571
_cell_angle_alpha   90.00355505
_cell_angle_beta   90.00486410
_cell_angle_gamma   89.99730621
_symmetry_Int_Tables_number   1
_chemical_formula_structural   Fe45Co19
_chemical_formula_sum   'Fe90 Co38'
_cell_volume   1487.43173715
_cell_formula_units_Z   2
loop_
 _symmetry_equiv_pos_site_id
 _symmetry_equiv_pos_as_xyz
  1  'x, y, z'
loop_
 _atom_site_type_symbol
 _atom_site_label
 _atom_site_symmetry_multiplicity
 _atom_site_fract_x
 _atom_site_fract_y
 _atom_site_fract_z
 _atom_site_occupancy
  Fe  Fe0  1  0.87451477  0.37332463  0.87315839  1
  Fe  Fe1  1  0.00035270  0.74684434  0.49876783  1
  Fe  Fe2  1  0.62360217  0.62417327  0.62404668  1
  Fe  Fe3  1  0.24902850  0.24859642  0.00043271  1
  Fe  Fe4  1  0.24880268  0.25043120  0.25096706  1
  Fe  Fe5  1  0.74654188  0.50164240  0.49742956  1
  Fe  Fe6  1  0.74973219  0.49955590  0.74972853  1
  Fe  Fe7  1  0.75097520  0.00137230  0.00026265  1
  Fe  Fe8  1  0.12466743  0.37610299  0.62016866  1
  Fe  Fe9  1  0.87764922  0.12473002  0.12674793  1
  Fe  Fe10  1  0.37383347  0.62473000  0.87652137  1
  Fe  Fe11  1  0.00086287  -0.00164510  0.00194714  1
  Fe  Fe12  1  0.12208771  0.12617309  0.87367735  1
  Fe  Fe13  1  0.49980753  -0.00177306  0.00241519  1
  Fe  Fe14  1  0.24986982  0.24977318  0.74764749  1
  Fe  Fe15  1  0.37690803  0.62461823  0.37165916  1
  Fe  Fe16  1  0.50204658  0.25033545  0.74919801  1
  Fe  Fe17  1  0.49939427  0.25288833  0.00196036  1
  Fe  Fe18  1  0.12499713  0.37373135  0.87470242  1
  Fe  Fe19  1  0.87302288  0.37658425  0.12455610  1
  Fe  Fe20  1  0.50117203  0.75086648  0.75059410  1
  Fe  Fe21  1  0.62642744  0.87661410  0.62464506  1
  Fe  Fe22  1  0.25303158  0.00160194  0.49961446  1
  Fe  Fe23  1  0.12254910  0.12527826  0.12886979  1
  Fe  Fe24  1  0.49913537  0.49967728  0.75105078  1
  Fe  Fe25  1  0.37703858  0.12596452  0.37397210  1
  Fe  Fe26  1  0.00018614  0.49904853  0.25281576  1
  Fe  Fe27  1  0.74795288  0.74859656  0.49781394  1
  Fe  Fe28  1  0.12611556  0.87560385  0.13018267  1
  Fe  Fe29  1  0.75052194  0.25201296  0.24943497  1
  Fe  Fe30  1  0.49919497  0.00043643  0.49981698  1
  Fe  Fe31  1  0.62697758  0.12477137  0.62493415  1
  Fe  Fe32  1  0.75054556  0.74900021  0.00174204  1
  Fe  Fe33  1  0.62481178  0.12497726  0.12532096  1
  Fe  Fe34  1  0.12831340  0.37820287  0.12513308  1
  Fe  Fe35  1  0.87389833  0.87680295  0.62246532  1
  Fe  Fe36  1  0.62629671  0.12701700  0.37485325  1
  Fe  Fe37  1  0.12751845  0.87438517  0.37335426  1
  Fe  Fe38  1  0.87595122  0.87491058  0.87709388  1
  Fe  Fe39  1  0.75124596  0.00356310  0.75420756  1
  Fe  Fe40  1  0.87562500  0.12774350  0.37467751  1
  Fe  Fe41  1  0.62749912  0.37516764  0.87680626  1
  Fe  Fe42  1  -0.00423424  0.24903630  0.74410169  1
  Fe  Fe43  1  0.37508575  0.12442553  0.12740275  1
  Fe  Fe44  1  0.37436500  0.37232616  0.37658194  1
  Fe  Fe45  1  0.24985555  0.49930093  0.74840624  1
  Fe  Fe46  1  0.74951349  0.74950931  0.74966757  1
  Fe  Fe47  1  0.00212255  0.75275691  0.74754994  1
  Fe  Fe48  1  0.24789737  0.00258719  0.00065010  1
  Fe  Fe49  1  0.12559319  0.62614621  0.87460681  1
  Fe  Fe50  1  0.75091181  0.25213362  0.50434969  1
  Fe  Fe51  1  0.00077839  -0.00245763  0.74998962  1
  Fe  Fe52  1  0.75030562  -0.00126469  0.25034116  1
  Fe  Fe53  1  0.62258343  0.87417114  0.37298504  1
  Fe  Fe54  1  0.00050478  0.25175196  0.00259051  1
  Fe  Fe55  1  0.12749665  0.62480722  0.37294698  1
  Fe  Fe56  1  0.87643601  0.62632902  0.87411662  1
  Fe  Fe57  1  0.37281670  0.37499336  0.87727950  1
  Fe  Fe58  1  0.37547593  0.12503361  0.87395542  1
  Fe  Fe59  1  0.50096350  0.49903634  0.49831910  1
  Fe  Fe60  1  0.74804524  0.50001174  0.25162343  1
  Fe  Fe61  1  0.37193935  0.87420177  0.87678191  1
  Fe  Fe62  1  0.24725331  0.75292199  0.74764270  1
  Fe  Fe63  1  0.87514580  0.62370787  0.62297760  1
  Fe  Fe64  1  0.24916673  -0.00236748  0.74902331  1
  Fe  Fe65  1  0.37565946  0.37240606  0.62127083  1
  Fe  Fe66  1  0.62435824  0.62310181  0.87791874  1
  Fe  Fe67  1  0.49936395  0.75156539  0.50028189  1
  Fe  Fe68  1  0.87613995  0.37581050  0.37852377  1
  Fe  Fe69  1  0.00155502  0.50114222  0.74811209  1
  Fe  Fe70  1  -0.00214450  0.00102461  0.49744442  1
  Fe  Fe71  1  0.49870854  -0.00122028  0.74953950  1
  Fe  Fe72  1  0.24991175  0.74645418  0.00663814  1
  Fe  Fe73  1  0.25229891  0.74961522  0.49928615  1
  Fe  Fe74  1  0.12487821  0.12353008  0.62359708  1
  Fe  Fe75  1  0.00166479  0.75012199  0.00311505  1
  Fe  Fe76  1  0.50146371  0.25231216  0.24838226  1
  Fe  Fe77  1  0.00019500  0.49991627  -0.00152148  1
  Fe  Fe78  1  0.12167557  0.12720475  0.37386814  1
  Fe  Fe79  1  0.37451684  0.62593564  0.62552369  1
  Fe  Fe80  1  0.49583246  0.75445722  0.24562782  1
  Fe  Fe81  1  0.62582249  0.87538608  0.87690502  1
  Fe  Fe82  1  0.75138361  0.24697780  -0.00263082  1
  Fe  Fe83  1  0.12510967  0.37449809  0.37903826  1
  Fe  Fe84  1  0.49768874  0.75105678  0.00317748  1
  Fe  Fe85  1  0.87564194  0.87251693  0.37324848  1
  Fe  Fe86  1  0.50128931  0.49371054  0.24782491  1
  Fe  Fe87  1  0.62292342  0.62281757  0.12485637  1
  Fe  Fe88  1  0.87731261  0.62456984  0.12764366  1
  Fe  Fe89  1  0.75007936  0.74967226  0.24960411  1
  Co  Co90  1  0.62667129  0.87574924  0.12497448  1
  Co  Co91  1  0.87541486  0.38003229  0.62264444  1
  Co  Co92  1  0.62026542  0.62654457  0.37109954  1
  Co  Co93  1  0.50193500  0.00035675  0.25052299  1
  Co  Co94  1  0.00118958  0.74932710  0.25155479  1
  Co  Co95  1  0.37477226  0.87428960  0.62495011  1
  Co  Co96  1  0.87368821  0.62424632  0.37406166  1
  Co  Co97  1  0.00186238  0.50415466  0.49862325  1
  Co  Co98  1  0.62566989  0.37232572  0.37608624  1
  Co  Co99  1  0.37699916  0.61921995  0.12708020  1
  Co  Co100  1  0.12477526  0.87611636  0.61936878  1
  Co  Co101  1  0.37418043  0.87628456  0.37318468  1
  Co  Co102  1  0.24917134  0.00355193  0.25280360  1
  Co  Co103  1  0.12281523  0.62099680  0.12820707  1
  Co  Co104  1  0.25262510  0.50158271  0.49975014  1
  Co  Co105  1  0.25057752  0.49893335  0.25296921  1
  Co  Co106  1  0.37530950  0.12628717  0.62656920  1
  Co  Co107  1  0.49892602  0.49676439  0.00090545  1
  Co  Co108  1  0.12631253  0.87353789  0.87821327  1
  Co  Co109  1  -0.00186726  -0.00091975  0.25207520  1
  Co  Co110  1  0.75117170  0.24803490  0.75004025  1
  Co  Co111  1  0.88127661  0.12572582  0.87691805  1
  Co  Co112  1  0.62095725  0.12528155  0.87632196  1
  Co  Co113  1  0.25245839  0.74797300  0.24768926  1
  Co  Co114  1  -0.00010463  0.25427904  0.24971030  1
  Co  Co115  1  0.87550179  0.87440953  0.12611199  1
  Co  Co116  1  0.50175150  0.24775222  0.50021404  1
  Co  Co117  1  -0.00185027  0.24829861  0.50278027  1
  Co  Co118  1  0.75241800  0.50300774  -0.00089443  1
  Co  Co119  1  0.37051324  0.88025118  0.12663001  1
  Co  Co120  1  0.87230141  0.12010822  0.62302933  1
  Co  Co121  1  0.62983096  0.37432782  0.12240821  1
  Co  Co122  1  0.62402097  0.37580828  0.62502005  1
  Co  Co123  1  0.74922771  -0.00173566  0.49483416  1
  Co  Co124  1  0.24917776  0.50215278  -0.00175609  1
  Co  Co125  1  0.24948041  0.24682028  0.49960545  1
  Co  Co126  1  0.36986628  0.37475591  0.12454445  1
  Co  Co127  1  0.12665045  0.62525330  0.62458981  1
