# generated using pymatgen
data_Fe45Co19
_symmetry_space_group_name_H-M   'P 1'
_cell_length_a   11.41654820
_cell_length_b   11.41435796
_cell_length_c   11.41442333
_cell_angle_alpha   90.00255818
_cell_angle_beta   90.00429819
_cell_angle_gamma   90.00144703
_symmetry_Int_Tables_number   1
_chemical_formula_structural   Fe45Co19
_chemical_formula_sum   'Fe90 Co38'
_cell_volume   1487.44280882
_cell_formula_units_Z   2
loop_
 _symmetry_equiv_pos_site_id
 _symmetry_equiv_pos_as_xyz
  1  'x, y, z'
loop_
 _atom_site_type_symbol
 _atom_site_label
 _atom_site_symmetry_multiplicity
 _atom_site_fract_x
 _atom_site_fract_y
 _atom_site_fract_z
 _atom_site_occupancy
  Fe  Fe0  1  -0.00117694  0.24979968  0.25181588  1
  Fe  Fe1  1  0.12662616  0.12607586  0.37546512  1
  Fe  Fe2  1  0.12725686  0.12933164  0.87486547  1
  Fe  Fe3  1  0.25025216  0.49980833  0.25077290  1
  Fe  Fe4  1  0.12392479  0.62698965  0.62788649  1
  Fe  Fe5  1  0.00078528  0.75418015  0.49982377  1
  Fe  Fe6  1  -0.00052872  0.24976077  0.00033568  1
  Fe  Fe7  1  0.12289662  0.12331621  0.62382903  1
  Fe  Fe8  1  0.25289534  0.24872226  0.50408457  1
  Fe  Fe9  1  0.37452559  0.37434138  0.37689561  1
  Fe  Fe10  1  0.37625457  0.62483292  0.62598767  1
  Fe  Fe11  1  0.25329373  0.24841618  0.24506790  1
  Fe  Fe12  1  0.00275501  -0.00361449  0.49745730  1
  Fe  Fe13  1  0.87380661  0.11966420  0.37455761  1
  Fe  Fe14  1  0.00240291  0.49932234  0.25170414  1
  Fe  Fe15  1  0.87385847  0.62377759  0.62312782  1
  Fe  Fe16  1  0.00177302  0.49963780  0.49842975  1
  Fe  Fe17  1  0.62490237  0.12394927  0.62180757  1
  Fe  Fe18  1  0.74555001  0.00130706  0.75182754  1
  Fe  Fe19  1  0.25172344  0.74842070  -0.00359737  1
  Fe  Fe20  1  0.75057284  0.24788826  0.25278684  1
  Fe  Fe21  1  0.50081809  -0.00250792  0.25248710  1
  Fe  Fe22  1  0.12651744  0.37187188  0.37777497  1
  Fe  Fe23  1  0.50089520  0.00325168  -0.00642733  1
  Fe  Fe24  1  0.50242963  0.50036245  0.00004275  1
  Fe  Fe25  1  0.12725777  0.37230696  0.12263439  1
  Fe  Fe26  1  0.62520855  0.62688778  0.62423824  1
  Fe  Fe27  1  0.50017891  0.24786358  0.74806909  1
  Fe  Fe28  1  0.87494562  0.62524948  0.37595002  1
  Fe  Fe29  1  0.00105906  0.49813209  0.75053888  1
  Fe  Fe30  1  0.87448425  0.62287300  0.87610313  1
  Fe  Fe31  1  0.62162988  0.62846705  0.37432321  1
  Fe  Fe32  1  0.37786641  0.62234296  0.12680682  1
  Fe  Fe33  1  0.24930965  0.75544672  0.50664846  1
  Fe  Fe34  1  0.00175142  0.49877722  -0.00125693  1
  Fe  Fe35  1  0.87345027  0.37673972  0.12694428  1
  Fe  Fe36  1  0.87448610  0.62280497  0.12476983  1
  Fe  Fe37  1  0.37501912  0.87755295  0.87049551  1
  Fe  Fe38  1  0.49912156  0.75654980  0.50091207  1
  Fe  Fe39  1  0.49821669  0.25086395  0.25033573  1
  Fe  Fe40  1  0.49968172  0.49915193  0.50025974  1
  Fe  Fe41  1  0.62489871  0.12166825  0.37838034  1
  Fe  Fe42  1  0.87640723  0.87748259  0.62780149  1
  Fe  Fe43  1  0.24752371  0.00135615  0.24905943  1
  Fe  Fe44  1  0.00034886  0.75162847  0.25111281  1
  Fe  Fe45  1  0.50172940  0.49909233  0.74941949  1
  Fe  Fe46  1  0.25272242  0.75027937  0.24805584  1
  Fe  Fe47  1  0.75113621  0.25010524  0.00205581  1
  Fe  Fe48  1  0.37575619  0.62631983  0.37576114  1
  Fe  Fe49  1  0.25054281  0.49939672  0.50256824  1
  Fe  Fe50  1  0.75040416  0.74900778  0.00167042  1
  Fe  Fe51  1  0.87341099  0.37390543  0.87462003  1
  Fe  Fe52  1  0.62260749  0.12491411  0.12447059  1
  Fe  Fe53  1  0.24838050  0.50056735  0.75098706  1
  Fe  Fe54  1  0.12444341  0.87230908  0.86882717  1
  Fe  Fe55  1  0.87709078  0.12185747  0.12659706  1
  Fe  Fe56  1  0.62304034  0.87473837  0.12421735  1
  Fe  Fe57  1  0.87665797  0.87860044  0.12732676  1
  Fe  Fe58  1  0.74756150  0.50093656  0.25216324  1
  Fe  Fe59  1  0.74872366  0.75149319  0.24914950  1
  Fe  Fe60  1  0.00190242  0.00091706  -0.00302444  1
  Fe  Fe61  1  0.62577972  0.37093574  0.87526815  1
  Fe  Fe62  1  0.87438141  0.12353592  0.62373498  1
  Fe  Fe63  1  0.74786949  0.00052222  -0.00028312  1
  Fe  Fe64  1  0.62568339  0.37214445  0.62133624  1
  Fe  Fe65  1  0.49844111  0.74872715  0.00027099  1
  Fe  Fe66  1  0.75094373  0.75034154  0.75007499  1
  Fe  Fe67  1  0.87170326  0.12671245  0.87445980  1
  Fe  Fe68  1  0.24931964  0.00381637  -0.00216572  1
  Fe  Fe69  1  0.62528807  0.37315301  0.37842143  1
  Fe  Fe70  1  0.12729884  0.62803224  0.37631421  1
  Fe  Fe71  1  0.37508953  0.12294175  0.37667990  1
  Fe  Fe72  1  0.87401847  0.37436099  0.61921465  1
  Fe  Fe73  1  0.25001348  0.25048535  0.74579912  1
  Fe  Fe74  1  0.62550762  0.62661842  0.87491588  1
  Fe  Fe75  1  0.75025429  0.75375944  0.50002609  1
  Fe  Fe76  1  0.49920087  0.75265061  0.74916278  1
  Fe  Fe77  1  0.12523594  0.87595921  0.12497628  1
  Fe  Fe78  1  -0.00072148  0.25066217  0.74787130  1
  Fe  Fe79  1  0.37506053  0.87882110  0.12314104  1
  Fe  Fe80  1  0.37806821  0.11770836  0.62547870  1
  Fe  Fe81  1  0.24944756  0.50176615  -0.00355733  1
  Fe  Fe82  1  0.37174452  0.87674018  0.37645619  1
  Fe  Fe83  1  0.62519658  0.37496822  0.12560060  1
  Fe  Fe84  1  -0.00058540  0.75108850  -0.00173486  1
  Fe  Fe85  1  0.74889581  0.49756280  0.74904328  1
  Fe  Fe86  1  0.37281883  0.37290200  0.87418620  1
  Fe  Fe87  1  0.49451621  0.24802655  0.00104381  1
  Fe  Fe88  1  0.87393434  0.87673176  0.87346322  1
  Fe  Fe89  1  0.12523970  0.62667146  0.12403228  1
  Co  Co90  1  0.74689622  0.50168360  0.49890407  1
  Co  Co91  1  0.24650724  -0.00199276  0.50165772  1
  Co  Co92  1  0.62496695  0.87592534  0.62625011  1
  Co  Co93  1  -0.00173883  0.24773961  0.49884249  1
  Co  Co94  1  0.37836984  0.11978980  0.12693249  1
  Co  Co95  1  0.62726123  0.13078807  0.87656735  1
  Co  Co96  1  0.12365826  0.37513974  0.62292715  1
  Co  Co97  1  0.75064424  0.25033265  0.74639409  1
  Co  Co98  1  0.37600982  0.88117154  0.62971977  1
  Co  Co99  1  0.50026071  -0.00454322  0.49929678  1
  Co  Co100  1  0.12819790  0.87264798  0.37277534  1
  Co  Co101  1  0.74761358  0.49971570  -0.00089737  1
  Co  Co102  1  0.25318273  0.74855743  0.74930559  1
  Co  Co103  1  0.50692153  0.00111202  0.75414344  1
  Co  Co104  1  0.75074827  -0.00289901  0.50239752  1
  Co  Co105  1  0.12790552  0.37044232  0.87597857  1
  Co  Co106  1  0.25526144  0.24524763  0.00469951  1
  Co  Co107  1  0.62812823  0.87599303  0.37447514  1
  Co  Co108  1  0.50037007  0.49758390  0.25283282  1
  Co  Co109  1  -0.00440542  0.74773126  0.75008135  1
  Co  Co110  1  0.62577715  0.87105057  0.87630288  1
  Co  Co111  1  0.87500109  0.37705065  0.37692295  1
  Co  Co112  1  0.87275014  0.87769289  0.37178116  1
  Co  Co113  1  0.24736706  0.00154400  0.74920668  1
  Co  Co114  1  0.49701837  0.75456058  0.25039973  1
  Co  Co115  1  0.75206882  0.24739209  0.49788130  1
  Co  Co116  1  -0.00061949  0.00462005  0.75318736  1
  Co  Co117  1  0.12147839  0.87511445  0.63217592  1
  Co  Co118  1  0.49731630  0.24899534  0.50070985  1
  Co  Co119  1  0.74648546  0.00065255  0.24661632  1
  Co  Co120  1  0.00469655  -0.00060134  0.25267694  1
  Co  Co121  1  0.37311306  0.12584333  0.87010898  1
  Co  Co122  1  0.37611611  0.37645500  0.62631903  1
  Co  Co123  1  0.62302403  0.62603278  0.12681234  1
  Co  Co124  1  0.12243650  0.12502421  0.12478381  1
  Co  Co125  1  0.37860077  0.62395086  0.87314566  1
  Co  Co126  1  0.37483391  0.37897048  0.12381204  1
  Co  Co127  1  0.12216574  0.62764698  0.87284145  1
