# generated using pymatgen
data_Fe45Co19
_symmetry_space_group_name_H-M   'P 1'
_cell_length_a   11.41566386
_cell_length_b   11.41416989
_cell_length_c   11.41511164
_cell_angle_alpha   90.00512584
_cell_angle_beta   89.99865155
_cell_angle_gamma   89.99038723
_symmetry_Int_Tables_number   1
_chemical_formula_structural   Fe45Co19
_chemical_formula_sum   'Fe90 Co38'
_cell_volume   1487.39274900
_cell_formula_units_Z   2
loop_
 _symmetry_equiv_pos_site_id
 _symmetry_equiv_pos_as_xyz
  1  'x, y, z'
loop_
 _atom_site_type_symbol
 _atom_site_label
 _atom_site_symmetry_multiplicity
 _atom_site_fract_x
 _atom_site_fract_y
 _atom_site_fract_z
 _atom_site_occupancy
  Fe  Fe0  1  0.62403659  0.37403499  0.87511635  1
  Fe  Fe1  1  0.74915480  0.50221600  0.49962916  1
  Fe  Fe2  1  0.75053818  -0.00226166  0.49747534  1
  Fe  Fe3  1  0.12631292  0.37270586  0.37451536  1
  Fe  Fe4  1  0.37721721  0.37159737  0.87577926  1
  Fe  Fe5  1  0.74954536  0.75062400  0.25042359  1
  Fe  Fe6  1  0.12441806  0.37267430  0.87383754  1
  Fe  Fe7  1  0.00322645  0.25068865  0.00456616  1
  Fe  Fe8  1  0.87455287  0.62531260  0.12312521  1
  Fe  Fe9  1  0.75183589  0.00141485  -0.00253008  1
  Fe  Fe10  1  0.37596891  0.87241052  0.37471814  1
  Fe  Fe11  1  0.00256032  0.75057788  0.24920189  1
  Fe  Fe12  1  -0.00138755  0.49731108  0.24933137  1
  Fe  Fe13  1  0.00253396  0.74846280  -0.00363756  1
  Fe  Fe14  1  0.50037315  0.49962947  0.75063717  1
  Fe  Fe15  1  0.00196924  0.75058435  0.50224359  1
  Fe  Fe16  1  0.12474142  0.62176850  0.12388731  1
  Fe  Fe17  1  0.87705750  0.62651415  0.37701271  1
  Fe  Fe18  1  0.37546063  0.62700029  0.87361127  1
  Fe  Fe19  1  -0.00292607  0.49952569  0.74713128  1
  Fe  Fe20  1  0.00038021  0.49822913  0.50390058  1
  Fe  Fe21  1  0.74998757  0.25081106  0.24885866  1
  Fe  Fe22  1  0.50015043  -0.00162182  -0.00250132  1
  Fe  Fe23  1  0.25291576  0.50238293  0.50017218  1
  Fe  Fe24  1  0.24978601  0.00254024  0.25286217  1
  Fe  Fe25  1  0.24888688  0.75228380  0.75199516  1
  Fe  Fe26  1  0.74789586  0.24876044  -0.00031022  1
  Fe  Fe27  1  0.75064879  0.49992971  -0.00103249  1
  Fe  Fe28  1  0.50092152  0.75284201  -0.00121040  1
  Fe  Fe29  1  0.37506386  0.37325773  0.37454042  1
  Fe  Fe30  1  0.74971956  0.24765090  0.75020524  1
  Fe  Fe31  1  0.24601240  0.74859924  -0.00168083  1
  Fe  Fe32  1  -0.00085031  0.00106280  -0.00314423  1
  Fe  Fe33  1  0.75113194  0.50181265  0.74933818  1
  Fe  Fe34  1  0.62679448  0.87592104  0.12431220  1
  Fe  Fe35  1  0.87508955  0.37249126  0.87422748  1
  Fe  Fe36  1  0.50052134  0.24988146  0.50307619  1
  Fe  Fe37  1  0.12678859  0.87669692  0.62764418  1
  Fe  Fe38  1  0.25016725  0.24645616  0.24541309  1
  Fe  Fe39  1  0.87467451  0.37231684  0.37590143  1
  Fe  Fe40  1  0.62454208  0.62723544  0.87597866  1
  Fe  Fe41  1  -0.00063481  0.00057516  0.75268618  1
  Fe  Fe42  1  0.25278965  0.74692291  0.50047050  1
  Fe  Fe43  1  0.75249441  -0.00115480  0.25288082  1
  Fe  Fe44  1  0.24877660  0.00679411  -0.00745446  1
  Fe  Fe45  1  0.25101331  0.00166073  0.49948253  1
  Fe  Fe46  1  0.12576612  0.87880150  0.12282759  1
  Fe  Fe47  1  0.61763891  0.62890521  0.37634862  1
  Fe  Fe48  1  -0.00057874  0.00065414  0.49780008  1
  Fe  Fe49  1  0.49857606  0.50034927  0.24932591  1
  Fe  Fe50  1  0.62014101  0.62764369  0.62423691  1
  Fe  Fe51  1  0.74770310  0.24801543  0.50178098  1
  Fe  Fe52  1  0.24979350  0.74922538  0.24870725  1
  Fe  Fe53  1  0.49798110  -0.00046637  0.24981414  1
  Fe  Fe54  1  0.49983612  -0.00429553  0.50108825  1
  Fe  Fe55  1  0.37579077  0.62426735  0.12272676  1
  Fe  Fe56  1  0.87470197  0.12491761  0.62544307  1
  Fe  Fe57  1  0.62279527  0.12315131  0.87249582  1
  Fe  Fe58  1  0.25050001  0.24734294  0.75098110  1
  Fe  Fe59  1  0.25113903  0.49725356  -0.00086751  1
  Fe  Fe60  1  0.12598483  0.87488064  0.37620619  1
  Fe  Fe61  1  0.25135761  0.49847058  0.75088736  1
  Fe  Fe62  1  -0.00069019  0.49970465  -0.00104983  1
  Fe  Fe63  1  0.87449081  0.87350604  0.62649053  1
  Fe  Fe64  1  0.37509593  0.37609708  0.62601816  1
  Fe  Fe65  1  0.49802841  -0.00792203  0.75238664  1
  Fe  Fe66  1  0.12501027  0.12418716  0.62723549  1
  Fe  Fe67  1  0.74962590  0.74929518  0.75057983  1
  Fe  Fe68  1  0.00021670  0.00287306  0.25350065  1
  Fe  Fe69  1  0.62294261  0.37494384  0.37634781  1
  Fe  Fe70  1  0.00082999  0.25148687  0.50313697  1
  Fe  Fe71  1  0.62308738  0.37637244  0.12307644  1
  Fe  Fe72  1  0.62605924  0.37672996  0.62505634  1
  Fe  Fe73  1  0.49871201  0.24772920  0.24835647  1
  Fe  Fe74  1  0.62456237  0.62493315  0.12270360  1
  Fe  Fe75  1  0.37160087  0.87775363  0.12141737  1
  Fe  Fe76  1  0.12604227  0.62424495  0.62812360  1
  Fe  Fe77  1  0.74833530  0.75245051  0.49798985  1
  Fe  Fe78  1  0.62415002  0.12339336  0.37499383  1
  Fe  Fe79  1  0.62415408  0.11991246  0.62831447  1
  Fe  Fe80  1  0.12445780  0.62405898  0.37510933  1
  Fe  Fe81  1  0.49816586  0.24802804  0.00125056  1
  Fe  Fe82  1  0.25207258  0.50099854  0.24995875  1
  Fe  Fe83  1  0.25179403  0.24766861  0.50250176  1
  Fe  Fe84  1  0.62458095  0.12269793  0.12518491  1
  Fe  Fe85  1  0.37716937  0.12202463  0.62815209  1
  Fe  Fe86  1  0.87638755  0.87408531  0.12465944  1
  Fe  Fe87  1  0.74979969  0.50041813  0.25074978  1
  Fe  Fe88  1  0.87371100  0.87239999  0.87479915  1
  Fe  Fe89  1  0.87545403  0.12627577  0.12538918  1
  Co  Co90  1  0.00119385  0.24950417  0.24707358  1
  Co  Co91  1  0.12908547  0.37533568  0.62605537  1
  Co  Co92  1  0.49643803  0.75423885  0.50523165  1
  Co  Co93  1  0.87723881  0.87264032  0.37506491  1
  Co  Co94  1  0.87316289  0.37470897  0.12395283  1
  Co  Co95  1  0.37899923  0.62746632  0.37400934  1
  Co  Co96  1  0.75039809  0.75054159  0.00107210  1
  Co  Co97  1  0.37638076  0.62516738  0.62982418  1
  Co  Co98  1  0.87474171  0.12892335  0.37571722  1
  Co  Co99  1  0.00164925  0.75006009  0.75200371  1
  Co  Co100  1  0.50183543  0.25218045  0.74705013  1
  Co  Co101  1  0.75411609  0.00200142  0.75312338  1
  Co  Co102  1  0.37696432  0.12534431  0.37657819  1
  Co  Co103  1  0.49908422  0.50062280  -0.00252412  1
  Co  Co104  1  0.87419035  0.62535568  0.87424268  1
  Co  Co105  1  0.49960263  0.75495532  0.75158510  1
  Co  Co106  1  0.87755639  0.12975791  0.87620366  1
  Co  Co107  1  0.49688366  0.49847372  0.50141641  1
  Co  Co108  1  0.37074796  0.87346468  0.87744474  1
  Co  Co109  1  0.37441480  0.12170838  0.12309107  1
  Co  Co110  1  0.86973828  0.37497853  0.62453181  1
  Co  Co111  1  0.25099650  0.24879831  0.00062231  1
  Co  Co112  1  0.62887310  0.87554088  0.62728889  1
  Co  Co113  1  0.24935445  0.00295212  0.75388603  1
  Co  Co114  1  0.37979354  0.12664429  0.87181494  1
  Co  Co115  1  0.36964060  0.87565897  0.62670193  1
  Co  Co116  1  0.62118022  0.87383981  0.37324921  1
  Co  Co117  1  0.87464114  0.62802422  0.62389478  1
  Co  Co118  1  0.49811591  0.75196915  0.24358214  1
  Co  Co119  1  0.12506404  0.12831635  0.37630326  1
  Co  Co120  1  -0.00101012  0.25205409  0.74522489  1
  Co  Co121  1  0.37664215  0.37531061  0.12452167  1
  Co  Co122  1  0.12718506  0.37700117  0.12531074  1
  Co  Co123  1  0.12121867  0.12995773  0.87342381  1
  Co  Co124  1  0.62978518  0.87519932  0.87483081  1
  Co  Co125  1  0.12525157  0.12102492  0.12441222  1
  Co  Co126  1  0.12537692  0.87655397  0.87474822  1
  Co  Co127  1  0.12563802  0.62113023  0.87251354  1
