# generated using pymatgen
data_Fe45Co19
_symmetry_space_group_name_H-M   'P 1'
_cell_length_a   11.41508067
_cell_length_b   11.41563182
_cell_length_c   11.41519146
_cell_angle_alpha   89.99602589
_cell_angle_beta   89.99474304
_cell_angle_gamma   90.00039573
_symmetry_Int_Tables_number   1
_chemical_formula_structural   Fe45Co19
_chemical_formula_sum   'Fe90 Co38'
_cell_volume   1487.51767752
_cell_formula_units_Z   2
loop_
 _symmetry_equiv_pos_site_id
 _symmetry_equiv_pos_as_xyz
  1  'x, y, z'
loop_
 _atom_site_type_symbol
 _atom_site_label
 _atom_site_symmetry_multiplicity
 _atom_site_fract_x
 _atom_site_fract_y
 _atom_site_fract_z
 _atom_site_occupancy
  Fe  Fe0  1  0.74927793  0.75197717  0.00332681  1
  Fe  Fe1  1  0.62254556  0.37330140  0.62581359  1
  Fe  Fe2  1  0.12886556  0.12795688  0.87481431  1
  Fe  Fe3  1  0.12224918  0.12637355  0.12531260  1
  Fe  Fe4  1  0.87617808  0.87515680  0.37655626  1
  Fe  Fe5  1  0.37587459  0.62297191  0.12396672  1
  Fe  Fe6  1  0.75058997  0.25066532  0.50198754  1
  Fe  Fe7  1  0.75053706  0.49762192  0.75043052  1
  Fe  Fe8  1  0.75001236  0.25523724  0.24818915  1
  Fe  Fe9  1  0.24911370  0.49725545  0.24662926  1
  Fe  Fe10  1  0.37662694  0.37483597  0.62458669  1
  Fe  Fe11  1  0.50221667  0.00324671  0.50106847  1
  Fe  Fe12  1  0.87714736  0.37561161  0.87643718  1
  Fe  Fe13  1  -0.00174268  0.50586799  0.49672717  1
  Fe  Fe14  1  0.37416275  0.37450986  0.87942682  1
  Fe  Fe15  1  0.12558610  0.37648362  0.37671919  1
  Fe  Fe16  1  0.37548305  0.87508178  0.87668346  1
  Fe  Fe17  1  0.75086730  -0.00230356  0.24982977  1
  Fe  Fe18  1  0.25166210  0.74946129  0.74764946  1
  Fe  Fe19  1  0.87189224  0.62365137  0.12736405  1
  Fe  Fe20  1  -0.00130934  0.49948383  0.25108097  1
  Fe  Fe21  1  0.50021267  0.24974853  0.25019412  1
  Fe  Fe22  1  0.12292504  0.87266386  0.87553467  1
  Fe  Fe23  1  0.37672152  0.37399702  0.37615837  1
  Fe  Fe24  1  0.25003302  0.74988013  0.00106201  1
  Fe  Fe25  1  0.37675916  0.87732515  0.12376874  1
  Fe  Fe26  1  0.37258019  0.62434260  0.37339260  1
  Fe  Fe27  1  0.87499146  0.12608066  0.37302165  1
  Fe  Fe28  1  0.37363117  0.12689109  0.62773536  1
  Fe  Fe29  1  0.75200271  0.75101913  0.74789123  1
  Fe  Fe30  1  0.62464396  0.87319001  0.37455824  1
  Fe  Fe31  1  0.37456587  0.12421957  0.12272502  1
  Fe  Fe32  1  0.25100529  0.75096913  0.24970643  1
  Fe  Fe33  1  0.62593852  0.12501918  0.12525688  1
  Fe  Fe34  1  0.00270219  0.24989646  0.74829106  1
  Fe  Fe35  1  0.50046221  0.74922891  0.75015396  1
  Fe  Fe36  1  0.37351332  0.12647708  0.37536616  1
  Fe  Fe37  1  0.62835783  0.62560649  0.87519977  1
  Fe  Fe38  1  -0.00430787  0.74603212  0.75020933  1
  Fe  Fe39  1  0.87156612  0.12559866  0.87011066  1
  Fe  Fe40  1  0.74880423  0.25120466  -0.00123720  1
  Fe  Fe41  1  0.00022318  0.24802185  0.50126316  1
  Fe  Fe42  1  0.62557426  0.62451083  0.62649563  1
  Fe  Fe43  1  0.24874056  0.25062711  0.50276826  1
  Fe  Fe44  1  -0.00200633  0.74870876  0.25195967  1
  Fe  Fe45  1  0.50316236  0.00223214  -0.00341670  1
  Fe  Fe46  1  0.24901174  0.25216843  0.24726199  1
  Fe  Fe47  1  0.74985517  0.00034168  0.50270726  1
  Fe  Fe48  1  0.24977300  -0.00120643  0.50094053  1
  Fe  Fe49  1  0.74927915  -0.00031750  -0.00020179  1
  Fe  Fe50  1  0.37593405  0.87493328  0.37574735  1
  Fe  Fe51  1  0.49884460  0.74638672  0.50016085  1
  Fe  Fe52  1  0.50016556  0.49907444  0.75295269  1
  Fe  Fe53  1  0.62630996  0.12803148  0.37447748  1
  Fe  Fe54  1  0.37060216  0.12709404  0.87456830  1
  Fe  Fe55  1  0.87801306  0.37665030  0.62421477  1
  Fe  Fe56  1  0.63045976  0.62691484  0.36910632  1
  Fe  Fe57  1  0.24820925  -0.00082932  0.24921218  1
  Fe  Fe58  1  0.11978919  0.37294413  0.12021642  1
  Fe  Fe59  1  0.12498180  0.12540650  0.37371793  1
  Fe  Fe60  1  -0.00167818  0.00263949  0.50177858  1
  Fe  Fe61  1  0.50076367  0.00028247  0.25149819  1
  Fe  Fe62  1  0.74738995  0.49721196  0.00319128  1
  Fe  Fe63  1  0.87462282  0.37571995  0.37506766  1
  Fe  Fe64  1  0.24782700  0.49734062  0.75130272  1
  Fe  Fe65  1  0.87860103  0.87738974  0.12345688  1
  Fe  Fe66  1  -0.00101095  0.50379016  -0.00151122  1
  Fe  Fe67  1  0.25100543  0.50179038  0.50100897  1
  Fe  Fe68  1  0.62654366  0.12864871  0.62952607  1
  Fe  Fe69  1  0.74962810  -0.00484801  0.74721696  1
  Fe  Fe70  1  0.12557755  0.62522277  0.62354092  1
  Fe  Fe71  1  0.38035926  0.37536233  0.11988356  1
  Fe  Fe72  1  0.12088819  0.87358839  0.62474103  1
  Fe  Fe73  1  0.74859046  0.49925315  0.49890164  1
  Fe  Fe74  1  0.12379022  0.87178613  0.37782313  1
  Fe  Fe75  1  0.00026501  0.50173389  0.75216434  1
  Fe  Fe76  1  0.50295013  0.74839970  0.00122536  1
  Fe  Fe77  1  0.24830084  -0.00224854  0.75044474  1
  Fe  Fe78  1  0.37333819  0.62379340  0.87612134  1
  Fe  Fe79  1  0.50381883  0.50016039  0.25045800  1
  Fe  Fe80  1  0.50224652  -0.00040433  0.75124384  1
  Fe  Fe81  1  0.50213742  0.50115902  0.49817317  1
  Fe  Fe82  1  0.75391625  0.74977519  0.50300449  1
  Fe  Fe83  1  0.12258661  0.87496374  0.12305379  1
  Fe  Fe84  1  0.00038871  0.00260453  -0.00309912  1
  Fe  Fe85  1  0.12633483  0.62585961  0.87663732  1
  Fe  Fe86  1  0.87585561  0.87409318  0.87492626  1
  Fe  Fe87  1  0.87752663  0.12721904  0.12765772  1
  Fe  Fe88  1  0.12480999  0.62541105  0.12549664  1
  Fe  Fe89  1  0.37727037  0.87484590  0.62441500  1
  Co  Co90  1  0.00130214  0.00285165  0.75305753  1
  Co  Co91  1  0.62376915  0.37249699  0.37557194  1
  Co  Co92  1  0.00066007  0.25289686  0.25344506  1
  Co  Co93  1  0.87952651  0.87663426  0.62589541  1
  Co  Co94  1  0.74900061  0.49171558  0.24674208  1
  Co  Co95  1  0.12279063  0.37459074  0.87908975  1
  Co  Co96  1  0.75354617  0.75649890  0.24666929  1
  Co  Co97  1  0.62601110  0.87381949  0.87536873  1
  Co  Co98  1  -0.00191356  0.74723157  -0.00007779  1
  Co  Co99  1  0.50046129  0.24808037  0.50172959  1
  Co  Co100  1  0.49788270  0.74956733  0.24909910  1
  Co  Co101  1  0.12623247  0.12288512  0.62524793  1
  Co  Co102  1  0.87338588  0.62097295  0.62584214  1
  Co  Co103  1  0.25012396  0.25160308  0.00321594  1
  Co  Co104  1  -0.00385056  0.74481266  0.49936380  1
  Co  Co105  1  0.62204978  0.87711091  0.12588545  1
  Co  Co106  1  0.00030876  -0.00114956  0.25092139  1
  Co  Co107  1  0.87352996  0.12502692  0.62843824  1
  Co  Co108  1  0.62484897  0.37509371  0.87635683  1
  Co  Co109  1  0.86880009  0.62355635  0.36987776  1
  Co  Co110  1  0.24771966  0.49987454  0.00093445  1
  Co  Co111  1  0.49856947  0.25092247  0.75407321  1
  Co  Co112  1  0.63001883  0.12469400  0.87028832  1
  Co  Co113  1  0.24690007  0.25524931  0.74800935  1
  Co  Co114  1  0.12221681  0.37919405  0.62182511  1
  Co  Co115  1  0.87938948  0.37293353  0.12210187  1
  Co  Co116  1  -0.00281748  0.24492276  -0.00485011  1
  Co  Co117  1  0.50280108  0.24486563  -0.00461643  1
  Co  Co118  1  0.87016760  0.62440923  0.87707039  1
  Co  Co119  1  0.50404139  0.50442305  -0.00158547  1
  Co  Co120  1  0.61932427  0.37272009  0.12220260  1
  Co  Co121  1  0.62281576  0.87289267  0.62371945  1
  Co  Co122  1  0.24738041  -0.00090159  -0.00011480  1
  Co  Co123  1  0.62814916  0.62613623  0.12896988  1
  Co  Co124  1  0.25231840  0.74958293  0.50231209  1
  Co  Co125  1  0.37545188  0.62202267  0.62681875  1
  Co  Co126  1  0.12875961  0.62523122  0.37415437  1
  Co  Co127  1  0.75181572  0.25645550  0.74974610  1
