# generated using pymatgen
data_Fe45Co19
_symmetry_space_group_name_H-M   'P 1'
_cell_length_a   11.41507458
_cell_length_b   11.41606261
_cell_length_c   11.41553333
_cell_angle_alpha   89.99244906
_cell_angle_beta   89.99463192
_cell_angle_gamma   90.00484301
_symmetry_Int_Tables_number   1
_chemical_formula_structural   Fe45Co19
_chemical_formula_sum   'Fe90 Co38'
_cell_volume   1487.61755289
_cell_formula_units_Z   2
loop_
 _symmetry_equiv_pos_site_id
 _symmetry_equiv_pos_as_xyz
  1  'x, y, z'
loop_
 _atom_site_type_symbol
 _atom_site_label
 _atom_site_symmetry_multiplicity
 _atom_site_fract_x
 _atom_site_fract_y
 _atom_site_fract_z
 _atom_site_occupancy
  Fe  Fe0  1  0.12368528  0.37386380  0.37605660  1
  Fe  Fe1  1  0.75379226  0.50109714  0.74770382  1
  Fe  Fe2  1  0.24889120  0.75077555  0.50157466  1
  Fe  Fe3  1  0.37232261  0.62296535  0.37545802  1
  Fe  Fe4  1  0.62530086  0.87516208  0.12385572  1
  Fe  Fe5  1  0.00049586  0.50044154  -0.00335904  1
  Fe  Fe6  1  0.24935928  0.00191729  -0.00058678  1
  Fe  Fe7  1  0.87584889  0.37326775  0.87193498  1
  Fe  Fe8  1  0.37510656  0.37448682  0.12906678  1
  Fe  Fe9  1  -0.00032388  0.49961320  0.25042892  1
  Fe  Fe10  1  0.62557208  0.37339529  0.87419085  1
  Fe  Fe11  1  0.25186442  0.00256154  0.74769148  1
  Fe  Fe12  1  0.62645953  0.62587959  0.62483352  1
  Fe  Fe13  1  0.87632827  0.12535900  0.37815347  1
  Fe  Fe14  1  0.74892955  0.00159843  0.25005370  1
  Fe  Fe15  1  0.24999000  0.75207283  0.25180132  1
  Fe  Fe16  1  0.12489534  0.87678695  0.12362622  1
  Fe  Fe17  1  0.24710363  0.50172086  0.74871145  1
  Fe  Fe18  1  0.00204225  0.00239414  0.24889237  1
  Fe  Fe19  1  0.62333449  0.37416734  0.12833925  1
  Fe  Fe20  1  0.75707182  0.50055410  0.50172954  1
  Fe  Fe21  1  0.75070007  0.24971333  0.25145314  1
  Fe  Fe22  1  0.75100054  0.75045526  0.25001530  1
  Fe  Fe23  1  0.75006723  0.00007897  0.50260210  1
  Fe  Fe24  1  0.37484564  0.87648389  0.12608232  1
  Fe  Fe25  1  0.87437474  0.87697960  0.37364089  1
  Fe  Fe26  1  0.87713398  0.37281376  0.12562553  1
  Fe  Fe27  1  0.12219397  0.87799342  0.62520737  1
  Fe  Fe28  1  -0.00385233  0.00393422  0.75025158  1
  Fe  Fe29  1  0.25153001  0.25005651  -0.00195918  1
  Fe  Fe30  1  0.75431206  0.74866357  0.49895807  1
  Fe  Fe31  1  0.75054519  0.75006224  -0.00356483  1
  Fe  Fe32  1  0.87726831  0.37311092  0.37583803  1
  Fe  Fe33  1  0.50290446  0.75051264  0.75068765  1
  Fe  Fe34  1  0.24703001  0.74915558  0.74925383  1
  Fe  Fe35  1  0.37440711  0.37430134  0.87164391  1
  Fe  Fe36  1  0.37621732  0.87610113  0.87278292  1
  Fe  Fe37  1  0.74867023  0.00094548  -0.00241506  1
  Fe  Fe38  1  0.62521523  0.37468129  0.37554119  1
  Fe  Fe39  1  0.11961318  0.37310912  0.62797451  1
  Fe  Fe40  1  0.38035100  0.12725301  0.87091500  1
  Fe  Fe41  1  0.49966415  -0.00192983  0.50345721  1
  Fe  Fe42  1  0.37308608  0.62337689  0.12718906  1
  Fe  Fe43  1  -0.00092935  0.75078087  -0.00561118  1
  Fe  Fe44  1  0.24770517  0.24741157  0.25056624  1
  Fe  Fe45  1  0.87588467  0.87737284  0.12292370  1
  Fe  Fe46  1  0.12226207  0.62401793  0.37708891  1
  Fe  Fe47  1  0.62856970  0.62207219  0.37409015  1
  Fe  Fe48  1  0.87477725  0.62411418  0.12502726  1
  Fe  Fe49  1  0.00009455  0.75147661  0.25205884  1
  Fe  Fe50  1  0.74533331  0.00299533  0.74880393  1
  Fe  Fe51  1  0.37394044  0.12299186  0.37622964  1
  Fe  Fe52  1  0.87654735  0.12540005  0.12356509  1
  Fe  Fe53  1  0.37612222  0.87249625  0.62552742  1
  Fe  Fe54  1  0.50034867  0.74808099  -0.00151982  1
  Fe  Fe55  1  0.62373753  0.12735343  0.12455243  1
  Fe  Fe56  1  0.50085292  -0.00001243  0.25140163  1
  Fe  Fe57  1  0.12364474  0.37358822  0.87128088  1
  Fe  Fe58  1  0.24921130  0.49870090  -0.00009723  1
  Fe  Fe59  1  0.24744846  0.50053985  0.50294537  1
  Fe  Fe60  1  0.37323009  0.37447673  0.62625308  1
  Fe  Fe61  1  0.37457570  0.62357449  0.87172468  1
  Fe  Fe62  1  0.24991369  0.75050901  -0.00243932  1
  Fe  Fe63  1  0.62428937  0.12719027  0.37984151  1
  Fe  Fe64  1  0.49971464  0.74842367  0.49919780  1
  Fe  Fe65  1  -0.00011820  0.24781007  -0.00265490  1
  Fe  Fe66  1  0.75054799  0.49885911  -0.00110670  1
  Fe  Fe67  1  0.37485441  0.12563978  0.12569418  1
  Fe  Fe68  1  0.50191871  0.49846875  0.74762918  1
  Fe  Fe69  1  0.62540008  0.87518845  0.37707216  1
  Fe  Fe70  1  0.12398176  0.37192760  0.12601356  1
  Fe  Fe71  1  0.37291333  0.37625234  0.37383137  1
  Fe  Fe72  1  0.11778792  0.62619297  0.62458753  1
  Fe  Fe73  1  0.62760800  0.37176374  0.62129768  1
  Fe  Fe74  1  0.87532893  0.87343089  0.62749819  1
  Fe  Fe75  1  0.49917545  0.49960139  0.50104944  1
  Fe  Fe76  1  0.37970197  0.12798727  0.62765286  1
  Fe  Fe77  1  0.62720815  0.62251463  0.12626045  1
  Fe  Fe78  1  0.12476921  0.12615300  0.87349565  1
  Fe  Fe79  1  0.75117345  0.24615618  0.74746711  1
  Fe  Fe80  1  0.74884631  0.24975247  -0.00076149  1
  Fe  Fe81  1  0.50013096  0.49878076  0.00003229  1
  Fe  Fe82  1  0.12516705  0.12229319  0.38022985  1
  Fe  Fe83  1  0.50043484  0.74975175  0.25164307  1
  Fe  Fe84  1  0.12436347  0.87803295  0.87354637  1
  Fe  Fe85  1  0.24854945  0.24831969  0.50473578  1
  Fe  Fe86  1  0.50117434  0.00079156  -0.00224651  1
  Fe  Fe87  1  0.12502088  0.62581521  0.12397569  1
  Fe  Fe88  1  0.12818705  0.87998816  0.37794853  1
  Fe  Fe89  1  0.75029594  0.74928456  0.75341638  1
  Co  Co90  1  0.24633657  0.49991725  0.24984806  1
  Co  Co91  1  0.49900605  0.25242647  0.00007174  1
  Co  Co92  1  0.50007557  0.24866991  0.25246456  1
  Co  Co93  1  0.12660203  0.62365804  0.87514000  1
  Co  Co94  1  0.62265764  0.12915605  0.62145575  1
  Co  Co95  1  0.50487208  -0.00254596  0.74664763  1
  Co  Co96  1  0.62459752  0.62252457  0.87401467  1
  Co  Co97  1  0.87381899  0.87911902  0.87386478  1
  Co  Co98  1  -0.00273697  0.24453403  0.74947457  1
  Co  Co99  1  0.50025632  0.50089968  0.25139436  1
  Co  Co100  1  -0.00107852  0.75460758  0.49767543  1
  Co  Co101  1  0.87459288  0.12523251  0.62109152  1
  Co  Co102  1  0.87669204  0.62468395  0.37400016  1
  Co  Co103  1  0.37451720  0.87623063  0.37629881  1
  Co  Co104  1  -0.00355277  -0.00242480  0.50086739  1
  Co  Co105  1  0.87939416  0.62937614  0.62606078  1
  Co  Co106  1  0.12484061  0.12706478  0.12296029  1
  Co  Co107  1  -0.00330862  0.49792445  0.50120932  1
  Co  Co108  1  0.00028702  0.24685472  0.25219805  1
  Co  Co109  1  0.00090240  0.24984779  0.50238079  1
  Co  Co110  1  0.62493084  0.87555833  0.87612995  1
  Co  Co111  1  0.24848524  0.24771760  0.74807940  1
  Co  Co112  1  -0.00204091  0.50133667  0.75113569  1
  Co  Co113  1  0.00053874  0.75070860  0.75472591  1
  Co  Co114  1  0.24844451  0.00056593  0.24791015  1
  Co  Co115  1  0.75305288  0.25110767  0.49981750  1
  Co  Co116  1  0.12243223  0.12220772  0.62350911  1
  Co  Co117  1  0.87267526  0.12420948  0.87724611  1
  Co  Co118  1  0.62718833  0.87136974  0.62302968  1
  Co  Co119  1  0.87796097  0.37220572  0.62741389  1
  Co  Co120  1  0.62205530  0.12759079  0.87420555  1
  Co  Co121  1  0.50343569  0.25488154  0.74816799  1
  Co  Co122  1  0.37541950  0.62534473  0.62607221  1
  Co  Co123  1  0.00174434  0.00120265  -0.00061703  1
  Co  Co124  1  0.25429383  0.00086602  0.50624653  1
  Co  Co125  1  0.87411934  0.62316677  0.87484082  1
  Co  Co126  1  0.49652029  0.25323309  0.49938432  1
  Co  Co127  1  0.75292696  0.49672597  0.25052747  1
