# generated using pymatgen
data_Fe45Co19
_symmetry_space_group_name_H-M   'P 1'
_cell_length_a   11.41496725
_cell_length_b   11.41492274
_cell_length_c   11.41535713
_cell_angle_alpha   90.00229836
_cell_angle_beta   90.00002449
_cell_angle_gamma   90.00371010
_symmetry_Int_Tables_number   1
_chemical_formula_structural   Fe45Co19
_chemical_formula_sum   'Fe90 Co38'
_cell_volume   1487.43209356
_cell_formula_units_Z   2
loop_
 _symmetry_equiv_pos_site_id
 _symmetry_equiv_pos_as_xyz
  1  'x, y, z'
loop_
 _atom_site_type_symbol
 _atom_site_label
 _atom_site_symmetry_multiplicity
 _atom_site_fract_x
 _atom_site_fract_y
 _atom_site_fract_z
 _atom_site_occupancy
  Fe  Fe0  1  0.75035924  0.00280529  0.00233253  1
  Fe  Fe1  1  0.00047867  0.24982427  0.00097229  1
  Fe  Fe2  1  0.00160567  0.25196406  0.25292076  1
  Fe  Fe3  1  0.87472556  0.87412401  0.12504325  1
  Fe  Fe4  1  -0.00287940  -0.00494162  0.50035242  1
  Fe  Fe5  1  0.24829507  -0.00111733  0.49985982  1
  Fe  Fe6  1  0.50187905  0.74858158  0.25043067  1
  Fe  Fe7  1  -0.00095603  0.49713480  0.49785658  1
  Fe  Fe8  1  0.62588618  0.12474352  0.37397246  1
  Fe  Fe9  1  0.24597391  0.75110999  -0.00016281  1
  Fe  Fe10  1  0.37646491  0.62700135  0.12196192  1
  Fe  Fe11  1  0.50115920  0.00038227  -0.00530114  1
  Fe  Fe12  1  0.74579456  0.24702678  0.00573417  1
  Fe  Fe13  1  0.87419613  0.37338662  0.62460888  1
  Fe  Fe14  1  0.37501321  0.12568010  0.37615597  1
  Fe  Fe15  1  0.75198942  0.49937710  0.75137570  1
  Fe  Fe16  1  0.87205739  0.37096731  0.87747059  1
  Fe  Fe17  1  0.62823163  0.87497091  0.62849441  1
  Fe  Fe18  1  0.24880183  0.00026222  0.25092521  1
  Fe  Fe19  1  0.75589628  0.00700000  0.74780994  1
  Fe  Fe20  1  0.37317505  0.37596646  0.37506829  1
  Fe  Fe21  1  -0.00120872  0.75169413  0.74913416  1
  Fe  Fe22  1  0.62914194  0.87270081  0.37312433  1
  Fe  Fe23  1  0.37482058  0.62384339  0.37585069  1
  Fe  Fe24  1  0.62781417  0.12651820  0.62459928  1
  Fe  Fe25  1  0.12074285  0.12270499  0.62495811  1
  Fe  Fe26  1  0.24879241  0.75092986  0.50173921  1
  Fe  Fe27  1  0.24945708  0.00189444  0.75143716  1
  Fe  Fe28  1  0.49992285  0.50061562  0.75159531  1
  Fe  Fe29  1  0.37975205  0.12559817  0.12491540  1
  Fe  Fe30  1  0.24831469  0.49898030  -0.00114038  1
  Fe  Fe31  1  0.12384902  0.62443211  0.37552029  1
  Fe  Fe32  1  0.25046317  0.00164653  -0.00122195  1
  Fe  Fe33  1  0.24952763  0.24869918  0.00108918  1
  Fe  Fe34  1  0.37482428  0.87455028  0.12371491  1
  Fe  Fe35  1  -0.00166500  0.75354447  0.50241335  1
  Fe  Fe36  1  0.50247282  -0.00134463  0.50004739  1
  Fe  Fe37  1  0.62471414  0.62334183  0.62386998  1
  Fe  Fe38  1  0.24648957  0.25048777  0.50138241  1
  Fe  Fe39  1  0.12427984  0.87632077  0.87349000  1
  Fe  Fe40  1  0.75206849  0.75095905  0.50122310  1
  Fe  Fe41  1  0.75093610  0.50335752  0.24774355  1
  Fe  Fe42  1  0.00109504  0.25383981  0.49664972  1
  Fe  Fe43  1  0.74838564  0.24898224  0.24781875  1
  Fe  Fe44  1  0.37636739  0.37408757  0.62618195  1
  Fe  Fe45  1  -0.00106538  0.00074310  -0.00215994  1
  Fe  Fe46  1  0.24872034  0.74922779  0.74939791  1
  Fe  Fe47  1  -0.00403313  0.24552195  0.75048791  1
  Fe  Fe48  1  0.87510892  0.62676068  0.37466389  1
  Fe  Fe49  1  0.37679136  0.37227368  0.87651902  1
  Fe  Fe50  1  0.24899583  0.50028644  0.75057999  1
  Fe  Fe51  1  0.49976817  -0.00011720  0.75318912  1
  Fe  Fe52  1  0.87249515  0.87530092  0.87431913  1
  Fe  Fe53  1  0.62621867  0.62355299  0.87726304  1
  Fe  Fe54  1  0.00081679  0.75175534  0.24812074  1
  Fe  Fe55  1  0.62572159  0.62449057  0.12087400  1
  Fe  Fe56  1  0.87694826  0.62571757  0.87873889  1
  Fe  Fe57  1  0.24800082  0.50024390  0.24616151  1
  Fe  Fe58  1  0.50329187  0.75409880  -0.00435349  1
  Fe  Fe59  1  0.62591140  0.37570756  0.62507600  1
  Fe  Fe60  1  0.87417778  0.12536791  0.37721040  1
  Fe  Fe61  1  0.87615122  0.37587704  0.12623777  1
  Fe  Fe62  1  0.37632261  0.12488265  0.62548048  1
  Fe  Fe63  1  0.50062169  0.50175405  0.24963010  1
  Fe  Fe64  1  0.37330607  0.87328866  0.37489569  1
  Fe  Fe65  1  0.50121813  0.75045759  0.49979623  1
  Fe  Fe66  1  0.37949057  0.37323894  0.12313285  1
  Fe  Fe67  1  0.24707801  0.75031511  0.24805471  1
  Fe  Fe68  1  0.62639237  0.87576523  0.12535915  1
  Fe  Fe69  1  0.00022748  -0.00168626  0.25225146  1
  Fe  Fe70  1  0.75104880  0.74670480  0.75050968  1
  Fe  Fe71  1  -0.00165577  0.49879018  0.75289258  1
  Fe  Fe72  1  0.49858603  -0.00160906  0.25244945  1
  Fe  Fe73  1  0.37845008  0.62507787  0.62565312  1
  Fe  Fe74  1  0.12493250  0.37300569  0.87437726  1
  Fe  Fe75  1  0.75222401  0.00093213  0.24987725  1
  Fe  Fe76  1  0.12272505  0.12466848  0.12564511  1
  Fe  Fe77  1  0.12140157  0.62358855  0.62646763  1
  Fe  Fe78  1  0.50252099  0.24851727  0.75272525  1
  Fe  Fe79  1  0.75185964  0.49905419  0.49929967  1
  Fe  Fe80  1  0.24857493  0.49840897  0.50362827  1
  Fe  Fe81  1  0.37599753  0.87441824  0.62726945  1
  Fe  Fe82  1  0.50161615  0.25101670  0.49841745  1
  Fe  Fe83  1  0.12055307  0.62244827  0.12084924  1
  Fe  Fe84  1  0.62621015  0.37732691  0.37303676  1
  Fe  Fe85  1  0.87788422  0.62541235  0.12050404  1
  Fe  Fe86  1  0.62639653  0.37473746  0.87812275  1
  Fe  Fe87  1  0.37511969  0.62718173  0.87554099  1
  Fe  Fe88  1  0.24843080  0.24780926  0.74868883  1
  Fe  Fe89  1  0.24868256  0.24908508  0.25015172  1
  Co  Co90  1  0.49967340  0.49834776  0.49947843  1
  Co  Co91  1  0.87200725  0.12818379  0.87922119  1
  Co  Co92  1  0.12457576  0.87644303  0.62779179  1
  Co  Co93  1  0.74984452  -0.00117005  0.49932713  1
  Co  Co94  1  0.87215513  0.37514644  0.37172512  1
  Co  Co95  1  0.37508071  0.12735506  0.87461802  1
  Co  Co96  1  0.62044446  0.12143734  0.12812164  1
  Co  Co97  1  0.12233277  0.62529108  0.87464676  1
  Co  Co98  1  -0.00035784  0.50016480  0.25015623  1
  Co  Co99  1  0.87567977  0.62257429  0.62462035  1
  Co  Co100  1  0.87185728  0.87547871  0.62832375  1
  Co  Co101  1  0.74983633  0.75123117  -0.00037784  1
  Co  Co102  1  0.50472615  0.24585405  -0.00108811  1
  Co  Co103  1  0.49827891  0.50117309  -0.00115516  1
  Co  Co104  1  -0.00000705  0.49616740  -0.00293617  1
  Co  Co105  1  0.12397546  0.12588308  0.87570258  1
  Co  Co106  1  -0.00456614  0.00276659  0.75168449  1
  Co  Co107  1  0.87839593  0.12578598  0.12689780  1
  Co  Co108  1  0.74856797  0.25155373  0.49890674  1
  Co  Co109  1  0.75299174  0.49934078  0.00062340  1
  Co  Co110  1  0.62925998  0.12445320  0.87374933  1
  Co  Co111  1  0.62705640  0.62470209  0.37730844  1
  Co  Co112  1  0.12823825  0.37809655  0.37262657  1
  Co  Co113  1  0.50255194  0.75007918  0.75222064  1
  Co  Co114  1  0.62275424  0.37775903  0.12442275  1
  Co  Co115  1  0.00062742  0.75431131  -0.00076380  1
  Co  Co116  1  0.75143930  0.24978939  0.74821128  1
  Co  Co117  1  0.87605278  0.12767285  0.61825025  1
  Co  Co118  1  0.87276332  0.87288310  0.37277784  1
  Co  Co119  1  0.12561903  0.87342182  0.37492463  1
  Co  Co120  1  0.37246750  0.87351218  0.87430672  1
  Co  Co121  1  0.12343359  0.12341610  0.37628405  1
  Co  Co122  1  0.12308403  0.37428762  0.12512669  1
  Co  Co123  1  0.12467158  0.87858165  0.12470252  1
  Co  Co124  1  0.12152950  0.37507238  0.62835263  1
  Co  Co125  1  0.75075378  0.74704249  0.24649163  1
  Co  Co126  1  0.63162931  0.87830810  0.87147280  1
  Co  Co127  1  0.50083492  0.25156871  0.25219601  1
