# generated using pymatgen
data_Fe45Co19
_symmetry_space_group_name_H-M   'P 1'
_cell_length_a   11.41460371
_cell_length_b   11.41540960
_cell_length_c   11.41510058
_cell_angle_alpha   89.99538325
_cell_angle_beta   90.00699687
_cell_angle_gamma   90.00196997
_symmetry_Int_Tables_number   1
_chemical_formula_structural   Fe45Co19
_chemical_formula_sum   'Fe90 Co38'
_cell_volume   1487.41472003
_cell_formula_units_Z   2
loop_
 _symmetry_equiv_pos_site_id
 _symmetry_equiv_pos_as_xyz
  1  'x, y, z'
loop_
 _atom_site_type_symbol
 _atom_site_label
 _atom_site_symmetry_multiplicity
 _atom_site_fract_x
 _atom_site_fract_y
 _atom_site_fract_z
 _atom_site_occupancy
  Fe  Fe0  1  0.37167864  0.12589056  0.87228313  1
  Fe  Fe1  1  0.00239353  0.24982638  0.50328646  1
  Fe  Fe2  1  0.74978565  0.25051612  0.00092707  1
  Fe  Fe3  1  0.24663432  0.49751732  0.25311674  1
  Fe  Fe4  1  0.87417078  0.12530283  0.87484041  1
  Fe  Fe5  1  0.87392273  0.87459849  0.87521566  1
  Fe  Fe6  1  0.62538237  0.37549102  0.87415026  1
  Fe  Fe7  1  0.12400980  0.87374135  0.62562990  1
  Fe  Fe8  1  0.50036250  -0.00166025  0.49767590  1
  Fe  Fe9  1  0.37206619  0.62838629  0.37092575  1
  Fe  Fe10  1  0.62093610  0.37697126  0.62363992  1
  Fe  Fe11  1  0.37477887  0.12678270  0.37673626  1
  Fe  Fe12  1  0.49904226  -0.00272403  0.75218495  1
  Fe  Fe13  1  0.00150968  0.49837398  0.25529395  1
  Fe  Fe14  1  0.87619488  0.37996978  0.12232627  1
  Fe  Fe15  1  0.74956206  0.50284785  0.74680622  1
  Fe  Fe16  1  0.25066875  0.74832499  0.00526727  1
  Fe  Fe17  1  0.49962633  0.49946514  0.25191837  1
  Fe  Fe18  1  0.50023942  -0.00393635  0.24911575  1
  Fe  Fe19  1  0.25128568  -0.00125839  0.25162657  1
  Fe  Fe20  1  0.00687212  0.49910248  -0.00547987  1
  Fe  Fe21  1  0.75142898  0.74610549  0.74671421  1
  Fe  Fe22  1  0.87504744  0.12427232  0.12413834  1
  Fe  Fe23  1  0.24969378  -0.00040307  0.50067924  1
  Fe  Fe24  1  0.87547353  0.62280234  0.38002887  1
  Fe  Fe25  1  0.24704516  0.25146837  0.00396165  1
  Fe  Fe26  1  0.87682452  0.87486466  0.62370389  1
  Fe  Fe27  1  0.12757758  0.12799850  0.87034609  1
  Fe  Fe28  1  0.75247992  0.74650519  0.00279110  1
  Fe  Fe29  1  0.87491349  0.37687371  0.87485164  1
  Fe  Fe30  1  0.62592366  0.37463286  0.37570088  1
  Fe  Fe31  1  0.12526404  0.87231806  0.37400560  1
  Fe  Fe32  1  0.37490476  0.62335590  0.62464150  1
  Fe  Fe33  1  0.75198262  0.74863946  0.50178660  1
  Fe  Fe34  1  0.49988909  0.50075929  0.00048187  1
  Fe  Fe35  1  0.62645229  0.87054920  0.37180820  1
  Fe  Fe36  1  0.00098186  0.00027740  0.49907068  1
  Fe  Fe37  1  0.25124011  0.25092018  0.50892263  1
  Fe  Fe38  1  0.62593276  0.12676280  0.87444726  1
  Fe  Fe39  1  0.24767607  0.74914092  0.49978872  1
  Fe  Fe40  1  0.12427103  0.87664638  0.12580034  1
  Fe  Fe41  1  0.74859454  -0.00062684  0.24852089  1
  Fe  Fe42  1  0.62431855  0.12743447  0.37405009  1
  Fe  Fe43  1  0.75174227  0.25286329  0.24868097  1
  Fe  Fe44  1  0.87396502  0.12545703  0.37625854  1
  Fe  Fe45  1  0.49517909  0.25141073  0.74743168  1
  Fe  Fe46  1  0.12769267  0.12938999  0.37475788  1
  Fe  Fe47  1  -0.00079350  0.74606386  0.74869967  1
  Fe  Fe48  1  -0.00010688  0.24952638  0.74696390  1
  Fe  Fe49  1  0.49861117  0.74899954  0.49767367  1
  Fe  Fe50  1  0.00046955  -0.00003910  0.75045878  1
  Fe  Fe51  1  0.88033294  0.38237689  0.62399162  1
  Fe  Fe52  1  0.37248547  0.37880285  0.12446641  1
  Fe  Fe53  1  0.62590741  0.37663465  0.12511920  1
  Fe  Fe54  1  0.49888644  0.25074358  0.00035042  1
  Fe  Fe55  1  0.62708843  0.62668734  0.37268094  1
  Fe  Fe56  1  0.00085708  0.00112467  -0.00203545  1
  Fe  Fe57  1  0.37598098  0.87480370  0.62403534  1
  Fe  Fe58  1  0.00037672  0.00100173  0.25227853  1
  Fe  Fe59  1  0.37264950  0.62399896  0.87682776  1
  Fe  Fe60  1  0.49901394  0.50206561  0.75084105  1
  Fe  Fe61  1  0.62382323  0.62620330  0.87411257  1
  Fe  Fe62  1  0.62624303  0.87170375  0.87695933  1
  Fe  Fe63  1  0.50368209  0.00037033  0.00180455  1
  Fe  Fe64  1  0.00181340  0.25041627  0.24793907  1
  Fe  Fe65  1  0.62257596  0.87069518  0.62654800  1
  Fe  Fe66  1  0.37497927  0.87352041  0.87786554  1
  Fe  Fe67  1  0.37449108  0.12312107  0.12501216  1
  Fe  Fe68  1  0.12483038  0.62318989  0.12802084  1
  Fe  Fe69  1  -0.00364403  0.74988276  0.25166279  1
  Fe  Fe70  1  0.36922110  0.37650526  0.87340859  1
  Fe  Fe71  1  0.50063112  0.50172190  0.49676391  1
  Fe  Fe72  1  0.75197532  0.25163882  0.74675184  1
  Fe  Fe73  1  0.75010869  0.25141851  0.50229652  1
  Fe  Fe74  1  -0.00071751  0.74879576  0.00194349  1
  Fe  Fe75  1  0.00389344  0.25043458  0.00133083  1
  Fe  Fe76  1  0.87512711  0.62337607  0.87623715  1
  Fe  Fe77  1  0.62242728  0.12594011  0.62495950  1
  Fe  Fe78  1  0.24738680  0.00006387  -0.00188621  1
  Fe  Fe79  1  0.49766693  0.74798857  0.00540592  1
  Fe  Fe80  1  0.25130557  0.74912744  0.74907551  1
  Fe  Fe81  1  0.49770248  0.25124155  0.24980626  1
  Fe  Fe82  1  0.37237926  0.37293260  0.37743189  1
  Fe  Fe83  1  0.12473824  0.87153961  0.87473788  1
  Fe  Fe84  1  0.62648812  0.62477329  0.12930603  1
  Fe  Fe85  1  0.74900842  -0.00037273  0.50107101  1
  Fe  Fe86  1  0.87568726  0.37607796  0.37851619  1
  Fe  Fe87  1  0.24402413  0.50065828  0.49884404  1
  Fe  Fe88  1  0.87378859  0.87651736  0.12460642  1
  Fe  Fe89  1  0.74992006  -0.00016729  0.74924123  1
  Co  Co90  1  0.62821414  0.87039322  0.12498779  1
  Co  Co91  1  0.37626620  0.38328691  0.62409885  1
  Co  Co92  1  0.24670803  0.50383032  0.75045693  1
  Co  Co93  1  0.12545555  0.12177806  0.62718518  1
  Co  Co94  1  0.49797019  0.25074752  0.50104978  1
  Co  Co95  1  0.25030594  -0.00413368  0.75052394  1
  Co  Co96  1  0.49648758  0.75157469  0.24771485  1
  Co  Co97  1  0.87912667  0.61840925  0.12346583  1
  Co  Co98  1  0.75723755  0.74671537  0.24979552  1
  Co  Co99  1  0.88108042  0.62065726  0.62030942  1
  Co  Co100  1  0.74743720  0.50133738  -0.00145835  1
  Co  Co101  1  0.12215828  0.38015778  0.62905091  1
  Co  Co102  1  0.74683340  0.49996224  0.50224265  1
  Co  Co103  1  0.00336036  0.50482635  0.75650662  1
  Co  Co104  1  0.12578453  0.12218950  0.12674388  1
  Co  Co105  1  0.24558707  0.49974268  -0.00189814  1
  Co  Co106  1  0.25142070  0.25054304  0.24607843  1
  Co  Co107  1  0.37760077  0.11916872  0.62538713  1
  Co  Co108  1  0.62398527  0.12762738  0.12631956  1
  Co  Co109  1  0.12178377  0.62484930  0.62382194  1
  Co  Co110  1  0.00843429  0.49955691  0.49364459  1
  Co  Co111  1  0.87377106  0.87702944  0.37616400  1
  Co  Co112  1  0.62062520  0.62635208  0.62421556  1
  Co  Co113  1  0.12884860  0.36959995  0.86945836  1
  Co  Co114  1  0.74900184  0.00131629  -0.00004934  1
  Co  Co115  1  0.37173761  0.61975467  0.12881996  1
  Co  Co116  1  0.75255509  0.49932303  0.25182848  1
  Co  Co117  1  0.12462699  0.37890903  0.12723126  1
  Co  Co118  1  0.00028732  0.75163780  0.49786454  1
  Co  Co119  1  0.37385728  0.87809790  0.12329012  1
  Co  Co120  1  0.25107215  0.75342680  0.24654271  1
  Co  Co121  1  0.12619853  0.63030106  0.37147713  1
  Co  Co122  1  0.12760956  0.63047952  0.87660653  1
  Co  Co123  1  0.25308294  0.25134313  0.74083823  1
  Co  Co124  1  0.49644061  0.74960329  0.75143232  1
  Co  Co125  1  0.12726186  0.36766010  0.37558460  1
  Co  Co126  1  0.87515458  0.12318969  0.62343099  1
  Co  Co127  1  0.37369736  0.87270281  0.37625622  1
