# generated using pymatgen
data_Fe45Co19
_symmetry_space_group_name_H-M   'P 1'
_cell_length_a   11.41456670
_cell_length_b   11.41520343
_cell_length_c   11.41426315
_cell_angle_alpha   89.99161007
_cell_angle_beta   89.99305416
_cell_angle_gamma   89.99551610
_symmetry_Int_Tables_number   1
_chemical_formula_structural   Fe45Co19
_chemical_formula_sum   'Fe90 Co38'
_cell_volume   1487.27390141
_cell_formula_units_Z   2
loop_
 _symmetry_equiv_pos_site_id
 _symmetry_equiv_pos_as_xyz
  1  'x, y, z'
loop_
 _atom_site_type_symbol
 _atom_site_label
 _atom_site_symmetry_multiplicity
 _atom_site_fract_x
 _atom_site_fract_y
 _atom_site_fract_z
 _atom_site_occupancy
  Fe  Fe0  1  0.00109326  0.75165786  0.50121357  1
  Fe  Fe1  1  0.62635216  0.37762660  0.12545993  1
  Fe  Fe2  1  0.62445010  0.37632684  0.62562595  1
  Fe  Fe3  1  0.25166043  -0.00048124  0.75271965  1
  Fe  Fe4  1  0.37690806  0.12435026  0.12288797  1
  Fe  Fe5  1  0.25201732  0.50067115  0.75111099  1
  Fe  Fe6  1  0.25157754  0.50237528  0.50059312  1
  Fe  Fe7  1  0.50218462  -0.00391954  -0.00010385  1
  Fe  Fe8  1  0.74912997  0.24866542  0.75040426  1
  Fe  Fe9  1  0.49645302  0.75267075  0.24195708  1
  Fe  Fe10  1  -0.00109146  -0.00173196  0.24988669  1
  Fe  Fe11  1  -0.00222116  0.49952265  0.50488452  1
  Fe  Fe12  1  0.24970028  0.25053714  0.24928391  1
  Fe  Fe13  1  0.62303399  0.12273412  0.62645742  1
  Fe  Fe14  1  0.62253836  0.62269777  0.63012585  1
  Fe  Fe15  1  0.00044958  -0.00069428  -0.00324185  1
  Fe  Fe16  1  0.00071713  0.75060591  0.25078595  1
  Fe  Fe17  1  0.12598657  0.37713795  0.37641516  1
  Fe  Fe18  1  0.12349535  0.62431405  0.12544630  1
  Fe  Fe19  1  0.75022897  -0.00141581  -0.00260341  1
  Fe  Fe20  1  0.00298447  0.24932958  0.74808698  1
  Fe  Fe21  1  0.12373458  0.62416142  0.37417854  1
  Fe  Fe22  1  0.37679081  0.62742439  0.62624771  1
  Fe  Fe23  1  0.25390934  -0.00286428  0.49983805  1
  Fe  Fe24  1  0.87526971  0.87370699  0.62694565  1
  Fe  Fe25  1  0.12519710  0.87601157  0.62749563  1
  Fe  Fe26  1  0.24935675  0.50037115  -0.00072377  1
  Fe  Fe27  1  0.87325317  0.37472232  0.87360946  1
  Fe  Fe28  1  0.75453821  0.50212518  0.24693907  1
  Fe  Fe29  1  0.25115765  0.75122515  0.50006571  1
  Fe  Fe30  1  0.87564769  0.62591743  0.37686818  1
  Fe  Fe31  1  0.37418516  0.37442742  0.62366426  1
  Fe  Fe32  1  0.37540807  0.37468627  0.37631234  1
  Fe  Fe33  1  0.62231071  0.12194542  0.37517923  1
  Fe  Fe34  1  0.75155479  0.50226949  0.50365859  1
  Fe  Fe35  1  0.24858626  0.25183988  0.00155361  1
  Fe  Fe36  1  0.50085243  0.25033936  0.24824174  1
  Fe  Fe37  1  0.00146404  0.25127909  0.24920960  1
  Fe  Fe38  1  0.87625334  0.12392797  0.37733927  1
  Fe  Fe39  1  0.87118809  0.62606260  0.87185429  1
  Fe  Fe40  1  0.00162608  0.00042425  0.75373076  1
  Fe  Fe41  1  0.50279092  0.50394920  0.00069326  1
  Fe  Fe42  1  0.74908245  0.24905089  0.50024892  1
  Fe  Fe43  1  0.87471275  0.37534830  0.37568144  1
  Fe  Fe44  1  0.12317194  0.62476665  0.62764460  1
  Fe  Fe45  1  0.25020360  0.50096279  0.24932912  1
  Fe  Fe46  1  0.00379903  0.25060790  0.50281578  1
  Fe  Fe47  1  0.37650537  0.87183281  0.87668603  1
  Fe  Fe48  1  0.37642800  0.37686718  0.12380878  1
  Fe  Fe49  1  0.12513014  0.12386977  0.12388274  1
  Fe  Fe50  1  0.87424598  0.12549885  0.12299472  1
  Fe  Fe51  1  0.37656884  0.62854772  0.37258558  1
  Fe  Fe52  1  0.24784860  0.00050691  -0.00295990  1
  Fe  Fe53  1  0.62249890  0.62539834  0.37157366  1
  Fe  Fe54  1  0.61983879  0.87524084  0.37328839  1
  Fe  Fe55  1  0.87633525  0.12358226  0.62464120  1
  Fe  Fe56  1  0.87326767  0.87377856  0.37665353  1
  Fe  Fe57  1  0.12637879  0.87466842  0.37474886  1
  Fe  Fe58  1  0.74804921  -0.00183032  0.50116910  1
  Fe  Fe59  1  0.25011753  0.75014703  0.75080722  1
  Fe  Fe60  1  0.50066770  0.24961902  0.49990323  1
  Fe  Fe61  1  0.37865121  0.62683974  0.87655271  1
  Fe  Fe62  1  0.74531920  0.74988703  0.50335165  1
  Fe  Fe63  1  0.25028514  0.74770842  0.00144460  1
  Fe  Fe64  1  -0.00399180  0.49930797  0.00155077  1
  Fe  Fe65  1  0.12292087  0.62434728  0.87333670  1
  Fe  Fe66  1  0.62507371  0.12330553  0.12427900  1
  Fe  Fe67  1  0.62573982  0.37750078  0.37468162  1
  Fe  Fe68  1  0.12440552  0.37605100  0.87375997  1
  Fe  Fe69  1  0.87296334  0.87303676  0.12360338  1
  Fe  Fe70  1  0.74950391  0.24847899  0.25073769  1
  Fe  Fe71  1  0.61921289  0.87787736  0.63053515  1
  Fe  Fe72  1  -0.00093840  0.75088151  -0.00315577  1
  Fe  Fe73  1  0.75125883  0.74943897  0.24903379  1
  Fe  Fe74  1  0.37630403  0.37454471  0.87649374  1
  Fe  Fe75  1  0.00098595  0.25094119  0.00082902  1
  Fe  Fe76  1  0.87051898  0.87320408  0.87263929  1
  Fe  Fe77  1  0.74786132  0.25061457  -0.00156433  1
  Fe  Fe78  1  0.49915607  0.50185864  0.49921359  1
  Fe  Fe79  1  0.12481128  0.12257377  0.37739151  1
  Fe  Fe80  1  0.62640259  0.38063715  0.87349331  1
  Fe  Fe81  1  0.12616107  0.87421753  0.12305900  1
  Fe  Fe82  1  0.37464683  0.12526884  0.62443008  1
  Fe  Fe83  1  0.62487985  0.12213820  0.87387814  1
  Fe  Fe84  1  0.50028968  0.25068786  0.75206800  1
  Fe  Fe85  1  0.24795084  0.24995829  0.74886671  1
  Fe  Fe86  1  0.37529288  0.12794095  0.87773465  1
  Fe  Fe87  1  0.37748536  0.12422159  0.37512510  1
  Fe  Fe88  1  0.75049985  0.00044673  0.25101542  1
  Fe  Fe89  1  0.25289295  -0.00264788  0.25078863  1
  Co  Co90  1  0.62964530  0.87515514  0.12583264  1
  Co  Co91  1  0.87335311  0.37096368  0.62568669  1
  Co  Co92  1  0.75394614  0.50039850  0.74643702  1
  Co  Co93  1  -0.00294450  0.49964466  0.74880612  1
  Co  Co94  1  0.49868643  0.49901850  0.24934525  1
  Co  Co95  1  -0.00239486  0.49978443  0.24802755  1
  Co  Co96  1  0.24843785  0.24860979  0.49966710  1
  Co  Co97  1  0.12585688  0.12800380  0.87590443  1
  Co  Co98  1  -0.00112901  -0.00357641  0.49947161  1
  Co  Co99  1  0.50222166  0.74844706  0.50220821  1
  Co  Co100  1  0.12827054  0.37850626  0.62568487  1
  Co  Co101  1  0.37102453  0.87647158  0.12034501  1
  Co  Co102  1  0.37402935  0.62307871  0.12369901  1
  Co  Co103  1  0.12610054  0.11986248  0.62409957  1
  Co  Co104  1  0.49488949  0.00203966  0.75343153  1
  Co  Co105  1  0.87289671  0.37148428  0.12499826  1
  Co  Co106  1  0.74683236  0.74939475  0.74727247  1
  Co  Co107  1  0.50086885  0.74875487  0.75317427  1
  Co  Co108  1  0.50457894  0.75035396  0.00162069  1
  Co  Co109  1  0.12559933  0.37766367  0.12447445  1
  Co  Co110  1  0.37894733  0.87152027  0.37548023  1
  Co  Co111  1  0.87637536  0.63000584  0.62603535  1
  Co  Co112  1  0.49871304  -0.00189172  0.24590360  1
  Co  Co113  1  0.37734158  0.87273964  0.62649245  1
  Co  Co114  1  0.74438444  0.74827938  -0.00273868  1
  Co  Co115  1  0.62540931  0.87587479  0.87060990  1
  Co  Co116  1  0.75166501  0.00148415  0.74932505  1
  Co  Co117  1  0.75217680  0.50294414  0.00243648  1
  Co  Co118  1  0.49849074  -0.00042890  0.50101760  1
  Co  Co119  1  0.62643130  0.62224687  0.87110651  1
  Co  Co120  1  0.49578727  0.49900971  0.75018519  1
  Co  Co121  1  0.87498547  0.12665282  0.87526874  1
  Co  Co122  1  0.00057880  0.75120133  0.75218631  1
  Co  Co123  1  0.87618280  0.63021978  0.12409731  1
  Co  Co124  1  0.12762058  0.87216996  0.87528793  1
  Co  Co125  1  0.25003409  0.75045670  0.24887702  1
  Co  Co126  1  0.62630335  0.62532898  0.12759859  1
  Co  Co127  1  0.50368535  0.25146262  -0.00032982  1
