# generated using pymatgen
data_Fe45Co19
_symmetry_space_group_name_H-M   'P 1'
_cell_length_a   11.41509144
_cell_length_b   11.41625400
_cell_length_c   11.41523587
_cell_angle_alpha   89.99558870
_cell_angle_beta   89.99642397
_cell_angle_gamma   90.00290304
_symmetry_Int_Tables_number   1
_chemical_formula_structural   Fe45Co19
_chemical_formula_sum   'Fe90 Co38'
_cell_volume   1487.60594137
_cell_formula_units_Z   2
loop_
 _symmetry_equiv_pos_site_id
 _symmetry_equiv_pos_as_xyz
  1  'x, y, z'
loop_
 _atom_site_type_symbol
 _atom_site_label
 _atom_site_symmetry_multiplicity
 _atom_site_fract_x
 _atom_site_fract_y
 _atom_site_fract_z
 _atom_site_occupancy
  Fe  Fe0  1  0.50151713  0.24872869  0.50468016  1
  Fe  Fe1  1  0.25558746  0.74839145  -0.00309817  1
  Fe  Fe2  1  0.12894263  0.37276163  0.12409989  1
  Fe  Fe3  1  0.74815035  0.25294282  -0.00365030  1
  Fe  Fe4  1  0.25176916  0.00121154  -0.00249670  1
  Fe  Fe5  1  0.87135510  0.62496956  0.62507592  1
  Fe  Fe6  1  0.12402729  0.87497669  0.37425565  1
  Fe  Fe7  1  0.62221903  0.87455434  0.12406452  1
  Fe  Fe8  1  0.62473001  0.37559097  0.37581205  1
  Fe  Fe9  1  0.12457471  0.12602864  0.87423279  1
  Fe  Fe10  1  0.00036453  0.00079327  0.24781498  1
  Fe  Fe11  1  0.87376608  0.12598551  0.12278664  1
  Fe  Fe12  1  0.12862764  0.62618607  0.62696862  1
  Fe  Fe13  1  0.87565793  0.37752391  0.37506872  1
  Fe  Fe14  1  0.00046489  -0.00029145  0.50272489  1
  Fe  Fe15  1  0.25198128  0.74958501  0.25131896  1
  Fe  Fe16  1  0.87329065  0.62179328  0.12121963  1
  Fe  Fe17  1  0.24675662  0.24993394  0.50222885  1
  Fe  Fe18  1  0.37773690  0.87726943  0.12235305  1
  Fe  Fe19  1  0.25254451  0.00214515  0.25200051  1
  Fe  Fe20  1  0.49961826  0.24996865  -0.00082490  1
  Fe  Fe21  1  0.74861040  0.25434371  0.74999628  1
  Fe  Fe22  1  -0.00122935  -0.00102369  -0.00217165  1
  Fe  Fe23  1  0.37550202  0.12497417  0.87142061  1
  Fe  Fe24  1  0.49982449  -0.00159189  0.74812065  1
  Fe  Fe25  1  0.50332741  0.50377889  0.74306145  1
  Fe  Fe26  1  0.37501178  0.62325845  0.12562645  1
  Fe  Fe27  1  0.37591989  0.87435727  0.37625357  1
  Fe  Fe28  1  0.74879905  -0.00072748  0.25081937  1
  Fe  Fe29  1  0.74914406  0.24981464  0.50146453  1
  Fe  Fe30  1  0.62622858  0.87098728  0.62376084  1
  Fe  Fe31  1  0.37411663  0.37491131  0.37702450  1
  Fe  Fe32  1  0.62387370  0.87361965  0.37584057  1
  Fe  Fe33  1  0.61878713  0.87096218  0.87648349  1
  Fe  Fe34  1  0.49905772  0.74871588  0.24879167  1
  Fe  Fe35  1  0.00184363  0.25216408  0.25095506  1
  Fe  Fe36  1  0.24981183  0.25367412  0.74852981  1
  Fe  Fe37  1  0.87234736  0.37691809  0.12355314  1
  Fe  Fe38  1  0.74950437  -0.00201270  0.75212519  1
  Fe  Fe39  1  0.12647929  0.87158932  0.62647790  1
  Fe  Fe40  1  0.00278407  0.25059006  0.50085326  1
  Fe  Fe41  1  0.00005752  0.50287240  0.75268574  1
  Fe  Fe42  1  0.24982816  0.49916079  0.25040313  1
  Fe  Fe43  1  0.74934856  0.74958940  -0.00230982  1
  Fe  Fe44  1  0.50142781  0.25000042  0.74488076  1
  Fe  Fe45  1  0.37926277  0.37891775  0.87256059  1
  Fe  Fe46  1  0.00138797  0.50072394  0.50138753  1
  Fe  Fe47  1  0.00083185  0.49978233  0.24783733  1
  Fe  Fe48  1  0.74927738  0.50087787  0.50054037  1
  Fe  Fe49  1  0.25509084  0.74660379  0.75526070  1
  Fe  Fe50  1  0.74976977  0.25144482  0.25116573  1
  Fe  Fe51  1  0.24992421  -0.00133950  0.75035530  1
  Fe  Fe52  1  0.24957313  0.50023126  -0.00401086  1
  Fe  Fe53  1  -0.00057755  0.25069152  0.74969819  1
  Fe  Fe54  1  0.49928652  0.00180247  0.50217908  1
  Fe  Fe55  1  0.49700419  0.74587536  0.50262414  1
  Fe  Fe56  1  0.37376723  0.37424261  0.12426421  1
  Fe  Fe57  1  0.12604060  0.62429174  0.37468695  1
  Fe  Fe58  1  -0.00259393  0.74781061  0.75369971  1
  Fe  Fe59  1  0.50270270  0.49954387  0.24883912  1
  Fe  Fe60  1  0.74451691  0.49774267  -0.00423515  1
  Fe  Fe61  1  0.50499086  0.50162379  0.00421567  1
  Fe  Fe62  1  0.62555799  0.62525642  0.37476960  1
  Fe  Fe63  1  0.37474003  0.12599523  0.12517162  1
  Fe  Fe64  1  0.49929576  0.50262499  0.50256267  1
  Fe  Fe65  1  0.37264589  0.87297808  0.62485845  1
  Fe  Fe66  1  -0.00263651  0.74812356  0.24984837  1
  Fe  Fe67  1  0.87369737  0.12486104  0.62763949  1
  Fe  Fe68  1  0.12644038  0.87311183  0.12354690  1
  Fe  Fe69  1  0.12384715  0.37574875  0.87414362  1
  Fe  Fe70  1  0.62470384  0.12582631  0.87265035  1
  Fe  Fe71  1  0.87688753  0.12445513  0.37462813  1
  Fe  Fe72  1  0.62367714  0.12537053  0.12547003  1
  Fe  Fe73  1  0.75333501  0.74915429  0.25357528  1
  Fe  Fe74  1  -0.00139520  0.74932448  0.49878403  1
  Fe  Fe75  1  0.25031467  0.50046939  0.50231822  1
  Fe  Fe76  1  0.87314965  0.87254139  0.62549099  1
  Fe  Fe77  1  0.75085036  -0.00107436  0.49957732  1
  Fe  Fe78  1  0.12791063  0.12762118  0.12395798  1
  Fe  Fe79  1  0.62312181  0.12421972  0.37484661  1
  Fe  Fe80  1  0.87417567  0.87550539  0.12407177  1
  Fe  Fe81  1  0.74916994  0.74613011  0.75332138  1
  Fe  Fe82  1  0.12470756  0.87166314  0.87666229  1
  Fe  Fe83  1  -0.00116979  0.25179297  -0.00136627  1
  Fe  Fe84  1  0.49879834  0.25085516  0.25031327  1
  Fe  Fe85  1  0.74895073  0.00020915  -0.00258793  1
  Fe  Fe86  1  0.12502952  0.62693705  0.12078829  1
  Fe  Fe87  1  -0.00162197  -0.00128059  0.75182963  1
  Fe  Fe88  1  0.87445267  0.37731486  0.62673651  1
  Fe  Fe89  1  0.24892272  0.00143995  0.50049362  1
  Co  Co90  1  0.87405396  0.87356299  0.87478833  1
  Co  Co91  1  0.37638670  0.12716402  0.37798378  1
  Co  Co92  1  0.74818792  0.49912257  0.25077825  1
  Co  Co93  1  0.50070130  0.00371002  -0.00137875  1
  Co  Co94  1  0.37467996  0.37546999  0.62474807  1
  Co  Co95  1  0.62909764  0.62841174  0.62284972  1
  Co  Co96  1  0.74802107  0.50126580  0.75271306  1
  Co  Co97  1  0.61949785  0.37597826  0.87182588  1
  Co  Co98  1  0.87367610  0.12653112  0.87430978  1
  Co  Co99  1  0.37913180  0.87633792  0.87647876  1
  Co  Co100  1  0.12393813  0.37768559  0.62670400  1
  Co  Co101  1  0.49671998  0.74629118  0.00241000  1
  Co  Co102  1  0.37037042  0.62485274  0.62624222  1
  Co  Co103  1  0.62759648  0.12275163  0.62647378  1
  Co  Co104  1  0.25286719  0.25166679  -0.00517780  1
  Co  Co105  1  0.87482017  0.62198175  0.87973825  1
  Co  Co106  1  0.62558758  0.37204290  0.12614678  1
  Co  Co107  1  0.75338603  0.74998964  0.49571469  1
  Co  Co108  1  0.00379086  0.49695853  0.00033949  1
  Co  Co109  1  0.87588936  0.62040675  0.37525393  1
  Co  Co110  1  0.12450945  0.12399323  0.62770760  1
  Co  Co111  1  -0.00298489  0.75209026  0.00015448  1
  Co  Co112  1  0.62022008  0.62637304  0.87427481  1
  Co  Co113  1  0.62671989  0.37699810  0.62383932  1
  Co  Co114  1  0.38154407  0.61964785  0.87459387  1
  Co  Co115  1  0.37260490  0.12534660  0.62629785  1
  Co  Co116  1  0.62870382  0.62782784  0.12639268  1
  Co  Co117  1  0.87609415  0.37783941  0.87412800  1
  Co  Co118  1  0.25052994  0.74871102  0.49742098  1
  Co  Co119  1  0.24790198  0.50056161  0.75323383  1
  Co  Co120  1  0.12391374  0.12400178  0.37450183  1
  Co  Co121  1  0.49706923  0.74901671  0.74647028  1
  Co  Co122  1  0.12632652  0.37742348  0.37566994  1
  Co  Co123  1  0.87805381  0.87793713  0.37474205  1
  Co  Co124  1  0.25086603  0.24959284  0.25276596  1
  Co  Co125  1  0.37519054  0.62288272  0.37340712  1
  Co  Co126  1  0.49895061  -0.00004455  0.25077182  1
  Co  Co127  1  0.12348303  0.62760152  0.87823222  1
