# generated using pymatgen
data_Fe45Co19
_symmetry_space_group_name_H-M   'P 1'
_cell_length_a   11.41538184
_cell_length_b   11.41460366
_cell_length_c   11.41576668
_cell_angle_alpha   90.00462715
_cell_angle_beta   90.00262100
_cell_angle_gamma   89.99122801
_symmetry_Int_Tables_number   1
_chemical_formula_structural   Fe45Co19
_chemical_formula_sum   'Fe90 Co38'
_cell_volume   1487.49788366
_cell_formula_units_Z   2
loop_
 _symmetry_equiv_pos_site_id
 _symmetry_equiv_pos_as_xyz
  1  'x, y, z'
loop_
 _atom_site_type_symbol
 _atom_site_label
 _atom_site_symmetry_multiplicity
 _atom_site_fract_x
 _atom_site_fract_y
 _atom_site_fract_z
 _atom_site_occupancy
  Fe  Fe0  1  0.24807793  0.25048142  0.49518206  1
  Fe  Fe1  1  0.87423418  0.62636071  0.62419769  1
  Fe  Fe2  1  0.87915889  0.62364527  0.87815746  1
  Fe  Fe3  1  0.00376752  0.75034606  0.50429645  1
  Fe  Fe4  1  0.49918255  0.75040993  0.74744174  1
  Fe  Fe5  1  0.37292282  0.62374798  0.62216099  1
  Fe  Fe6  1  0.37797172  0.62440755  0.87527866  1
  Fe  Fe7  1  0.75013805  0.24915912  -0.00000805  1
  Fe  Fe8  1  0.25023372  0.50256071  0.25655397  1
  Fe  Fe9  1  0.62460128  0.87607285  0.87597335  1
  Fe  Fe10  1  0.87461099  0.12287625  0.62161022  1
  Fe  Fe11  1  0.50098504  0.25008014  0.50040762  1
  Fe  Fe12  1  0.12530458  0.12513045  0.62407205  1
  Fe  Fe13  1  0.49806207  0.75270140  0.49894777  1
  Fe  Fe14  1  0.24938480  0.00145324  -0.00063276  1
  Fe  Fe15  1  0.37081032  0.87295318  0.12677834  1
  Fe  Fe16  1  0.62617841  0.62633811  0.12698671  1
  Fe  Fe17  1  0.49894815  0.49675654  0.00484998  1
  Fe  Fe18  1  0.49786512  0.49685059  0.24728434  1
  Fe  Fe19  1  0.24979678  0.00167277  0.75101630  1
  Fe  Fe20  1  0.87356822  0.37592952  0.62410827  1
  Fe  Fe21  1  0.00220917  0.74997891  0.74667514  1
  Fe  Fe22  1  0.50055324  -0.00094662  0.00430649  1
  Fe  Fe23  1  0.37807478  0.12410841  0.37375390  1
  Fe  Fe24  1  0.87128521  0.37351747  0.12874750  1
  Fe  Fe25  1  0.37009289  0.13059786  0.12441442  1
  Fe  Fe26  1  0.75281926  0.24872252  0.49398867  1
  Fe  Fe27  1  0.75001552  0.75084856  0.49614020  1
  Fe  Fe28  1  0.62466796  0.37553609  0.87638076  1
  Fe  Fe29  1  0.13027181  0.87069368  0.12412160  1
  Fe  Fe30  1  0.62227229  0.62457290  0.87561887  1
  Fe  Fe31  1  0.50141085  0.25128896  0.74937617  1
  Fe  Fe32  1  0.36824990  0.87594351  0.62057796  1
  Fe  Fe33  1  0.62123200  0.87985010  0.37200416  1
  Fe  Fe34  1  0.50107090  0.49804125  0.50121254  1
  Fe  Fe35  1  0.37292661  0.12635306  0.62352527  1
  Fe  Fe36  1  0.74973061  0.50122439  0.49905079  1
  Fe  Fe37  1  0.11986724  0.37957990  0.37533311  1
  Fe  Fe38  1  0.87305321  0.87384105  0.12493163  1
  Fe  Fe39  1  0.00285891  0.74782078  0.24540752  1
  Fe  Fe40  1  0.62736925  0.12581137  0.62413181  1
  Fe  Fe41  1  0.75100547  0.74963328  0.25276132  1
  Fe  Fe42  1  0.50267651  0.49835782  0.74649485  1
  Fe  Fe43  1  0.12007595  0.62324454  0.87916276  1
  Fe  Fe44  1  0.62764686  0.12573197  0.12493803  1
  Fe  Fe45  1  0.24880798  0.50003190  0.75190043  1
  Fe  Fe46  1  0.62557816  0.37452881  0.37320931  1
  Fe  Fe47  1  0.88114463  0.62330366  0.37381853  1
  Fe  Fe48  1  0.37700166  0.12726814  0.87745264  1
  Fe  Fe49  1  0.11832633  0.12186490  0.37459695  1
  Fe  Fe50  1  0.87962160  0.87813809  0.37595134  1
  Fe  Fe51  1  0.13033708  0.37357718  0.12820808  1
  Fe  Fe52  1  0.62273937  0.12231471  0.37320228  1
  Fe  Fe53  1  0.12534998  0.37827599  0.62432567  1
  Fe  Fe54  1  0.24955688  0.00094247  0.25208131  1
  Fe  Fe55  1  0.62779532  0.87357465  0.62376653  1
  Fe  Fe56  1  0.37562401  0.87578431  0.87535968  1
  Fe  Fe57  1  0.87784149  0.37767565  0.87483214  1
  Fe  Fe58  1  0.75114644  -0.00068038  0.74920785  1
  Fe  Fe59  1  0.87668302  0.12332324  0.87731886  1
  Fe  Fe60  1  0.62405701  0.12392545  0.87679637  1
  Fe  Fe61  1  0.87593539  0.87497126  0.87566900  1
  Fe  Fe62  1  0.37216224  0.37466799  0.62237405  1
  Fe  Fe63  1  0.12411167  0.12707618  0.12715242  1
  Fe  Fe64  1  0.49706681  0.75191350  0.25014203  1
  Fe  Fe65  1  0.74820214  0.50173937  0.74808625  1
  Fe  Fe66  1  0.00238508  0.25350916  0.00054738  1
  Fe  Fe67  1  0.75121679  0.50179232  0.25175298  1
  Fe  Fe68  1  0.49931559  -0.00025847  0.74639817  1
  Fe  Fe69  1  0.12592588  0.87500366  0.37690005  1
  Fe  Fe70  1  0.49994506  0.75085783  0.00263210  1
  Fe  Fe71  1  -0.00273913  0.25132600  0.49853991  1
  Fe  Fe72  1  0.24840803  0.74718633  0.75203651  1
  Fe  Fe73  1  -0.00062388  0.25152371  0.74921979  1
  Fe  Fe74  1  0.75090434  0.50128553  0.00139696  1
  Fe  Fe75  1  0.62151364  0.62466872  0.37457932  1
  Fe  Fe76  1  0.75085591  0.25021058  0.75090676  1
  Fe  Fe77  1  0.12213656  0.12461124  0.87453320  1
  Fe  Fe78  1  0.74946572  0.75019356  -0.00000889  1
  Fe  Fe79  1  0.37547631  0.37225071  0.87737148  1
  Fe  Fe80  1  -0.00009623  -0.00242052  0.74516888  1
  Fe  Fe81  1  -0.00360560  0.25103640  0.25179023  1
  Fe  Fe82  1  0.24818556  0.25100815  0.75274679  1
  Fe  Fe83  1  0.74953857  0.74791993  0.75136132  1
  Fe  Fe84  1  0.00006565  -0.00186893  0.00340834  1
  Fe  Fe85  1  0.75353746  0.00233079  0.24939823  1
  Fe  Fe86  1  0.49984898  0.25343333  0.24546725  1
  Fe  Fe87  1  0.37047607  0.62617198  0.12642211  1
  Fe  Fe88  1  0.12400846  0.87432270  0.87566896  1
  Fe  Fe89  1  0.24885881  0.49886363  -0.00150393  1
  Co  Co90  1  0.62500554  0.62783230  0.62234409  1
  Co  Co91  1  0.13241594  0.87452309  0.62381452  1
  Co  Co92  1  0.50030713  0.00045211  0.50386789  1
  Co  Co93  1  0.00132721  -0.00417972  0.24514583  1
  Co  Co94  1  0.25183586  0.74887359  -0.00523003  1
  Co  Co95  1  0.24964204  0.74481751  0.49426040  1
  Co  Co96  1  0.62799486  0.37251894  0.62305127  1
  Co  Co97  1  -0.00165152  0.50047830  0.50338265  1
  Co  Co98  1  0.00061091  0.50191631  0.24255678  1
  Co  Co99  1  0.75261095  0.24585637  0.25434923  1
  Co  Co100  1  0.12822381  0.62170483  0.62399608  1
  Co  Co101  1  0.87833126  0.12683196  0.12442960  1
  Co  Co102  1  0.00169280  -0.00345587  0.50552713  1
  Co  Co103  1  0.11786002  0.62328580  0.37495788  1
  Co  Co104  1  0.75080339  -0.00043245  0.00265874  1
  Co  Co105  1  0.49692338  0.00144835  0.24376405  1
  Co  Co106  1  -0.00073113  0.75031680  0.00434054  1
  Co  Co107  1  0.87186661  0.62644255  0.12572473  1
  Co  Co108  1  0.25083959  0.74754249  0.25783606  1
  Co  Co109  1  0.37513052  0.87941314  0.37582914  1
  Co  Co110  1  0.74930685  -0.00098369  0.49772269  1
  Co  Co111  1  0.24500808  0.24968198  -0.00483209  1
  Co  Co112  1  -0.00118422  0.50151210  0.74733823  1
  Co  Co113  1  0.63089042  0.37590912  0.12722228  1
  Co  Co114  1  0.24999120  0.50119715  0.49388255  1
  Co  Co115  1  0.87229794  0.87305354  0.62433301  1
  Co  Co116  1  0.13134515  0.62700628  0.12395333  1
  Co  Co117  1  0.12153813  0.37784150  0.87277957  1
  Co  Co118  1  0.62769806  0.87335792  0.12848071  1
  Co  Co119  1  0.00050159  0.49764348  0.00832544  1
  Co  Co120  1  0.24889432  0.00488757  0.49584623  1
  Co  Co121  1  0.37769667  0.37367288  0.37508021  1
  Co  Co122  1  0.88075066  0.11886841  0.37532546  1
  Co  Co123  1  0.87582405  0.37957437  0.37305913  1
  Co  Co124  1  0.38027856  0.62363515  0.37591346  1
  Co  Co125  1  0.24834384  0.24861982  0.25851532  1
  Co  Co126  1  0.50183637  0.25258768  0.00479498  1
  Co  Co127  1  0.36661072  0.37228740  0.12574869  1
