# generated using pymatgen
data_Fe45Co19
_symmetry_space_group_name_H-M   'P 1'
_cell_length_a   11.41507582
_cell_length_b   11.41358992
_cell_length_c   11.41601110
_cell_angle_alpha   89.98967211
_cell_angle_beta   89.98982274
_cell_angle_gamma   89.99419736
_symmetry_Int_Tables_number   1
_chemical_formula_structural   Fe45Co19
_chemical_formula_sum   'Fe90 Co38'
_cell_volume   1487.35771833
_cell_formula_units_Z   2
loop_
 _symmetry_equiv_pos_site_id
 _symmetry_equiv_pos_as_xyz
  1  'x, y, z'
loop_
 _atom_site_type_symbol
 _atom_site_label
 _atom_site_symmetry_multiplicity
 _atom_site_fract_x
 _atom_site_fract_y
 _atom_site_fract_z
 _atom_site_occupancy
  Fe  Fe0  1  0.37161239  0.37657432  0.12264160  1
  Fe  Fe1  1  0.62073455  0.12500719  0.37235611  1
  Fe  Fe2  1  0.62820325  0.62585910  0.62573728  1
  Fe  Fe3  1  0.37582695  0.87485617  0.87667585  1
  Fe  Fe4  1  0.87566615  0.62339779  0.37223995  1
  Fe  Fe5  1  0.50258504  0.75214163  0.50224982  1
  Fe  Fe6  1  0.12092220  0.63056568  0.87247102  1
  Fe  Fe7  1  0.49876207  0.75181983  0.74838420  1
  Fe  Fe8  1  -0.00026221  0.24868771  0.00183824  1
  Fe  Fe9  1  0.37750105  0.87514565  0.37501956  1
  Fe  Fe10  1  0.75046130  0.75101799  0.00034988  1
  Fe  Fe11  1  0.74987104  0.00094328  0.25229655  1
  Fe  Fe12  1  0.12535608  0.12494279  0.12905633  1
  Fe  Fe13  1  0.62468163  0.62629303  0.87479111  1
  Fe  Fe14  1  0.74940111  0.24511732  0.49848684  1
  Fe  Fe15  1  0.00200444  0.50121328  0.00234119  1
  Fe  Fe16  1  0.87296493  0.37385811  0.62241214  1
  Fe  Fe17  1  0.50283160  -0.00104659  0.50240086  1
  Fe  Fe18  1  0.37271037  0.87486835  0.62348423  1
  Fe  Fe19  1  0.62285059  0.87525549  0.87370166  1
  Fe  Fe20  1  -0.00308475  0.24769856  0.25022772  1
  Fe  Fe21  1  0.37781896  0.37233926  0.38009856  1
  Fe  Fe22  1  0.62394303  0.62645879  0.37368661  1
  Fe  Fe23  1  0.12338480  0.37416798  0.37456396  1
  Fe  Fe24  1  0.50031655  -0.00011712  0.00080976  1
  Fe  Fe25  1  0.87801746  0.62692605  0.87438970  1
  Fe  Fe26  1  0.49921882  0.25191950  0.74521778  1
  Fe  Fe27  1  0.50173512  0.75381122  0.24760128  1
  Fe  Fe28  1  0.87713308  0.37401422  0.87695013  1
  Fe  Fe29  1  0.37576385  0.62531037  0.87495085  1
  Fe  Fe30  1  0.50077442  0.49770059  0.24948156  1
  Fe  Fe31  1  0.12728003  0.37564303  0.12536439  1
  Fe  Fe32  1  0.62627700  0.37436960  0.87394479  1
  Fe  Fe33  1  0.24871635  0.74933516  -0.00120131  1
  Fe  Fe34  1  0.75253369  0.50087797  0.75004124  1
  Fe  Fe35  1  0.00139126  0.00061794  0.00307110  1
  Fe  Fe36  1  0.37153805  0.12617843  0.62408165  1
  Fe  Fe37  1  0.87227609  0.87978243  0.62115966  1
  Fe  Fe38  1  0.12404968  0.87425618  0.37415088  1
  Fe  Fe39  1  0.25101842  -0.00071009  0.25164178  1
  Fe  Fe40  1  0.12437641  0.62718097  0.13072332  1
  Fe  Fe41  1  0.74936914  0.50053997  0.49840003  1
  Fe  Fe42  1  -0.00244280  0.74926911  0.50005923  1
  Fe  Fe43  1  0.00184112  0.24486382  0.50144987  1
  Fe  Fe44  1  0.75358217  0.75229629  0.74876852  1
  Fe  Fe45  1  0.62925980  0.11978166  0.62893204  1
  Fe  Fe46  1  0.24752530  -0.00446858  0.75070885  1
  Fe  Fe47  1  0.24813950  0.24870050  -0.00176830  1
  Fe  Fe48  1  0.12511916  0.87294246  0.12774438  1
  Fe  Fe49  1  0.62409872  0.37195446  0.37496338  1
  Fe  Fe50  1  0.62666594  0.62660516  0.12553620  1
  Fe  Fe51  1  0.25254135  0.24983825  0.25263518  1
  Fe  Fe52  1  0.37395735  0.62422581  0.62503732  1
  Fe  Fe53  1  0.37359826  0.37699649  0.87707019  1
  Fe  Fe54  1  0.25083288  0.74693257  0.49600856  1
  Fe  Fe55  1  0.24787370  0.49973144  0.75167479  1
  Fe  Fe56  1  0.62622508  0.12549195  0.12612877  1
  Fe  Fe57  1  0.62315875  0.12405120  0.87240114  1
  Fe  Fe58  1  0.00429639  0.00425428  0.50012096  1
  Fe  Fe59  1  0.87420467  0.62477742  0.12889366  1
  Fe  Fe60  1  0.37454862  0.62595436  0.12628358  1
  Fe  Fe61  1  0.50223126  0.49734306  0.50433394  1
  Fe  Fe62  1  0.75091340  0.00264775  -0.00375546  1
  Fe  Fe63  1  0.12595531  0.37374725  0.62400698  1
  Fe  Fe64  1  0.00094798  -0.00254265  0.74644260  1
  Fe  Fe65  1  0.75471722  0.24674431  0.75211377  1
  Fe  Fe66  1  0.75050059  0.50020180  -0.00015369  1
  Fe  Fe67  1  0.24707413  0.00017284  -0.00196960  1
  Fe  Fe68  1  0.37401117  0.87499462  0.12377831  1
  Fe  Fe69  1  0.24741670  0.00258754  0.49847358  1
  Fe  Fe70  1  0.37554393  0.12491981  0.87387575  1
  Fe  Fe71  1  0.87981660  0.87439063  0.87732454  1
  Fe  Fe72  1  0.12126788  0.12553873  0.87207536  1
  Fe  Fe73  1  0.87406933  0.87635918  0.12611660  1
  Fe  Fe74  1  0.50069844  0.49716647  0.74677202  1
  Fe  Fe75  1  0.37509621  0.12458580  0.12509733  1
  Fe  Fe76  1  0.24871151  0.25231984  0.75120769  1
  Fe  Fe77  1  0.37812616  0.12700194  0.37673815  1
  Fe  Fe78  1  0.12416273  0.62873883  0.62517487  1
  Fe  Fe79  1  0.50092307  0.50012232  0.00069446  1
  Fe  Fe80  1  0.24931751  0.50246290  0.49692350  1
  Fe  Fe81  1  0.25026033  0.50234634  0.25464703  1
  Fe  Fe82  1  -0.00074951  0.49933735  0.74791867  1
  Fe  Fe83  1  -0.00002883  0.50112405  0.50042383  1
  Fe  Fe84  1  0.87467173  0.37427270  0.37496530  1
  Fe  Fe85  1  0.74913008  0.75196935  0.49862927  1
  Fe  Fe86  1  0.50009155  0.25060201  0.00061642  1
  Fe  Fe87  1  0.62853972  0.37177461  0.12538689  1
  Fe  Fe88  1  0.87486709  0.87875897  0.37505385  1
  Fe  Fe89  1  0.87164777  0.37327720  0.12566087  1
  Co  Co90  1  0.75445440  -0.00209486  0.75553159  1
  Co  Co91  1  -0.00053432  0.49764110  0.24928900  1
  Co  Co92  1  0.62385675  0.87500916  0.37309816  1
  Co  Co93  1  0.37009253  0.37483691  0.62211226  1
  Co  Co94  1  0.87342179  0.62406127  0.62359830  1
  Co  Co95  1  0.74472646  0.00071122  0.49586354  1
  Co  Co96  1  -0.00040524  -0.00021782  0.24931305  1
  Co  Co97  1  0.12082438  0.87225134  0.87621930  1
  Co  Co98  1  0.50409610  0.24893527  0.50716181  1
  Co  Co99  1  0.49785315  0.25161421  0.24712284  1
  Co  Co100  1  0.87309704  0.12113119  0.62368709  1
  Co  Co101  1  0.62809839  0.87767789  0.12361638  1
  Co  Co102  1  -0.00219888  0.25177560  0.74643886  1
  Co  Co103  1  -0.00321631  0.75385419  0.74397032  1
  Co  Co104  1  0.49869756  -0.00129087  0.24825611  1
  Co  Co105  1  0.62777441  0.87684537  0.62852759  1
  Co  Co106  1  0.88183228  0.12439322  0.87468981  1
  Co  Co107  1  0.24647429  0.50514148  -0.00120482  1
  Co  Co108  1  0.87661821  0.12182046  0.37639262  1
  Co  Co109  1  0.49583633  -0.00104535  0.74777561  1
  Co  Co110  1  0.12737581  0.12590892  0.62895446  1
  Co  Co111  1  0.75081718  0.75154743  0.25118636  1
  Co  Co112  1  0.24578632  0.24812917  0.49759675  1
  Co  Co113  1  0.25049463  0.75332505  0.75069710  1
  Co  Co114  1  0.12492537  0.12501266  0.36988528  1
  Co  Co115  1  -0.00068426  0.74879820  0.00494625  1
  Co  Co116  1  0.50057503  0.75081467  0.00110577  1
  Co  Co117  1  0.87294062  0.12403500  0.12502905  1
  Co  Co118  1  0.74885714  0.49860527  0.25150916  1
  Co  Co119  1  0.75041743  0.24666786  -0.00360521  1
  Co  Co120  1  0.25129344  0.74941203  0.25423006  1
  Co  Co121  1  0.12645758  0.87241534  0.62019632  1
  Co  Co122  1  0.75169072  0.24772838  0.25330146  1
  Co  Co123  1  -0.00306968  0.75234102  0.25178880  1
  Co  Co124  1  0.38201153  0.62506082  0.37536941  1
  Co  Co125  1  0.12278459  0.37434892  0.87663499  1
  Co  Co126  1  0.11999581  0.62617992  0.37382633  1
  Co  Co127  1  0.63244246  0.37463498  0.62637723  1
