# generated using pymatgen
data_Fe45Co19
_symmetry_space_group_name_H-M   'P 1'
_cell_length_a   11.41568284
_cell_length_b   11.41537129
_cell_length_c   11.41383104
_cell_angle_alpha   89.98980200
_cell_angle_beta   90.01178962
_cell_angle_gamma   90.00485256
_symmetry_Int_Tables_number   1
_chemical_formula_structural   Fe45Co19
_chemical_formula_sum   'Fe90 Co38'
_cell_volume   1487.38486423
_cell_formula_units_Z   2
loop_
 _symmetry_equiv_pos_site_id
 _symmetry_equiv_pos_as_xyz
  1  'x, y, z'
loop_
 _atom_site_type_symbol
 _atom_site_label
 _atom_site_symmetry_multiplicity
 _atom_site_fract_x
 _atom_site_fract_y
 _atom_site_fract_z
 _atom_site_occupancy
  Fe  Fe0  1  0.87341648  0.36867681  0.62973167  1
  Fe  Fe1  1  0.75232073  -0.00041025  0.25320507  1
  Fe  Fe2  1  0.75090305  0.75255870  0.25109192  1
  Fe  Fe3  1  0.62701143  0.88036656  0.12039364  1
  Fe  Fe4  1  0.62576321  0.87536995  0.37993482  1
  Fe  Fe5  1  0.37494844  0.37710813  0.87667099  1
  Fe  Fe6  1  -0.00073070  0.49767714  0.50298155  1
  Fe  Fe7  1  0.87369023  0.62513134  0.12386496  1
  Fe  Fe8  1  0.25332756  -0.00159636  0.00044125  1
  Fe  Fe9  1  0.37429728  0.62694231  0.37589306  1
  Fe  Fe10  1  0.87683696  0.62555066  0.62908851  1
  Fe  Fe11  1  0.62338319  0.12465447  0.37431266  1
  Fe  Fe12  1  0.12265531  0.62520123  0.87160000  1
  Fe  Fe13  1  0.37561609  0.87168576  0.37813203  1
  Fe  Fe14  1  0.87356933  0.87345114  0.87467166  1
  Fe  Fe15  1  0.37345741  0.62681627  0.62375898  1
  Fe  Fe16  1  0.37739553  0.87579866  0.87202953  1
  Fe  Fe17  1  0.75015070  0.24776624  0.50161505  1
  Fe  Fe18  1  0.74897261  0.75276661  0.74975866  1
  Fe  Fe19  1  0.12575520  0.37709797  0.12151537  1
  Fe  Fe20  1  -0.00032961  0.00660930  0.50219135  1
  Fe  Fe21  1  0.74653935  0.00028014  0.75040524  1
  Fe  Fe22  1  0.62166842  0.12009266  0.87855141  1
  Fe  Fe23  1  0.49986344  0.49847507  0.25034491  1
  Fe  Fe24  1  0.12413270  0.87526840  0.87586961  1
  Fe  Fe25  1  0.87424188  0.37398455  0.12228383  1
  Fe  Fe26  1  0.37473045  0.12189750  0.87085779  1
  Fe  Fe27  1  0.00045301  0.00057573  0.75000098  1
  Fe  Fe28  1  0.25085123  0.25021698  -0.00100447  1
  Fe  Fe29  1  -0.00016222  0.49866310  0.24949164  1
  Fe  Fe30  1  0.37484341  0.37499983  0.37641475  1
  Fe  Fe31  1  0.25100425  0.74879390  -0.00253006  1
  Fe  Fe32  1  0.62432187  0.37544440  0.87680456  1
  Fe  Fe33  1  0.62745473  0.62356932  0.12428268  1
  Fe  Fe34  1  0.12439681  0.87543717  0.62420563  1
  Fe  Fe35  1  0.49913204  0.50111106  0.00157394  1
  Fe  Fe36  1  0.49913263  0.24767618  0.00405356  1
  Fe  Fe37  1  -0.00119429  0.00273027  -0.00262147  1
  Fe  Fe38  1  -0.00006387  0.74871753  0.50193814  1
  Fe  Fe39  1  -0.00154664  0.74903833  -0.00100578  1
  Fe  Fe40  1  0.50067893  0.75222898  -0.00041722  1
  Fe  Fe41  1  0.24703685  0.75044192  0.25113459  1
  Fe  Fe42  1  0.12664615  0.12369352  0.12490668  1
  Fe  Fe43  1  0.87664840  0.87595384  0.12445312  1
  Fe  Fe44  1  0.87810535  0.12811060  0.37440969  1
  Fe  Fe45  1  0.25202217  0.00071664  0.50236032  1
  Fe  Fe46  1  0.62490969  0.37494760  0.37626656  1
  Fe  Fe47  1  0.12441105  0.62485001  0.12366637  1
  Fe  Fe48  1  0.62431134  0.37657751  0.62384084  1
  Fe  Fe49  1  0.12373941  0.87486960  0.12353541  1
  Fe  Fe50  1  0.00083022  0.00141042  0.25054823  1
  Fe  Fe51  1  0.12947369  0.12484933  0.86995450  1
  Fe  Fe52  1  0.87327002  0.87770334  0.62231840  1
  Fe  Fe53  1  0.49743231  -0.00070938  0.24797173  1
  Fe  Fe54  1  0.12262778  0.62534670  0.37626071  1
  Fe  Fe55  1  0.49697259  0.24839759  0.50213205  1
  Fe  Fe56  1  0.49921762  0.50077682  0.74977012  1
  Fe  Fe57  1  0.12195938  0.87548077  0.37637399  1
  Fe  Fe58  1  0.25200214  0.50016783  0.75082674  1
  Fe  Fe59  1  0.00216704  0.24993095  -0.00352016  1
  Fe  Fe60  1  0.24753118  0.50086214  0.50125346  1
  Fe  Fe61  1  0.24959774  0.49919587  0.24962153  1
  Fe  Fe62  1  0.50047419  0.25071565  0.24604590  1
  Fe  Fe63  1  0.62294679  0.12210800  0.62264945  1
  Fe  Fe64  1  0.75221212  0.50057366  0.49999377  1
  Fe  Fe65  1  0.74646634  0.24842307  0.00084632  1
  Fe  Fe66  1  0.62697021  0.62686615  0.87624778  1
  Fe  Fe67  1  0.49879146  0.25066779  0.74813545  1
  Fe  Fe68  1  0.62748769  0.62433063  0.62399701  1
  Fe  Fe69  1  0.25128174  0.24754036  0.50444076  1
  Fe  Fe70  1  0.12190713  0.37128628  0.37681067  1
  Fe  Fe71  1  0.87308248  0.12872190  0.87009320  1
  Fe  Fe72  1  0.24921841  0.75152797  0.74848838  1
  Fe  Fe73  1  0.24802830  0.25161600  0.24899014  1
  Fe  Fe74  1  0.62470308  0.87677037  0.61903908  1
  Fe  Fe75  1  0.37371328  0.12523026  0.37293601  1
  Fe  Fe76  1  0.50099454  0.50321515  0.49861070  1
  Fe  Fe77  1  0.87563760  0.62684949  0.37449240  1
  Fe  Fe78  1  0.75092219  0.49848352  0.75394296  1
  Fe  Fe79  1  -0.00214385  0.49567730  0.75365488  1
  Fe  Fe80  1  0.12587908  0.37294582  0.62786196  1
  Fe  Fe81  1  0.74812619  0.25037575  0.24814774  1
  Fe  Fe82  1  0.25017183  -0.00218898  0.24922479  1
  Fe  Fe83  1  0.50279798  0.75168097  0.74877680  1
  Fe  Fe84  1  0.87486266  0.12557049  0.12524882  1
  Fe  Fe85  1  0.87769792  0.37101583  0.37590066  1
  Fe  Fe86  1  0.50284029  0.75133488  0.25048822  1
  Fe  Fe87  1  0.74987736  0.49807697  0.25075849  1
  Fe  Fe88  1  -0.00325800  0.49873147  -0.00536037  1
  Fe  Fe89  1  0.37480770  0.62680573  0.12521855  1
  Co  Co90  1  0.12821323  0.12564713  0.63051178  1
  Co  Co91  1  0.75489551  0.00188649  -0.00253825  1
  Co  Co92  1  0.24684194  0.75009897  0.50141991  1
  Co  Co93  1  0.25562932  0.25361443  0.74859800  1
  Co  Co94  1  0.37716328  0.62641432  0.87347252  1
  Co  Co95  1  0.12283373  0.62417877  0.62911362  1
  Co  Co96  1  0.00084570  0.24647194  0.50502249  1
  Co  Co97  1  0.62570535  0.37698380  0.12382845  1
  Co  Co98  1  0.00058028  0.74979429  0.24932403  1
  Co  Co99  1  0.37775911  0.87346292  0.62416142  1
  Co  Co100  1  -0.00010091  0.75451361  0.74897491  1
  Co  Co101  1  0.74023136  0.24774561  0.74978823  1
  Co  Co102  1  0.75225221  0.00463559  0.49761617  1
  Co  Co103  1  0.24908832  -0.00551115  0.74793519  1
  Co  Co104  1  0.37242503  0.12566208  0.12713353  1
  Co  Co105  1  0.37333596  0.37566786  0.12356654  1
  Co  Co106  1  0.37341305  0.87102312  0.12518269  1
  Co  Co107  1  0.25116159  0.50407896  -0.00149172  1
  Co  Co108  1  0.37479264  0.12046916  0.63059732  1
  Co  Co109  1  0.00393144  0.25030797  0.75218858  1
  Co  Co110  1  0.87421350  0.62942333  0.87253650  1
  Co  Co111  1  0.75205401  0.49991845  -0.00399899  1
  Co  Co112  1  0.12947755  0.37590004  0.87459223  1
  Co  Co113  1  0.87855743  0.87452538  0.37821356  1
  Co  Co114  1  0.00233258  0.25024955  0.24642403  1
  Co  Co115  1  0.62737753  0.62460572  0.37396229  1
  Co  Co116  1  0.62494083  0.87736816  0.87958124  1
  Co  Co117  1  0.87346448  0.12708012  0.63063677  1
  Co  Co118  1  0.12619518  0.12596392  0.37462425  1
  Co  Co119  1  0.50174537  0.74651843  0.50045076  1
  Co  Co120  1  0.62575298  0.11956543  0.12486580  1
  Co  Co121  1  0.49356932  -0.00028542  0.00294666  1
  Co  Co122  1  0.50363750  -0.00269463  0.74865093  1
  Co  Co123  1  0.75058339  0.75102743  0.00071122  1
  Co  Co124  1  0.49619136  0.00200475  0.49865315  1
  Co  Co125  1  0.87044928  0.36791749  0.87354146  1
  Co  Co126  1  0.75163302  0.74755497  0.49983735  1
  Co  Co127  1  0.37652918  0.37926123  0.62321761  1
