# generated using pymatgen
data_Fe45Co19
_symmetry_space_group_name_H-M   'P 1'
_cell_length_a   11.41457830
_cell_length_b   11.41767534
_cell_length_c   11.41618546
_cell_angle_alpha   90.00264443
_cell_angle_beta   89.99593250
_cell_angle_gamma   89.99152911
_symmetry_Int_Tables_number   1
_chemical_formula_structural   Fe45Co19
_chemical_formula_sum   'Fe90 Co38'
_cell_volume   1487.84801708
_cell_formula_units_Z   2
loop_
 _symmetry_equiv_pos_site_id
 _symmetry_equiv_pos_as_xyz
  1  'x, y, z'
loop_
 _atom_site_type_symbol
 _atom_site_label
 _atom_site_symmetry_multiplicity
 _atom_site_fract_x
 _atom_site_fract_y
 _atom_site_fract_z
 _atom_site_occupancy
  Fe  Fe0  1  0.62562977  0.87269207  0.37300648  1
  Fe  Fe1  1  0.49990875  -0.00066519  0.75088478  1
  Fe  Fe2  1  0.49799616  -0.00148529  -0.00161678  1
  Fe  Fe3  1  0.37296587  0.12177564  0.12454110  1
  Fe  Fe4  1  0.49939935  0.50124564  0.75072147  1
  Fe  Fe5  1  0.75055218  -0.00096334  -0.00218426  1
  Fe  Fe6  1  0.62683870  0.12422727  0.62562266  1
  Fe  Fe7  1  0.87329020  0.12468589  0.62688616  1
  Fe  Fe8  1  0.74702087  0.25349815  -0.00044775  1
  Fe  Fe9  1  0.12631732  0.37688425  0.37334275  1
  Fe  Fe10  1  -0.00028077  0.49875937  0.49955670  1
  Fe  Fe11  1  0.49666494  0.50215378  0.25206041  1
  Fe  Fe12  1  0.62538346  0.62479042  0.12604450  1
  Fe  Fe13  1  0.74848168  0.25050967  0.24952643  1
  Fe  Fe14  1  0.50082812  0.00090701  0.25187845  1
  Fe  Fe15  1  0.24858823  -0.00306375  -0.00567297  1
  Fe  Fe16  1  0.25245471  0.49959714  0.49678389  1
  Fe  Fe17  1  0.49987750  0.74884764  0.74659786  1
  Fe  Fe18  1  0.37135239  0.12244065  0.62639905  1
  Fe  Fe19  1  0.12587603  0.37562166  0.87526317  1
  Fe  Fe20  1  0.87414930  0.62226611  0.12757575  1
  Fe  Fe21  1  0.49871024  0.25134346  0.74952070  1
  Fe  Fe22  1  0.49926975  0.00004745  0.49875480  1
  Fe  Fe23  1  0.74712152  0.49759291  -0.00114264  1
  Fe  Fe24  1  0.24851723  0.75111275  0.50142101  1
  Fe  Fe25  1  0.00448678  0.74699483  0.74619173  1
  Fe  Fe26  1  0.00320344  0.24974619  0.00273576  1
  Fe  Fe27  1  0.24697624  0.50233276  0.00295488  1
  Fe  Fe28  1  0.24885278  0.24919336  0.00001426  1
  Fe  Fe29  1  0.37130215  0.87615345  0.62715902  1
  Fe  Fe30  1  0.37390596  0.62618636  0.12438008  1
  Fe  Fe31  1  0.00230454  0.49873298  0.74748320  1
  Fe  Fe32  1  0.25121529  0.24975959  0.49918452  1
  Fe  Fe33  1  0.37511231  0.37538898  0.87676563  1
  Fe  Fe34  1  0.12549142  0.62342469  0.37270090  1
  Fe  Fe35  1  0.37180623  0.62873690  0.87496747  1
  Fe  Fe36  1  0.00361589  -0.00006984  0.75120341  1
  Fe  Fe37  1  0.87390872  0.87592655  0.12529598  1
  Fe  Fe38  1  0.25232859  0.74995609  0.24939924  1
  Fe  Fe39  1  0.50041367  0.50214761  0.49932755  1
  Fe  Fe40  1  0.37471091  0.37584998  0.62324102  1
  Fe  Fe41  1  0.62471181  0.62697892  0.87401530  1
  Fe  Fe42  1  0.87296449  0.87508823  0.37472654  1
  Fe  Fe43  1  0.24921929  0.50016975  0.74877671  1
  Fe  Fe44  1  0.49720125  0.75195322  0.00271202  1
  Fe  Fe45  1  0.87438171  0.12448808  0.12486947  1
  Fe  Fe46  1  0.87571511  0.37484335  0.87355351  1
  Fe  Fe47  1  0.49829332  0.24725242  0.24985357  1
  Fe  Fe48  1  0.62722025  0.87485053  0.62694130  1
  Fe  Fe49  1  0.87491249  0.87585225  0.62677548  1
  Fe  Fe50  1  0.00187556  0.25055354  0.24831210  1
  Fe  Fe51  1  0.25094288  0.25148442  0.24998559  1
  Fe  Fe52  1  0.87413805  0.37699359  0.12659487  1
  Fe  Fe53  1  0.49952683  0.24843543  0.50093014  1
  Fe  Fe54  1  0.75045119  0.25156853  0.50110122  1
  Fe  Fe55  1  0.00318238  0.00170804  -0.00116324  1
  Fe  Fe56  1  0.00009413  0.25119463  0.50181240  1
  Fe  Fe57  1  -0.00030999  0.00006122  0.24933410  1
  Fe  Fe58  1  0.37663770  0.37483097  0.12383142  1
  Fe  Fe59  1  0.12944486  0.12366813  0.62638575  1
  Fe  Fe60  1  -0.00233866  0.74904651  0.25058525  1
  Fe  Fe61  1  0.62494973  0.12739536  0.87419668  1
  Fe  Fe62  1  0.87678481  0.62447026  0.87436883  1
  Fe  Fe63  1  0.62273853  0.37408174  0.37369618  1
  Fe  Fe64  1  0.00043820  0.74877429  0.50118740  1
  Fe  Fe65  1  0.37432751  0.62620985  0.62315158  1
  Fe  Fe66  1  0.12321177  0.87469634  0.37677781  1
  Fe  Fe67  1  0.00274474  0.74664948  0.00231735  1
  Fe  Fe68  1  0.74982419  0.00035736  0.49928259  1
  Fe  Fe69  1  0.75161232  0.74946995  0.00009341  1
  Fe  Fe70  1  0.37389434  0.12601434  0.87283982  1
  Fe  Fe71  1  0.00087092  0.00106078  0.50048426  1
  Fe  Fe72  1  0.24997398  -0.00118896  0.25343813  1
  Fe  Fe73  1  0.62769432  0.37860450  0.62735871  1
  Fe  Fe74  1  0.62259437  0.62908941  0.37435973  1
  Fe  Fe75  1  0.12528007  0.12493327  0.37454898  1
  Fe  Fe76  1  0.87377763  0.12460478  0.37403788  1
  Fe  Fe77  1  0.62493611  0.87254821  0.87367707  1
  Fe  Fe78  1  0.62517335  0.12513897  0.12392116  1
  Fe  Fe79  1  0.62584451  0.87424011  0.12676150  1
  Fe  Fe80  1  0.74993726  0.74784593  0.50107317  1
  Fe  Fe81  1  0.37767211  0.87256951  0.37561649  1
  Fe  Fe82  1  0.87417089  0.37728994  0.37444630  1
  Fe  Fe83  1  0.87181389  0.62100225  0.62436050  1
  Fe  Fe84  1  0.50151162  0.49957335  -0.00103720  1
  Fe  Fe85  1  0.00188243  0.25293488  0.74668344  1
  Fe  Fe86  1  0.12616833  0.87467202  0.12395274  1
  Fe  Fe87  1  0.87504622  0.12681432  0.87401294  1
  Fe  Fe88  1  0.87723491  0.87317823  0.87327747  1
  Fe  Fe89  1  0.00352039  0.50041360  0.00334364  1
  Co  Co90  1  0.62080178  0.37604642  0.12749525  1
  Co  Co91  1  0.37497284  0.12558018  0.37549826  1
  Co  Co92  1  0.62167542  0.37401415  0.87311018  1
  Co  Co93  1  0.12490975  0.12910287  0.87295425  1
  Co  Co94  1  0.49887941  0.24907571  -0.00019821  1
  Co  Co95  1  0.12626645  0.62136222  0.62135198  1
  Co  Co96  1  0.75012092  0.25121369  0.74998879  1
  Co  Co97  1  0.25098798  0.25417599  0.74988392  1
  Co  Co98  1  0.62642135  0.62286034  0.62656124  1
  Co  Co99  1  0.24731375  -0.00329401  0.75584777  1
  Co  Co100  1  0.74943727  0.00068057  0.24984407  1
  Co  Co101  1  0.50091451  0.75159265  0.50394194  1
  Co  Co102  1  0.12573721  0.62623655  0.12972630  1
  Co  Co103  1  0.37530819  0.62903885  0.37805682  1
  Co  Co104  1  0.37610894  0.86986302  0.87210783  1
  Co  Co105  1  0.87145315  0.37879894  0.62449425  1
  Co  Co106  1  0.24602545  0.74895366  0.74705359  1
  Co  Co107  1  0.25014120  0.75064855  0.00158884  1
  Co  Co108  1  0.37724870  0.37364894  0.37599350  1
  Co  Co109  1  0.12640449  0.37555040  0.12631186  1
  Co  Co110  1  0.12591612  0.87819583  0.62346658  1
  Co  Co111  1  0.49770048  0.74982895  0.24688798  1
  Co  Co112  1  0.74741683  0.50162861  0.49589411  1
  Co  Co113  1  0.25112779  -0.00062669  0.49658236  1
  Co  Co114  1  0.37366993  0.87816741  0.12541746  1
  Co  Co115  1  0.75029316  -0.00030382  0.75258037  1
  Co  Co116  1  0.12273477  0.86839089  0.87589239  1
  Co  Co117  1  0.25435844  0.49951739  0.25016966  1
  Co  Co118  1  0.12606940  0.62435730  0.87509152  1
  Co  Co119  1  0.74937682  0.50057170  0.75512442  1
  Co  Co120  1  0.75140911  0.74867364  0.75009582  1
  Co  Co121  1  0.12766873  0.12262708  0.12577263  1
  Co  Co122  1  0.87661865  0.62354355  0.37572774  1
  Co  Co123  1  0.74785672  0.50109771  0.25163747  1
  Co  Co124  1  0.12785933  0.37589145  0.62239017  1
  Co  Co125  1  0.00012219  0.49943600  0.24908029  1
  Co  Co126  1  0.75227042  0.74813029  0.24938330  1
  Co  Co127  1  0.62595985  0.12597535  0.37670296  1
