# generated using pymatgen
data_Fe45Co19
_symmetry_space_group_name_H-M   'P 1'
_cell_length_a   11.41465968
_cell_length_b   11.41512646
_cell_length_c   11.41640883
_cell_angle_alpha   90.00135963
_cell_angle_beta   89.99732902
_cell_angle_gamma   89.99702833
_symmetry_Int_Tables_number   1
_chemical_formula_structural   Fe45Co19
_chemical_formula_sum   'Fe90 Co38'
_cell_volume   1487.55559841
_cell_formula_units_Z   2
loop_
 _symmetry_equiv_pos_site_id
 _symmetry_equiv_pos_as_xyz
  1  'x, y, z'
loop_
 _atom_site_type_symbol
 _atom_site_label
 _atom_site_symmetry_multiplicity
 _atom_site_fract_x
 _atom_site_fract_y
 _atom_site_fract_z
 _atom_site_occupancy
  Fe  Fe0  1  0.62105175  0.87675547  0.87269593  1
  Fe  Fe1  1  0.37415619  0.12649154  0.37731804  1
  Fe  Fe2  1  0.25286888  0.49861989  0.75088104  1
  Fe  Fe3  1  0.87569420  0.87636911  0.87686029  1
  Fe  Fe4  1  0.25250824  0.00167497  0.74832917  1
  Fe  Fe5  1  0.37445156  0.12572686  0.62200191  1
  Fe  Fe6  1  0.62486259  0.62586331  0.37361108  1
  Fe  Fe7  1  0.25113399  0.75192132  0.74946698  1
  Fe  Fe8  1  0.62779963  0.12247610  0.37288320  1
  Fe  Fe9  1  0.87204735  0.37354394  0.62120274  1
  Fe  Fe10  1  0.00024952  0.24867328  0.24980423  1
  Fe  Fe11  1  0.74548518  0.00212431  -0.00005899  1
  Fe  Fe12  1  0.12821655  0.87429593  0.12520646  1
  Fe  Fe13  1  0.49747483  0.74956557  0.00297024  1
  Fe  Fe14  1  -0.00014268  0.00149187  0.74858142  1
  Fe  Fe15  1  0.87173987  0.62478476  0.87355045  1
  Fe  Fe16  1  0.12600067  0.62626205  0.87351103  1
  Fe  Fe17  1  0.25091481  0.50012986  0.25192362  1
  Fe  Fe18  1  0.50236375  0.50409232  0.50421299  1
  Fe  Fe19  1  0.37565466  0.37488354  0.62322865  1
  Fe  Fe20  1  0.25145677  0.75053442  0.49941100  1
  Fe  Fe21  1  0.50052202  0.25015025  0.25045441  1
  Fe  Fe22  1  0.74830385  0.25171920  0.25216365  1
  Fe  Fe23  1  0.37576663  0.62674059  0.87399489  1
  Fe  Fe24  1  0.74458837  0.24904596  -0.00258579  1
  Fe  Fe25  1  0.49988266  0.50158521  0.00067291  1
  Fe  Fe26  1  0.25093509  0.00104773  -0.00047436  1
  Fe  Fe27  1  0.37949101  0.87245233  0.37549790  1
  Fe  Fe28  1  0.12460060  0.62497464  0.37527752  1
  Fe  Fe29  1  0.12404809  0.87484993  0.37586392  1
  Fe  Fe30  1  0.25120386  0.25090023  0.24978038  1
  Fe  Fe31  1  0.37750216  0.37261425  0.87719425  1
  Fe  Fe32  1  0.37954212  0.87545778  0.62163403  1
  Fe  Fe33  1  0.87356079  0.37389416  0.12247368  1
  Fe  Fe34  1  0.50484121  0.24873992  0.49915550  1
  Fe  Fe35  1  0.62617532  0.62119908  0.87022635  1
  Fe  Fe36  1  -0.00009289  0.74873261  0.50240837  1
  Fe  Fe37  1  0.24587573  0.25315623  0.50011467  1
  Fe  Fe38  1  0.12511783  0.87603237  0.87444415  1
  Fe  Fe39  1  0.62601238  0.62528250  0.12567617  1
  Fe  Fe40  1  0.62416618  0.87549957  0.12420855  1
  Fe  Fe41  1  0.62256285  0.87573667  0.37858140  1
  Fe  Fe42  1  0.74916517  -0.00254116  0.74931365  1
  Fe  Fe43  1  -0.00345968  0.49807230  0.75053202  1
  Fe  Fe44  1  0.62469656  0.37511172  0.12457581  1
  Fe  Fe45  1  0.37765862  0.37567185  0.37712184  1
  Fe  Fe46  1  0.74775055  0.25435442  0.75265012  1
  Fe  Fe47  1  0.37722768  0.62668328  0.37480226  1
  Fe  Fe48  1  0.00189470  0.24934738  0.74848013  1
  Fe  Fe49  1  0.00271344  0.24572741  0.00131397  1
  Fe  Fe50  1  0.87409621  0.87439120  0.62450695  1
  Fe  Fe51  1  0.87350097  0.62721968  0.37579167  1
  Fe  Fe52  1  0.87280419  0.12703957  0.62430416  1
  Fe  Fe53  1  0.75055498  0.49900518  0.25075303  1
  Fe  Fe54  1  0.87259450  0.62727246  0.12509526  1
  Fe  Fe55  1  0.87417611  0.12526234  0.87406543  1
  Fe  Fe56  1  0.50000476  0.50052608  0.24884804  1
  Fe  Fe57  1  0.87265980  0.12200204  0.37397237  1
  Fe  Fe58  1  0.24812439  0.24799478  0.74966877  1
  Fe  Fe59  1  0.37757946  0.87590992  0.87531030  1
  Fe  Fe60  1  0.25084192  0.00003777  0.25230960  1
  Fe  Fe61  1  0.50007516  0.00029430  0.24898502  1
  Fe  Fe62  1  0.50162670  0.74744828  0.74502978  1
  Fe  Fe63  1  -0.00090496  0.50105344  0.00073237  1
  Fe  Fe64  1  -0.00149924  0.00045320  0.50003829  1
  Fe  Fe65  1  0.37717261  0.12593211  0.12243603  1
  Fe  Fe66  1  -0.00151351  0.49986296  0.24946773  1
  Fe  Fe67  1  0.75081989  0.75483592  0.25051283  1
  Fe  Fe68  1  -0.00236925  0.75390081  0.24909741  1
  Fe  Fe69  1  -0.00015623  0.74945500  -0.00057966  1
  Fe  Fe70  1  0.00264804  0.25070432  0.49993511  1
  Fe  Fe71  1  0.12465662  0.12391640  0.37549450  1
  Fe  Fe72  1  0.37843574  0.12614634  0.87767296  1
  Fe  Fe73  1  0.62572714  0.12294529  0.62633379  1
  Fe  Fe74  1  0.74565639  0.75145242  0.50368206  1
  Fe  Fe75  1  0.37578548  0.37358790  0.12228039  1
  Fe  Fe76  1  0.86953670  0.62368866  0.62633445  1
  Fe  Fe77  1  0.74853018  0.75001825  -0.00265686  1
  Fe  Fe78  1  0.12424597  0.37326142  0.87489555  1
  Fe  Fe79  1  0.87151675  0.12201255  0.12765630  1
  Fe  Fe80  1  0.12784055  0.62744481  0.12550888  1
  Fe  Fe81  1  0.00052300  0.49883260  0.49954303  1
  Fe  Fe82  1  0.12624895  0.37358365  0.12567570  1
  Fe  Fe83  1  0.00187162  0.00262676  0.00242830  1
  Fe  Fe84  1  0.25062554  0.50094117  -0.00090199  1
  Fe  Fe85  1  0.50254122  0.25121639  0.75075673  1
  Fe  Fe86  1  0.87409315  0.37436116  0.37626423  1
  Fe  Fe87  1  0.12565994  0.87721378  0.62486063  1
  Fe  Fe88  1  -0.00121334  0.74947549  0.74986679  1
  Fe  Fe89  1  0.12792959  0.62197018  0.62522927  1
  Co  Co90  1  0.62299605  0.12220819  0.87107372  1
  Co  Co91  1  0.49610999  0.49974072  0.74719402  1
  Co  Co92  1  0.25090828  0.49870603  0.49751409  1
  Co  Co93  1  0.75000129  -0.00001910  0.50213969  1
  Co  Co94  1  0.50013653  0.00419934  0.49878836  1
  Co  Co95  1  0.74934338  0.75534954  0.75043715  1
  Co  Co96  1  0.25175518  0.74950817  0.25264213  1
  Co  Co97  1  0.12445964  0.37496266  0.37233852  1
  Co  Co98  1  0.50329919  0.74468850  0.50468209  1
  Co  Co99  1  0.25271557  0.75045506  -0.00142551  1
  Co  Co100  1  0.75434689  0.49182138  0.75266967  1
  Co  Co101  1  0.75027873  0.50005471  -0.00010966  1
  Co  Co102  1  0.50170830  0.00044442  0.00221958  1
  Co  Co103  1  0.25258700  -0.00218559  0.49867036  1
  Co  Co104  1  0.62538660  0.12565070  0.12939429  1
  Co  Co105  1  0.74966535  -0.00593113  0.25046783  1
  Co  Co106  1  0.37068375  0.62534563  0.62447895  1
  Co  Co107  1  0.37381105  0.87621820  0.12638507  1
  Co  Co108  1  0.12607801  0.12249764  0.62267347  1
  Co  Co109  1  0.62540794  0.37754102  0.62437354  1
  Co  Co110  1  0.87766512  0.37172484  0.87989980  1
  Co  Co111  1  -0.00117254  -0.00366520  0.24991613  1
  Co  Co112  1  0.12493438  0.12356587  0.87271547  1
  Co  Co113  1  0.24820887  0.24842235  -0.00032500  1
  Co  Co114  1  0.62035089  0.87903502  0.62492150  1
  Co  Co115  1  0.37327602  0.62537612  0.12682088  1
  Co  Co116  1  0.62204550  0.38003349  0.87497260  1
  Co  Co117  1  0.74812939  0.49955333  0.49646967  1
  Co  Co118  1  0.87430689  0.87439933  0.37925387  1
  Co  Co119  1  0.49662654  0.00265579  0.74850763  1
  Co  Co120  1  0.12683775  0.12421471  0.12914338  1
  Co  Co121  1  0.50565291  0.24875250  -0.00118837  1
  Co  Co122  1  0.50078278  0.75082500  0.24670873  1
  Co  Co123  1  0.12586734  0.37815199  0.62700125  1
  Co  Co124  1  0.74588745  0.24902416  0.49759898  1
  Co  Co125  1  0.87337741  0.87610161  0.11998497  1
  Co  Co126  1  0.62256155  0.37693968  0.37514188  1
  Co  Co127  1  0.63169412  0.61981789  0.63150021  1
