# generated using pymatgen
data_Fe45Co19
_symmetry_space_group_name_H-M   'P 1'
_cell_length_a   11.41608726
_cell_length_b   11.41400275
_cell_length_c   11.41386652
_cell_angle_alpha   89.99828566
_cell_angle_beta   89.99916395
_cell_angle_gamma   89.98896837
_symmetry_Int_Tables_number   1
_chemical_formula_structural   Fe45Co19
_chemical_formula_sum   'Fe90 Co38'
_cell_volume   1487.26388880
_cell_formula_units_Z   2
loop_
 _symmetry_equiv_pos_site_id
 _symmetry_equiv_pos_as_xyz
  1  'x, y, z'
loop_
 _atom_site_type_symbol
 _atom_site_label
 _atom_site_symmetry_multiplicity
 _atom_site_fract_x
 _atom_site_fract_y
 _atom_site_fract_z
 _atom_site_occupancy
  Fe  Fe0  1  0.75180605  0.75021934  0.74995844  1
  Fe  Fe1  1  0.00184631  0.25126293  0.25208190  1
  Fe  Fe2  1  0.87490372  0.12516564  0.87396636  1
  Fe  Fe3  1  -0.00034868  0.74921283  0.49870884  1
  Fe  Fe4  1  0.00184302  0.24754146  -0.00235656  1
  Fe  Fe5  1  0.25355597  0.24987639  0.74828337  1
  Fe  Fe6  1  0.87574756  0.12508949  0.12514159  1
  Fe  Fe7  1  0.74717947  0.75261025  0.00122730  1
  Fe  Fe8  1  0.25248588  -0.00484638  0.00174999  1
  Fe  Fe9  1  0.12302943  0.87700887  0.87615679  1
  Fe  Fe10  1  0.62425357  0.12319899  0.37434146  1
  Fe  Fe11  1  0.62293891  0.12578882  0.62453392  1
  Fe  Fe12  1  0.37626234  0.12346470  0.87556468  1
  Fe  Fe13  1  0.87502107  0.37489633  0.12613546  1
  Fe  Fe14  1  0.12602755  0.37449163  0.12527254  1
  Fe  Fe15  1  0.87576277  0.62514811  0.87609484  1
  Fe  Fe16  1  0.00060912  0.49742423  0.74908935  1
  Fe  Fe17  1  0.87607352  0.87577494  0.87438312  1
  Fe  Fe18  1  0.00005647  -0.00055971  0.25002547  1
  Fe  Fe19  1  0.74940257  -0.00165428  0.00018578  1
  Fe  Fe20  1  0.75105285  -0.00063100  0.50082230  1
  Fe  Fe21  1  0.37508892  0.37724723  0.37531925  1
  Fe  Fe22  1  0.00101776  0.49893709  0.50041475  1
  Fe  Fe23  1  0.49948731  -0.00176343  0.74854546  1
  Fe  Fe24  1  0.62112785  0.11992666  0.12681105  1
  Fe  Fe25  1  0.87795360  0.12839658  0.62436972  1
  Fe  Fe26  1  0.74960376  -0.00041335  0.74747603  1
  Fe  Fe27  1  0.12723047  0.12557572  0.37441216  1
  Fe  Fe28  1  0.49832753  0.50805362  0.50263462  1
  Fe  Fe29  1  0.49895736  0.75178939  0.75149970  1
  Fe  Fe30  1  0.50028022  0.50270959  0.24943769  1
  Fe  Fe31  1  0.62781167  0.87321461  0.37498644  1
  Fe  Fe32  1  0.37326269  0.87231576  0.37462731  1
  Fe  Fe33  1  0.24954295  0.50165903  0.24904465  1
  Fe  Fe34  1  0.37298446  0.87441967  0.62396162  1
  Fe  Fe35  1  0.12669556  0.12320846  0.12423470  1
  Fe  Fe36  1  0.62198843  0.12376203  0.87464077  1
  Fe  Fe37  1  0.50004653  0.50089097  0.74838065  1
  Fe  Fe38  1  0.87356753  0.87396335  0.37313340  1
  Fe  Fe39  1  0.12559586  0.87451079  0.37491625  1
  Fe  Fe40  1  0.24687481  0.75125664  0.75174721  1
  Fe  Fe41  1  0.87447335  0.37354514  0.87484134  1
  Fe  Fe42  1  0.25091254  0.74808371  0.49956446  1
  Fe  Fe43  1  0.25278310  0.50395216  0.50105305  1
  Fe  Fe44  1  0.12806871  0.37602342  0.37557103  1
  Fe  Fe45  1  0.00122938  0.75207352  0.00118435  1
  Fe  Fe46  1  0.37381410  0.12471373  0.37582749  1
  Fe  Fe47  1  0.37494967  0.62800554  0.87885627  1
  Fe  Fe48  1  0.87582705  0.62331036  0.12762552  1
  Fe  Fe49  1  0.24829131  -0.00079290  0.74788407  1
  Fe  Fe50  1  0.87522921  0.62404119  0.36998237  1
  Fe  Fe51  1  0.12369384  0.62459361  0.12409231  1
  Fe  Fe52  1  0.24548601  0.74818165  0.24932503  1
  Fe  Fe53  1  0.62456926  0.62680311  0.87491295  1
  Fe  Fe54  1  0.62535920  0.87040873  0.62250591  1
  Fe  Fe55  1  0.25204084  0.24996379  0.50175615  1
  Fe  Fe56  1  0.37456289  0.62884610  0.12125143  1
  Fe  Fe57  1  0.00059698  0.49804111  0.00007673  1
  Fe  Fe58  1  0.62521475  0.62520936  0.12421192  1
  Fe  Fe59  1  0.25308383  0.00020051  0.24967130  1
  Fe  Fe60  1  0.62195746  0.37345505  0.87537605  1
  Fe  Fe61  1  0.87583805  0.62506489  0.62680598  1
  Fe  Fe62  1  0.00252099  0.00180800  0.74988014  1
  Fe  Fe63  1  0.37796942  0.37523406  0.87729082  1
  Fe  Fe64  1  0.87399026  0.37663419  0.37453340  1
  Fe  Fe65  1  0.74977796  0.25070817  0.50072668  1
  Fe  Fe66  1  0.12420957  0.62472325  0.87678251  1
  Fe  Fe67  1  0.49832238  -0.00237031  0.49859370  1
  Fe  Fe68  1  0.74875897  0.49933128  0.00013848  1
  Fe  Fe69  1  0.74811881  0.25176829  0.74767196  1
  Fe  Fe70  1  0.12481096  0.62593659  0.62514115  1
  Fe  Fe71  1  0.12619133  0.37349608  0.87441799  1
  Fe  Fe72  1  0.25117251  0.49937978  0.75033530  1
  Fe  Fe73  1  0.00221255  -0.00013612  0.50027459  1
  Fe  Fe74  1  0.37537174  0.37655433  0.12363099  1
  Fe  Fe75  1  0.87474214  0.87542762  0.12706301  1
  Fe  Fe76  1  0.74721581  0.24823782  0.00097229  1
  Fe  Fe77  1  0.62227017  0.37705278  0.37659775  1
  Fe  Fe78  1  0.62336694  0.37519748  0.12451661  1
  Fe  Fe79  1  0.74789477  0.24949547  0.25029722  1
  Fe  Fe80  1  0.74743844  0.50336088  0.50122062  1
  Fe  Fe81  1  0.49693475  0.24814678  0.24860450  1
  Fe  Fe82  1  0.49725510  0.24936832  0.50326410  1
  Fe  Fe83  1  0.49795816  -0.00790195  0.00034889  1
  Fe  Fe84  1  0.50266489  0.75033845  0.25076518  1
  Fe  Fe85  1  0.74838231  0.49916078  0.74794009  1
  Fe  Fe86  1  0.87560933  0.12561489  0.37558547  1
  Fe  Fe87  1  0.87804494  0.87381947  0.62593645  1
  Fe  Fe88  1  0.12508247  0.12754667  0.62382989  1
  Fe  Fe89  1  0.25252440  0.24956243  0.00121583  1
  Co  Co90  1  0.37443530  0.62581734  0.37081245  1
  Co  Co91  1  0.00162711  0.75052485  0.24989212  1
  Co  Co92  1  0.00140520  0.25033811  0.75131429  1
  Co  Co93  1  0.87484319  0.37468888  0.62385653  1
  Co  Co94  1  0.50030703  0.50185952  -0.00013016  1
  Co  Co95  1  0.62472796  0.63004712  0.62607280  1
  Co  Co96  1  0.12491946  0.87736334  0.12618593  1
  Co  Co97  1  0.49644820  0.74854801  0.49855327  1
  Co  Co98  1  0.12516478  0.87265551  0.62337678  1
  Co  Co99  1  0.24981025  0.50005543  -0.00016700  1
  Co  Co100  1  0.12415974  0.62413029  0.37604618  1
  Co  Co101  1  0.37506371  0.12127582  0.62443100  1
  Co  Co102  1  0.62576976  0.62704761  0.37576057  1
  Co  Co103  1  0.74900554  0.74867913  0.24890815  1
  Co  Co104  1  0.49546991  -0.00103437  0.25389297  1
  Co  Co105  1  0.00160649  0.74975435  0.75135318  1
  Co  Co106  1  0.00281426  0.49812245  0.25028318  1
  Co  Co107  1  0.49765415  0.24992737  0.74819548  1
  Co  Co108  1  0.24925996  -0.00002196  0.49981149  1
  Co  Co109  1  0.37274890  0.87405351  0.87280772  1
  Co  Co110  1  -0.00096193  0.00027646  -0.00036123  1
  Co  Co111  1  0.75187695  0.00172744  0.25175130  1
  Co  Co112  1  0.62735265  0.87577893  0.87175049  1
  Co  Co113  1  0.25296064  0.24983296  0.24894662  1
  Co  Co114  1  0.75425159  0.74800723  0.49962283  1
  Co  Co115  1  0.00126592  0.25207351  0.49776516  1
  Co  Co116  1  0.37333676  0.62854136  0.62922529  1
  Co  Co117  1  0.37467896  0.86974453  0.12772922  1
  Co  Co118  1  0.12898176  0.12374256  0.87658579  1
  Co  Co119  1  0.49960362  0.24910597  0.00188241  1
  Co  Co120  1  0.62253208  0.37617727  0.62240697  1
  Co  Co121  1  0.24674285  0.75241562  -0.00073297  1
  Co  Co122  1  0.62513372  0.87874679  0.12993656  1
  Co  Co123  1  0.12691995  0.37480575  0.62429187  1
  Co  Co124  1  0.74703852  0.49917606  0.25007233  1
  Co  Co125  1  0.37607309  0.37790088  0.62341976  1
  Co  Co126  1  0.37580709  0.12198799  0.12317991  1
  Co  Co127  1  0.50341651  0.75476309  -0.00064097  1
