# generated using pymatgen
data_Fe45Co19
_symmetry_space_group_name_H-M   'P 1'
_cell_length_a   11.41524347
_cell_length_b   11.41507612
_cell_length_c   11.41545112
_cell_angle_alpha   90.00150555
_cell_angle_beta   90.00473463
_cell_angle_gamma   90.01036005
_symmetry_Int_Tables_number   1
_chemical_formula_structural   Fe45Co19
_chemical_formula_sum   'Fe90 Co38'
_cell_volume   1487.50029590
_cell_formula_units_Z   2
loop_
 _symmetry_equiv_pos_site_id
 _symmetry_equiv_pos_as_xyz
  1  'x, y, z'
loop_
 _atom_site_type_symbol
 _atom_site_label
 _atom_site_symmetry_multiplicity
 _atom_site_fract_x
 _atom_site_fract_y
 _atom_site_fract_z
 _atom_site_occupancy
  Fe  Fe0  1  0.00430823  0.25845976  0.25226910  1
  Fe  Fe1  1  0.00262742  0.74729743  0.74847371  1
  Fe  Fe2  1  0.12791679  0.87362725  0.12261203  1
  Fe  Fe3  1  0.75419307  0.25094563  0.50049215  1
  Fe  Fe4  1  0.62575423  0.87511942  0.37572504  1
  Fe  Fe5  1  0.74857092  0.74774832  0.75142707  1
  Fe  Fe6  1  0.12961419  0.37576523  0.88196665  1
  Fe  Fe7  1  0.37355594  0.87682603  0.37435819  1
  Fe  Fe8  1  0.37161855  0.12678929  0.63070831  1
  Fe  Fe9  1  0.74932094  0.75050619  0.24826963  1
  Fe  Fe10  1  0.49764099  0.00129380  0.50230734  1
  Fe  Fe11  1  -0.00232616  0.49468649  0.00279345  1
  Fe  Fe12  1  0.87437220  0.62142838  0.12565803  1
  Fe  Fe13  1  0.62412134  0.62420566  0.12147598  1
  Fe  Fe14  1  0.25391554  0.74506992  0.00003004  1
  Fe  Fe15  1  0.75005038  0.25213182  0.74911112  1
  Fe  Fe16  1  0.75542946  0.25094809  -0.00130216  1
  Fe  Fe17  1  0.37371232  0.87291299  0.62783948  1
  Fe  Fe18  1  0.74769158  0.00188111  0.75138016  1
  Fe  Fe19  1  0.87852601  0.12674256  0.37356106  1
  Fe  Fe20  1  0.00252633  0.25440945  0.74980669  1
  Fe  Fe21  1  0.62517132  0.87549687  0.88042333  1
  Fe  Fe22  1  0.74663227  0.49937547  0.75141891  1
  Fe  Fe23  1  0.74678666  0.49797063  0.25099319  1
  Fe  Fe24  1  0.24789003  0.00312982  0.50219537  1
  Fe  Fe25  1  0.49445972  0.25210661  0.49771028  1
  Fe  Fe26  1  0.87657389  0.62169263  0.87549677  1
  Fe  Fe27  1  0.62155895  0.62415087  0.87850770  1
  Fe  Fe28  1  0.50051174  0.00131989  0.75304112  1
  Fe  Fe29  1  0.37046633  0.37880643  0.87434375  1
  Fe  Fe30  1  0.87476390  0.62260637  0.37199165  1
  Fe  Fe31  1  0.37425439  0.87442163  0.87509120  1
  Fe  Fe32  1  0.87423949  0.87576076  0.37435428  1
  Fe  Fe33  1  0.37531179  0.12388630  0.12684348  1
  Fe  Fe34  1  0.37773487  0.62230889  0.12712180  1
  Fe  Fe35  1  0.50371112  0.49677950  0.25292338  1
  Fe  Fe36  1  -0.00136458  0.75008722  0.50012501  1
  Fe  Fe37  1  0.49870048  0.25162100  0.75261005  1
  Fe  Fe38  1  -0.00274996  0.75050857  0.00100893  1
  Fe  Fe39  1  0.00312361  0.00187797  0.50293907  1
  Fe  Fe40  1  0.87583938  0.12691147  0.87201064  1
  Fe  Fe41  1  0.25192867  0.74643310  0.50244437  1
  Fe  Fe42  1  0.00135324  -0.00141822  0.24875475  1
  Fe  Fe43  1  0.87717475  0.12693336  0.12630330  1
  Fe  Fe44  1  0.87482346  0.87519156  0.62698205  1
  Fe  Fe45  1  0.00525697  0.49775788  0.75060744  1
  Fe  Fe46  1  0.49986092  0.75325604  0.24726043  1
  Fe  Fe47  1  0.62696901  0.87785913  0.11903196  1
  Fe  Fe48  1  0.87568166  0.62116108  0.62697387  1
  Fe  Fe49  1  0.12568146  0.87472704  0.37622041  1
  Fe  Fe50  1  0.12466008  0.62166718  0.37758827  1
  Fe  Fe51  1  0.87229176  0.87747685  0.12361161  1
  Fe  Fe52  1  0.12627698  0.87197413  0.87612583  1
  Fe  Fe53  1  0.37803298  0.62144582  0.87031979  1
  Fe  Fe54  1  0.00115029  0.74915033  0.24990870  1
  Fe  Fe55  1  0.49456104  0.24915017  -0.00234008  1
  Fe  Fe56  1  0.12305371  0.62425615  0.12200352  1
  Fe  Fe57  1  0.74986776  0.74802088  0.50139529  1
  Fe  Fe58  1  0.62272072  0.12595055  0.37653473  1
  Fe  Fe59  1  0.74708871  0.49962884  0.49787074  1
  Fe  Fe60  1  0.62599281  0.37394769  0.87817908  1
  Fe  Fe61  1  0.00535261  -0.00035360  0.74875499  1
  Fe  Fe62  1  0.12413236  0.12897783  0.12347942  1
  Fe  Fe63  1  0.62534669  0.87555878  0.62530064  1
  Fe  Fe64  1  0.12716793  0.37382072  0.62092161  1
  Fe  Fe65  1  0.24917621  0.74848241  0.24967698  1
  Fe  Fe66  1  0.24536284  0.49899407  0.24751079  1
  Fe  Fe67  1  0.49921220  0.25085315  0.25142522  1
  Fe  Fe68  1  0.74841010  0.24893561  0.25074505  1
  Fe  Fe69  1  0.24855737  0.25085667  0.25198748  1
  Fe  Fe70  1  0.37311236  0.37605123  0.12588528  1
  Fe  Fe71  1  0.37732263  0.62297270  0.37255740  1
  Fe  Fe72  1  0.87769665  0.12692289  0.62734838  1
  Fe  Fe73  1  0.12888346  0.12821423  0.87319435  1
  Fe  Fe74  1  0.49883258  0.74872834  0.49957005  1
  Fe  Fe75  1  -0.00328618  0.49532878  0.49785159  1
  Fe  Fe76  1  0.61926464  0.62329260  0.62555428  1
  Fe  Fe77  1  0.75101086  0.00261691  0.49931639  1
  Fe  Fe78  1  0.62272970  0.37483190  0.62211611  1
  Fe  Fe79  1  0.24783717  0.00120201  0.25068007  1
  Fe  Fe80  1  0.87501727  0.87489912  0.87409574  1
  Fe  Fe81  1  0.00068953  0.00246809  -0.00132302  1
  Fe  Fe82  1  0.24585157  0.74322533  0.74815947  1
  Fe  Fe83  1  0.62360984  0.12772314  0.62550191  1
  Fe  Fe84  1  0.62557898  0.37350384  0.12193342  1
  Fe  Fe85  1  0.25733554  0.50167456  0.50520603  1
  Fe  Fe86  1  0.25149865  0.24775446  0.49677957  1
  Fe  Fe87  1  0.25142674  0.00280067  -0.00098429  1
  Fe  Fe88  1  0.62524959  0.12407139  0.12018949  1
  Fe  Fe89  1  0.50170599  -0.00152722  0.24829117  1
  Co  Co90  1  0.12088984  0.62282037  0.61984342  1
  Co  Co91  1  0.75186417  0.74751893  -0.00090590  1
  Co  Co92  1  0.74908481  0.00227695  0.25111108  1
  Co  Co93  1  0.87312462  0.37455858  0.12824092  1
  Co  Co94  1  0.38232693  0.62438251  0.63094367  1
  Co  Co95  1  0.62527797  0.37079221  0.37697903  1
  Co  Co96  1  0.37096403  0.12533084  0.86989226  1
  Co  Co97  1  0.62327807  0.62783299  0.37373006  1
  Co  Co98  1  0.50198010  0.49397564  0.75110185  1
  Co  Co99  1  0.12577177  0.87169936  0.62422108  1
  Co  Co100  1  0.12831928  0.37278483  0.11903373  1
  Co  Co101  1  0.50306767  0.75327743  0.75209392  1
  Co  Co102  1  0.49649906  0.74889861  0.00195461  1
  Co  Co103  1  0.12704230  0.12952270  0.62812803  1
  Co  Co104  1  0.24796820  -0.00310360  0.74908482  1
  Co  Co105  1  0.49612204  0.00309299  -0.00274939  1
  Co  Co106  1  0.25295840  0.50385191  0.00148733  1
  Co  Co107  1  0.12169653  0.12574802  0.37433010  1
  Co  Co108  1  0.49820663  0.49761813  -0.00006472  1
  Co  Co109  1  0.12216882  0.62325436  0.88055394  1
  Co  Co110  1  0.24540782  0.50233205  0.74740191  1
  Co  Co111  1  0.37188152  0.87730362  0.12429703  1
  Co  Co112  1  -0.00270436  0.25140981  -0.00207344  1
  Co  Co113  1  0.62599910  0.12873826  0.87697474  1
  Co  Co114  1  0.87206673  0.37579635  0.37190834  1
  Co  Co115  1  0.25502025  0.24730418  0.00124986  1
  Co  Co116  1  0.37267756  0.37765121  0.37195469  1
  Co  Co117  1  -0.00148270  0.25201505  0.50002713  1
  Co  Co118  1  0.00460476  0.49654861  0.24866358  1
  Co  Co119  1  0.87414382  0.37787267  0.62734448  1
  Co  Co120  1  0.24873815  0.25675787  0.75071563  1
  Co  Co121  1  0.37626705  0.12231919  0.37233653  1
  Co  Co122  1  0.37576222  0.37391583  0.62677862  1
  Co  Co123  1  0.75048455  0.49817990  -0.00075807  1
  Co  Co124  1  0.75408096  0.00396269  -0.00237175  1
  Co  Co125  1  0.12949570  0.37863283  0.37973216  1
  Co  Co126  1  0.87457481  0.37708677  0.87217107  1
  Co  Co127  1  0.49910229  0.49897543  0.49702304  1
