# generated using pymatgen
data_Fe45Co19
_symmetry_space_group_name_H-M   'P 1'
_cell_length_a   11.41429366
_cell_length_b   11.41575166
_cell_length_c   11.41521130
_cell_angle_alpha   90.00262317
_cell_angle_beta   90.00204174
_cell_angle_gamma   90.00086658
_symmetry_Int_Tables_number   1
_chemical_formula_structural   Fe45Co19
_chemical_formula_sum   'Fe90 Co38'
_cell_volume   1487.43332774
_cell_formula_units_Z   2
loop_
 _symmetry_equiv_pos_site_id
 _symmetry_equiv_pos_as_xyz
  1  'x, y, z'
loop_
 _atom_site_type_symbol
 _atom_site_label
 _atom_site_symmetry_multiplicity
 _atom_site_fract_x
 _atom_site_fract_y
 _atom_site_fract_z
 _atom_site_occupancy
  Fe  Fe0  1  0.74558528  0.74457299  0.75538386  1
  Fe  Fe1  1  0.62439385  0.37451958  0.62524147  1
  Fe  Fe2  1  0.12393453  0.12678649  0.62168071  1
  Fe  Fe3  1  0.50147656  0.50088196  0.24824160  1
  Fe  Fe4  1  0.37889377  0.37318513  0.37429201  1
  Fe  Fe5  1  -0.00064150  0.50067022  0.49918093  1
  Fe  Fe6  1  0.74740283  0.75005462  0.49809560  1
  Fe  Fe7  1  0.50393514  0.00095517  0.00026118  1
  Fe  Fe8  1  0.74888250  0.25140215  0.75273748  1
  Fe  Fe9  1  0.37944190  0.62443165  0.87507702  1
  Fe  Fe10  1  0.50293836  -0.00322683  0.24641467  1
  Fe  Fe11  1  -0.00140853  0.50043042  0.24772571  1
  Fe  Fe12  1  0.37617110  0.12768605  0.62671737  1
  Fe  Fe13  1  -0.00202044  -0.00046485  0.50211186  1
  Fe  Fe14  1  -0.00123476  0.24857197  0.75225331  1
  Fe  Fe15  1  0.37981670  0.87427671  0.37316656  1
  Fe  Fe16  1  0.25238512  0.49941450  0.00113365  1
  Fe  Fe17  1  0.25192823  0.00055568  0.49834228  1
  Fe  Fe18  1  -0.00449159  0.50234354  0.00393351  1
  Fe  Fe19  1  -0.00113685  0.00042938  0.75113085  1
  Fe  Fe20  1  0.87222549  0.87310991  0.62744343  1
  Fe  Fe21  1  0.24758802  0.24849686  0.25156721  1
  Fe  Fe22  1  0.49904849  0.49825454  0.00412250  1
  Fe  Fe23  1  0.62562459  0.87431572  0.62741808  1
  Fe  Fe24  1  0.24963715  0.00076156  0.75361303  1
  Fe  Fe25  1  0.12781673  0.88027843  0.12120455  1
  Fe  Fe26  1  0.50240372  0.00236869  0.75175530  1
  Fe  Fe27  1  0.37707123  0.62680335  0.37353681  1
  Fe  Fe28  1  0.62540763  0.12707435  0.62679936  1
  Fe  Fe29  1  0.87467087  0.37796968  0.87524357  1
  Fe  Fe30  1  0.12509833  0.62562533  0.12431788  1
  Fe  Fe31  1  -0.00117162  0.00324480  0.24499342  1
  Fe  Fe32  1  0.74929810  -0.00142284  0.50012260  1
  Fe  Fe33  1  0.87102245  0.37220892  0.12655597  1
  Fe  Fe34  1  0.50136227  0.50191189  0.50146382  1
  Fe  Fe35  1  0.87259300  0.62551906  0.62583443  1
  Fe  Fe36  1  0.87507967  0.87610008  0.37480165  1
  Fe  Fe37  1  0.12424823  0.12260351  0.87971102  1
  Fe  Fe38  1  0.87388901  0.12676758  0.62458252  1
  Fe  Fe39  1  0.37711526  0.12471195  0.37398117  1
  Fe  Fe40  1  0.87420421  0.12403170  0.37417270  1
  Fe  Fe41  1  0.00108012  0.75235020  0.24782826  1
  Fe  Fe42  1  0.74580769  0.75286834  0.25334068  1
  Fe  Fe43  1  0.62499131  0.12307555  0.37450066  1
  Fe  Fe44  1  0.87419753  0.37392930  0.62479210  1
  Fe  Fe45  1  0.24961256  0.24911770  0.75206851  1
  Fe  Fe46  1  0.12363459  0.37594024  0.87771388  1
  Fe  Fe47  1  0.12361612  0.87860315  0.37429009  1
  Fe  Fe48  1  0.50209535  0.24824257  -0.00037912  1
  Fe  Fe49  1  0.86977449  0.12264113  0.87836524  1
  Fe  Fe50  1  0.25232698  0.49934633  0.75057697  1
  Fe  Fe51  1  0.12366552  0.37165862  0.62267557  1
  Fe  Fe52  1  0.12335474  0.62447267  0.87676980  1
  Fe  Fe53  1  0.37607897  0.87476627  0.62670028  1
  Fe  Fe54  1  0.37634144  0.62782834  0.12472877  1
  Fe  Fe55  1  0.24958741  0.75157957  0.49882387  1
  Fe  Fe56  1  0.00034062  0.74958365  0.75133143  1
  Fe  Fe57  1  0.25115788  0.75218594  -0.00092250  1
  Fe  Fe58  1  -0.00299704  0.24691614  0.00255810  1
  Fe  Fe59  1  0.12543074  0.62431856  0.37234264  1
  Fe  Fe60  1  0.37886058  0.87587313  0.87547476  1
  Fe  Fe61  1  0.00029470  0.74968178  0.49968008  1
  Fe  Fe62  1  -0.00301492  0.75133581  0.00018327  1
  Fe  Fe63  1  0.50188823  0.74785515  0.50233219  1
  Fe  Fe64  1  0.74780561  0.25003929  0.49646702  1
  Fe  Fe65  1  0.62468648  0.37943666  0.87536578  1
  Fe  Fe66  1  0.00116598  0.24602107  0.24914146  1
  Fe  Fe67  1  0.62856887  0.62595432  0.12501821  1
  Fe  Fe68  1  0.63277646  0.12587830  0.12477670  1
  Fe  Fe69  1  0.12566057  0.37396689  0.12434367  1
  Fe  Fe70  1  0.37778598  0.37318491  0.87555012  1
  Fe  Fe71  1  0.87398456  0.37553800  0.37383539  1
  Fe  Fe72  1  0.12501147  0.87552317  0.62653190  1
  Fe  Fe73  1  0.25177647  0.75370474  0.24815854  1
  Fe  Fe74  1  0.25096573  0.49788778  0.49885884  1
  Fe  Fe75  1  0.25167706  0.74975731  0.75171260  1
  Fe  Fe76  1  0.87115576  0.87669725  0.87455863  1
  Fe  Fe77  1  -0.00050026  0.50023584  0.74844469  1
  Fe  Fe78  1  0.37286715  0.12287180  0.12419180  1
  Fe  Fe79  1  0.86835315  0.87514509  0.12388096  1
  Fe  Fe80  1  0.50540004  0.75304556  0.00001123  1
  Fe  Fe81  1  0.62832110  0.37407861  0.12537936  1
  Fe  Fe82  1  0.25160905  0.49859438  0.24816254  1
  Fe  Fe83  1  0.25203746  0.24942301  0.00022865  1
  Fe  Fe84  1  0.37708289  0.37072879  0.62429639  1
  Fe  Fe85  1  0.87360435  0.62555108  0.37184906  1
  Fe  Fe86  1  0.50299791  0.24945843  0.24930392  1
  Fe  Fe87  1  0.74754142  0.50162972  0.49861820  1
  Fe  Fe88  1  0.50095074  0.00097652  0.50223326  1
  Fe  Fe89  1  0.12691352  0.62518495  0.62490404  1
  Co  Co90  1  0.62817527  0.12471945  0.87528894  1
  Co  Co91  1  0.37641651  0.87656141  0.12324017  1
  Co  Co92  1  0.12349835  0.12308849  0.37731609  1
  Co  Co93  1  0.62566024  0.62458820  0.62759020  1
  Co  Co94  1  0.74621310  -0.00239397  0.00044553  1
  Co  Co95  1  0.74941572  0.25346943  -0.00340743  1
  Co  Co96  1  0.74785034  0.74661166  -0.00547306  1
  Co  Co97  1  -0.00264581  0.25065607  0.49703615  1
  Co  Co98  1  0.62642038  0.87760340  0.87221540  1
  Co  Co99  1  0.49716232  0.49950899  0.74588127  1
  Co  Co100  1  0.86732487  0.12591781  0.12405187  1
  Co  Co101  1  0.74936212  0.00232286  0.74773885  1
  Co  Co102  1  0.37373333  0.62661369  0.62398969  1
  Co  Co103  1  0.75022750  0.50053564  0.75055191  1
  Co  Co104  1  0.25390932  -0.00127623  -0.00410837  1
  Co  Co105  1  0.87075192  0.63022555  0.12899891  1
  Co  Co106  1  0.62904138  0.87346091  0.12501736  1
  Co  Co107  1  0.87733536  0.62325829  0.87412390  1
  Co  Co108  1  0.25215598  0.24920996  0.49688166  1
  Co  Co109  1  0.12352630  0.87547308  0.87589270  1
  Co  Co110  1  0.50272966  0.25012253  0.75259694  1
  Co  Co111  1  0.50222031  0.24786830  0.49926273  1
  Co  Co112  1  0.74874536  0.49873119  0.24939565  1
  Co  Co113  1  0.37566074  0.37125415  0.12644306  1
  Co  Co114  1  0.62223415  0.37616989  0.37479243  1
  Co  Co115  1  0.74867401  -0.00176041  0.25269621  1
  Co  Co116  1  0.25154560  -0.00119089  0.25199432  1
  Co  Co117  1  0.62423803  0.62545318  0.37309410  1
  Co  Co118  1  0.12872741  0.12248054  0.12106866  1
  Co  Co119  1  0.50095065  0.74899436  0.75003208  1
  Co  Co120  1  -0.00515975  -0.00057498  0.00222543  1
  Co  Co121  1  0.74853350  0.25072042  0.25442789  1
  Co  Co122  1  0.61948255  0.61833156  0.87628062  1
  Co  Co123  1  0.50158811  0.75063718  0.24678461  1
  Co  Co124  1  0.37722905  0.12603902  0.87557899  1
  Co  Co125  1  0.12358105  0.37543773  0.37422660  1
  Co  Co126  1  0.75355789  0.50263421  0.00133959  1
  Co  Co127  1  0.62111700  0.87560213  0.37652723  1
