# generated using pymatgen
data_Fe45Co19
_symmetry_space_group_name_H-M   'P 1'
_cell_length_a   11.41593081
_cell_length_b   11.41499008
_cell_length_c   11.41541626
_cell_angle_alpha   89.99894299
_cell_angle_beta   90.00865531
_cell_angle_gamma   90.00106193
_symmetry_Int_Tables_number   1
_chemical_formula_structural   Fe45Co19
_chemical_formula_sum   'Fe90 Co38'
_cell_volume   1487.57411823
_cell_formula_units_Z   2
loop_
 _symmetry_equiv_pos_site_id
 _symmetry_equiv_pos_as_xyz
  1  'x, y, z'
loop_
 _atom_site_type_symbol
 _atom_site_label
 _atom_site_symmetry_multiplicity
 _atom_site_fract_x
 _atom_site_fract_y
 _atom_site_fract_z
 _atom_site_occupancy
  Fe  Fe0  1  0.62840301  0.62335616  0.87547036  1
  Fe  Fe1  1  0.24904919  0.49778936  0.74840246  1
  Fe  Fe2  1  0.87189361  0.62675298  0.62825690  1
  Fe  Fe3  1  -0.00191261  0.25307176  0.24730300  1
  Fe  Fe4  1  0.50087073  0.00119408  0.74967274  1
  Fe  Fe5  1  0.74839165  0.50013473  0.50163266  1
  Fe  Fe6  1  0.75480953  0.24880941  0.50211679  1
  Fe  Fe7  1  0.24911858  0.00079416  0.49989449  1
  Fe  Fe8  1  -0.00063095  0.50278182  0.75140760  1
  Fe  Fe9  1  0.12558049  0.62394533  0.12637102  1
  Fe  Fe10  1  0.00000616  0.00119635  0.00113286  1
  Fe  Fe11  1  0.12344916  0.87309476  0.37530292  1
  Fe  Fe12  1  0.50014949  0.74628044  0.00368765  1
  Fe  Fe13  1  0.24940522  0.75026257  0.75055177  1
  Fe  Fe14  1  0.12389990  0.37491818  0.87622472  1
  Fe  Fe15  1  0.37414495  0.37333367  0.12558156  1
  Fe  Fe16  1  0.87501503  0.12395599  0.87423027  1
  Fe  Fe17  1  0.37658199  0.37630785  0.87505913  1
  Fe  Fe18  1  0.75024040  0.00172506  0.49754898  1
  Fe  Fe19  1  0.75304746  0.25104742  0.74741616  1
  Fe  Fe20  1  0.49936894  0.24945763  0.75030768  1
  Fe  Fe21  1  0.12645649  0.12648067  0.87398437  1
  Fe  Fe22  1  0.37070326  0.12478732  0.87348942  1
  Fe  Fe23  1  0.74638015  0.49650193  0.24856300  1
  Fe  Fe24  1  0.87524029  0.37705293  0.37441912  1
  Fe  Fe25  1  0.87216257  0.37892521  0.87558729  1
  Fe  Fe26  1  0.00054763  0.00296485  0.49918388  1
  Fe  Fe27  1  0.12551544  0.62652072  0.62360900  1
  Fe  Fe28  1  0.62653123  0.37285803  0.12375666  1
  Fe  Fe29  1  0.62552180  0.87752375  0.12516835  1
  Fe  Fe30  1  0.75087032  0.75013428  -0.00069177  1
  Fe  Fe31  1  0.37513593  0.87560723  0.87646015  1
  Fe  Fe32  1  0.75349067  0.24892132  0.00357215  1
  Fe  Fe33  1  0.37420055  0.62367238  0.87642533  1
  Fe  Fe34  1  -0.00121679  0.74621808  -0.00196967  1
  Fe  Fe35  1  0.37669501  0.87728838  0.37286286  1
  Fe  Fe36  1  0.37131787  0.12642620  0.62750743  1
  Fe  Fe37  1  0.12754922  0.12961693  0.12487107  1
  Fe  Fe38  1  0.25161828  0.49707840  0.49966322  1
  Fe  Fe39  1  0.37729578  0.62155332  0.37372554  1
  Fe  Fe40  1  0.12211136  0.37400744  0.37709301  1
  Fe  Fe41  1  0.49888897  0.24667612  0.00213465  1
  Fe  Fe42  1  0.87391627  0.12502563  0.37101602  1
  Fe  Fe43  1  0.37420845  0.12473014  0.37179552  1
  Fe  Fe44  1  0.62299175  0.87633119  0.87786427  1
  Fe  Fe45  1  0.62419921  0.37217079  0.62419347  1
  Fe  Fe46  1  -0.00149678  0.50142626  0.00040732  1
  Fe  Fe47  1  -0.00394703  0.74686897  0.49582186  1
  Fe  Fe48  1  0.00168367  0.00060803  0.24902133  1
  Fe  Fe49  1  0.00223517  -0.00096454  0.74902945  1
  Fe  Fe50  1  0.24976125  0.75084957  0.00251299  1
  Fe  Fe51  1  0.75272495  0.75322843  0.25378487  1
  Fe  Fe52  1  0.37716639  0.62386695  0.62379507  1
  Fe  Fe53  1  0.12472740  0.87355388  0.87556004  1
  Fe  Fe54  1  0.62681039  0.37494336  0.87678043  1
  Fe  Fe55  1  -0.00251206  0.25110931  0.74909766  1
  Fe  Fe56  1  0.87261254  0.62201665  0.12739984  1
  Fe  Fe57  1  0.12184430  0.37249383  0.62176169  1
  Fe  Fe58  1  0.49875762  0.74885796  0.24844598  1
  Fe  Fe59  1  0.12617825  0.12805300  0.37418607  1
  Fe  Fe60  1  0.87634144  0.87329438  0.87316334  1
  Fe  Fe61  1  0.62403710  0.62445354  0.37441069  1
  Fe  Fe62  1  0.25057515  0.75124197  0.24924544  1
  Fe  Fe63  1  0.49885938  0.00390534  0.00389368  1
  Fe  Fe64  1  0.12367866  0.87246922  0.62264228  1
  Fe  Fe65  1  0.87491986  0.87351003  0.62445857  1
  Fe  Fe66  1  0.50277301  0.49971139  0.74871675  1
  Fe  Fe67  1  -0.00264644  0.25096393  0.00285611  1
  Fe  Fe68  1  0.62290538  0.87599474  0.37559791  1
  Fe  Fe69  1  0.24823492  0.49696038  0.25045843  1
  Fe  Fe70  1  -0.00133849  0.50384849  0.49768217  1
  Fe  Fe71  1  0.62495175  0.62849276  0.62283061  1
  Fe  Fe72  1  0.50234245  0.50256485  0.00515606  1
  Fe  Fe73  1  0.25289391  0.74969538  0.49749416  1
  Fe  Fe74  1  0.37904520  0.37571076  0.37423569  1
  Fe  Fe75  1  0.74882105  -0.00135924  0.75070574  1
  Fe  Fe76  1  0.49785409  0.24830581  0.50163567  1
  Fe  Fe77  1  0.50083072  0.74990966  0.75121181  1
  Fe  Fe78  1  0.37567906  0.87510066  0.62516431  1
  Fe  Fe79  1  0.24896041  -0.00146106  0.00296891  1
  Fe  Fe80  1  0.87582277  0.87764150  0.12690560  1
  Fe  Fe81  1  0.24867424  -0.00242951  0.24682319  1
  Fe  Fe82  1  -0.00191973  0.74640500  0.25378659  1
  Fe  Fe83  1  0.50237802  0.24600637  0.24738325  1
  Fe  Fe84  1  0.50008861  0.00268354  0.49968735  1
  Fe  Fe85  1  0.62426386  0.37194506  0.37600920  1
  Fe  Fe86  1  0.62490757  0.87403691  0.62216320  1
  Fe  Fe87  1  0.12587166  0.12904844  0.62473497  1
  Fe  Fe88  1  0.24918909  0.49796205  0.00115979  1
  Fe  Fe89  1  0.62730506  0.12567733  0.87581164  1
  Co  Co90  1  0.74677350  0.75270523  0.75195564  1
  Co  Co91  1  0.25079021  0.25165214  -0.00254876  1
  Co  Co92  1  0.62633361  0.12617998  0.62509074  1
  Co  Co93  1  0.75290520  -0.00130843  -0.00210371  1
  Co  Co94  1  0.75229767  0.75015978  0.49572020  1
  Co  Co95  1  0.87526419  0.12174503  0.62671537  1
  Co  Co96  1  0.24724438  -0.00270226  0.74922855  1
  Co  Co97  1  0.12819259  0.62525205  0.37485463  1
  Co  Co98  1  0.74729662  0.49836563  0.74704366  1
  Co  Co99  1  0.74752453  -0.00093110  0.25293984  1
  Co  Co100  1  0.37845806  0.87538340  0.12472806  1
  Co  Co101  1  0.63064601  0.12241450  0.12419632  1
  Co  Co102  1  0.50250350  0.00346040  0.24833100  1
  Co  Co103  1  -0.00422301  0.24732193  0.49817245  1
  Co  Co104  1  0.75070858  0.25167227  0.24759400  1
  Co  Co105  1  0.87102186  0.61919116  0.37250403  1
  Co  Co106  1  0.25220129  0.25163288  0.49870409  1
  Co  Co107  1  0.12039777  0.87185149  0.12587063  1
  Co  Co108  1  0.74794347  0.50096267  0.00259108  1
  Co  Co109  1  0.49823991  0.74999281  0.49733874  1
  Co  Co110  1  0.37020981  0.12613198  0.12739993  1
  Co  Co111  1  0.24945006  0.25413887  0.25259229  1
  Co  Co112  1  0.87818961  0.87943876  0.37554129  1
  Co  Co113  1  0.87038856  0.62327427  0.87283642  1
  Co  Co114  1  0.12519697  0.37446817  0.12384430  1
  Co  Co115  1  0.62621085  0.12842046  0.37637751  1
  Co  Co116  1  0.50207544  0.49945988  0.50066749  1
  Co  Co117  1  0.24896316  0.25458735  0.75064273  1
  Co  Co118  1  0.87487302  0.37933622  0.12605644  1
  Co  Co119  1  0.00260829  0.49954297  0.25047831  1
  Co  Co120  1  0.00166350  0.74825770  0.75177542  1
  Co  Co121  1  0.87810250  0.37840192  0.62345204  1
  Co  Co122  1  0.87379623  0.12164765  0.12754277  1
  Co  Co123  1  0.37166602  0.62348326  0.12657404  1
  Co  Co124  1  0.12786503  0.62406560  0.87629355  1
  Co  Co125  1  0.50295724  0.49896758  0.24596549  1
  Co  Co126  1  0.37727074  0.37506352  0.62570144  1
  Co  Co127  1  0.62993353  0.62782792  0.12887822  1
