# generated using pymatgen
data_Fe45Co19
_symmetry_space_group_name_H-M   'P 1'
_cell_length_a   11.41561605
_cell_length_b   11.41531234
_cell_length_c   11.41448951
_cell_angle_alpha   89.99690459
_cell_angle_beta   90.00753877
_cell_angle_gamma   89.99281759
_symmetry_Int_Tables_number   1
_chemical_formula_structural   Fe45Co19
_chemical_formula_sum   'Fe90 Co38'
_cell_volume   1487.45432022
_cell_formula_units_Z   2
loop_
 _symmetry_equiv_pos_site_id
 _symmetry_equiv_pos_as_xyz
  1  'x, y, z'
loop_
 _atom_site_type_symbol
 _atom_site_label
 _atom_site_symmetry_multiplicity
 _atom_site_fract_x
 _atom_site_fract_y
 _atom_site_fract_z
 _atom_site_occupancy
  Fe  Fe0  1  0.12450612  0.37536123  0.87659187  1
  Fe  Fe1  1  -0.00008783  0.49910082  0.49865056  1
  Fe  Fe2  1  0.62624634  0.37398653  0.62555460  1
  Fe  Fe3  1  0.12304748  0.87376698  0.87669592  1
  Fe  Fe4  1  0.00019924  0.74871383  0.00195898  1
  Fe  Fe5  1  0.74904452  -0.00027040  0.49829572  1
  Fe  Fe6  1  0.63011402  0.12176567  0.12617254  1
  Fe  Fe7  1  0.62768639  0.62775667  0.62570520  1
  Fe  Fe8  1  0.62847390  0.62591367  0.37626993  1
  Fe  Fe9  1  -0.00092594  0.00149864  0.49921006  1
  Fe  Fe10  1  0.37797789  0.87558845  0.87646347  1
  Fe  Fe11  1  0.75244125  0.25076152  0.50042293  1
  Fe  Fe12  1  0.75388091  0.75008423  0.50141518  1
  Fe  Fe13  1  0.50191995  0.24914995  0.24915637  1
  Fe  Fe14  1  0.50105217  0.24680034  0.50242515  1
  Fe  Fe15  1  0.24850629  0.25039310  0.74919819  1
  Fe  Fe16  1  0.00084277  0.25408076  0.24737886  1
  Fe  Fe17  1  0.37723159  0.62680478  0.87516706  1
  Fe  Fe18  1  0.12420449  0.62637460  0.13030272  1
  Fe  Fe19  1  0.12426126  0.12606894  0.37398560  1
  Fe  Fe20  1  0.62425398  0.12119849  0.87455267  1
  Fe  Fe21  1  0.12440674  0.62552463  0.62394420  1
  Fe  Fe22  1  0.12339250  0.87421700  0.62272022  1
  Fe  Fe23  1  0.50386729  0.75255716  0.75150575  1
  Fe  Fe24  1  0.62503334  0.62504093  0.12458684  1
  Fe  Fe25  1  0.00063709  0.50130676  0.00142848  1
  Fe  Fe26  1  -0.00298859  0.74832013  0.74835345  1
  Fe  Fe27  1  0.37523837  0.37292967  0.62523800  1
  Fe  Fe28  1  0.25215593  -0.00215597  0.49705994  1
  Fe  Fe29  1  0.24729106  0.25045385  0.24911121  1
  Fe  Fe30  1  0.74648007  0.74943322  -0.00433474  1
  Fe  Fe31  1  0.50146905  0.50048708  0.50080474  1
  Fe  Fe32  1  0.87336817  0.12424903  0.62636769  1
  Fe  Fe33  1  0.75062677  0.75150239  0.25108939  1
  Fe  Fe34  1  -0.00121652  0.74942475  0.49603144  1
  Fe  Fe35  1  0.24887798  0.75224521  0.49514077  1
  Fe  Fe36  1  0.50395813  0.00100123  0.25390845  1
  Fe  Fe37  1  0.25055543  0.74960532  0.00094491  1
  Fe  Fe38  1  0.37504174  0.62516888  0.12745248  1
  Fe  Fe39  1  -0.00022104  -0.00162508  0.24913599  1
  Fe  Fe40  1  0.87376408  0.12500025  0.37139423  1
  Fe  Fe41  1  0.50000779  0.00055482  0.74474110  1
  Fe  Fe42  1  0.37414479  0.37589574  0.12488675  1
  Fe  Fe43  1  0.12558762  0.12513430  0.62334841  1
  Fe  Fe44  1  0.37624070  0.12488186  0.87262248  1
  Fe  Fe45  1  0.75059367  0.25256498  0.24926556  1
  Fe  Fe46  1  0.37653208  0.37333781  0.87539226  1
  Fe  Fe47  1  0.12316767  0.12449697  0.87620368  1
  Fe  Fe48  1  0.37645862  0.37314483  0.37497208  1
  Fe  Fe49  1  0.50171173  0.75045189  0.24997102  1
  Fe  Fe50  1  0.49888711  0.75046353  0.49933617  1
  Fe  Fe51  1  0.75015847  0.50154613  0.00040071  1
  Fe  Fe52  1  -0.00300181  0.24752858  0.00312608  1
  Fe  Fe53  1  0.49989620  0.50129471  0.00038111  1
  Fe  Fe54  1  0.37525372  0.87544400  0.12843768  1
  Fe  Fe55  1  0.37377297  0.12332091  0.12904742  1
  Fe  Fe56  1  0.74960236  0.24987838  0.75071947  1
  Fe  Fe57  1  0.75310214  0.50292408  0.74857898  1
  Fe  Fe58  1  0.62597775  0.87858925  0.12075752  1
  Fe  Fe59  1  0.87531194  0.87318374  0.87533050  1
  Fe  Fe60  1  0.87533711  0.37508534  0.87624678  1
  Fe  Fe61  1  0.00057738  0.25078689  0.74689352  1
  Fe  Fe62  1  0.12618238  0.87554240  0.12799691  1
  Fe  Fe63  1  0.62615963  0.37437868  0.12302701  1
  Fe  Fe64  1  0.24860890  0.49986311  0.49893073  1
  Fe  Fe65  1  0.50308584  0.49954711  0.25102461  1
  Fe  Fe66  1  0.49915984  0.49962554  0.74854116  1
  Fe  Fe67  1  0.87478853  0.87561749  0.37534097  1
  Fe  Fe68  1  0.87490257  0.62302734  0.12889695  1
  Fe  Fe69  1  0.37508841  0.62531192  0.37392641  1
  Fe  Fe70  1  0.24972297  0.24747651  0.00127420  1
  Fe  Fe71  1  0.00034854  -0.00112798  0.74907465  1
  Fe  Fe72  1  -0.00339099  0.00241376  0.00067786  1
  Fe  Fe73  1  0.87212052  0.87642633  0.12428910  1
  Fe  Fe74  1  0.24671590  0.49808060  0.25294673  1
  Fe  Fe75  1  0.50038654  0.00160172  0.49967788  1
  Fe  Fe76  1  -0.00090118  0.50116000  0.74922496  1
  Fe  Fe77  1  0.87412270  0.37921561  0.37404959  1
  Fe  Fe78  1  0.24915927  0.50045715  0.74976027  1
  Fe  Fe79  1  0.24894636  0.50284997  -0.00158678  1
  Fe  Fe80  1  0.24959691  -0.00200032  0.74880033  1
  Fe  Fe81  1  0.25042122  0.00043499  0.00078289  1
  Fe  Fe82  1  0.75309761  0.24571291  -0.00044364  1
  Fe  Fe83  1  0.37417368  0.62767096  0.62472811  1
  Fe  Fe84  1  0.62509741  0.37435385  0.37636239  1
  Fe  Fe85  1  0.24929154  0.25051265  0.50043791  1
  Fe  Fe86  1  0.24906365  0.75153036  0.75067437  1
  Fe  Fe87  1  0.62469110  0.37573535  0.87548035  1
  Fe  Fe88  1  0.50059934  0.24669220  0.00057761  1
  Fe  Fe89  1  0.75001989  -0.00470907  0.74974222  1
  Co  Co90  1  0.49695823  0.00290488  0.00286810  1
  Co  Co91  1  0.62559487  0.87339685  0.62209063  1
  Co  Co92  1  -0.00410804  0.24887352  0.50048901  1
  Co  Co93  1  -0.00380384  0.75212890  0.25197348  1
  Co  Co94  1  0.87366445  0.37731111  0.12422332  1
  Co  Co95  1  0.24913919  0.00007912  0.25309456  1
  Co  Co96  1  0.12258926  0.62590631  0.37256762  1
  Co  Co97  1  0.87609309  0.87580310  0.62385966  1
  Co  Co98  1  0.37245984  0.12574150  0.62437722  1
  Co  Co99  1  0.75559645  0.00317571  -0.00310578  1
  Co  Co100  1  0.74788150  -0.00419662  0.25347398  1
  Co  Co101  1  0.50197908  0.24833324  0.74965877  1
  Co  Co102  1  0.12337333  0.12322800  0.12551100  1
  Co  Co103  1  0.62446323  0.62279047  0.87328000  1
  Co  Co104  1  0.37545417  0.87329272  0.62348458  1
  Co  Co105  1  0.87556049  0.62467276  0.62258072  1
  Co  Co106  1  0.00276822  0.49665677  0.25065780  1
  Co  Co107  1  0.12384348  0.37187650  0.37794723  1
  Co  Co108  1  0.62892685  0.12447286  0.62373680  1
  Co  Co109  1  0.50076092  0.74958979  0.00111334  1
  Co  Co110  1  0.74600722  0.49939968  0.24969517  1
  Co  Co111  1  0.12349306  0.62688908  0.87413474  1
  Co  Co112  1  0.24980944  0.75067770  0.25289776  1
  Co  Co113  1  0.87701157  0.12513501  0.87003841  1
  Co  Co114  1  0.62737937  0.12743737  0.37521825  1
  Co  Co115  1  0.37497150  0.12700137  0.37462724  1
  Co  Co116  1  0.87483813  0.37499403  0.62533480  1
  Co  Co117  1  0.87337917  0.62114556  0.37248093  1
  Co  Co118  1  0.87302727  0.12333039  0.13082377  1
  Co  Co119  1  0.12397018  0.37544084  0.62389559  1
  Co  Co120  1  0.87537639  0.62572379  0.87734311  1
  Co  Co121  1  0.37797266  0.87539740  0.37252439  1
  Co  Co122  1  0.12638051  0.37564026  0.12123469  1
  Co  Co123  1  0.62502409  0.87196761  0.37843771  1
  Co  Co124  1  0.12309227  0.87618800  0.37344727  1
  Co  Co125  1  0.75023407  0.75126839  0.75185709  1
  Co  Co126  1  0.74848662  0.49909172  0.50155777  1
  Co  Co127  1  0.62315824  0.87973922  0.87823721  1
