# generated using pymatgen
data_Fe45Co19
_symmetry_space_group_name_H-M   'P 1'
_cell_length_a   11.41526890
_cell_length_b   11.41511236
_cell_length_c   11.41549198
_cell_angle_alpha   89.99864788
_cell_angle_beta   90.00623598
_cell_angle_gamma   89.99801576
_symmetry_Int_Tables_number   1
_chemical_formula_structural   Fe45Co19
_chemical_formula_sum   'Fe90 Co38'
_cell_volume   1487.51367649
_cell_formula_units_Z   2
loop_
 _symmetry_equiv_pos_site_id
 _symmetry_equiv_pos_as_xyz
  1  'x, y, z'
loop_
 _atom_site_type_symbol
 _atom_site_label
 _atom_site_symmetry_multiplicity
 _atom_site_fract_x
 _atom_site_fract_y
 _atom_site_fract_z
 _atom_site_occupancy
  Fe  Fe0  1  0.74902216  0.00179558  0.25082823  1
  Fe  Fe1  1  0.74975210  0.24891202  -0.00387622  1
  Fe  Fe2  1  0.87739778  0.37681259  0.62896433  1
  Fe  Fe3  1  0.37370330  0.62669859  0.12718132  1
  Fe  Fe4  1  0.37494927  0.87335088  0.87399891  1
  Fe  Fe5  1  0.24744096  0.00210691  -0.00065922  1
  Fe  Fe6  1  0.87607273  0.87617542  0.12322576  1
  Fe  Fe7  1  0.50056363  0.25032391  0.50057801  1
  Fe  Fe8  1  0.87889102  0.87770414  0.62922413  1
  Fe  Fe9  1  0.00016608  0.24804712  -0.00234175  1
  Fe  Fe10  1  0.37506644  0.87287415  0.62839404  1
  Fe  Fe11  1  0.12106557  0.87390173  0.87498477  1
  Fe  Fe12  1  0.87741947  0.37570453  0.12615254  1
  Fe  Fe13  1  0.49845311  0.49875523  0.75032393  1
  Fe  Fe14  1  0.49930721  0.74878021  -0.00072600  1
  Fe  Fe15  1  0.12320905  0.62366835  0.12102655  1
  Fe  Fe16  1  0.12193070  0.87638589  0.12301847  1
  Fe  Fe17  1  0.62293167  0.87168160  0.62515804  1
  Fe  Fe18  1  0.12698761  0.12804100  0.87167406  1
  Fe  Fe19  1  0.49899163  0.50064754  0.25081711  1
  Fe  Fe20  1  0.37323156  0.87103801  0.37147820  1
  Fe  Fe21  1  0.87636811  0.62454008  0.37479228  1
  Fe  Fe22  1  -0.00450062  0.74743798  -0.00426419  1
  Fe  Fe23  1  0.75244877  0.50017018  0.24970480  1
  Fe  Fe24  1  0.87684870  0.87584972  0.37550693  1
  Fe  Fe25  1  0.00065983  0.74768427  0.24926217  1
  Fe  Fe26  1  0.24728460  0.25473440  0.50544654  1
  Fe  Fe27  1  0.62554464  0.87316206  0.37599082  1
  Fe  Fe28  1  0.74940311  0.00103795  -0.00309982  1
  Fe  Fe29  1  0.49932608  -0.00068665  0.49965684  1
  Fe  Fe30  1  0.12493842  0.12522611  0.37879499  1
  Fe  Fe31  1  0.24866866  -0.00393866  0.49996652  1
  Fe  Fe32  1  0.50212613  0.25052584  -0.00231052  1
  Fe  Fe33  1  0.12895321  0.62766874  0.37930641  1
  Fe  Fe34  1  0.37466663  0.87464907  0.12587317  1
  Fe  Fe35  1  0.75187867  0.25130935  0.50344095  1
  Fe  Fe36  1  0.87806116  0.37551407  0.37470733  1
  Fe  Fe37  1  0.62644532  0.12615030  0.62654951  1
  Fe  Fe38  1  0.62569884  0.37567102  0.37734593  1
  Fe  Fe39  1  0.12292350  0.87402829  0.62635451  1
  Fe  Fe40  1  0.12775916  0.37190170  0.87169685  1
  Fe  Fe41  1  0.62438494  0.87314373  0.87352197  1
  Fe  Fe42  1  -0.00054988  0.49943109  -0.00278119  1
  Fe  Fe43  1  0.24865500  0.24946395  0.24846729  1
  Fe  Fe44  1  0.75391127  0.74927733  -0.00221523  1
  Fe  Fe45  1  0.25019481  0.75149642  -0.00003749  1
  Fe  Fe46  1  0.37301559  0.12586273  0.37771194  1
  Fe  Fe47  1  0.87550932  0.12461018  0.37891134  1
  Fe  Fe48  1  0.62624476  0.37407474  0.12347365  1
  Fe  Fe49  1  0.00519711  0.50564796  0.75205768  1
  Fe  Fe50  1  0.87377196  0.12174971  0.86798698  1
  Fe  Fe51  1  0.00098009  0.75171300  0.50147494  1
  Fe  Fe52  1  0.87807392  0.62369499  0.62602781  1
  Fe  Fe53  1  0.00018206  0.24858420  0.24993640  1
  Fe  Fe54  1  0.75284478  0.75013625  0.50113698  1
  Fe  Fe55  1  0.75076744  -0.00057194  0.50283609  1
  Fe  Fe56  1  0.50086609  0.00086712  -0.00106363  1
  Fe  Fe57  1  0.50084387  -0.00058772  0.75008794  1
  Fe  Fe58  1  0.62649507  0.62728825  0.12705571  1
  Fe  Fe59  1  0.37144187  0.62604555  0.87274121  1
  Fe  Fe60  1  0.00103617  0.24834977  0.50614693  1
  Fe  Fe61  1  0.24757099  0.49959667  0.25176751  1
  Fe  Fe62  1  0.50163789  0.00203633  0.25113938  1
  Fe  Fe63  1  0.49843580  0.50062446  -0.00069304  1
  Fe  Fe64  1  0.24745249  0.00014583  0.24999526  1
  Fe  Fe65  1  0.37445577  0.37328804  0.12371480  1
  Fe  Fe66  1  0.75253849  0.50108375  0.00148373  1
  Fe  Fe67  1  0.37458370  0.12522147  0.12324148  1
  Fe  Fe68  1  0.00086968  0.00204543  0.25110357  1
  Fe  Fe69  1  0.37386931  0.37495501  0.37641694  1
  Fe  Fe70  1  0.37354748  0.12807910  0.87456906  1
  Fe  Fe71  1  0.50147081  0.25369430  0.75096111  1
  Fe  Fe72  1  0.25070928  0.49761851  -0.00208343  1
  Fe  Fe73  1  0.62520857  0.62538056  0.62548259  1
  Fe  Fe74  1  0.62608368  0.87400118  0.12509865  1
  Fe  Fe75  1  0.36770646  0.62466990  0.62534333  1
  Fe  Fe76  1  0.87558923  0.12442456  0.12333512  1
  Fe  Fe77  1  0.62739906  0.62329728  0.87283408  1
  Fe  Fe78  1  0.00508016  0.49804499  0.49923052  1
  Fe  Fe79  1  0.49701645  0.50243292  0.49952125  1
  Fe  Fe80  1  0.49622649  0.74785273  0.49943386  1
  Fe  Fe81  1  0.75106912  0.49964063  0.50194947  1
  Fe  Fe82  1  0.62633429  0.62660853  0.37412768  1
  Fe  Fe83  1  0.37383520  0.12458576  0.62529092  1
  Fe  Fe84  1  0.50235141  0.24801325  0.25104682  1
  Fe  Fe85  1  0.24909298  -0.00072397  0.75062162  1
  Fe  Fe86  1  0.87427774  0.37689602  0.87072080  1
  Fe  Fe87  1  0.74896583  0.24840000  0.25094817  1
  Fe  Fe88  1  0.75338482  0.74984411  0.75022115  1
  Fe  Fe89  1  0.12298714  0.37462535  0.12515125  1
  Co  Co90  1  0.37297992  0.37249587  0.87613258  1
  Co  Co91  1  0.12209221  0.37740404  0.63063267  1
  Co  Co92  1  0.25158241  0.25186704  0.74490682  1
  Co  Co93  1  0.74892985  0.49914324  0.74559004  1
  Co  Co94  1  0.25112956  0.75541323  0.50205602  1
  Co  Co95  1  0.00064666  0.00122717  0.50202354  1
  Co  Co96  1  0.36968593  0.62625316  0.37445773  1
  Co  Co97  1  0.62404961  0.12394295  0.87203454  1
  Co  Co98  1  0.24916244  0.49834034  0.75120297  1
  Co  Co99  1  0.12293637  0.87431718  0.37445387  1
  Co  Co100  1  0.00378535  0.00267930  0.74900862  1
  Co  Co101  1  0.24745486  0.49427758  0.50005792  1
  Co  Co102  1  0.00126939  0.00465759  -0.00257340  1
  Co  Co103  1  0.62367387  0.37633794  0.62263744  1
  Co  Co104  1  0.12863876  0.12259541  0.62489416  1
  Co  Co105  1  0.74601856  -0.00366027  0.74867577  1
  Co  Co106  1  -0.00013737  0.24671226  0.74785184  1
  Co  Co107  1  0.87789585  0.87890118  0.87273587  1
  Co  Co108  1  0.87238737  0.62142940  0.87243344  1
  Co  Co109  1  0.12830939  0.62600134  0.62189779  1
  Co  Co110  1  0.37674042  0.37680429  0.62469385  1
  Co  Co111  1  0.75305620  0.75058721  0.25073441  1
  Co  Co112  1  0.00029559  0.74631630  0.75170946  1
  Co  Co113  1  0.87697606  0.62363084  0.12571891  1
  Co  Co114  1  0.00326163  0.50230134  0.25227195  1
  Co  Co115  1  0.12377827  0.12498173  0.12555084  1
  Co  Co116  1  0.12363068  0.37129725  0.37387458  1
  Co  Co117  1  0.62639454  0.38029751  0.87626545  1
  Co  Co118  1  0.12813941  0.62633180  0.87733346  1
  Co  Co119  1  0.87165706  0.12293822  0.62909934  1
  Co  Co120  1  0.24545040  0.74937371  0.24628327  1
  Co  Co121  1  0.24628245  0.75137620  0.75083112  1
  Co  Co122  1  0.62645796  0.12487499  0.37879244  1
  Co  Co123  1  0.24723045  0.24941873  0.00219764  1
  Co  Co124  1  0.50050515  0.75004917  0.25015158  1
  Co  Co125  1  0.49856998  0.74733006  0.75006112  1
  Co  Co126  1  0.74802097  0.25384141  0.75047438  1
  Co  Co127  1  0.62538928  0.12521205  0.12324781  1
