# generated using pymatgen
data_Fe45Co19
_symmetry_space_group_name_H-M   'P 1'
_cell_length_a   11.41405688
_cell_length_b   11.41514147
_cell_length_c   11.41497787
_cell_angle_alpha   90.00098080
_cell_angle_beta   89.99615365
_cell_angle_gamma   90.00541200
_symmetry_Int_Tables_number   1
_chemical_formula_structural   Fe45Co19
_chemical_formula_sum   'Fe90 Co38'
_cell_volume   1487.29254630
_cell_formula_units_Z   2
loop_
 _symmetry_equiv_pos_site_id
 _symmetry_equiv_pos_as_xyz
  1  'x, y, z'
loop_
 _atom_site_type_symbol
 _atom_site_label
 _atom_site_symmetry_multiplicity
 _atom_site_fract_x
 _atom_site_fract_y
 _atom_site_fract_z
 _atom_site_occupancy
  Fe  Fe0  1  0.12614008  0.12378479  0.62600972  1
  Fe  Fe1  1  0.25000189  0.49750358  -0.00057216  1
  Fe  Fe2  1  0.49933277  0.24905780  0.74805449  1
  Fe  Fe3  1  0.12006933  0.86934300  0.37429770  1
  Fe  Fe4  1  0.12202539  0.87366032  0.62472198  1
  Fe  Fe5  1  0.62847091  0.62418892  0.12635246  1
  Fe  Fe6  1  0.62568830  0.87658912  0.12703365  1
  Fe  Fe7  1  0.12411970  0.63013857  0.37216360  1
  Fe  Fe8  1  0.87044102  0.62640619  0.87973277  1
  Fe  Fe9  1  0.37382169  0.62804312  0.37404383  1
  Fe  Fe10  1  0.12122610  0.12108030  0.12478576  1
  Fe  Fe11  1  0.87941213  0.87797204  0.12403191  1
  Fe  Fe12  1  0.50041591  0.50062678  0.00112672  1
  Fe  Fe13  1  0.12649907  0.62434636  0.87380588  1
  Fe  Fe14  1  0.62720849  0.12268472  0.12518128  1
  Fe  Fe15  1  0.62159327  0.37431938  0.37243412  1
  Fe  Fe16  1  0.74920797  0.25486039  0.74554673  1
  Fe  Fe17  1  0.62580406  0.87461455  0.87565315  1
  Fe  Fe18  1  0.12463444  0.37539458  0.87431104  1
  Fe  Fe19  1  0.75190373  0.50019149  0.25234971  1
  Fe  Fe20  1  0.12463253  0.37777341  0.62627221  1
  Fe  Fe21  1  0.37631009  0.12357886  0.62173302  1
  Fe  Fe22  1  0.24992704  0.75089861  0.74846142  1
  Fe  Fe23  1  0.00180179  0.24922891  0.50146856  1
  Fe  Fe24  1  0.50056977  -0.00018259  0.75082840  1
  Fe  Fe25  1  0.49952341  0.24773730  0.00213437  1
  Fe  Fe26  1  0.25054202  0.24946223  0.00096977  1
  Fe  Fe27  1  0.37259571  0.62560466  0.87553461  1
  Fe  Fe28  1  0.24930332  0.25143075  0.49971140  1
  Fe  Fe29  1  0.24882897  -0.00404835  0.25188432  1
  Fe  Fe30  1  0.62930910  0.62444965  0.87694014  1
  Fe  Fe31  1  0.75397209  0.00130124  0.25204801  1
  Fe  Fe32  1  0.24779662  0.50237475  0.49972361  1
  Fe  Fe33  1  0.37260108  0.62473416  0.12564724  1
  Fe  Fe34  1  0.37493528  0.37517571  0.12656290  1
  Fe  Fe35  1  0.24970171  0.00004175  -0.00002487  1
  Fe  Fe36  1  0.87470545  0.37473601  0.87505622  1
  Fe  Fe37  1  0.86744687  0.62239824  0.61877690  1
  Fe  Fe38  1  0.50196411  0.74980303  0.00107236  1
  Fe  Fe39  1  0.25082670  -0.00216083  0.74955729  1
  Fe  Fe40  1  0.37764068  0.87373584  0.62192213  1
  Fe  Fe41  1  0.87700537  0.37567996  0.12567907  1
  Fe  Fe42  1  0.49915425  0.50237983  0.75164531  1
  Fe  Fe43  1  0.37507631  0.12444568  0.87589200  1
  Fe  Fe44  1  -0.00207668  0.00219340  0.75286554  1
  Fe  Fe45  1  0.50186830  0.74899334  0.75041162  1
  Fe  Fe46  1  0.24786491  -0.00410777  0.49865602  1
  Fe  Fe47  1  0.24758081  0.49862918  0.25025861  1
  Fe  Fe48  1  0.50365391  0.50255741  0.49773624  1
  Fe  Fe49  1  0.37484458  0.12429328  0.37600144  1
  Fe  Fe50  1  0.00078486  0.74808531  0.00435938  1
  Fe  Fe51  1  0.49954172  0.00159489  0.25081184  1
  Fe  Fe52  1  0.87818687  0.37647221  0.37750006  1
  Fe  Fe53  1  0.62386297  0.37590969  0.87404467  1
  Fe  Fe54  1  0.87345287  0.12518408  0.62399133  1
  Fe  Fe55  1  0.74598196  0.25393828  0.50207068  1
  Fe  Fe56  1  0.75470804  -0.00066494  -0.00255510  1
  Fe  Fe57  1  -0.00351103  0.50256372  0.74915452  1
  Fe  Fe58  1  0.62384555  0.37654117  0.12783104  1
  Fe  Fe59  1  -0.00033048  0.50192528  0.00147487  1
  Fe  Fe60  1  0.75146090  0.25016592  0.25001048  1
  Fe  Fe61  1  0.37720195  0.37700936  0.62301884  1
  Fe  Fe62  1  0.00246088  0.50344359  0.50050557  1
  Fe  Fe63  1  0.37405960  0.62655738  0.62431925  1
  Fe  Fe64  1  0.49865635  0.24714698  0.24984709  1
  Fe  Fe65  1  0.74742786  -0.00208053  0.49906464  1
  Fe  Fe66  1  0.87871933  0.87136060  0.37767501  1
  Fe  Fe67  1  -0.00195363  0.74610977  0.74711009  1
  Fe  Fe68  1  0.74949274  0.74963158  0.74888399  1
  Fe  Fe69  1  -0.00019371  0.24916494  0.74893221  1
  Fe  Fe70  1  0.00021769  0.50343519  0.24846623  1
  Fe  Fe71  1  0.00065912  0.24924631  0.25115375  1
  Fe  Fe72  1  0.25208532  0.25215265  0.74970657  1
  Fe  Fe73  1  0.75097711  0.25147471  0.00233163  1
  Fe  Fe74  1  0.50547852  -0.00044101  0.49752172  1
  Fe  Fe75  1  0.24810073  0.75195000  0.00257878  1
  Fe  Fe76  1  0.24748693  0.25086759  0.24986054  1
  Fe  Fe77  1  0.87498275  0.87450963  0.62347962  1
  Fe  Fe78  1  0.87443792  0.12621045  0.37745455  1
  Fe  Fe79  1  0.12151370  0.87481020  0.87587637  1
  Fe  Fe80  1  -0.00155926  0.24581159  -0.00136442  1
  Fe  Fe81  1  0.62737074  0.12497389  0.87487354  1
  Fe  Fe82  1  0.37613653  0.87404273  0.87614611  1
  Fe  Fe83  1  0.75141496  -0.00149338  0.75068816  1
  Fe  Fe84  1  0.75510121  0.74832920  0.25065870  1
  Fe  Fe85  1  0.37588336  0.87660980  0.12464550  1
  Fe  Fe86  1  0.50651073  0.75005620  0.49877582  1
  Fe  Fe87  1  0.49864838  0.74926365  0.24969067  1
  Fe  Fe88  1  0.37543544  0.37555092  0.37499410  1
  Fe  Fe89  1  0.12424574  0.12460698  0.37552231  1
  Co  Co90  1  0.00005867  0.74637520  0.50471179  1
  Co  Co91  1  -0.00356837  0.74620400  0.24488616  1
  Co  Co92  1  -0.00151872  0.00062014  0.25488049  1
  Co  Co93  1  0.74895136  0.49541708  0.00062361  1
  Co  Co94  1  0.12905655  0.62493666  0.12650804  1
  Co  Co95  1  0.50212051  0.24978330  0.49905353  1
  Co  Co96  1  0.50064135  0.00012932  -0.00045345  1
  Co  Co97  1  0.87023599  0.12939217  0.87104755  1
  Co  Co98  1  0.62817116  0.62345399  0.62535672  1
  Co  Co99  1  0.12824346  0.12505346  0.87383159  1
  Co  Co100  1  0.87640287  0.12484356  0.12711518  1
  Co  Co101  1  0.12294773  0.37608621  0.37577029  1
  Co  Co102  1  0.37826664  0.87386512  0.37742667  1
  Co  Co103  1  0.00070657  0.00094840  0.50014252  1
  Co  Co104  1  0.74577496  0.75320827  0.49768830  1
  Co  Co105  1  0.62708084  0.62624602  0.37227129  1
  Co  Co106  1  0.75216747  0.49791456  0.75090543  1
  Co  Co107  1  0.74943500  0.75421926  0.00344690  1
  Co  Co108  1  0.87541754  0.62519650  0.37892467  1
  Co  Co109  1  0.62075192  0.37925330  0.62665170  1
  Co  Co110  1  0.37701078  0.37405351  0.87637361  1
  Co  Co111  1  0.62674966  0.12581270  0.37358396  1
  Co  Co112  1  0.37331785  0.12337010  0.12700113  1
  Co  Co113  1  -0.00477913  0.00387263  -0.00653411  1
  Co  Co114  1  0.49909656  0.50213103  0.24968951  1
  Co  Co115  1  0.24832239  0.75096025  0.50065604  1
  Co  Co116  1  0.12274228  0.37414796  0.12340753  1
  Co  Co117  1  0.25225136  0.49796859  0.75045191  1
  Co  Co118  1  0.12833520  0.62419279  0.62760396  1
  Co  Co119  1  0.87760329  0.37721804  0.62156195  1
  Co  Co120  1  0.62571722  0.87456676  0.36925207  1
  Co  Co121  1  0.74517684  0.49528354  0.49609045  1
  Co  Co122  1  0.62558244  0.12376790  0.62561753  1
  Co  Co123  1  0.12059506  0.87909654  0.12443182  1
  Co  Co124  1  0.87693126  0.86903753  0.87431335  1
  Co  Co125  1  0.87084305  0.62197041  0.12204694  1
  Co  Co126  1  0.62508702  0.87474624  0.62735223  1
  Co  Co127  1  0.25116785  0.75468674  0.24871022  1
