# generated using pymatgen
data_Fe45Co19
_symmetry_space_group_name_H-M   'P 1'
_cell_length_a   11.41337199
_cell_length_b   11.41286186
_cell_length_c   11.41443830
_cell_angle_alpha   90.00810096
_cell_angle_beta   90.00767216
_cell_angle_gamma   89.99335702
_symmetry_Int_Tables_number   1
_chemical_formula_structural   Fe45Co19
_chemical_formula_sum   'Fe90 Co38'
_cell_volume   1486.83599605
_cell_formula_units_Z   2
loop_
 _symmetry_equiv_pos_site_id
 _symmetry_equiv_pos_as_xyz
  1  'x, y, z'
loop_
 _atom_site_type_symbol
 _atom_site_label
 _atom_site_symmetry_multiplicity
 _atom_site_fract_x
 _atom_site_fract_y
 _atom_site_fract_z
 _atom_site_occupancy
  Fe  Fe0  1  0.87650149  0.37385001  0.12534679  1
  Fe  Fe1  1  0.74832394  0.00378784  0.74529861  1
  Fe  Fe2  1  0.87713046  0.87542672  0.62841195  1
  Fe  Fe3  1  0.12517557  0.87465585  0.87636072  1
  Fe  Fe4  1  0.37538245  0.87510020  0.87589113  1
  Fe  Fe5  1  0.74883043  0.24731877  0.74474797  1
  Fe  Fe6  1  0.37659079  0.62639641  0.12683308  1
  Fe  Fe7  1  0.49652044  0.50269380  0.49788667  1
  Fe  Fe8  1  0.24967745  0.74483566  0.50019094  1
  Fe  Fe9  1  0.37621192  0.87294500  0.62485323  1
  Fe  Fe10  1  0.63178092  0.12353636  0.37834457  1
  Fe  Fe11  1  0.62988043  0.62709448  0.87592837  1
  Fe  Fe12  1  0.25076727  -0.00008689  0.50107860  1
  Fe  Fe13  1  -0.00057182  0.50084223  -0.00308192  1
  Fe  Fe14  1  0.00173908  0.50117403  0.49877599  1
  Fe  Fe15  1  0.24889076  -0.00333561  0.24840614  1
  Fe  Fe16  1  0.24779800  0.50406868  0.74617019  1
  Fe  Fe17  1  0.25018586  0.50083833  0.00177125  1
  Fe  Fe18  1  0.37626121  0.37409008  0.12681335  1
  Fe  Fe19  1  0.87346096  0.37461686  0.87354900  1
  Fe  Fe20  1  0.37387936  0.37664904  0.87280856  1
  Fe  Fe21  1  -0.00100465  0.24897208  0.49794541  1
  Fe  Fe22  1  -0.00105338  0.24867078  0.25094013  1
  Fe  Fe23  1  0.74871028  0.75165151  0.24718761  1
  Fe  Fe24  1  0.24985781  0.25044291  0.00050573  1
  Fe  Fe25  1  0.49954974  0.24983082  0.49698198  1
  Fe  Fe26  1  0.12327912  0.87105211  0.62320765  1
  Fe  Fe27  1  0.12397785  0.12442417  0.12476221  1
  Fe  Fe28  1  0.62335557  0.62467121  0.62518973  1
  Fe  Fe29  1  -0.00099876  -0.00117409  0.49994223  1
  Fe  Fe30  1  -0.00113278  0.74728571  0.75440617  1
  Fe  Fe31  1  0.74942539  0.49877878  0.24946452  1
  Fe  Fe32  1  0.87781946  0.87601686  0.12452147  1
  Fe  Fe33  1  0.25172000  -0.00210985  0.00297491  1
  Fe  Fe34  1  0.75018518  0.49893272  0.50028558  1
  Fe  Fe35  1  0.12618302  0.37674071  0.37413047  1
  Fe  Fe36  1  0.62275040  0.37606293  0.12620331  1
  Fe  Fe37  1  0.12428280  0.37500715  0.12700435  1
  Fe  Fe38  1  0.62919733  0.87447484  0.87410242  1
  Fe  Fe39  1  0.24601733  0.75274666  0.24907742  1
  Fe  Fe40  1  0.12714182  0.37612221  0.87324537  1
  Fe  Fe41  1  0.37565162  0.12461807  0.12686950  1
  Fe  Fe42  1  0.86859540  0.12388265  0.37663060  1
  Fe  Fe43  1  0.50223365  0.75034221  0.24998095  1
  Fe  Fe44  1  0.00018051  0.24817585  -0.00261766  1
  Fe  Fe45  1  0.75158117  0.24715929  0.00206184  1
  Fe  Fe46  1  0.50216666  0.24894314  0.25334522  1
  Fe  Fe47  1  0.62628856  0.37355496  0.87487266  1
  Fe  Fe48  1  0.87769390  0.62412310  0.62505558  1
  Fe  Fe49  1  0.74962021  0.50020378  0.74827352  1
  Fe  Fe50  1  0.37398341  0.37554827  0.37361067  1
  Fe  Fe51  1  0.50029198  0.74923010  0.75093140  1
  Fe  Fe52  1  0.87521078  0.62543125  0.37468407  1
  Fe  Fe53  1  -0.00288189  0.00250473  -0.00491150  1
  Fe  Fe54  1  0.25135920  0.24992429  0.49986620  1
  Fe  Fe55  1  0.50174623  0.00124230  0.75151352  1
  Fe  Fe56  1  0.00208758  0.24722197  0.75221669  1
  Fe  Fe57  1  0.37716708  0.12469771  0.62450561  1
  Fe  Fe58  1  0.87320752  0.37408797  0.37461305  1
  Fe  Fe59  1  0.62299913  0.87624288  0.12332291  1
  Fe  Fe60  1  0.12752732  0.12379333  0.37510436  1
  Fe  Fe61  1  0.62522876  0.62432216  0.37382979  1
  Fe  Fe62  1  0.24805478  -0.00187248  0.74808595  1
  Fe  Fe63  1  0.37390819  0.87359943  0.37470705  1
  Fe  Fe64  1  0.75214462  0.00034403  0.00068367  1
  Fe  Fe65  1  0.62186425  0.37574659  0.62310258  1
  Fe  Fe66  1  0.12180882  0.62551391  0.12521286  1
  Fe  Fe67  1  0.87812278  0.37482425  0.62613530  1
  Fe  Fe68  1  0.37572760  0.37726888  0.62642594  1
  Fe  Fe69  1  0.12423497  0.12581774  0.62487771  1
  Fe  Fe70  1  0.00034138  -0.00092446  0.25241969  1
  Fe  Fe71  1  0.50113949  0.75028563  0.49959097  1
  Fe  Fe72  1  0.50016698  0.50156620  -0.00130018  1
  Fe  Fe73  1  0.12479983  0.37570084  0.62470295  1
  Fe  Fe74  1  0.74904340  0.75269065  0.50333836  1
  Fe  Fe75  1  0.50205445  -0.00279193  0.49848186  1
  Fe  Fe76  1  0.24992088  0.50201260  0.25082429  1
  Fe  Fe77  1  0.50011654  0.24888949  0.75134709  1
  Fe  Fe78  1  0.87094687  0.87631904  0.37594080  1
  Fe  Fe79  1  0.37228034  0.12413033  0.87461443  1
  Fe  Fe80  1  0.25023103  0.75143152  0.00210907  1
  Fe  Fe81  1  -0.00384771  0.74894855  -0.00462798  1
  Fe  Fe82  1  0.50173808  0.75017513  -0.00018560  1
  Fe  Fe83  1  0.37308659  0.62530209  0.87319811  1
  Fe  Fe84  1  0.87558524  0.62493259  0.12535792  1
  Fe  Fe85  1  0.00159862  0.75248292  0.25351798  1
  Fe  Fe86  1  0.50103220  -0.00039710  0.25268280  1
  Fe  Fe87  1  0.49924953  0.24837145  -0.00203286  1
  Fe  Fe88  1  0.62564911  0.12378474  0.12497289  1
  Fe  Fe89  1  0.74965423  0.50057138  0.00238706  1
  Co  Co90  1  0.75170330  0.75225695  0.00404708  1
  Co  Co91  1  0.74933892  0.25184339  0.24878669  1
  Co  Co92  1  0.37524695  0.62794956  0.37191962  1
  Co  Co93  1  0.75020263  -0.00271324  0.24635015  1
  Co  Co94  1  -0.00182569  0.49943825  0.25040287  1
  Co  Co95  1  0.49889575  0.49969272  0.25078627  1
  Co  Co96  1  0.87079847  0.87681173  0.87086955  1
  Co  Co97  1  0.75157185  0.74723489  0.74585711  1
  Co  Co98  1  0.00040393  0.50218605  0.75272162  1
  Co  Co99  1  0.12914506  0.12372134  0.87578455  1
  Co  Co100  1  0.24953518  0.75153402  0.75010733  1
  Co  Co101  1  0.37916377  0.87448285  0.12657063  1
  Co  Co102  1  0.87808788  0.12480590  0.62413501  1
  Co  Co103  1  0.62728829  0.87473025  0.37464055  1
  Co  Co104  1  0.12104121  0.62809060  0.62398967  1
  Co  Co105  1  0.62435320  0.62390186  0.12584344  1
  Co  Co106  1  0.25079878  0.24928093  0.74808997  1
  Co  Co107  1  -0.00310957  0.75127907  0.49716543  1
  Co  Co108  1  0.62172922  0.12630253  0.62034553  1
  Co  Co109  1  0.12771560  0.62545823  0.87603015  1
  Co  Co110  1  0.12276947  0.62452047  0.37498301  1
  Co  Co111  1  0.75116881  0.25246324  0.50340201  1
  Co  Co112  1  0.11972907  0.87559166  0.12118220  1
  Co  Co113  1  0.37641934  0.62600570  0.62793896  1
  Co  Co114  1  0.12706198  0.87534564  0.37943786  1
  Co  Co115  1  0.74933155  -0.00432656  0.50661268  1
  Co  Co116  1  0.37323353  0.12288206  0.37480276  1
  Co  Co117  1  0.50246393  0.50168491  0.75291978  1
  Co  Co118  1  0.87327593  0.12563468  0.87126150  1
  Co  Co119  1  0.25034307  0.50276710  0.50081021  1
  Co  Co120  1  0.62293838  0.87369595  0.62864052  1
  Co  Co121  1  0.86949367  0.62313929  0.87588214  1
  Co  Co122  1  0.24956965  0.24956795  0.25053702  1
  Co  Co123  1  0.50021908  0.00054754  -0.00167282  1
  Co  Co124  1  0.62729741  0.12560868  0.87615454  1
  Co  Co125  1  0.62553178  0.37669224  0.37639047  1
  Co  Co126  1  0.87658898  0.12474095  0.12651266  1
  Co  Co127  1  0.00420730  0.00007850  0.75096779  1
