# generated using pymatgen
data_Fe45Co19
_symmetry_space_group_name_H-M   'P 1'
_cell_length_a   11.41608442
_cell_length_b   11.41480919
_cell_length_c   11.41356810
_cell_angle_alpha   89.99025847
_cell_angle_beta   90.00562089
_cell_angle_gamma   89.99862373
_symmetry_Int_Tables_number   1
_chemical_formula_structural   Fe45Co19
_chemical_formula_sum   'Fe90 Co38'
_cell_volume   1487.32971179
_cell_formula_units_Z   2
loop_
 _symmetry_equiv_pos_site_id
 _symmetry_equiv_pos_as_xyz
  1  'x, y, z'
loop_
 _atom_site_type_symbol
 _atom_site_label
 _atom_site_symmetry_multiplicity
 _atom_site_fract_x
 _atom_site_fract_y
 _atom_site_fract_z
 _atom_site_occupancy
  Fe  Fe0  1  0.49980611  0.24990538  0.49901216  1
  Fe  Fe1  1  -0.00115845  -0.00209082  0.49745481  1
  Fe  Fe2  1  0.75247029  0.49983348  0.49953404  1
  Fe  Fe3  1  0.50025789  0.24911631  0.24921719  1
  Fe  Fe4  1  0.37546693  0.62282648  0.62942157  1
  Fe  Fe5  1  0.00294790  0.24773404  0.00326305  1
  Fe  Fe6  1  0.12323959  0.62269328  0.37403236  1
  Fe  Fe7  1  0.37114623  0.87020334  0.87401363  1
  Fe  Fe8  1  0.24845217  0.24922341  0.24740690  1
  Fe  Fe9  1  0.87646081  0.37406502  0.37238574  1
  Fe  Fe10  1  0.62057775  0.12135223  0.12270713  1
  Fe  Fe11  1  0.25032331  0.74925219  0.50192041  1
  Fe  Fe12  1  0.37301241  0.37509497  0.12216055  1
  Fe  Fe13  1  0.62462294  0.87466042  0.37577139  1
  Fe  Fe14  1  0.62547945  0.87732923  0.62416188  1
  Fe  Fe15  1  0.12696560  0.87814033  0.62582385  1
  Fe  Fe16  1  0.24771687  0.24953680  0.75153367  1
  Fe  Fe17  1  0.87835854  0.12504083  0.12418732  1
  Fe  Fe18  1  0.62383078  0.87858897  0.12446581  1
  Fe  Fe19  1  0.24936057  0.49989645  0.49993993  1
  Fe  Fe20  1  0.37509538  0.87336936  0.37556113  1
  Fe  Fe21  1  0.62737602  0.37459040  0.37387686  1
  Fe  Fe22  1  0.50135068  0.25101822  0.75052316  1
  Fe  Fe23  1  0.12293348  0.12260680  0.62762417  1
  Fe  Fe24  1  0.74859015  0.74987535  0.00130289  1
  Fe  Fe25  1  0.37515459  0.62433831  0.12433832  1
  Fe  Fe26  1  -0.00100231  0.75352677  0.74883167  1
  Fe  Fe27  1  0.62719362  0.37768764  0.12670465  1
  Fe  Fe28  1  0.87565700  0.37158518  0.87694580  1
  Fe  Fe29  1  0.87560089  0.62784593  0.87556248  1
  Fe  Fe30  1  -0.00114389  0.25069431  0.50113207  1
  Fe  Fe31  1  0.62630532  0.37451202  0.62495366  1
  Fe  Fe32  1  0.12429714  0.37471232  0.87605190  1
  Fe  Fe33  1  0.25078920  0.50236953  -0.00496404  1
  Fe  Fe34  1  0.75105085  0.74863798  0.50056868  1
  Fe  Fe35  1  0.25176560  0.00056905  0.25166011  1
  Fe  Fe36  1  0.12646103  0.87770332  0.12559598  1
  Fe  Fe37  1  0.75033041  0.00154113  0.25188800  1
  Fe  Fe38  1  0.87669566  0.12262733  0.62790575  1
  Fe  Fe39  1  0.62570061  0.37481241  0.87497581  1
  Fe  Fe40  1  0.62698029  0.87606750  0.87454409  1
  Fe  Fe41  1  0.75352930  0.50071092  0.00236822  1
  Fe  Fe42  1  0.75283392  0.00285417  -0.00494685  1
  Fe  Fe43  1  0.12279885  0.62293786  0.62538214  1
  Fe  Fe44  1  0.49903874  0.00068021  0.75298501  1
  Fe  Fe45  1  0.62628944  0.12463346  0.62480577  1
  Fe  Fe46  1  0.49891099  0.50031722  -0.00472043  1
  Fe  Fe47  1  0.24937377  0.74903742  0.24920845  1
  Fe  Fe48  1  0.62461759  0.62199234  0.12506074  1
  Fe  Fe49  1  0.50005300  0.49913346  0.50030138  1
  Fe  Fe50  1  0.12230675  0.37716967  0.37258698  1
  Fe  Fe51  1  0.75112732  0.24665999  0.75162849  1
  Fe  Fe52  1  0.49954807  0.00206008  0.49659202  1
  Fe  Fe53  1  -0.00362950  0.50047035  0.00278304  1
  Fe  Fe54  1  0.37552912  0.87596597  0.12450431  1
  Fe  Fe55  1  0.00070959  0.75141598  0.24949023  1
  Fe  Fe56  1  0.37446110  0.12564797  0.62460870  1
  Fe  Fe57  1  0.75149153  0.00228414  0.49754168  1
  Fe  Fe58  1  0.24964863  0.00172605  -0.00148072  1
  Fe  Fe59  1  0.37398421  0.37467619  0.37350999  1
  Fe  Fe60  1  0.24886413  0.25060593  0.50066606  1
  Fe  Fe61  1  0.62346727  0.62245998  0.37364017  1
  Fe  Fe62  1  0.12537412  0.37610475  0.62566423  1
  Fe  Fe63  1  0.25073690  0.00055741  0.49925583  1
  Fe  Fe64  1  0.12457200  0.62366807  0.12440737  1
  Fe  Fe65  1  0.75162973  0.75150955  0.74798475  1
  Fe  Fe66  1  0.12090262  0.12296431  0.87285414  1
  Fe  Fe67  1  -0.00109078  0.75233614  0.50112620  1
  Fe  Fe68  1  0.50101856  0.75042117  0.24939543  1
  Fe  Fe69  1  0.12759952  0.87519929  0.87377417  1
  Fe  Fe70  1  -0.00047688  0.49977291  0.75070886  1
  Fe  Fe71  1  0.37731603  0.13027765  0.87881614  1
  Fe  Fe72  1  0.62518718  0.62343402  0.62526169  1
  Fe  Fe73  1  0.37574579  0.62403656  0.37420555  1
  Fe  Fe74  1  0.87721181  0.62458507  0.37408872  1
  Fe  Fe75  1  0.50050637  0.74942761  -0.00140808  1
  Fe  Fe76  1  0.12460753  0.12559325  0.37408711  1
  Fe  Fe77  1  0.74840018  0.24621074  -0.00097330  1
  Fe  Fe78  1  0.87410208  0.87525236  0.12484176  1
  Fe  Fe79  1  0.75106503  0.50104287  0.75107225  1
  Fe  Fe80  1  0.37497604  0.87493744  0.62629349  1
  Fe  Fe81  1  0.74877684  0.74884255  0.24933424  1
  Fe  Fe82  1  0.37703041  0.12474173  0.12226085  1
  Fe  Fe83  1  -0.00132833  -0.00125207  0.25221671  1
  Fe  Fe84  1  0.87460404  0.37594265  0.62607226  1
  Fe  Fe85  1  0.00171846  0.75314029  0.00062575  1
  Fe  Fe86  1  0.37401702  0.37743884  0.62955265  1
  Fe  Fe87  1  0.75082427  0.24743468  0.24983343  1
  Fe  Fe88  1  0.12582311  0.37723362  0.12539826  1
  Fe  Fe89  1  0.50276377  0.74831232  0.75073291  1
  Co  Co90  1  0.62597746  0.12780803  0.37629640  1
  Co  Co91  1  0.87535816  0.63055292  0.12355787  1
  Co  Co92  1  0.37264333  0.12760250  0.37497020  1
  Co  Co93  1  0.75513032  0.50147214  0.24818205  1
  Co  Co94  1  0.24468071  0.24787400  0.00023362  1
  Co  Co95  1  0.75423795  0.25003830  0.50141798  1
  Co  Co96  1  0.24630401  0.49985820  0.75292228  1
  Co  Co97  1  0.50241413  0.50097484  0.75357898  1
  Co  Co98  1  0.12682399  0.87431809  0.37543339  1
  Co  Co99  1  0.87750315  0.12633477  0.37426849  1
  Co  Co100  1  0.87390391  0.36908803  0.12416665  1
  Co  Co101  1  -0.00128179  0.49816487  0.50144317  1
  Co  Co102  1  0.00205908  0.25023741  0.24787180  1
  Co  Co103  1  0.24996766  0.50068064  0.24977770  1
  Co  Co104  1  -0.00350196  -0.00633782  0.75214062  1
  Co  Co105  1  0.62110718  0.12537652  0.87566959  1
  Co  Co106  1  0.75135762  0.00235900  0.75386032  1
  Co  Co107  1  0.49874288  0.49830097  0.24974734  1
  Co  Co108  1  0.88092208  0.12795029  0.87407111  1
  Co  Co109  1  0.24591918  0.74824113  0.74690107  1
  Co  Co110  1  0.87321378  0.87290068  0.37419301  1
  Co  Co111  1  0.12141374  0.62661649  0.87558300  1
  Co  Co112  1  0.62904200  0.62518468  0.87611823  1
  Co  Co113  1  0.24841887  0.74907753  0.00186663  1
  Co  Co114  1  0.37444132  0.37245862  0.87423310  1
  Co  Co115  1  0.00058700  0.25312752  0.74809888  1
  Co  Co116  1  0.49786610  -0.00397985  -0.00423102  1
  Co  Co117  1  0.87592773  0.62443119  0.62639028  1
  Co  Co118  1  0.87212742  0.87775161  0.62259158  1
  Co  Co119  1  0.87287743  0.87212401  0.87744235  1
  Co  Co120  1  0.50384907  0.25481802  0.00268263  1
  Co  Co121  1  -0.00397810  0.49970854  0.24489567  1
  Co  Co122  1  0.12409215  0.12051223  0.12731399  1
  Co  Co123  1  0.00005169  -0.00169165  -0.00099786  1
  Co  Co124  1  0.49951795  0.00065807  0.25372289  1
  Co  Co125  1  0.25289936  0.00305665  0.75241719  1
  Co  Co126  1  0.49955705  0.74874316  0.50106460  1
  Co  Co127  1  0.37273973  0.62790941  0.87210895  1
