# generated using pymatgen
data_Fe45Co19
_symmetry_space_group_name_H-M   'P 1'
_cell_length_a   11.41589240
_cell_length_b   11.41544840
_cell_length_c   11.41587109
_cell_angle_alpha   89.99577259
_cell_angle_beta   90.00445699
_cell_angle_gamma   90.00010678
_symmetry_Int_Tables_number   1
_chemical_formula_structural   Fe45Co19
_chemical_formula_sum   'Fe90 Co38'
_cell_volume   1487.68812211
_cell_formula_units_Z   2
loop_
 _symmetry_equiv_pos_site_id
 _symmetry_equiv_pos_as_xyz
  1  'x, y, z'
loop_
 _atom_site_type_symbol
 _atom_site_label
 _atom_site_symmetry_multiplicity
 _atom_site_fract_x
 _atom_site_fract_y
 _atom_site_fract_z
 _atom_site_occupancy
  Fe  Fe0  1  0.00202627  0.25216465  -0.00189421  1
  Fe  Fe1  1  0.50059711  0.00056048  0.00093252  1
  Fe  Fe2  1  0.12546168  0.37497588  0.12597073  1
  Fe  Fe3  1  0.25365307  0.49566361  0.74520282  1
  Fe  Fe4  1  0.75348623  0.74819699  0.25052900  1
  Fe  Fe5  1  0.37716349  0.62669741  0.62206109  1
  Fe  Fe6  1  0.62591249  0.87514678  0.12680442  1
  Fe  Fe7  1  0.50050616  0.74836574  -0.00119253  1
  Fe  Fe8  1  0.75292999  0.00375945  0.24587070  1
  Fe  Fe9  1  0.87261364  0.87461193  0.87566202  1
  Fe  Fe10  1  -0.00152710  0.74797704  0.75452562  1
  Fe  Fe11  1  0.24944068  0.49846676  0.50367580  1
  Fe  Fe12  1  0.62655617  0.87595049  0.37472646  1
  Fe  Fe13  1  -0.00236233  0.00042355  0.74921171  1
  Fe  Fe14  1  0.74967273  0.74903622  0.00045903  1
  Fe  Fe15  1  0.62823514  0.37680049  0.87376737  1
  Fe  Fe16  1  0.62548593  0.37038205  0.62248653  1
  Fe  Fe17  1  0.49842246  0.49605393  0.74595719  1
  Fe  Fe18  1  0.25109071  0.00366137  0.74992250  1
  Fe  Fe19  1  0.37406743  0.87375203  0.12402290  1
  Fe  Fe20  1  0.88138671  0.62471744  0.12240759  1
  Fe  Fe21  1  0.37342216  0.37363974  0.12350387  1
  Fe  Fe22  1  0.62697301  0.87451709  0.62289277  1
  Fe  Fe23  1  0.62686619  0.62293807  0.87208673  1
  Fe  Fe24  1  0.75159148  0.24760373  0.25008822  1
  Fe  Fe25  1  0.75241219  0.50027361  0.24869033  1
  Fe  Fe26  1  0.49995305  -0.00020348  0.74731568  1
  Fe  Fe27  1  0.11958636  0.62643385  0.12747210  1
  Fe  Fe28  1  -0.00542274  0.49961276  0.75289068  1
  Fe  Fe29  1  0.25094380  0.50083773  0.24943603  1
  Fe  Fe30  1  0.75025001  0.00134538  0.74794364  1
  Fe  Fe31  1  0.49917796  0.25122161  -0.00349334  1
  Fe  Fe32  1  0.62472706  0.62335369  0.37730296  1
  Fe  Fe33  1  -0.00213761  0.25203902  0.75109410  1
  Fe  Fe34  1  0.37475336  0.62237434  0.87393106  1
  Fe  Fe35  1  0.74940329  0.24849793  0.00062366  1
  Fe  Fe36  1  0.37174986  0.12698244  0.37671844  1
  Fe  Fe37  1  -0.00060828  -0.00044336  0.24865902  1
  Fe  Fe38  1  0.49920235  0.24957410  0.25269771  1
  Fe  Fe39  1  0.12477594  0.12300417  0.37453255  1
  Fe  Fe40  1  0.87398896  0.87085541  0.62491792  1
  Fe  Fe41  1  0.12183508  0.62279362  0.62759972  1
  Fe  Fe42  1  0.12656761  0.37585025  0.37515353  1
  Fe  Fe43  1  0.50095188  0.50018066  0.00020167  1
  Fe  Fe44  1  0.49749221  0.49995840  0.25078410  1
  Fe  Fe45  1  0.62601211  0.87535378  0.87465020  1
  Fe  Fe46  1  0.24858806  0.74736676  -0.00007644  1
  Fe  Fe47  1  0.62414052  0.37377037  0.12696160  1
  Fe  Fe48  1  0.12514717  0.87518065  0.62606408  1
  Fe  Fe49  1  0.49751359  0.74958428  0.25052182  1
  Fe  Fe50  1  0.00024522  0.25046234  0.25175848  1
  Fe  Fe51  1  0.75007475  0.00272104  0.00297842  1
  Fe  Fe52  1  0.87175579  0.12918658  0.62280099  1
  Fe  Fe53  1  0.62646129  0.37803790  0.37558850  1
  Fe  Fe54  1  0.87535345  0.62257714  0.37771459  1
  Fe  Fe55  1  0.37442855  0.87592132  0.87413651  1
  Fe  Fe56  1  0.87604695  0.12576448  0.87607833  1
  Fe  Fe57  1  0.12569457  0.62558210  0.37411236  1
  Fe  Fe58  1  0.49940301  0.00052011  0.50169915  1
  Fe  Fe59  1  0.37370946  0.37352963  0.37940687  1
  Fe  Fe60  1  0.12523115  0.12717918  0.12534447  1
  Fe  Fe61  1  0.25114311  0.74953711  0.74741897  1
  Fe  Fe62  1  0.00198024  0.75126266  0.49799519  1
  Fe  Fe63  1  0.37419124  0.12738601  0.12422488  1
  Fe  Fe64  1  0.62320651  0.62427830  0.12680301  1
  Fe  Fe65  1  0.24949296  -0.00076663  0.24935542  1
  Fe  Fe66  1  0.37717878  0.13257809  0.62623233  1
  Fe  Fe67  1  0.12741855  0.37596144  0.87228553  1
  Fe  Fe68  1  0.49817650  0.00029215  0.24997801  1
  Fe  Fe69  1  0.00163165  0.25035215  0.49909794  1
  Fe  Fe70  1  0.87362708  0.37483028  0.37707077  1
  Fe  Fe71  1  -0.00038153  0.00044185  0.50202716  1
  Fe  Fe72  1  0.24899505  0.00159321  0.50368822  1
  Fe  Fe73  1  -0.00100937  0.49792958  0.50141026  1
  Fe  Fe74  1  0.00028203  -0.00201186  0.00008333  1
  Fe  Fe75  1  0.24801747  0.00302563  -0.00209676  1
  Fe  Fe76  1  0.50044134  0.75155536  0.74887083  1
  Fe  Fe77  1  0.37044928  0.87241789  0.37888342  1
  Fe  Fe78  1  0.75125661  0.50001649  0.00202126  1
  Fe  Fe79  1  0.87773311  0.37570315  0.12418133  1
  Fe  Fe80  1  0.87446995  0.87859857  0.37532888  1
  Fe  Fe81  1  0.37423768  0.62703399  0.37885248  1
  Fe  Fe82  1  0.75476835  0.49903732  0.74546000  1
  Fe  Fe83  1  0.62704597  0.62691868  0.62251772  1
  Fe  Fe84  1  0.12660695  0.87584653  0.87213689  1
  Fe  Fe85  1  0.12323381  0.87115113  0.12668452  1
  Fe  Fe86  1  0.62776469  0.12215352  0.37634607  1
  Fe  Fe87  1  0.12512186  0.12872157  0.62843158  1
  Fe  Fe88  1  0.62376124  0.12495521  0.87286284  1
  Fe  Fe89  1  0.24755086  0.50177674  0.00133750  1
  Co  Co90  1  0.50004275  0.25412680  0.75428013  1
  Co  Co91  1  0.24876815  0.24753578  -0.00477979  1
  Co  Co92  1  0.87730114  0.62747458  0.62371689  1
  Co  Co93  1  0.12725923  0.87756591  0.37636577  1
  Co  Co94  1  0.75127066  -0.00028694  0.50327967  1
  Co  Co95  1  0.00181153  0.75019317  -0.00592654  1
  Co  Co96  1  0.87579208  0.37195855  0.62279422  1
  Co  Co97  1  0.62158570  0.12679411  0.12602425  1
  Co  Co98  1  0.50037466  0.49901300  0.50181782  1
  Co  Co99  1  0.50413440  0.24833936  0.49557080  1
  Co  Co100  1  0.87125315  0.62439402  0.87668513  1
  Co  Co101  1  0.74861977  0.24978104  0.49719187  1
  Co  Co102  1  0.24941494  0.25057304  0.25132900  1
  Co  Co103  1  0.50197296  0.75211374  0.50047361  1
  Co  Co104  1  0.74995671  0.74948973  0.74984147  1
  Co  Co105  1  0.87496456  0.87327416  0.12437771  1
  Co  Co106  1  0.24539652  0.74874286  0.50383809  1
  Co  Co107  1  0.12242705  0.37508762  0.62791092  1
  Co  Co108  1  0.87662863  0.12399317  0.37648077  1
  Co  Co109  1  0.24988401  0.74878819  0.24923670  1
  Co  Co110  1  0.37330919  0.87511203  0.62399724  1
  Co  Co111  1  0.87885246  0.12754055  0.12361728  1
  Co  Co112  1  0.00240387  0.49965831  -0.00513098  1
  Co  Co113  1  0.37762845  0.12313518  0.87358070  1
  Co  Co114  1  -0.00193455  0.75153272  0.25476679  1
  Co  Co115  1  0.74962880  0.24955678  0.75071408  1
  Co  Co116  1  -0.00028868  0.49831475  0.25219157  1
  Co  Co117  1  0.75105778  0.49964517  0.50329111  1
  Co  Co118  1  0.24464224  0.25023961  0.50063803  1
  Co  Co119  1  0.37638846  0.36718477  0.61997727  1
  Co  Co120  1  0.37621407  0.62398756  0.12398628  1
  Co  Co121  1  0.87228360  0.37360806  0.87659638  1
  Co  Co122  1  0.37328806  0.37955139  0.87774297  1
  Co  Co123  1  0.25191632  0.25127419  0.75385529  1
  Co  Co124  1  0.62447243  0.12719058  0.62530926  1
  Co  Co125  1  0.12903924  0.62266168  0.87063385  1
  Co  Co126  1  0.75058079  0.75026827  0.49772398  1
  Co  Co127  1  0.12018743  0.12466766  0.87261843  1
