# generated using pymatgen
data_Fe45Co19
_symmetry_space_group_name_H-M   'P 1'
_cell_length_a   11.41514085
_cell_length_b   11.41524815
_cell_length_c   11.41460787
_cell_angle_alpha   89.99418847
_cell_angle_beta   89.99341973
_cell_angle_gamma   89.99289243
_symmetry_Int_Tables_number   1
_chemical_formula_structural   Fe45Co19
_chemical_formula_sum   'Fe90 Co38'
_cell_volume   1487.39946161
_cell_formula_units_Z   2
loop_
 _symmetry_equiv_pos_site_id
 _symmetry_equiv_pos_as_xyz
  1  'x, y, z'
loop_
 _atom_site_type_symbol
 _atom_site_label
 _atom_site_symmetry_multiplicity
 _atom_site_fract_x
 _atom_site_fract_y
 _atom_site_fract_z
 _atom_site_occupancy
  Fe  Fe0  1  -0.00118773  0.25174852  0.00013219  1
  Fe  Fe1  1  0.00175592  -0.00141991  0.49613636  1
  Fe  Fe2  1  0.50141859  0.25151678  0.50000699  1
  Fe  Fe3  1  0.37533976  0.62538413  0.87667479  1
  Fe  Fe4  1  0.37717011  0.87510609  0.62529930  1
  Fe  Fe5  1  0.24848735  0.25047533  0.74779851  1
  Fe  Fe6  1  0.62496840  0.87493557  0.87351274  1
  Fe  Fe7  1  0.00186779  0.00148927  0.25326069  1
  Fe  Fe8  1  0.12679245  0.12577449  0.62031495  1
  Fe  Fe9  1  0.25032458  0.50016100  0.75093142  1
  Fe  Fe10  1  0.87338826  0.37800785  0.12430837  1
  Fe  Fe11  1  0.62908014  0.12802469  0.37507389  1
  Fe  Fe12  1  0.62304010  0.12296074  0.12433448  1
  Fe  Fe13  1  0.12220903  0.37441067  0.87371496  1
  Fe  Fe14  1  0.50139357  0.74651226  0.50269075  1
  Fe  Fe15  1  0.37508614  0.62449912  0.37869407  1
  Fe  Fe16  1  -0.00057270  0.00166224  0.75016594  1
  Fe  Fe17  1  0.74979099  -0.00080362  0.25191427  1
  Fe  Fe18  1  0.62607837  0.62467405  0.87399198  1
  Fe  Fe19  1  0.50368321  0.24902495  0.74829385  1
  Fe  Fe20  1  0.49724452  0.75235308  0.00259592  1
  Fe  Fe21  1  0.87427976  0.12394022  0.12635635  1
  Fe  Fe22  1  0.62578295  0.37531960  0.12974532  1
  Fe  Fe23  1  0.25253489  0.74702520  0.24821352  1
  Fe  Fe24  1  0.12576584  0.12539805  0.87647427  1
  Fe  Fe25  1  0.62714692  0.37662188  0.87267252  1
  Fe  Fe26  1  0.87646722  0.87337584  0.12763794  1
  Fe  Fe27  1  0.12438218  0.62494971  0.37496398  1
  Fe  Fe28  1  0.61959202  0.87686587  0.12909372  1
  Fe  Fe29  1  0.25457971  0.75197906  0.00201694  1
  Fe  Fe30  1  -0.00378451  0.50057714  0.75163271  1
  Fe  Fe31  1  0.62843825  0.12289221  0.62486548  1
  Fe  Fe32  1  0.74841703  0.75067742  0.00372085  1
  Fe  Fe33  1  0.12422008  0.87447408  0.87588539  1
  Fe  Fe34  1  0.12589304  0.37805163  0.12711431  1
  Fe  Fe35  1  0.87735934  0.86998538  0.37175457  1
  Fe  Fe36  1  -0.00130942  0.00067245  -0.00072746  1
  Fe  Fe37  1  0.50246247  0.00105378  0.75074300  1
  Fe  Fe38  1  0.37598747  0.87412991  0.37376007  1
  Fe  Fe39  1  0.50183905  0.49942426  0.00034528  1
  Fe  Fe40  1  0.37630093  0.12576910  0.87561912  1
  Fe  Fe41  1  0.37327325  0.12535984  0.62196918  1
  Fe  Fe42  1  0.75018409  0.25244041  0.49884048  1
  Fe  Fe43  1  0.74867627  0.74851955  0.50107582  1
  Fe  Fe44  1  0.24996405  0.25127631  0.25093199  1
  Fe  Fe45  1  0.49926375  0.50218421  0.25288062  1
  Fe  Fe46  1  0.87352931  0.12510270  0.62438898  1
  Fe  Fe47  1  0.24877587  0.75173894  0.50107771  1
  Fe  Fe48  1  0.87544162  0.87351662  0.87451784  1
  Fe  Fe49  1  0.37044014  0.12655512  0.37890030  1
  Fe  Fe50  1  0.75021370  -0.00391037  0.49853062  1
  Fe  Fe51  1  0.75062298  0.50315246  0.25293978  1
  Fe  Fe52  1  0.12893362  0.62113823  0.12281287  1
  Fe  Fe53  1  0.00193045  0.75017438  0.49981496  1
  Fe  Fe54  1  0.12568231  0.12584645  0.12467589  1
  Fe  Fe55  1  0.37526377  0.37635687  0.62480352  1
  Fe  Fe56  1  0.74838704  0.25160288  0.00079182  1
  Fe  Fe57  1  0.50072250  0.25009779  0.00074179  1
  Fe  Fe58  1  0.24952072  0.74971528  0.74909035  1
  Fe  Fe59  1  0.00188862  0.25217860  0.49727107  1
  Fe  Fe60  1  0.50104836  0.00037117  0.49809461  1
  Fe  Fe61  1  0.74977036  -0.00143851  -0.00061151  1
  Fe  Fe62  1  0.37587304  0.37558097  0.37620512  1
  Fe  Fe63  1  -0.00102818  0.49939832  0.49787458  1
  Fe  Fe64  1  0.25457372  -0.00178587  0.00077585  1
  Fe  Fe65  1  0.25101937  0.25289662  0.00071734  1
  Fe  Fe66  1  0.50053916  0.74706917  0.74682028  1
  Fe  Fe67  1  0.49912040  0.50273974  0.74765513  1
  Fe  Fe68  1  0.87244655  0.62306336  0.87914476  1
  Fe  Fe69  1  0.37371134  0.37855787  0.12527054  1
  Fe  Fe70  1  0.87581324  0.37463661  0.62610328  1
  Fe  Fe71  1  0.24990016  -0.00055117  0.74847728  1
  Fe  Fe72  1  0.12507139  0.87504279  0.12595296  1
  Fe  Fe73  1  0.37703568  0.37493779  0.87398033  1
  Fe  Fe74  1  0.62216286  0.87073245  0.37274276  1
  Fe  Fe75  1  -0.00024432  0.74742871  0.00259937  1
  Fe  Fe76  1  -0.00251042  0.50369660  0.24993594  1
  Fe  Fe77  1  0.24957378  0.00122862  0.25200624  1
  Fe  Fe78  1  0.87636244  0.87353271  0.62617987  1
  Fe  Fe79  1  0.62522356  0.38008723  0.62328329  1
  Fe  Fe80  1  0.87149690  0.12844043  0.87225634  1
  Fe  Fe81  1  0.12501870  0.62523979  0.87619452  1
  Fe  Fe82  1  0.62413163  0.62590843  0.12721487  1
  Fe  Fe83  1  0.12345477  0.62359671  0.62613814  1
  Fe  Fe84  1  0.75127293  0.74793985  0.74693192  1
  Fe  Fe85  1  -0.00194313  0.24881898  0.25259533  1
  Fe  Fe86  1  0.49938495  0.24822152  0.25106097  1
  Fe  Fe87  1  0.12313481  0.87450329  0.62653229  1
  Fe  Fe88  1  0.24837414  0.49695910  0.50013293  1
  Fe  Fe89  1  0.75135678  0.50203039  0.49658506  1
  Co  Co90  1  0.87375920  0.37478069  0.37365584  1
  Co  Co91  1  0.37532316  0.12463700  0.12410477  1
  Co  Co92  1  0.12279498  0.37737520  0.62714331  1
  Co  Co93  1  0.87359280  0.37369641  0.87616802  1
  Co  Co94  1  0.62415048  0.87454409  0.62541893  1
  Co  Co95  1  0.87605179  0.62982836  0.37494158  1
  Co  Co96  1  0.37224871  0.62409784  0.62350468  1
  Co  Co97  1  0.62677126  0.62100834  0.62450399  1
  Co  Co98  1  0.37486636  0.61997093  0.12116430  1
  Co  Co99  1  0.49754202  -0.00215027  -0.00265172  1
  Co  Co100  1  0.74726952  0.25255874  0.74789798  1
  Co  Co101  1  0.62650490  0.12411468  0.87642465  1
  Co  Co102  1  0.62456812  0.62621343  0.37546029  1
  Co  Co103  1  0.00041757  0.49973254  0.00018908  1
  Co  Co104  1  0.12324982  0.37678010  0.37110728  1
  Co  Co105  1  0.49990866  0.50068523  0.49879483  1
  Co  Co106  1  0.75360778  0.50071068  0.74922029  1
  Co  Co107  1  0.50023298  0.00561897  0.25569925  1
  Co  Co108  1  0.00085864  0.24844478  0.74871180  1
  Co  Co109  1  0.00253132  0.74553602  0.24533395  1
  Co  Co110  1  0.74936954  0.74952496  0.24873302  1
  Co  Co111  1  0.37574179  0.87378628  0.87089614  1
  Co  Co112  1  0.87173202  0.62417617  0.12341382  1
  Co  Co113  1  0.24978819  0.49695159  -0.00417041  1
  Co  Co114  1  0.12755432  0.12723339  0.37776248  1
  Co  Co115  1  0.75096677  -0.00235993  0.74953087  1
  Co  Co116  1  0.25219159  0.50211857  0.25333854  1
  Co  Co117  1  0.87666516  0.62545587  0.62255233  1
  Co  Co118  1  0.62578672  0.37473983  0.37375266  1
  Co  Co119  1  -0.00154312  0.74790647  0.75225871  1
  Co  Co120  1  0.24808329  0.25728180  0.50051047  1
  Co  Co121  1  0.75191556  0.24899041  0.24877900  1
  Co  Co122  1  0.24951034  -0.00529162  0.49990246  1
  Co  Co123  1  0.87347157  0.12529115  0.37664484  1
  Co  Co124  1  0.37818780  0.87861169  0.13075433  1
  Co  Co125  1  0.49574129  0.74480488  0.24921399  1
  Co  Co126  1  0.12493840  0.87167782  0.37144480  1
  Co  Co127  1  0.74607558  0.49930688  0.00124863  1
