# generated using pymatgen
data_Fe45Co19
_symmetry_space_group_name_H-M   'P 1'
_cell_length_a   11.41672674
_cell_length_b   11.41719553
_cell_length_c   11.41608490
_cell_angle_alpha   89.99715749
_cell_angle_beta   90.00310148
_cell_angle_gamma   90.00160571
_symmetry_Int_Tables_number   1
_chemical_formula_structural   Fe45Co19
_chemical_formula_sum   'Fe90 Co38'
_cell_volume   1488.05243240
_cell_formula_units_Z   2
loop_
 _symmetry_equiv_pos_site_id
 _symmetry_equiv_pos_as_xyz
  1  'x, y, z'
loop_
 _atom_site_type_symbol
 _atom_site_label
 _atom_site_symmetry_multiplicity
 _atom_site_fract_x
 _atom_site_fract_y
 _atom_site_fract_z
 _atom_site_occupancy
  Fe  Fe0  1  0.87575265  0.37619852  0.87326814  1
  Fe  Fe1  1  0.37325695  0.37679809  0.87068486  1
  Fe  Fe2  1  0.87674152  0.37434789  0.62442057  1
  Fe  Fe3  1  0.49995327  0.74747502  0.25209580  1
  Fe  Fe4  1  0.37557919  0.12421582  0.87560809  1
  Fe  Fe5  1  0.62770792  0.87271886  0.12791905  1
  Fe  Fe6  1  0.12608557  0.12717316  0.62349714  1
  Fe  Fe7  1  0.87515941  0.12376842  0.87568042  1
  Fe  Fe8  1  0.62134574  0.62171854  0.37935200  1
  Fe  Fe9  1  0.87424610  0.12298619  0.62256283  1
  Fe  Fe10  1  0.25292725  0.00016723  0.24754436  1
  Fe  Fe11  1  0.87385908  0.87921206  0.37578317  1
  Fe  Fe12  1  0.37608907  0.87504480  0.37441738  1
  Fe  Fe13  1  0.62511267  0.12408548  0.37512829  1
  Fe  Fe14  1  0.75068462  0.24859033  0.25138522  1
  Fe  Fe15  1  0.00213634  0.25046909  -0.00238169  1
  Fe  Fe16  1  0.74841447  0.49810440  -0.00145079  1
  Fe  Fe17  1  0.25248487  -0.00165661  0.00285903  1
  Fe  Fe18  1  0.62334334  0.62556693  0.62158098  1
  Fe  Fe19  1  0.49746515  0.25093593  0.50138840  1
  Fe  Fe20  1  0.75120683  0.24948118  0.49884071  1
  Fe  Fe21  1  0.00279131  0.50119408  0.74718720  1
  Fe  Fe22  1  0.12638366  0.12440936  0.12492757  1
  Fe  Fe23  1  0.87409995  0.87555495  0.62285608  1
  Fe  Fe24  1  0.87608189  0.62273422  0.37788536  1
  Fe  Fe25  1  0.37570744  0.62423904  0.12631504  1
  Fe  Fe26  1  0.12505753  0.87479136  0.87592713  1
  Fe  Fe27  1  0.37390379  0.38161063  0.37296776  1
  Fe  Fe28  1  0.87636776  0.62686526  0.62218201  1
  Fe  Fe29  1  0.00051928  0.50054584  -0.00068876  1
  Fe  Fe30  1  0.74692612  0.25297901  -0.00230303  1
  Fe  Fe31  1  0.50133647  0.49712191  0.00076373  1
  Fe  Fe32  1  0.50013720  0.24643843  0.74860671  1
  Fe  Fe33  1  0.00381397  0.24891948  0.75246247  1
  Fe  Fe34  1  0.62746490  0.62493153  0.12535378  1
  Fe  Fe35  1  0.74938088  0.50085322  0.25098001  1
  Fe  Fe36  1  0.49799410  0.00234822  0.24636443  1
  Fe  Fe37  1  0.12502542  0.87505078  0.37424207  1
  Fe  Fe38  1  0.49968453  0.25053776  0.24880447  1
  Fe  Fe39  1  0.24795726  0.25001263  -0.00422493  1
  Fe  Fe40  1  0.37381088  0.37515420  0.12690201  1
  Fe  Fe41  1  0.24954757  -0.00095670  0.50079547  1
  Fe  Fe42  1  0.00057619  0.74960459  0.75161001  1
  Fe  Fe43  1  0.25332896  0.25210290  0.50171577  1
  Fe  Fe44  1  0.12497251  0.62339290  0.37854476  1
  Fe  Fe45  1  0.74987525  0.50057103  0.74797168  1
  Fe  Fe46  1  0.12445205  0.37453091  0.12437046  1
  Fe  Fe47  1  0.24922481  0.50098811  0.00054161  1
  Fe  Fe48  1  0.74683828  -0.00241862  -0.00166322  1
  Fe  Fe49  1  0.62424092  0.37766860  0.37526612  1
  Fe  Fe50  1  0.74901081  0.75025239  0.75205455  1
  Fe  Fe51  1  0.87654966  0.37644281  0.37655100  1
  Fe  Fe52  1  0.50149936  0.00316752  0.74796722  1
  Fe  Fe53  1  0.50005468  0.74951351  0.75027803  1
  Fe  Fe54  1  0.87570256  0.62580262  0.87624618  1
  Fe  Fe55  1  0.24811056  0.50431807  0.74478889  1
  Fe  Fe56  1  0.50034177  0.00011038  0.50194412  1
  Fe  Fe57  1  -0.00240035  0.75205856  0.24980418  1
  Fe  Fe58  1  0.50134069  0.74955446  -0.00123700  1
  Fe  Fe59  1  0.12465034  0.12506224  0.37595677  1
  Fe  Fe60  1  0.49958294  0.50110002  0.74736058  1
  Fe  Fe61  1  0.87304203  0.62868427  0.12334847  1
  Fe  Fe62  1  0.37745035  0.87478562  0.87471583  1
  Fe  Fe63  1  0.37487588  0.12401842  0.37566696  1
  Fe  Fe64  1  -0.00061375  -0.00406913  0.00361520  1
  Fe  Fe65  1  0.50042985  -0.00004500  0.00364562  1
  Fe  Fe66  1  0.62701370  0.87643369  0.62636040  1
  Fe  Fe67  1  0.24955756  0.00103354  0.74977791  1
  Fe  Fe68  1  0.25022845  0.75008088  -0.00095897  1
  Fe  Fe69  1  0.62524257  0.87700536  0.37300284  1
  Fe  Fe70  1  0.62425358  0.62319980  0.87409417  1
  Fe  Fe71  1  0.37538984  0.87453278  0.62518045  1
  Fe  Fe72  1  0.24943739  0.25107372  0.25060446  1
  Fe  Fe73  1  0.87404536  0.37506785  0.12537800  1
  Fe  Fe74  1  -0.00042131  0.24918419  0.25159875  1
  Fe  Fe75  1  0.25375150  0.74771560  0.49919492  1
  Fe  Fe76  1  0.00038105  -0.00071894  0.74833171  1
  Fe  Fe77  1  0.74903804  0.24765163  0.75115734  1
  Fe  Fe78  1  0.74895647  0.75082870  0.49797048  1
  Fe  Fe79  1  0.12553246  0.37748672  0.37926225  1
  Fe  Fe80  1  0.12449800  0.87092039  0.62318190  1
  Fe  Fe81  1  0.25157649  0.74734529  0.75097251  1
  Fe  Fe82  1  0.50231527  0.25272937  0.00000872  1
  Fe  Fe83  1  0.12325296  0.62764293  0.12467123  1
  Fe  Fe84  1  -0.00213313  -0.00028452  0.24810458  1
  Fe  Fe85  1  0.87221583  0.12563742  0.12424904  1
  Fe  Fe86  1  0.87439173  0.87337663  0.87580163  1
  Fe  Fe87  1  0.00108184  0.49953981  0.24974648  1
  Fe  Fe88  1  0.62504032  0.37409653  0.62471812  1
  Fe  Fe89  1  0.25177952  0.74831988  0.25097654  1
  Co  Co90  1  0.37391145  0.37272502  0.63071155  1
  Co  Co91  1  0.37928335  0.62865085  0.62292446  1
  Co  Co92  1  0.12578557  0.37938270  0.87285885  1
  Co  Co93  1  0.12200761  0.63018308  0.62164812  1
  Co  Co94  1  0.37411982  0.12976260  0.12418946  1
  Co  Co95  1  -0.00216040  0.75205941  0.49658595  1
  Co  Co96  1  0.74998279  0.74716231  0.25589840  1
  Co  Co97  1  0.62188313  0.87631062  0.87246963  1
  Co  Co98  1  0.37607259  0.62333871  0.87518990  1
  Co  Co99  1  0.86906748  0.87115319  0.12528959  1
  Co  Co100  1  0.74802117  -0.00009570  0.49967560  1
  Co  Co101  1  0.37635028  0.87064830  0.12652237  1
  Co  Co102  1  -0.00155529  0.24934418  0.49918319  1
  Co  Co103  1  0.00111041  0.49883268  0.50318816  1
  Co  Co104  1  0.74635655  0.75043363  -0.00478861  1
  Co  Co105  1  0.25197704  0.50177508  0.50562654  1
  Co  Co106  1  0.50066232  0.75395276  0.49906531  1
  Co  Co107  1  0.62456356  0.37556414  0.86994150  1
  Co  Co108  1  0.62404877  0.12490235  0.87575351  1
  Co  Co109  1  0.87556705  0.12228395  0.37675187  1
  Co  Co110  1  0.50147680  0.50059325  0.24772854  1
  Co  Co111  1  0.12401586  0.11922168  0.87714218  1
  Co  Co112  1  0.37690137  0.62175102  0.37564818  1
  Co  Co113  1  0.62736091  0.12557725  0.62335924  1
  Co  Co114  1  0.00134410  0.75230174  0.00054346  1
  Co  Co115  1  0.75096930  0.00047638  0.75220028  1
  Co  Co116  1  0.24720165  0.50141170  0.24841606  1
  Co  Co117  1  0.75071216  0.49906405  0.50150375  1
  Co  Co118  1  0.12680333  0.87424358  0.12736396  1
  Co  Co119  1  0.00284293  -0.00022212  0.50105022  1
  Co  Co120  1  0.62626913  0.12688171  0.12483098  1
  Co  Co121  1  0.12419692  0.62531252  0.87529334  1
  Co  Co122  1  0.37297686  0.12429880  0.62428483  1
  Co  Co123  1  0.75090024  0.00233963  0.24943210  1
  Co  Co124  1  0.24706693  0.24649459  0.75347561  1
  Co  Co125  1  0.62709240  0.37475126  0.12825818  1
  Co  Co126  1  0.49581776  0.49585875  0.50369795  1
  Co  Co127  1  0.12589031  0.37144133  0.62414603  1
