# generated using pymatgen
data_Fe45Co19
_symmetry_space_group_name_H-M   'P 1'
_cell_length_a   11.41525085
_cell_length_b   11.41491163
_cell_length_c   11.41432846
_cell_angle_alpha   89.99900077
_cell_angle_beta   89.99846445
_cell_angle_gamma   89.99378913
_symmetry_Int_Tables_number   1
_chemical_formula_structural   Fe45Co19
_chemical_formula_sum   'Fe90 Co38'
_cell_volume   1487.33355607
_cell_formula_units_Z   2
loop_
 _symmetry_equiv_pos_site_id
 _symmetry_equiv_pos_as_xyz
  1  'x, y, z'
loop_
 _atom_site_type_symbol
 _atom_site_label
 _atom_site_symmetry_multiplicity
 _atom_site_fract_x
 _atom_site_fract_y
 _atom_site_fract_z
 _atom_site_occupancy
  Fe  Fe0  1  0.50222231  0.49899669  -0.00122381  1
  Fe  Fe1  1  0.62502025  0.87312210  0.87541358  1
  Fe  Fe2  1  0.37569547  0.62453048  0.12462449  1
  Fe  Fe3  1  0.00269622  0.49911310  0.50066346  1
  Fe  Fe4  1  0.74868244  -0.00043587  0.50041967  1
  Fe  Fe5  1  0.74884987  0.74826344  0.50154276  1
  Fe  Fe6  1  0.74917283  0.00021218  0.24997783  1
  Fe  Fe7  1  0.37744236  0.37245048  0.12185060  1
  Fe  Fe8  1  0.62368903  0.12710703  0.37574847  1
  Fe  Fe9  1  0.25379052  0.00157110  0.75239394  1
  Fe  Fe10  1  0.87226914  0.12467766  0.62673843  1
  Fe  Fe11  1  0.50012427  0.74995157  0.24883374  1
  Fe  Fe12  1  0.49924555  0.49916999  0.25037603  1
  Fe  Fe13  1  0.75180877  0.24945287  0.25236694  1
  Fe  Fe14  1  -0.00108316  0.49921384  0.25049623  1
  Fe  Fe15  1  0.37800255  0.12495536  0.62523531  1
  Fe  Fe16  1  0.74655472  0.25233231  0.50253419  1
  Fe  Fe17  1  0.24917565  0.49873120  0.00150620  1
  Fe  Fe18  1  0.49990036  0.74931389  0.49787961  1
  Fe  Fe19  1  -0.00078413  0.25071802  0.49877813  1
  Fe  Fe20  1  0.49841010  0.00046402  0.25098922  1
  Fe  Fe21  1  0.12546520  0.12456447  0.62532569  1
  Fe  Fe22  1  0.12667203  0.12365909  0.37472305  1
  Fe  Fe23  1  0.00473678  0.75128125  0.50171891  1
  Fe  Fe24  1  0.37515789  0.87412027  0.62598037  1
  Fe  Fe25  1  0.87331655  0.37676291  0.62552872  1
  Fe  Fe26  1  0.87475900  0.12518886  0.37480088  1
  Fe  Fe27  1  0.12302445  0.62408788  0.87246347  1
  Fe  Fe28  1  0.87454157  0.87583584  0.87558780  1
  Fe  Fe29  1  0.37405772  0.37740693  0.37759127  1
  Fe  Fe30  1  0.87588349  0.87498215  0.12491797  1
  Fe  Fe31  1  0.62365096  0.87419156  0.12255889  1
  Fe  Fe32  1  0.62366740  0.12652829  0.12592914  1
  Fe  Fe33  1  0.25084798  0.25142201  0.50223924  1
  Fe  Fe34  1  0.24809144  0.74843431  0.74780567  1
  Fe  Fe35  1  0.75069849  0.74781645  0.24573319  1
  Fe  Fe36  1  0.62403694  0.87428559  0.62670394  1
  Fe  Fe37  1  0.37305727  0.62256983  0.37573313  1
  Fe  Fe38  1  -0.00040042  0.74975332  -0.00024933  1
  Fe  Fe39  1  0.62530648  0.87340725  0.37419573  1
  Fe  Fe40  1  0.12458145  0.12754831  0.87539640  1
  Fe  Fe41  1  0.25124545  0.00172735  -0.00120619  1
  Fe  Fe42  1  0.25110059  0.50005241  0.74989451  1
  Fe  Fe43  1  0.12301561  0.37204624  0.12474028  1
  Fe  Fe44  1  0.37587187  0.12503500  0.37641703  1
  Fe  Fe45  1  0.00016170  0.49788579  -0.00097556  1
  Fe  Fe46  1  0.37403924  0.62566223  0.87780848  1
  Fe  Fe47  1  0.62769649  0.62555429  0.87922008  1
  Fe  Fe48  1  0.24911971  0.74935845  0.00100184  1
  Fe  Fe49  1  0.25073546  -0.00220628  0.49933384  1
  Fe  Fe50  1  0.50347476  0.25519556  0.50398521  1
  Fe  Fe51  1  0.75113447  0.50132515  0.24688669  1
  Fe  Fe52  1  0.12616290  0.87501558  0.87451602  1
  Fe  Fe53  1  0.87580949  0.62468127  0.37546976  1
  Fe  Fe54  1  0.75023276  0.24754721  -0.00233608  1
  Fe  Fe55  1  0.25306616  0.25015040  0.74898809  1
  Fe  Fe56  1  0.25210501  0.25021483  0.24883140  1
  Fe  Fe57  1  0.87625877  0.37188398  0.12471786  1
  Fe  Fe58  1  -0.00181765  0.00365729  0.00050824  1
  Fe  Fe59  1  0.00173810  -0.00067605  0.24932115  1
  Fe  Fe60  1  0.12589447  0.37342027  0.87491110  1
  Fe  Fe61  1  0.12328901  0.12807152  0.12482309  1
  Fe  Fe62  1  0.37507492  0.87537278  0.12300321  1
  Fe  Fe63  1  0.87915452  0.62484182  0.62630400  1
  Fe  Fe64  1  0.62403682  0.37287766  0.12706096  1
  Fe  Fe65  1  0.87549317  0.87447206  0.62527958  1
  Fe  Fe66  1  -0.00033096  -0.00044307  0.50113304  1
  Fe  Fe67  1  0.62534457  0.62390649  0.37343442  1
  Fe  Fe68  1  0.49827644  -0.00016603  -0.00489278  1
  Fe  Fe69  1  0.62448119  0.12453535  0.86794459  1
  Fe  Fe70  1  0.24694320  0.75026981  0.50120728  1
  Fe  Fe71  1  0.74540867  0.50049350  0.50329674  1
  Fe  Fe72  1  0.87561340  0.87294332  0.37433843  1
  Fe  Fe73  1  -0.00048972  -0.00053964  0.74962493  1
  Fe  Fe74  1  0.37706052  0.62029781  0.62206476  1
  Fe  Fe75  1  0.87162221  0.37582202  0.87355528  1
  Fe  Fe76  1  0.37605361  0.37185744  0.87539998  1
  Fe  Fe77  1  0.12358282  0.62494483  0.12607641  1
  Fe  Fe78  1  -0.00200778  0.25090994  0.75038559  1
  Fe  Fe79  1  0.12648439  0.62393457  0.37286036  1
  Fe  Fe80  1  0.49883066  0.74821345  0.75228687  1
  Fe  Fe81  1  0.12583924  0.37616500  0.62669498  1
  Fe  Fe82  1  0.62696565  0.37613288  0.86859846  1
  Fe  Fe83  1  0.12695420  0.37520260  0.37451620  1
  Fe  Fe84  1  0.24812262  0.75434135  0.25007294  1
  Fe  Fe85  1  0.75106158  0.00274046  -0.00068597  1
  Fe  Fe86  1  0.37739139  0.12822821  0.12126081  1
  Fe  Fe87  1  0.50151681  -0.00151289  0.50029000  1
  Fe  Fe88  1  0.87455105  0.62328839  0.87733475  1
  Fe  Fe89  1  0.75144344  0.74851763  0.75017130  1
  Co  Co90  1  0.62461783  0.12281848  0.62735820  1
  Co  Co91  1  0.87426840  0.12400835  0.87135763  1
  Co  Co92  1  0.24636723  0.50087111  0.50188991  1
  Co  Co93  1  0.37613720  0.13026344  0.87645460  1
  Co  Co94  1  0.49721480  0.25025850  0.25275327  1
  Co  Co95  1  0.24858559  0.25089167  0.00068986  1
  Co  Co96  1  0.62481893  0.37876303  0.63305218  1
  Co  Co97  1  0.49770942  0.24998153  0.74625527  1
  Co  Co98  1  0.12424547  0.87570499  0.12194236  1
  Co  Co99  1  0.62335837  0.62433527  0.12233967  1
  Co  Co100  1  0.12651915  0.87809625  0.62729964  1
  Co  Co101  1  0.12297946  0.62201456  0.62894973  1
  Co  Co102  1  -0.00062116  0.75176035  0.75076261  1
  Co  Co103  1  0.62695026  0.37584126  0.37180693  1
  Co  Co104  1  0.50643384  0.25050361  -0.00413938  1
  Co  Co105  1  0.75181258  0.75047054  0.00238689  1
  Co  Co106  1  0.25188821  0.00122189  0.24745076  1
  Co  Co107  1  0.37477280  0.87495774  0.37506725  1
  Co  Co108  1  0.87719430  0.62331058  0.12225740  1
  Co  Co109  1  0.87514063  0.12714819  0.12764285  1
  Co  Co110  1  0.75117035  0.24892659  0.74794213  1
  Co  Co111  1  0.12496690  0.87779952  0.37567802  1
  Co  Co112  1  0.75123944  0.50655700  0.74781996  1
  Co  Co113  1  0.50483943  0.49763187  0.49797551  1
  Co  Co114  1  0.25073758  0.49733168  0.24651860  1
  Co  Co115  1  0.37237577  0.87131667  0.87506039  1
  Co  Co116  1  0.49847158  0.50348756  0.75396219  1
  Co  Co117  1  0.00027327  0.74990157  0.24985999  1
  Co  Co118  1  0.74990270  -0.00346357  0.74904183  1
  Co  Co119  1  0.49862521  0.74983472  0.00014286  1
  Co  Co120  1  0.49662223  -0.00166775  0.75208971  1
  Co  Co121  1  0.37609229  0.38058308  0.62469505  1
  Co  Co122  1  -0.00034198  0.25113109  0.25482765  1
  Co  Co123  1  0.74879375  0.49660666  0.00269613  1
  Co  Co124  1  0.87274847  0.37775360  0.37718449  1
  Co  Co125  1  -0.00111510  0.49712469  0.75130966  1
  Co  Co126  1  -0.00360874  0.24917186  -0.00355968  1
  Co  Co127  1  0.62096278  0.62574354  0.62587474  1
