# generated using pymatgen
data_Fe45Co19
_symmetry_space_group_name_H-M   'P 1'
_cell_length_a   11.41362952
_cell_length_b   11.41620664
_cell_length_c   11.41537498
_cell_angle_alpha   89.99836564
_cell_angle_beta   89.99293646
_cell_angle_gamma   90.00624290
_symmetry_Int_Tables_number   1
_chemical_formula_structural   Fe45Co19
_chemical_formula_sum   'Fe90 Co38'
_cell_volume   1487.42736961
_cell_formula_units_Z   2
loop_
 _symmetry_equiv_pos_site_id
 _symmetry_equiv_pos_as_xyz
  1  'x, y, z'
loop_
 _atom_site_type_symbol
 _atom_site_label
 _atom_site_symmetry_multiplicity
 _atom_site_fract_x
 _atom_site_fract_y
 _atom_site_fract_z
 _atom_site_occupancy
  Fe  Fe0  1  0.37843642  0.37539410  0.87269873  1
  Fe  Fe1  1  -0.00160903  0.50110349  0.24943016  1
  Fe  Fe2  1  0.49824163  0.75367926  0.50073326  1
  Fe  Fe3  1  0.00188139  0.50147073  0.74978516  1
  Fe  Fe4  1  0.37485999  0.62580366  0.62385264  1
  Fe  Fe5  1  -0.00062153  0.75268890  0.50011876  1
  Fe  Fe6  1  0.49735898  0.49514189  0.49986060  1
  Fe  Fe7  1  0.87331281  0.37251931  0.12341284  1
  Fe  Fe8  1  0.25269654  0.24687363  0.74841102  1
  Fe  Fe9  1  0.87479635  0.37182988  0.87387602  1
  Fe  Fe10  1  0.12547731  0.87436696  0.37461601  1
  Fe  Fe11  1  0.24693994  0.25142837  0.00295727  1
  Fe  Fe12  1  0.50460199  0.25413623  0.00281043  1
  Fe  Fe13  1  0.37607368  0.12589621  0.87896243  1
  Fe  Fe14  1  0.74967350  0.75013725  0.00088420  1
  Fe  Fe15  1  0.12464744  0.12731916  0.37721177  1
  Fe  Fe16  1  0.38097045  0.12186356  0.62242366  1
  Fe  Fe17  1  0.87550589  0.37144333  0.37591419  1
  Fe  Fe18  1  0.37589123  0.12578236  0.37547907  1
  Fe  Fe19  1  0.87427605  0.12777791  0.12351537  1
  Fe  Fe20  1  0.87469334  0.62658147  0.37756110  1
  Fe  Fe21  1  -0.00021617  0.75003266  0.00114505  1
  Fe  Fe22  1  0.62254587  0.62348826  0.87474563  1
  Fe  Fe23  1  0.75135051  0.00155036  0.49737876  1
  Fe  Fe24  1  0.87472620  0.12626229  0.87651726  1
  Fe  Fe25  1  0.50089441  0.00126973  0.25030124  1
  Fe  Fe26  1  0.74984688  0.24668198  0.74776495  1
  Fe  Fe27  1  0.74972938  0.49671590  0.49993281  1
  Fe  Fe28  1  0.75114683  0.75282489  0.50216609  1
  Fe  Fe29  1  0.24715362  -0.00082455  0.00089555  1
  Fe  Fe30  1  0.62467446  0.12644128  0.87642307  1
  Fe  Fe31  1  0.00041564  0.00025034  0.25193805  1
  Fe  Fe32  1  0.49848663  0.49977490  0.24961743  1
  Fe  Fe33  1  0.62348005  0.62472690  0.62266587  1
  Fe  Fe34  1  0.24851897  0.74918979  0.24969754  1
  Fe  Fe35  1  0.75277093  0.24856439  0.50203181  1
  Fe  Fe36  1  0.74808858  0.00256239  0.74991823  1
  Fe  Fe37  1  0.00145751  0.25039479  0.24769651  1
  Fe  Fe38  1  0.62495614  0.62309322  0.12459429  1
  Fe  Fe39  1  0.37446227  0.37574702  0.12611286  1
  Fe  Fe40  1  0.25212136  0.49789792  0.50003172  1
  Fe  Fe41  1  0.74742045  0.49593255  -0.00133850  1
  Fe  Fe42  1  -0.00053765  0.49682636  0.50085709  1
  Fe  Fe43  1  0.74873231  0.50030172  0.74883950  1
  Fe  Fe44  1  0.74873200  0.00027620  0.00199831  1
  Fe  Fe45  1  0.37695894  0.62427614  0.87469280  1
  Fe  Fe46  1  0.62455234  0.87397694  0.87465982  1
  Fe  Fe47  1  0.75039626  0.00264724  0.25067124  1
  Fe  Fe48  1  0.24977706  -0.00240968  0.50137604  1
  Fe  Fe49  1  0.50025803  0.74971534  0.24934355  1
  Fe  Fe50  1  0.37362650  0.87656665  0.12700315  1
  Fe  Fe51  1  0.37524681  0.87516320  0.87158585  1
  Fe  Fe52  1  0.37468278  0.62545983  0.37613370  1
  Fe  Fe53  1  0.50239610  -0.00165659  0.00099719  1
  Fe  Fe54  1  0.62064793  0.87972463  0.62611315  1
  Fe  Fe55  1  0.12505143  0.62523153  0.37817367  1
  Fe  Fe56  1  0.24997631  0.50113950  0.24994046  1
  Fe  Fe57  1  0.37479383  0.12344939  0.12363152  1
  Fe  Fe58  1  0.62338135  0.12920490  0.37496203  1
  Fe  Fe59  1  0.75214533  0.50055014  0.25194415  1
  Fe  Fe60  1  0.62736066  0.87381457  0.37264150  1
  Fe  Fe61  1  0.24911094  0.00194990  0.74880630  1
  Fe  Fe62  1  0.75136254  0.74721330  0.24919023  1
  Fe  Fe63  1  0.37349270  0.87528970  0.37392809  1
  Fe  Fe64  1  0.62457579  0.62501517  0.37734672  1
  Fe  Fe65  1  0.87871849  0.88071102  0.62687902  1
  Fe  Fe66  1  0.62218032  0.37208635  0.62746521  1
  Fe  Fe67  1  0.00161973  0.00122797  -0.00052355  1
  Fe  Fe68  1  0.25044293  0.75070288  0.00130058  1
  Fe  Fe69  1  0.12495200  0.87410176  0.87388257  1
  Fe  Fe70  1  0.87547936  0.87603154  0.87335211  1
  Fe  Fe71  1  0.49925141  0.75034091  0.00137687  1
  Fe  Fe72  1  0.74890445  0.75019973  0.74821727  1
  Fe  Fe73  1  0.12561365  0.12725114  0.87646690  1
  Fe  Fe74  1  0.87536919  0.62318351  0.62393183  1
  Fe  Fe75  1  0.25354167  0.25164300  0.50142004  1
  Fe  Fe76  1  -0.00033802  0.24713157  0.74664010  1
  Fe  Fe77  1  0.87367330  0.62454950  0.87510547  1
  Fe  Fe78  1  0.87536787  0.87399707  0.12729191  1
  Fe  Fe79  1  0.24882952  0.50202532  0.74977424  1
  Fe  Fe80  1  0.12491894  0.37355082  0.87436733  1
  Fe  Fe81  1  0.12471615  0.62443181  0.12356484  1
  Fe  Fe82  1  0.12614470  0.37363958  0.37500862  1
  Fe  Fe83  1  0.12628284  0.37388106  0.62539037  1
  Fe  Fe84  1  0.24998578  0.24841863  0.24782568  1
  Fe  Fe85  1  0.25064145  0.49974090  -0.00044335  1
  Fe  Fe86  1  0.00176188  0.74770770  0.74976286  1
  Fe  Fe87  1  -0.00002902  0.49846340  -0.00079274  1
  Fe  Fe88  1  0.24776234  0.74927140  0.74627715  1
  Fe  Fe89  1  0.62366662  0.37165915  0.37172775  1
  Co  Co90  1  0.12434270  0.12469805  0.62148033  1
  Co  Co91  1  0.50051617  0.49751834  0.00219091  1
  Co  Co92  1  0.49601814  0.24885653  0.24799621  1
  Co  Co93  1  0.00285776  0.24956832  0.00105178  1
  Co  Co94  1  0.87494298  0.37623824  0.62718184  1
  Co  Co95  1  0.50105071  0.74953375  0.74899593  1
  Co  Co96  1  0.62593835  0.87488981  0.12682935  1
  Co  Co97  1  0.25143925  0.75333658  0.50166416  1
  Co  Co98  1  0.12475027  0.62407053  0.62054600  1
  Co  Co99  1  0.00021318  -0.00084310  0.49540369  1
  Co  Co100  1  0.49697372  0.25450865  0.49930073  1
  Co  Co101  1  0.87384938  0.62398550  0.12300851  1
  Co  Co102  1  0.12249597  0.87691728  0.62554200  1
  Co  Co103  1  0.49944846  0.50201143  0.74718476  1
  Co  Co104  1  0.62706343  0.37520145  0.13078415  1
  Co  Co105  1  0.62129075  0.12403692  0.62085604  1
  Co  Co106  1  0.12565052  0.37751071  0.12565310  1
  Co  Co107  1  0.12525033  0.87578664  0.12603112  1
  Co  Co108  1  0.37316918  0.37465438  0.37092418  1
  Co  Co109  1  0.50073068  -0.00258178  0.49414591  1
  Co  Co110  1  0.37742813  0.87844466  0.62786128  1
  Co  Co111  1  0.00413160  0.00394427  0.75370943  1
  Co  Co112  1  0.12525371  0.12288388  0.12600364  1
  Co  Co113  1  0.24965684  0.00196090  0.25159421  1
  Co  Co114  1  0.87335769  0.87351243  0.37267068  1
  Co  Co115  1  0.50028837  0.00321417  0.75457888  1
  Co  Co116  1  0.62566223  0.12640107  0.12685810  1
  Co  Co117  1  0.75244862  0.24861408  0.25069580  1
  Co  Co118  1  0.49856761  0.24519683  0.75054995  1
  Co  Co119  1  0.37442900  0.62537223  0.12533180  1
  Co  Co120  1  0.00080747  0.74788594  0.25010149  1
  Co  Co121  1  0.12573531  0.62529692  0.87816726  1
  Co  Co122  1  0.87740813  0.11978881  0.62398130  1
  Co  Co123  1  0.37456476  0.37496695  0.62949851  1
  Co  Co124  1  0.74558222  0.25234261  -0.00120677  1
  Co  Co125  1  0.87779370  0.12804563  0.37557739  1
  Co  Co126  1  0.62233943  0.37534206  0.86912552  1
  Co  Co127  1  -0.00175945  0.25139994  0.50327478  1
