# generated using pymatgen
data_Fe45Co19
_symmetry_space_group_name_H-M   'P 1'
_cell_length_a   11.41501558
_cell_length_b   11.41508207
_cell_length_c   11.41578045
_cell_angle_alpha   89.99486604
_cell_angle_beta   90.01105381
_cell_angle_gamma   90.00361871
_symmetry_Int_Tables_number   1
_chemical_formula_structural   Fe45Co19
_chemical_formula_sum   'Fe90 Co38'
_cell_volume   1487.51428028
_cell_formula_units_Z   2
loop_
 _symmetry_equiv_pos_site_id
 _symmetry_equiv_pos_as_xyz
  1  'x, y, z'
loop_
 _atom_site_type_symbol
 _atom_site_label
 _atom_site_symmetry_multiplicity
 _atom_site_fract_x
 _atom_site_fract_y
 _atom_site_fract_z
 _atom_site_occupancy
  Fe  Fe0  1  0.87466408  0.62286407  0.12610658  1
  Fe  Fe1  1  0.74987266  0.49787835  0.75120995  1
  Fe  Fe2  1  0.87573425  0.87417223  0.62480936  1
  Fe  Fe3  1  0.74998799  0.75056628  0.00097682  1
  Fe  Fe4  1  0.12532511  0.87556884  0.37574839  1
  Fe  Fe5  1  0.25129543  0.00295234  0.49824552  1
  Fe  Fe6  1  0.87273503  0.12591056  0.62474277  1
  Fe  Fe7  1  0.62444078  0.37415266  0.62416064  1
  Fe  Fe8  1  0.00391180  0.74885512  0.74964475  1
  Fe  Fe9  1  0.49851754  -0.00066532  0.00206420  1
  Fe  Fe10  1  0.37207967  0.62488766  0.37509492  1
  Fe  Fe11  1  0.37642403  0.87718107  0.37390724  1
  Fe  Fe12  1  -0.00114960  0.25032823  0.24926532  1
  Fe  Fe13  1  -0.00125863  0.50193887  0.49749902  1
  Fe  Fe14  1  0.62239158  0.12709149  0.87482744  1
  Fe  Fe15  1  0.37527760  0.87271161  0.87181455  1
  Fe  Fe16  1  0.24940165  0.25054769  0.25203922  1
  Fe  Fe17  1  0.87608615  0.62542015  0.87488482  1
  Fe  Fe18  1  0.87550978  0.12517663  0.87553269  1
  Fe  Fe19  1  0.24959563  0.75010364  0.50128324  1
  Fe  Fe20  1  0.00201785  0.74521749  0.25116953  1
  Fe  Fe21  1  0.62245236  0.87272760  0.87657288  1
  Fe  Fe22  1  0.25025764  0.49810048  0.50133995  1
  Fe  Fe23  1  0.25089023  0.25103727  -0.00043146  1
  Fe  Fe24  1  0.75127221  0.25255063  0.75078831  1
  Fe  Fe25  1  0.00049257  0.00213687  0.74954099  1
  Fe  Fe26  1  0.50159866  0.24853240  0.25193447  1
  Fe  Fe27  1  0.62208452  0.87543249  0.37383684  1
  Fe  Fe28  1  0.75241624  0.49427287  0.25065194  1
  Fe  Fe29  1  0.75215062  0.49699949  0.49886818  1
  Fe  Fe30  1  0.37430384  0.37598643  0.87392363  1
  Fe  Fe31  1  0.12370568  0.37661570  0.37370999  1
  Fe  Fe32  1  0.12454360  0.37375682  0.62727188  1
  Fe  Fe33  1  0.37301059  0.62392002  0.12530727  1
  Fe  Fe34  1  0.49879394  0.49971726  -0.00086517  1
  Fe  Fe35  1  0.00307605  0.50083858  0.74998864  1
  Fe  Fe36  1  0.62281572  0.87457764  0.62405233  1
  Fe  Fe37  1  0.74899535  -0.00042614  0.75037563  1
  Fe  Fe38  1  0.12505024  0.87736276  0.87715650  1
  Fe  Fe39  1  0.49849618  0.50099266  0.25185648  1
  Fe  Fe40  1  0.37377967  0.12419941  0.12825547  1
  Fe  Fe41  1  0.62265533  0.37422347  0.12423910  1
  Fe  Fe42  1  0.62348148  0.62554339  0.12470140  1
  Fe  Fe43  1  0.49878868  0.00453961  0.50105775  1
  Fe  Fe44  1  -0.00012034  0.74700519  0.49757389  1
  Fe  Fe45  1  0.12591448  0.87597554  0.62330737  1
  Fe  Fe46  1  0.12777122  0.12222717  0.12495833  1
  Fe  Fe47  1  0.00162921  0.00204184  0.25157779  1
  Fe  Fe48  1  0.74922710  -0.00147546  0.00012078  1
  Fe  Fe49  1  0.37216896  0.62592363  0.87177468  1
  Fe  Fe50  1  0.37378548  0.12477500  0.87319331  1
  Fe  Fe51  1  0.12575986  0.37964140  0.12606302  1
  Fe  Fe52  1  -0.00001690  0.00314885  0.49925661  1
  Fe  Fe53  1  0.24894435  0.74941376  0.25072875  1
  Fe  Fe54  1  0.87661066  0.87601984  0.12522658  1
  Fe  Fe55  1  0.74780808  0.00046810  0.24981539  1
  Fe  Fe56  1  0.74874258  0.75108325  0.25003740  1
  Fe  Fe57  1  0.12517368  0.87716605  0.12419088  1
  Fe  Fe58  1  0.25017535  0.75016862  0.00032586  1
  Fe  Fe59  1  0.87331045  0.12598407  0.12591380  1
  Fe  Fe60  1  0.87692723  0.87489089  0.87539169  1
  Fe  Fe61  1  0.37177303  0.62596548  0.62797660  1
  Fe  Fe62  1  0.62284293  0.62656951  0.87549407  1
  Fe  Fe63  1  0.49945907  0.50122985  0.50046067  1
  Fe  Fe64  1  0.12896781  0.12583341  0.62723567  1
  Fe  Fe65  1  0.12852174  0.12390680  0.87419110  1
  Fe  Fe66  1  0.74943479  0.25265689  -0.00072250  1
  Fe  Fe67  1  0.25143711  0.24944153  0.49948481  1
  Fe  Fe68  1  0.49868918  0.00015213  0.74696804  1
  Fe  Fe69  1  0.74863681  0.49763071  -0.00165453  1
  Fe  Fe70  1  0.74961739  0.00007637  0.49973167  1
  Fe  Fe71  1  0.87558237  0.87491202  0.37488664  1
  Fe  Fe72  1  0.62772183  0.62408433  0.37479195  1
  Fe  Fe73  1  0.62677288  0.62558029  0.62420506  1
  Fe  Fe74  1  0.62501222  0.12709991  0.12445104  1
  Fe  Fe75  1  0.00297429  0.50148127  0.00028908  1
  Fe  Fe76  1  0.75014900  0.25169253  0.49716174  1
  Fe  Fe77  1  0.49789436  0.25097922  0.74757999  1
  Fe  Fe78  1  0.74893293  0.75052146  0.74897043  1
  Fe  Fe79  1  0.50007779  0.74819419  0.49986620  1
  Fe  Fe80  1  0.87437255  0.62598220  0.62413829  1
  Fe  Fe81  1  0.37695385  0.87535885  0.12880543  1
  Fe  Fe82  1  -0.00091792  0.24843846  0.50128869  1
  Fe  Fe83  1  0.49954779  0.24696890  0.50033532  1
  Fe  Fe84  1  0.50011026  0.49925783  0.74851746  1
  Fe  Fe85  1  0.00145432  0.74789433  0.00189919  1
  Fe  Fe86  1  0.87884853  0.37459243  0.87580406  1
  Fe  Fe87  1  0.37510891  0.37531762  0.12597144  1
  Fe  Fe88  1  0.00250080  0.24845427  0.00006012  1
  Fe  Fe89  1  0.37665639  0.37430566  0.37619865  1
  Co  Co90  1  0.24586132  0.75190931  0.74850509  1
  Co  Co91  1  0.12421418  0.37384177  0.87500500  1
  Co  Co92  1  0.87641023  0.37513118  0.62586052  1
  Co  Co93  1  0.12829612  0.62530023  0.87661993  1
  Co  Co94  1  0.50206526  0.00219805  0.24858920  1
  Co  Co95  1  0.00015512  0.24757493  0.74995771  1
  Co  Co96  1  0.62668143  0.12681388  0.62628872  1
  Co  Co97  1  0.25263474  0.49813247  0.25227385  1
  Co  Co98  1  0.87455698  0.12561057  0.37419990  1
  Co  Co99  1  0.75007998  0.25381313  0.25077609  1
  Co  Co100  1  0.62236306  0.87268072  0.12448495  1
  Co  Co101  1  0.12596447  0.62446352  0.62287196  1
  Co  Co102  1  0.87747222  0.37522186  0.12212919  1
  Co  Co103  1  0.74917599  0.75261833  0.49995289  1
  Co  Co104  1  0.25141117  0.25323218  0.75111703  1
  Co  Co105  1  -0.00113525  0.00225461  0.00039070  1
  Co  Co106  1  0.62161259  0.37536752  0.37592031  1
  Co  Co107  1  0.87867577  0.37295600  0.37484983  1
  Co  Co108  1  0.12874933  0.62249688  0.37474814  1
  Co  Co109  1  0.37506968  0.87465559  0.62307974  1
  Co  Co110  1  0.87109250  0.62544323  0.37479509  1
  Co  Co111  1  0.49971301  0.74676961  0.25213358  1
  Co  Co112  1  0.62664815  0.12527774  0.37438782  1
  Co  Co113  1  0.37462628  0.12501319  0.37258731  1
  Co  Co114  1  0.25052462  -0.00295069  0.74891221  1
  Co  Co115  1  0.25135345  0.49796006  -0.00155030  1
  Co  Co116  1  -0.00133880  0.50253500  0.25221911  1
  Co  Co117  1  0.62193119  0.37297001  0.87469628  1
  Co  Co118  1  0.12462209  0.12708391  0.37495132  1
  Co  Co119  1  0.12869025  0.62166676  0.12580498  1
  Co  Co120  1  0.25372784  -0.00094503  0.00071586  1
  Co  Co121  1  0.50074662  0.74950076  0.74701268  1
  Co  Co122  1  0.49734757  0.74917743  0.00085384  1
  Co  Co123  1  0.24733274  0.49790248  0.74904020  1
  Co  Co124  1  0.37564721  0.37513946  0.62368090  1
  Co  Co125  1  0.24780829  -0.00023007  0.25218818  1
  Co  Co126  1  0.49646063  0.24989136  0.00048699  1
  Co  Co127  1  0.37183577  0.12598859  0.62646074  1
