# generated using pymatgen
data_Fe45Co19
_symmetry_space_group_name_H-M   'P 1'
_cell_length_a   11.41577731
_cell_length_b   11.41521733
_cell_length_c   11.41478581
_cell_angle_alpha   89.99834437
_cell_angle_beta   90.00580371
_cell_angle_gamma   89.99721413
_symmetry_Int_Tables_number   1
_chemical_formula_structural   Fe45Co19
_chemical_formula_sum   'Fe90 Co38'
_cell_volume   1487.50158166
_cell_formula_units_Z   2
loop_
 _symmetry_equiv_pos_site_id
 _symmetry_equiv_pos_as_xyz
  1  'x, y, z'
loop_
 _atom_site_type_symbol
 _atom_site_label
 _atom_site_symmetry_multiplicity
 _atom_site_fract_x
 _atom_site_fract_y
 _atom_site_fract_z
 _atom_site_occupancy
  Fe  Fe0  1  0.24964052  0.25106198  0.75114444  1
  Fe  Fe1  1  0.62569615  0.12501644  0.37528297  1
  Fe  Fe2  1  0.24931057  0.00108153  -0.00161284  1
  Fe  Fe3  1  0.50213317  0.25119335  0.75336115  1
  Fe  Fe4  1  0.12412671  0.37448847  0.62470830  1
  Fe  Fe5  1  -0.00086761  -0.00214934  -0.00222439  1
  Fe  Fe6  1  0.87535453  0.37937653  0.87813312  1
  Fe  Fe7  1  0.87486648  0.12488714  0.37539357  1
  Fe  Fe8  1  0.25169773  0.74975846  0.24904571  1
  Fe  Fe9  1  0.49816816  0.00126554  0.50115902  1
  Fe  Fe10  1  0.74823219  -0.00124422  0.50136299  1
  Fe  Fe11  1  0.12456466  0.87434280  0.12515581  1
  Fe  Fe12  1  0.37483523  0.37573998  0.37562982  1
  Fe  Fe13  1  0.75098734  0.25156943  0.50078554  1
  Fe  Fe14  1  0.49978929  0.74924258  0.00014243  1
  Fe  Fe15  1  0.62544251  0.37651937  0.62720164  1
  Fe  Fe16  1  0.24912916  0.00052586  0.74942268  1
  Fe  Fe17  1  0.00277022  0.49607887  0.25381319  1
  Fe  Fe18  1  0.25030045  0.75215747  0.50170520  1
  Fe  Fe19  1  0.50225023  -0.00042811  0.75038908  1
  Fe  Fe20  1  0.12434620  0.12631426  0.12357002  1
  Fe  Fe21  1  0.62800338  0.37522073  0.12101865  1
  Fe  Fe22  1  0.87422164  0.12492215  0.12491090  1
  Fe  Fe23  1  0.12105653  0.62541438  0.12579967  1
  Fe  Fe24  1  0.50125301  -0.00142453  0.24945200  1
  Fe  Fe25  1  0.87319474  0.87566898  0.37633533  1
  Fe  Fe26  1  0.49803517  0.50299797  0.74892202  1
  Fe  Fe27  1  0.24719412  0.50084941  0.00067459  1
  Fe  Fe28  1  0.62658907  0.37438483  0.37532990  1
  Fe  Fe29  1  0.74852750  -0.00093931  0.25081299  1
  Fe  Fe30  1  0.37811550  0.62396134  0.12564752  1
  Fe  Fe31  1  0.37432344  0.37614907  0.62565865  1
  Fe  Fe32  1  0.12116530  0.12771549  0.87398533  1
  Fe  Fe33  1  0.75027290  0.24937283  0.24984144  1
  Fe  Fe34  1  0.74994820  -0.00046850  -0.00120035  1
  Fe  Fe35  1  0.50171706  -0.00096524  -0.00189174  1
  Fe  Fe36  1  0.49874127  0.24913033  0.50073641  1
  Fe  Fe37  1  0.00329799  -0.00317977  0.49990432  1
  Fe  Fe38  1  0.75454576  0.74325744  0.00169773  1
  Fe  Fe39  1  0.25043241  0.24973953  0.24848778  1
  Fe  Fe40  1  0.87541541  0.62305076  0.37934535  1
  Fe  Fe41  1  0.00120093  -0.00147729  0.25110399  1
  Fe  Fe42  1  0.75261085  0.50323407  0.74845535  1
  Fe  Fe43  1  0.87393472  0.12219108  0.87207783  1
  Fe  Fe44  1  0.12111361  0.62571626  0.87619700  1
  Fe  Fe45  1  0.12215254  0.12601077  0.62732056  1
  Fe  Fe46  1  0.00020968  0.75230658  0.25322723  1
  Fe  Fe47  1  0.37398755  0.87305519  0.87382092  1
  Fe  Fe48  1  0.62252773  0.62838425  0.37509621  1
  Fe  Fe49  1  0.37369567  0.87529025  0.12389331  1
  Fe  Fe50  1  0.12621650  0.12488467  0.37448388  1
  Fe  Fe51  1  0.87583103  0.37981776  0.62227001  1
  Fe  Fe52  1  0.37462225  0.37521033  0.12277800  1
  Fe  Fe53  1  0.24872520  0.49919336  0.24959802  1
  Fe  Fe54  1  0.87644433  0.87553524  0.62438933  1
  Fe  Fe55  1  0.25213330  0.74678710  0.74885603  1
  Fe  Fe56  1  0.87537214  0.87341993  0.12469334  1
  Fe  Fe57  1  0.37510963  0.37644857  0.87633210  1
  Fe  Fe58  1  0.12103272  0.62485557  0.62307992  1
  Fe  Fe59  1  0.25039435  0.00032507  0.50321604  1
  Fe  Fe60  1  0.74730300  0.50289486  0.24934482  1
  Fe  Fe61  1  0.24766391  0.49954819  0.49973228  1
  Fe  Fe62  1  0.75471085  0.74715719  0.74647393  1
  Fe  Fe63  1  0.62576382  0.12648394  0.62676190  1
  Fe  Fe64  1  0.75072348  0.25161300  0.75238555  1
  Fe  Fe65  1  0.62331456  0.87111495  0.62357786  1
  Fe  Fe66  1  -0.00131054  0.25361881  0.49797932  1
  Fe  Fe67  1  0.37675693  0.12602763  0.87467052  1
  Fe  Fe68  1  0.37435704  0.87689309  0.37459592  1
  Fe  Fe69  1  0.50218470  0.50168404  0.50156601  1
  Fe  Fe70  1  0.12106795  0.37335396  0.87898203  1
  Fe  Fe71  1  0.12447287  0.87263547  0.87393558  1
  Fe  Fe72  1  0.87403670  0.37708752  0.12371199  1
  Fe  Fe73  1  -0.00038160  0.25256891  0.25084884  1
  Fe  Fe74  1  0.24927374  0.74815127  0.00114553  1
  Fe  Fe75  1  0.62559359  0.12662658  0.12188120  1
  Fe  Fe76  1  0.62845633  0.87161215  0.87365102  1
  Fe  Fe77  1  0.49589604  0.74589166  0.74751083  1
  Fe  Fe78  1  0.87611496  0.12370504  0.62604592  1
  Fe  Fe79  1  -0.00293012  0.75030156  0.74924831  1
  Fe  Fe80  1  0.62580534  0.62451748  0.87402024  1
  Fe  Fe81  1  0.62707227  0.87204182  0.12471688  1
  Fe  Fe82  1  0.50238657  0.50054677  0.00026727  1
  Fe  Fe83  1  0.74918189  0.74951351  0.25138580  1
  Fe  Fe84  1  0.24801395  0.50110193  0.75149563  1
  Fe  Fe85  1  0.25295983  0.24751180  0.50121416  1
  Fe  Fe86  1  0.37613033  0.12608750  0.12313985  1
  Fe  Fe87  1  0.12428352  0.62703189  0.37672846  1
  Fe  Fe88  1  0.37705881  0.62406234  0.37444889  1
  Fe  Fe89  1  0.50034343  0.25133572  0.24960301  1
  Co  Co90  1  0.62144526  0.62685017  0.12639759  1
  Co  Co91  1  0.75101556  0.50697791  0.00218711  1
  Co  Co92  1  -0.00231068  0.75072773  -0.00054325  1
  Co  Co93  1  0.12413907  0.37406121  0.12266075  1
  Co  Co94  1  0.75114565  0.24940712  -0.00409607  1
  Co  Co95  1  -0.00043160  0.50211128  0.00162777  1
  Co  Co96  1  0.37138732  0.62211808  0.62250361  1
  Co  Co97  1  0.50156711  0.49746391  0.24974477  1
  Co  Co98  1  -0.00018140  -0.00261627  0.75106502  1
  Co  Co99  1  0.37500494  0.12416433  0.37318797  1
  Co  Co100  1  0.00052309  0.75387931  0.49899562  1
  Co  Co101  1  0.62708911  0.12294234  0.87427959  1
  Co  Co102  1  0.50229026  0.25144729  -0.00283101  1
  Co  Co103  1  0.37498723  0.87544650  0.62721010  1
  Co  Co104  1  0.12973008  0.37093875  0.37507871  1
  Co  Co105  1  0.87198167  0.87476027  0.87535587  1
  Co  Co106  1  0.49674082  0.74817970  0.50134371  1
  Co  Co107  1  0.75097650  0.74954016  0.50103994  1
  Co  Co108  1  0.86995382  0.37681672  0.37378818  1
  Co  Co109  1  0.62372865  0.87437106  0.37740547  1
  Co  Co110  1  0.37606107  0.12580926  0.62939414  1
  Co  Co111  1  0.24988392  0.00092751  0.24720237  1
  Co  Co112  1  0.12578631  0.87324763  0.62842983  1
  Co  Co113  1  0.87799975  0.62321994  0.87395882  1
  Co  Co114  1  0.74847347  -0.00207174  0.74684591  1
  Co  Co115  1  0.37466892  0.62386946  0.87833011  1
  Co  Co116  1  0.25047566  0.24893829  -0.00106592  1
  Co  Co117  1  0.74561518  0.50139892  0.50031463  1
  Co  Co118  1  0.00135286  0.49929328  0.74970011  1
  Co  Co119  1  0.49869314  0.75334618  0.24970766  1
  Co  Co120  1  0.12924988  0.87586481  0.37353385  1
  Co  Co121  1  0.00290842  0.49539958  0.49577194  1
  Co  Co122  1  -0.00418086  0.24898934  0.00013044  1
  Co  Co123  1  0.87977297  0.62173372  0.61895450  1
  Co  Co124  1  0.62606676  0.62665931  0.62615782  1
  Co  Co125  1  -0.00341378  0.25317704  0.74955973  1
  Co  Co126  1  0.88003928  0.62404690  0.13017151  1
  Co  Co127  1  0.62732142  0.38099743  0.87550463  1
