# generated using pymatgen
data_Fe45Co19
_symmetry_space_group_name_H-M   'P 1'
_cell_length_a   11.41558074
_cell_length_b   11.41392514
_cell_length_c   11.41504917
_cell_angle_alpha   90.01189012
_cell_angle_beta   89.99470638
_cell_angle_gamma   90.00722366
_symmetry_Int_Tables_number   1
_chemical_formula_structural   Fe45Co19
_chemical_formula_sum   'Fe90 Co38'
_cell_volume   1487.34186234
_cell_formula_units_Z   2
loop_
 _symmetry_equiv_pos_site_id
 _symmetry_equiv_pos_as_xyz
  1  'x, y, z'
loop_
 _atom_site_type_symbol
 _atom_site_label
 _atom_site_symmetry_multiplicity
 _atom_site_fract_x
 _atom_site_fract_y
 _atom_site_fract_z
 _atom_site_occupancy
  Fe  Fe0  1  0.24849013  0.75235536  0.49955048  1
  Fe  Fe1  1  0.37821043  0.87761334  0.12464891  1
  Fe  Fe2  1  0.12867340  0.62404546  0.37204449  1
  Fe  Fe3  1  0.62482783  0.37659823  0.62503079  1
  Fe  Fe4  1  0.00039562  0.50226698  0.49979882  1
  Fe  Fe5  1  -0.00153606  0.00065273  0.50052051  1
  Fe  Fe6  1  0.62607465  0.12571155  0.37578350  1
  Fe  Fe7  1  0.75328447  0.75383968  0.49918259  1
  Fe  Fe8  1  0.62433198  0.37590340  0.87404972  1
  Fe  Fe9  1  0.37625606  0.87637879  0.37632846  1
  Fe  Fe10  1  0.62211786  0.37830295  0.37518929  1
  Fe  Fe11  1  0.25055120  -0.00051786  0.25027841  1
  Fe  Fe12  1  0.87707551  0.87344471  0.87577818  1
  Fe  Fe13  1  -0.00132715  0.25073254  0.50099490  1
  Fe  Fe14  1  0.62431098  0.87245477  0.87362736  1
  Fe  Fe15  1  0.75006644  0.75117533  0.00210874  1
  Fe  Fe16  1  0.12318761  0.87551686  0.12406558  1
  Fe  Fe17  1  0.24915656  0.75115154  0.74915198  1
  Fe  Fe18  1  0.37332526  0.12503176  0.62325669  1
  Fe  Fe19  1  0.37065141  0.62386877  0.12804554  1
  Fe  Fe20  1  0.75030047  0.75233277  0.25086700  1
  Fe  Fe21  1  0.37726539  0.37560603  0.12367612  1
  Fe  Fe22  1  0.75187905  -0.00411747  0.49950698  1
  Fe  Fe23  1  0.25126051  0.25358385  0.75297906  1
  Fe  Fe24  1  0.24983346  -0.00274882  0.74812722  1
  Fe  Fe25  1  0.12232688  0.87628524  0.37521560  1
  Fe  Fe26  1  0.24912829  0.25131953  0.49913154  1
  Fe  Fe27  1  0.00058968  0.74796369  0.24961386  1
  Fe  Fe28  1  0.49978971  0.74864616  -0.00053688  1
  Fe  Fe29  1  0.00224414  0.50303686  -0.00087930  1
  Fe  Fe30  1  0.62585703  0.62459293  0.12768152  1
  Fe  Fe31  1  0.24962827  0.25233250  0.25155657  1
  Fe  Fe32  1  0.87689082  0.37711336  0.37326823  1
  Fe  Fe33  1  0.87247867  0.62345047  0.37444949  1
  Fe  Fe34  1  0.37660502  0.37581869  0.62501448  1
  Fe  Fe35  1  0.12282964  0.37675548  0.62667360  1
  Fe  Fe36  1  0.50077302  0.50239708  0.00164677  1
  Fe  Fe37  1  0.49896033  0.24845351  0.25148183  1
  Fe  Fe38  1  0.37273857  0.62367837  0.37272880  1
  Fe  Fe39  1  -0.00118976  0.24754743  0.75042935  1
  Fe  Fe40  1  -0.00137687  0.00174586  0.75127111  1
  Fe  Fe41  1  0.11909630  0.87085410  0.62457216  1
  Fe  Fe42  1  0.87561534  0.37642001  0.87192850  1
  Fe  Fe43  1  0.62638271  0.12554065  0.62376729  1
  Fe  Fe44  1  0.24960781  0.75152442  0.00218107  1
  Fe  Fe45  1  0.49842394  0.24732543  -0.00278004  1
  Fe  Fe46  1  0.75019646  0.25482573  0.24772627  1
  Fe  Fe47  1  0.75113926  0.25481155  0.50184659  1
  Fe  Fe48  1  0.75147483  0.25270081  -0.00006885  1
  Fe  Fe49  1  0.62663797  0.62234963  0.37519424  1
  Fe  Fe50  1  0.62862117  0.62524366  0.62372415  1
  Fe  Fe51  1  -0.00162046  0.00106393  0.24803065  1
  Fe  Fe52  1  0.12669818  0.12560427  0.62451851  1
  Fe  Fe53  1  0.24909910  0.49898479  0.50090911  1
  Fe  Fe54  1  -0.00026530  0.50865095  0.75052281  1
  Fe  Fe55  1  0.12615233  0.12482131  0.12260439  1
  Fe  Fe56  1  0.37665591  0.87474665  0.87447120  1
  Fe  Fe57  1  0.62254160  0.87581965  0.12574347  1
  Fe  Fe58  1  0.49935602  0.74935351  0.25062422  1
  Fe  Fe59  1  -0.00057239  0.24883062  -0.00240073  1
  Fe  Fe60  1  0.37491823  0.12246100  0.12342959  1
  Fe  Fe61  1  0.24751706  0.49767060  -0.00167740  1
  Fe  Fe62  1  0.49945650  0.00147979  0.49926284  1
  Fe  Fe63  1  0.74911781  0.49639019  0.00369851  1
  Fe  Fe64  1  0.87271467  0.12586841  0.62485268  1
  Fe  Fe65  1  0.37216218  0.62391571  0.87401180  1
  Fe  Fe66  1  0.49919027  0.24896084  0.75035706  1
  Fe  Fe67  1  0.12639949  0.12471932  0.37633298  1
  Fe  Fe68  1  0.87465951  0.62302823  0.12598933  1
  Fe  Fe69  1  0.12220002  0.37603272  0.12580680  1
  Fe  Fe70  1  0.00084534  0.74702026  0.00040688  1
  Fe  Fe71  1  0.87340330  0.12515214  0.37477406  1
  Fe  Fe72  1  0.75012877  -0.00339154  0.25084183  1
  Fe  Fe73  1  0.75449146  0.74760639  0.74923981  1
  Fe  Fe74  1  0.62769603  0.62484141  0.87511479  1
  Fe  Fe75  1  0.49936021  0.74752545  0.50113898  1
  Fe  Fe76  1  0.12245320  0.87376280  0.87546265  1
  Fe  Fe77  1  0.12727860  0.12350319  0.87598017  1
  Fe  Fe78  1  0.87438405  0.12562007  0.12398323  1
  Fe  Fe79  1  0.62430048  0.12433907  0.12495416  1
  Fe  Fe80  1  0.62349972  0.87289831  0.62582415  1
  Fe  Fe81  1  0.62694742  0.12540342  0.87407181  1
  Fe  Fe82  1  0.37762399  0.37623508  0.37682108  1
  Fe  Fe83  1  0.25024483  0.25260818  -0.00397596  1
  Fe  Fe84  1  0.75246720  -0.00054441  0.74965153  1
  Fe  Fe85  1  0.00092239  0.25046552  0.25098513  1
  Fe  Fe86  1  0.75132211  -0.00119018  -0.00000750  1
  Fe  Fe87  1  0.37145295  0.62585929  0.62646153  1
  Fe  Fe88  1  0.50050550  0.50335000  0.74872551  1
  Fe  Fe89  1  0.49892583  -0.00014608  0.75022860  1
  Co  Co90  1  0.24842131  -0.00268628  0.50169114  1
  Co  Co91  1  0.87084550  0.62413349  0.88009456  1
  Co  Co92  1  0.24924407  0.49797679  0.75000099  1
  Co  Co93  1  0.87328266  0.12585660  0.87558114  1
  Co  Co94  1  0.87801880  0.87499382  0.37400648  1
  Co  Co95  1  -0.00127022  0.00096835  -0.00037900  1
  Co  Co96  1  0.50158388  0.00019742  -0.00329924  1
  Co  Co97  1  0.12730219  0.62688808  0.62443249  1
  Co  Co98  1  -0.00265721  0.74302564  0.75291307  1
  Co  Co99  1  0.75189339  0.49621396  0.50086296  1
  Co  Co100  1  0.12835944  0.62356965  0.12707212  1
  Co  Co101  1  0.37209125  0.12475570  0.37716680  1
  Co  Co102  1  0.87937065  0.87301178  0.62623781  1
  Co  Co103  1  0.75087720  0.50178331  0.74852858  1
  Co  Co104  1  0.87594840  0.87353498  0.12506634  1
  Co  Co105  1  0.62240671  0.87371062  0.37622087  1
  Co  Co106  1  0.37726146  0.87339047  0.62421389  1
  Co  Co107  1  0.12078970  0.37635693  0.87200294  1
  Co  Co108  1  0.50040247  0.00177055  0.25288342  1
  Co  Co109  1  0.87406733  0.62616754  0.62044792  1
  Co  Co110  1  0.50105052  0.24902245  0.50010171  1
  Co  Co111  1  0.49985725  0.74632583  0.75026569  1
  Co  Co112  1  0.74968879  0.25117908  0.74868872  1
  Co  Co113  1  0.88038178  0.37601455  0.12454175  1
  Co  Co114  1  0.74902340  0.49647570  0.24728493  1
  Co  Co115  1  0.62011167  0.37305076  0.12412346  1
  Co  Co116  1  0.24979954  0.75485305  0.24965806  1
  Co  Co117  1  0.00152823  0.50140835  0.25151965  1
  Co  Co118  1  0.00019412  0.74645192  0.49663831  1
  Co  Co119  1  0.49936399  0.50372093  0.50217728  1
  Co  Co120  1  0.24944424  0.49424626  0.25050171  1
  Co  Co121  1  0.12336180  0.37490910  0.37700452  1
  Co  Co122  1  0.37201723  0.12270554  0.87426981  1
  Co  Co123  1  0.87863225  0.37685132  0.62905419  1
  Co  Co124  1  0.49989245  0.50108949  0.24884457  1
  Co  Co125  1  0.24953118  -0.00228541  0.00001695  1
  Co  Co126  1  0.37907207  0.37852079  0.87508033  1
  Co  Co127  1  0.13004405  0.62660365  0.87528348  1
