# generated using pymatgen
data_Fe45Co19
_symmetry_space_group_name_H-M   'P 1'
_cell_length_a   11.41473553
_cell_length_b   11.41411048
_cell_length_c   11.41520727
_cell_angle_alpha   90.00141222
_cell_angle_beta   90.00322581
_cell_angle_gamma   89.99691852
_symmetry_Int_Tables_number   1
_chemical_formula_structural   Fe45Co19
_chemical_formula_sum   'Fe90 Co38'
_cell_volume   1487.27653519
_cell_formula_units_Z   2
loop_
 _symmetry_equiv_pos_site_id
 _symmetry_equiv_pos_as_xyz
  1  'x, y, z'
loop_
 _atom_site_type_symbol
 _atom_site_label
 _atom_site_symmetry_multiplicity
 _atom_site_fract_x
 _atom_site_fract_y
 _atom_site_fract_z
 _atom_site_occupancy
  Fe  Fe0  1  0.49830927  0.49961065  0.74839121  1
  Fe  Fe1  1  0.62497673  0.62334864  0.62446880  1
  Fe  Fe2  1  0.12651263  0.37490852  0.62877834  1
  Fe  Fe3  1  0.37438205  0.12462368  0.87608753  1
  Fe  Fe4  1  0.75377441  0.49829833  0.25349929  1
  Fe  Fe5  1  0.62439938  0.87591096  0.37377012  1
  Fe  Fe6  1  0.00309129  0.49558464  -0.00090891  1
  Fe  Fe7  1  0.49895858  -0.00171920  -0.00087748  1
  Fe  Fe8  1  0.62659095  0.87569744  0.12355358  1
  Fe  Fe9  1  0.74939721  0.49681464  -0.00160747  1
  Fe  Fe10  1  0.62573584  0.37357182  0.87149837  1
  Fe  Fe11  1  0.00302980  0.25001450  0.75582823  1
  Fe  Fe12  1  0.49756285  0.49917132  -0.00077856  1
  Fe  Fe13  1  0.25106874  0.50360108  0.74789528  1
  Fe  Fe14  1  0.62696820  0.12463980  0.12166337  1
  Fe  Fe15  1  0.75091762  0.49310960  0.49815398  1
  Fe  Fe16  1  0.00186486  0.24821072  0.24822559  1
  Fe  Fe17  1  0.00276390  0.75071866  0.74963581  1
  Fe  Fe18  1  0.37310596  0.12472133  0.62602881  1
  Fe  Fe19  1  0.62547698  0.62306161  0.37515668  1
  Fe  Fe20  1  0.87521320  0.87439087  0.87553346  1
  Fe  Fe21  1  0.87290464  0.12882432  0.87881228  1
  Fe  Fe22  1  0.12177006  0.62384108  0.37679804  1
  Fe  Fe23  1  0.24908817  0.50130022  0.24967873  1
  Fe  Fe24  1  0.24579647  0.25237040  -0.00326364  1
  Fe  Fe25  1  0.74933957  0.75039305  0.75021915  1
  Fe  Fe26  1  0.12298939  0.37508557  0.37283809  1
  Fe  Fe27  1  0.12483191  0.12421566  0.62674356  1
  Fe  Fe28  1  0.12350881  0.87269815  0.12410804  1
  Fe  Fe29  1  0.50077113  0.25172769  0.00013410  1
  Fe  Fe30  1  0.24734052  -0.00280200  0.75241987  1
  Fe  Fe31  1  0.74720321  0.00038812  0.75339592  1
  Fe  Fe32  1  0.00159681  -0.00055894  0.75267374  1
  Fe  Fe33  1  0.75059237  0.00052547  0.49971197  1
  Fe  Fe34  1  0.87436512  0.12555993  0.62565176  1
  Fe  Fe35  1  -0.00254406  0.74479160  0.24892057  1
  Fe  Fe36  1  0.25119443  -0.00347055  0.00049377  1
  Fe  Fe37  1  0.25010714  0.75130826  0.49984077  1
  Fe  Fe38  1  0.62426539  0.62578954  0.87593958  1
  Fe  Fe39  1  0.87722538  0.62261491  0.87605881  1
  Fe  Fe40  1  0.24805394  -0.00099168  0.49781679  1
  Fe  Fe41  1  0.87481654  0.12825723  0.37567508  1
  Fe  Fe42  1  0.12575858  0.62588347  0.87730829  1
  Fe  Fe43  1  0.62429612  0.37613365  0.12802337  1
  Fe  Fe44  1  0.25026891  0.24990111  0.50138093  1
  Fe  Fe45  1  0.49879586  0.00181907  0.24925540  1
  Fe  Fe46  1  0.74941220  0.75167766  0.50003778  1
  Fe  Fe47  1  0.87534562  0.87602551  0.12485060  1
  Fe  Fe48  1  0.49825031  0.75081655  0.00146217  1
  Fe  Fe49  1  0.00102950  0.00036899  0.49899332  1
  Fe  Fe50  1  0.12405985  0.62613940  0.62306187  1
  Fe  Fe51  1  0.62590453  0.62306336  0.12438682  1
  Fe  Fe52  1  0.49827937  0.50094879  0.24984784  1
  Fe  Fe53  1  0.00124978  0.00280404  0.25057745  1
  Fe  Fe54  1  0.49825890  0.24999206  0.74818401  1
  Fe  Fe55  1  0.49853028  0.24778776  0.24847395  1
  Fe  Fe56  1  0.87642124  0.87346880  0.37461591  1
  Fe  Fe57  1  0.37190204  0.37422338  0.12452085  1
  Fe  Fe58  1  0.62646283  0.12948926  0.37619162  1
  Fe  Fe59  1  0.49952289  0.49626299  0.50209210  1
  Fe  Fe60  1  0.24964055  0.24765180  0.25013124  1
  Fe  Fe61  1  0.75163825  0.74718835  0.24883367  1
  Fe  Fe62  1  0.62701765  0.12843383  0.62405430  1
  Fe  Fe63  1  0.75130458  0.00203408  0.24975030  1
  Fe  Fe64  1  0.49964270  -0.00013794  0.49968804  1
  Fe  Fe65  1  0.87557462  0.62612255  0.62254500  1
  Fe  Fe66  1  0.50154185  0.75165620  0.74867396  1
  Fe  Fe67  1  0.87604799  0.37337331  0.62979343  1
  Fe  Fe68  1  0.50359020  -0.00079446  0.75195215  1
  Fe  Fe69  1  0.87600214  0.87603506  0.62527443  1
  Fe  Fe70  1  0.12471002  0.87462891  0.37299255  1
  Fe  Fe71  1  0.37394354  0.87457219  0.62624911  1
  Fe  Fe72  1  0.37111641  0.37540257  0.87313085  1
  Fe  Fe73  1  0.50014424  0.75196845  0.49962309  1
  Fe  Fe74  1  0.87415210  0.12761756  0.12161051  1
  Fe  Fe75  1  0.75129776  0.49996248  0.74973362  1
  Fe  Fe76  1  0.37602134  0.62725006  0.37462723  1
  Fe  Fe77  1  0.25163755  0.49962921  0.50082886  1
  Fe  Fe78  1  0.87766506  0.37425249  0.12482566  1
  Fe  Fe79  1  -0.00185660  0.49768933  0.50070085  1
  Fe  Fe80  1  0.37365431  0.62799701  0.87415916  1
  Fe  Fe81  1  0.37418593  0.62627835  0.12592853  1
  Fe  Fe82  1  0.12647618  0.12516504  0.12229938  1
  Fe  Fe83  1  0.37322562  0.87313689  0.13151789  1
  Fe  Fe84  1  0.00080018  0.24978291  0.50138110  1
  Fe  Fe85  1  0.12541810  0.62506326  0.12189879  1
  Fe  Fe86  1  0.75277475  0.74964196  0.00051465  1
  Fe  Fe87  1  0.37333342  0.12390996  0.37491129  1
  Fe  Fe88  1  -0.00056350  0.00040470  -0.00095432  1
  Fe  Fe89  1  0.37559487  0.37376117  0.37501164  1
  Co  Co90  1  0.75019587  0.25027425  0.24865042  1
  Co  Co91  1  0.87530219  0.37548152  0.87457224  1
  Co  Co92  1  0.75141966  0.24915573  0.75111706  1
  Co  Co93  1  0.88069980  0.37158499  0.37184005  1
  Co  Co94  1  0.75055910  -0.00048234  -0.00221730  1
  Co  Co95  1  0.62532932  0.37379081  0.62749760  1
  Co  Co96  1  0.12459601  0.87735390  0.62409279  1
  Co  Co97  1  0.25309234  0.75176936  0.00037615  1
  Co  Co98  1  0.37624925  0.62733826  0.62457180  1
  Co  Co99  1  0.25114179  0.50049318  0.00102513  1
  Co  Co100  1  0.24635912  0.74679992  0.25078429  1
  Co  Co101  1  0.37528577  0.87441163  0.87158220  1
  Co  Co102  1  0.87422635  0.61967885  0.12143220  1
  Co  Co103  1  0.12843134  0.37976973  0.87057341  1
  Co  Co104  1  0.75170944  0.25439033  0.49964977  1
  Co  Co105  1  0.37217111  0.37458906  0.62636026  1
  Co  Co106  1  -0.00345424  0.74947795  0.00044448  1
  Co  Co107  1  0.50340215  0.74904307  0.24965637  1
  Co  Co108  1  -0.00067065  0.50351715  0.24951669  1
  Co  Co109  1  0.12636670  0.37489179  0.12843178  1
  Co  Co110  1  0.00446473  0.25359612  -0.00334953  1
  Co  Co111  1  0.62579715  0.87617086  0.62465863  1
  Co  Co112  1  0.24776004  0.00188273  0.24927791  1
  Co  Co113  1  0.12513620  0.12689364  0.37560224  1
  Co  Co114  1  0.74785578  0.25414943  0.00098480  1
  Co  Co115  1  0.00048238  0.50255920  0.74882581  1
  Co  Co116  1  0.37423357  0.87512050  0.37175771  1
  Co  Co117  1  0.62142736  0.37245182  0.37275615  1
  Co  Co118  1  0.24604385  0.75064953  0.74932457  1
  Co  Co119  1  0.12392247  0.87332260  0.87916491  1
  Co  Co120  1  0.12663918  0.12140004  0.87672714  1
  Co  Co121  1  0.37260313  0.12605054  0.12167156  1
  Co  Co122  1  0.00112609  0.75230567  0.50089323  1
  Co  Co123  1  0.24859412  0.24772109  0.75133104  1
  Co  Co124  1  0.62522346  0.87242849  0.87789643  1
  Co  Co125  1  0.87545112  0.62503374  0.37959656  1
  Co  Co126  1  0.49772137  0.25061096  0.50214914  1
  Co  Co127  1  0.62430759  0.12768307  0.87716007  1
