# generated using pymatgen
data_Fe45Co19
_symmetry_space_group_name_H-M   'P 1'
_cell_length_a   11.41513779
_cell_length_b   11.41636406
_cell_length_c   11.41446050
_cell_angle_alpha   90.00323720
_cell_angle_beta   90.00178861
_cell_angle_gamma   89.99805097
_symmetry_Int_Tables_number   1
_chemical_formula_structural   Fe45Co19
_chemical_formula_sum   'Fe90 Co38'
_cell_volume   1487.52528285
_cell_formula_units_Z   2
loop_
 _symmetry_equiv_pos_site_id
 _symmetry_equiv_pos_as_xyz
  1  'x, y, z'
loop_
 _atom_site_type_symbol
 _atom_site_label
 _atom_site_symmetry_multiplicity
 _atom_site_fract_x
 _atom_site_fract_y
 _atom_site_fract_z
 _atom_site_occupancy
  Fe  Fe0  1  0.37274289  0.62069331  0.62108453  1
  Fe  Fe1  1  0.87573383  0.12549133  0.37500528  1
  Fe  Fe2  1  0.12336741  0.12219645  0.12590266  1
  Fe  Fe3  1  0.74853951  0.75116187  0.00048375  1
  Fe  Fe4  1  0.87462252  0.62351561  0.12568757  1
  Fe  Fe5  1  0.12521300  0.62650560  0.87333316  1
  Fe  Fe6  1  0.50103620  0.49920397  0.74881058  1
  Fe  Fe7  1  0.87710808  0.12143932  0.12250540  1
  Fe  Fe8  1  0.25195426  0.00321882  0.74712723  1
  Fe  Fe9  1  -0.00042293  0.75190053  0.50465495  1
  Fe  Fe10  1  0.50003805  0.74966059  0.74627597  1
  Fe  Fe11  1  0.12360973  0.12640135  0.37491610  1
  Fe  Fe12  1  0.62487130  0.62597471  0.87291838  1
  Fe  Fe13  1  0.50095571  0.00130849  0.75051582  1
  Fe  Fe14  1  0.50139897  0.49969772  -0.00098629  1
  Fe  Fe15  1  0.37539749  0.37311278  0.37536746  1
  Fe  Fe16  1  0.74831429  0.00010576  0.75099685  1
  Fe  Fe17  1  0.00081549  0.75038989  0.25227460  1
  Fe  Fe18  1  0.62463751  0.12498638  0.87843815  1
  Fe  Fe19  1  0.12614888  0.62404331  0.38058701  1
  Fe  Fe20  1  0.87718852  0.87735862  0.12438916  1
  Fe  Fe21  1  0.24845792  0.49846902  0.74868438  1
  Fe  Fe22  1  0.87350785  0.12417335  0.62469304  1
  Fe  Fe23  1  0.75025890  0.49512271  0.25469638  1
  Fe  Fe24  1  -0.00242263  0.00072415  0.75113351  1
  Fe  Fe25  1  0.37731596  0.37640630  0.12507595  1
  Fe  Fe26  1  0.12508338  0.12486193  0.87464166  1
  Fe  Fe27  1  0.50198885  0.50310873  0.25710944  1
  Fe  Fe28  1  0.37505253  0.62629876  0.87458965  1
  Fe  Fe29  1  0.12364969  0.37442938  0.87621433  1
  Fe  Fe30  1  0.37611373  0.12620492  0.12493085  1
  Fe  Fe31  1  0.25156186  0.00034661  0.25351802  1
  Fe  Fe32  1  0.74662532  0.25076822  0.00544341  1
  Fe  Fe33  1  0.37389343  0.87890160  0.62013597  1
  Fe  Fe34  1  0.62640085  0.12847927  0.37191200  1
  Fe  Fe35  1  0.62855913  0.62209501  0.62061386  1
  Fe  Fe36  1  0.25073237  0.74945910  0.74485453  1
  Fe  Fe37  1  0.62633862  0.62345550  0.12765606  1
  Fe  Fe38  1  0.24982527  0.50156380  -0.00024883  1
  Fe  Fe39  1  0.24839844  0.25166593  0.24831936  1
  Fe  Fe40  1  0.75092757  0.00146396  0.25077897  1
  Fe  Fe41  1  0.25120695  0.24789573  0.74872463  1
  Fe  Fe42  1  0.87582133  0.37228573  0.87819687  1
  Fe  Fe43  1  0.37584833  0.37350562  0.87624361  1
  Fe  Fe44  1  0.12380091  0.87566753  0.12593169  1
  Fe  Fe45  1  -0.00308346  0.49629772  0.50565162  1
  Fe  Fe46  1  0.50247999  0.25061737  0.24741056  1
  Fe  Fe47  1  0.50076648  0.24956964  0.75208847  1
  Fe  Fe48  1  0.24997084  0.24941383  0.00074300  1
  Fe  Fe49  1  0.49756631  0.00324797  0.49516241  1
  Fe  Fe50  1  0.75097695  0.49827269  0.74917214  1
  Fe  Fe51  1  0.00081631  0.50126999  0.24921884  1
  Fe  Fe52  1  0.87499875  0.87651935  0.37623296  1
  Fe  Fe53  1  0.24757138  0.49852792  0.25232875  1
  Fe  Fe54  1  0.12716972  0.87406450  0.87264112  1
  Fe  Fe55  1  0.00075838  0.75032150  -0.00042857  1
  Fe  Fe56  1  0.24934095  0.24693200  0.50217845  1
  Fe  Fe57  1  0.12082781  0.37248486  0.37793367  1
  Fe  Fe58  1  0.87497367  0.62638573  0.87341044  1
  Fe  Fe59  1  -0.00081924  0.24912012  0.74899499  1
  Fe  Fe60  1  -0.00023126  0.75154155  0.74453696  1
  Fe  Fe61  1  0.62405063  0.87736794  0.62190587  1
  Fe  Fe62  1  0.87450001  0.62378108  0.37772547  1
  Fe  Fe63  1  0.37360182  0.62698472  0.12934185  1
  Fe  Fe64  1  0.87277194  0.87529893  0.87551350  1
  Fe  Fe65  1  0.12851932  0.87658512  0.37947715  1
  Fe  Fe66  1  0.12131893  0.37597157  0.12199860  1
  Fe  Fe67  1  -0.00075010  0.49831981  0.74832010  1
  Fe  Fe68  1  0.62557791  0.87694766  0.12603862  1
  Fe  Fe69  1  0.74964025  0.49827079  -0.00104220  1
  Fe  Fe70  1  0.37466049  0.87370082  0.87414923  1
  Fe  Fe71  1  0.49921634  0.24925976  0.50036141  1
  Fe  Fe72  1  0.37492326  0.37466017  0.62414963  1
  Fe  Fe73  1  0.62557958  0.12510658  0.62256148  1
  Fe  Fe74  1  0.49803993  -0.00048321  0.25281833  1
  Fe  Fe75  1  0.62534047  0.37605497  0.62252559  1
  Fe  Fe76  1  0.62539602  0.87411270  0.37513487  1
  Fe  Fe77  1  0.24998580  -0.00054809  -0.00003178  1
  Fe  Fe78  1  0.49792830  0.74643769  0.49643410  1
  Fe  Fe79  1  0.75239577  0.75227786  0.50158731  1
  Fe  Fe80  1  0.74857610  0.24956519  0.75069290  1
  Fe  Fe81  1  0.74850387  0.75252083  0.74743706  1
  Fe  Fe82  1  0.75074362  0.75087625  0.25057500  1
  Fe  Fe83  1  -0.00006878  0.00143263  0.50147057  1
  Fe  Fe84  1  0.75316319  0.25291114  0.49723851  1
  Fe  Fe85  1  0.49941362  -0.00065183  -0.00053627  1
  Fe  Fe86  1  0.37380641  0.87119148  0.12902120  1
  Fe  Fe87  1  0.12571096  0.62635030  0.12398518  1
  Fe  Fe88  1  0.50098563  0.74989883  0.00102253  1
  Fe  Fe89  1  -0.00227003  0.24946833  0.24748251  1
  Co  Co90  1  -0.00009146  -0.00100148  0.25331809  1
  Co  Co91  1  0.87367099  0.37204359  0.62739866  1
  Co  Co92  1  0.88039423  0.37468924  0.37261339  1
  Co  Co93  1  0.37562311  0.12525775  0.87650538  1
  Co  Co94  1  0.24995006  0.74913706  0.50336236  1
  Co  Co95  1  0.24451363  0.74950917  0.25200638  1
  Co  Co96  1  0.50396195  0.74806146  0.25241423  1
  Co  Co97  1  0.25325600  0.00718616  0.49781234  1
  Co  Co98  1  0.87793152  0.37786357  0.12351828  1
  Co  Co99  1  0.62368601  0.37125838  0.37529844  1
  Co  Co100  1  0.12504258  0.62265202  0.62405249  1
  Co  Co101  1  0.74864443  0.00154667  0.49785685  1
  Co  Co102  1  0.50222719  0.25103145  -0.00008569  1
  Co  Co103  1  0.37241609  0.87097790  0.37494451  1
  Co  Co104  1  0.12737858  0.87941705  0.62401207  1
  Co  Co105  1  0.37516037  0.13054802  0.37092704  1
  Co  Co106  1  0.12266158  0.12416556  0.62571144  1
  Co  Co107  1  0.87295113  0.12773200  0.87725829  1
  Co  Co108  1  0.62293773  0.12245414  0.12652904  1
  Co  Co109  1  0.36927681  0.62671342  0.37244378  1
  Co  Co110  1  0.25044412  0.49570322  0.49873873  1
  Co  Co111  1  0.49929926  0.50171322  0.49613956  1
  Co  Co112  1  0.37822070  0.12530426  0.62631571  1
  Co  Co113  1  0.62319053  0.37782548  0.12825690  1
  Co  Co114  1  0.87291375  0.62455538  0.62479683  1
  Co  Co115  1  -0.00219933  0.24852496  0.50243427  1
  Co  Co116  1  0.62362958  0.87405634  0.87421257  1
  Co  Co117  1  0.63162849  0.62615514  0.37825413  1
  Co  Co118  1  0.24988878  0.74983666  0.00025369  1
  Co  Co119  1  0.12569112  0.37266347  0.62484075  1
  Co  Co120  1  0.00176164  0.24726196  0.00137418  1
  Co  Co121  1  0.75385664  0.25079405  0.24725247  1
  Co  Co122  1  0.62530691  0.37517706  0.87443035  1
  Co  Co123  1  0.74962187  -0.00020030  -0.00098326  1
  Co  Co124  1  0.87305673  0.87926537  0.62503085  1
  Co  Co125  1  0.00159470  -0.00102263  -0.00439026  1
  Co  Co126  1  0.75250489  0.49389721  0.49809921  1
  Co  Co127  1  0.00043490  0.50326996  -0.00172588  1
