# generated using pymatgen
data_Fe45Co19
_symmetry_space_group_name_H-M   'P 1'
_cell_length_a   11.41436861
_cell_length_b   11.41562694
_cell_length_c   11.41575322
_cell_angle_alpha   89.99529192
_cell_angle_beta   90.00099179
_cell_angle_gamma   90.01208054
_symmetry_Int_Tables_number   1
_chemical_formula_structural   Fe45Co19
_chemical_formula_sum   'Fe90 Co38'
_cell_volume   1487.49742101
_cell_formula_units_Z   2
loop_
 _symmetry_equiv_pos_site_id
 _symmetry_equiv_pos_as_xyz
  1  'x, y, z'
loop_
 _atom_site_type_symbol
 _atom_site_label
 _atom_site_symmetry_multiplicity
 _atom_site_fract_x
 _atom_site_fract_y
 _atom_site_fract_z
 _atom_site_occupancy
  Fe  Fe0  1  -0.00221300  0.00005430  0.50120660  1
  Fe  Fe1  1  0.50265128  0.24805435  0.49772337  1
  Fe  Fe2  1  0.50050595  -0.00414731  0.74583379  1
  Fe  Fe3  1  0.75090422  0.00034457  -0.00017189  1
  Fe  Fe4  1  0.49922177  0.50088148  -0.00016471  1
  Fe  Fe5  1  0.74970043  0.24772726  -0.00207006  1
  Fe  Fe6  1  0.37291304  0.62714868  0.12674634  1
  Fe  Fe7  1  0.37692618  0.87579614  0.87773915  1
  Fe  Fe8  1  0.87624749  0.87285617  0.37426460  1
  Fe  Fe9  1  -0.00022251  0.49908388  0.74773559  1
  Fe  Fe10  1  0.37388927  0.37381388  0.87470038  1
  Fe  Fe11  1  0.75044464  0.74902017  0.00004599  1
  Fe  Fe12  1  0.25382137  0.00330238  0.00167232  1
  Fe  Fe13  1  0.50046024  0.25142978  0.25104837  1
  Fe  Fe14  1  0.87362603  0.87293203  0.62303686  1
  Fe  Fe15  1  0.87523565  0.62656210  0.62529335  1
  Fe  Fe16  1  0.50224741  0.75102793  0.25074380  1
  Fe  Fe17  1  0.87607199  0.87207506  0.12575376  1
  Fe  Fe18  1  0.12255714  0.12368892  0.37490643  1
  Fe  Fe19  1  0.74794670  0.75274244  0.75092361  1
  Fe  Fe20  1  0.12667948  0.37758545  0.37510678  1
  Fe  Fe21  1  0.00307415  0.74916505  0.49803302  1
  Fe  Fe22  1  0.00388096  0.75330890  0.75236258  1
  Fe  Fe23  1  0.62649626  0.37517098  0.12503496  1
  Fe  Fe24  1  0.37391215  0.86970740  0.61787265  1
  Fe  Fe25  1  0.62498748  0.12298736  0.12734526  1
  Fe  Fe26  1  0.25167577  0.24666391  -0.00029363  1
  Fe  Fe27  1  0.25083680  0.50234714  0.50090898  1
  Fe  Fe28  1  0.74876621  0.25242094  0.74971213  1
  Fe  Fe29  1  0.87465316  0.12621214  0.12795241  1
  Fe  Fe30  1  0.25038604  -0.00214616  0.25160599  1
  Fe  Fe31  1  0.00015372  0.24905308  -0.00006111  1
  Fe  Fe32  1  0.74790117  0.74576158  0.49643734  1
  Fe  Fe33  1  0.87608382  0.87388224  0.87678466  1
  Fe  Fe34  1  0.62524121  0.62496852  0.12689822  1
  Fe  Fe35  1  0.87615665  0.62539199  0.87354099  1
  Fe  Fe36  1  -0.00088317  -0.00214927  0.24948222  1
  Fe  Fe37  1  0.74903561  0.49664283  0.74755217  1
  Fe  Fe38  1  0.37335304  0.87356552  0.12465000  1
  Fe  Fe39  1  0.12872097  0.62793910  0.62874877  1
  Fe  Fe40  1  0.12493238  0.12528826  0.12802062  1
  Fe  Fe41  1  -0.00207780  0.25014191  0.49911033  1
  Fe  Fe42  1  0.74970093  0.24838296  0.25457170  1
  Fe  Fe43  1  0.87841700  0.62954288  0.13190650  1
  Fe  Fe44  1  0.12585366  0.37442806  0.62427290  1
  Fe  Fe45  1  0.50204919  0.50212176  0.49940928  1
  Fe  Fe46  1  0.87391385  0.12760641  0.62509974  1
  Fe  Fe47  1  0.12237817  0.62117028  0.36963520  1
  Fe  Fe48  1  -0.00192114  -0.00095843  0.74824596  1
  Fe  Fe49  1  0.62501319  0.12368950  0.62296011  1
  Fe  Fe50  1  0.50126468  0.74945050  -0.00038219  1
  Fe  Fe51  1  -0.00162073  0.25427524  0.25148373  1
  Fe  Fe52  1  0.49832051  0.24659961  0.00048023  1
  Fe  Fe53  1  0.37526969  0.37585726  0.37657543  1
  Fe  Fe54  1  0.00056756  0.24977135  0.75000365  1
  Fe  Fe55  1  0.50253844  0.75412009  0.74924837  1
  Fe  Fe56  1  0.49891033  -0.00211785  0.24932417  1
  Fe  Fe57  1  0.49917639  0.49919420  0.24989161  1
  Fe  Fe58  1  0.37563327  0.37348107  0.62407374  1
  Fe  Fe59  1  0.25193085  -0.00063352  0.49892394  1
  Fe  Fe60  1  0.62395311  0.62578020  0.62664259  1
  Fe  Fe61  1  0.87465516  0.37495897  0.87570580  1
  Fe  Fe62  1  0.62293035  0.87665037  0.37757106  1
  Fe  Fe63  1  0.50023896  0.25006837  0.75029727  1
  Fe  Fe64  1  0.37586164  0.62867881  0.37501710  1
  Fe  Fe65  1  0.50023822  0.49833418  0.75065477  1
  Fe  Fe66  1  0.86891401  0.37856017  0.37988200  1
  Fe  Fe67  1  0.24324600  0.74836568  -0.00151825  1
  Fe  Fe68  1  0.12690056  0.37756912  0.12681199  1
  Fe  Fe69  1  0.12605325  0.37716843  0.87466675  1
  Fe  Fe70  1  0.25029472  0.24845145  0.50007624  1
  Fe  Fe71  1  -0.00143698  0.50183002  0.50097364  1
  Fe  Fe72  1  0.12673074  0.12264600  0.87300902  1
  Fe  Fe73  1  0.24502892  0.75295810  0.25198234  1
  Fe  Fe74  1  0.75142505  0.00345075  0.49615231  1
  Fe  Fe75  1  0.37276237  0.62926976  0.62581924  1
  Fe  Fe76  1  -0.00258200  0.00234038  0.00059603  1
  Fe  Fe77  1  0.62259688  0.12155140  0.87510113  1
  Fe  Fe78  1  0.37388059  0.37458898  0.12508018  1
  Fe  Fe79  1  0.75001808  -0.00211320  0.75074414  1
  Fe  Fe80  1  0.37679117  0.12333379  0.37441575  1
  Fe  Fe81  1  0.24978603  0.50283748  0.00050707  1
  Fe  Fe82  1  0.62577248  0.87548708  0.12325006  1
  Fe  Fe83  1  -0.00106577  0.50214630  0.00353295  1
  Fe  Fe84  1  0.75155858  0.50141922  0.00217051  1
  Fe  Fe85  1  0.25058580  0.25045793  0.25168401  1
  Fe  Fe86  1  0.37303058  0.62658739  0.87204732  1
  Fe  Fe87  1  0.12581497  0.12395997  0.62394012  1
  Fe  Fe88  1  0.62564628  0.62435238  0.87456957  1
  Fe  Fe89  1  0.25222673  -0.00224050  0.74712637  1
  Co  Co90  1  0.25447156  0.49986886  0.25109337  1
  Co  Co91  1  0.62486839  0.37567971  0.87827050  1
  Co  Co92  1  0.24874305  0.75546241  0.75334861  1
  Co  Co93  1  0.62456575  0.87584782  0.87855663  1
  Co  Co94  1  0.87646563  0.62504955  0.37218404  1
  Co  Co95  1  0.12323973  0.62159863  0.13110083  1
  Co  Co96  1  0.74878580  0.24605890  0.49851965  1
  Co  Co97  1  0.12500330  0.87816387  0.12129693  1
  Co  Co98  1  0.12305263  0.87976220  0.37791328  1
  Co  Co99  1  0.74813558  0.50470226  0.50461934  1
  Co  Co100  1  0.87442727  0.12595207  0.87338663  1
  Co  Co101  1  0.37523586  0.12537394  0.13000074  1
  Co  Co102  1  0.87450058  0.37382355  0.62272220  1
  Co  Co103  1  0.62786958  0.37787999  0.37570687  1
  Co  Co104  1  0.12404485  0.88098664  0.87780308  1
  Co  Co105  1  0.49830602  0.00055423  0.50163806  1
  Co  Co106  1  0.74686515  0.75212102  0.25232567  1
  Co  Co107  1  0.37731150  0.87203219  0.37697271  1
  Co  Co108  1  0.49822713  0.00190695  0.00315620  1
  Co  Co109  1  0.62342613  0.37365034  0.62177966  1
  Co  Co110  1  0.24888861  0.25022459  0.74920239  1
  Co  Co111  1  -0.00567516  0.49317885  0.24916798  1
  Co  Co112  1  0.62938945  0.87555164  0.61941351  1
  Co  Co113  1  0.75103504  -0.00191421  0.25171036  1
  Co  Co114  1  0.50452843  0.74781787  0.49978948  1
  Co  Co115  1  0.62576808  0.62090130  0.37170091  1
  Co  Co116  1  0.37645419  0.12330069  0.87100623  1
  Co  Co117  1  0.37546428  0.12677400  0.62427544  1
  Co  Co118  1  0.75154882  0.50126203  0.24692796  1
  Co  Co119  1  0.12522596  0.87499235  0.62271068  1
  Co  Co120  1  0.87135216  0.37097343  0.12307853  1
  Co  Co121  1  0.87862864  0.12480128  0.37282089  1
  Co  Co122  1  0.25203885  0.49767314  0.74782226  1
  Co  Co123  1  0.12523012  0.62178494  0.87128012  1
  Co  Co124  1  0.00405539  0.74670894  -0.00096095  1
  Co  Co125  1  0.62199368  0.12233731  0.37353832  1
  Co  Co126  1  0.00542605  0.75486974  0.25116173  1
  Co  Co127  1  0.24494823  0.74855351  0.49495307  1
