# generated using pymatgen
data_Fe45Co19
_symmetry_space_group_name_H-M   'P 1'
_cell_length_a   11.41470677
_cell_length_b   11.41443333
_cell_length_c   11.41543383
_cell_angle_alpha   89.99426687
_cell_angle_beta   89.99170313
_cell_angle_gamma   89.99360804
_symmetry_Int_Tables_number   1
_chemical_formula_structural   Fe45Co19
_chemical_formula_sum   'Fe90 Co38'
_cell_volume   1487.34434546
_cell_formula_units_Z   2
loop_
 _symmetry_equiv_pos_site_id
 _symmetry_equiv_pos_as_xyz
  1  'x, y, z'
loop_
 _atom_site_type_symbol
 _atom_site_label
 _atom_site_symmetry_multiplicity
 _atom_site_fract_x
 _atom_site_fract_y
 _atom_site_fract_z
 _atom_site_occupancy
  Fe  Fe0  1  0.24794312  0.24949995  0.75041106  1
  Fe  Fe1  1  0.49970380  0.75307827  0.24941331  1
  Fe  Fe2  1  0.62446275  0.87437888  0.62452545  1
  Fe  Fe3  1  0.00081697  0.25043984  0.74748236  1
  Fe  Fe4  1  0.37785442  0.12193334  0.12858180  1
  Fe  Fe5  1  0.37707061  0.87725542  0.87252582  1
  Fe  Fe6  1  -0.00562146  0.25175687  0.00113024  1
  Fe  Fe7  1  0.74963531  0.74853409  0.00123939  1
  Fe  Fe8  1  0.74896555  0.74701601  0.74665334  1
  Fe  Fe9  1  0.12519506  0.62347435  0.62389882  1
  Fe  Fe10  1  0.12460875  0.62763421  0.37608187  1
  Fe  Fe11  1  0.38066973  0.62243156  0.62519324  1
  Fe  Fe12  1  0.62622760  0.37418739  0.12419610  1
  Fe  Fe13  1  0.37388571  0.37804923  0.62478849  1
  Fe  Fe14  1  0.87232272  0.87459959  0.87268531  1
  Fe  Fe15  1  0.74983438  0.00197578  -0.00017750  1
  Fe  Fe16  1  0.00166567  0.50023591  0.24950633  1
  Fe  Fe17  1  0.50220422  0.25068853  0.74667589  1
  Fe  Fe18  1  0.37622544  0.62526165  0.12570353  1
  Fe  Fe19  1  0.12667505  0.62785685  0.12368032  1
  Fe  Fe20  1  0.74427584  0.49851406  0.75169382  1
  Fe  Fe21  1  0.87380804  0.62350807  0.87323520  1
  Fe  Fe22  1  0.12435646  0.62638368  0.87641426  1
  Fe  Fe23  1  0.12559247  0.12442626  0.62444060  1
  Fe  Fe24  1  0.62387680  0.62657109  0.37799379  1
  Fe  Fe25  1  0.25019677  -0.00454884  0.25089970  1
  Fe  Fe26  1  0.37597537  0.62635207  0.37562925  1
  Fe  Fe27  1  0.12577864  0.37149199  0.87730513  1
  Fe  Fe28  1  0.25058595  -0.00044668  0.49831545  1
  Fe  Fe29  1  0.37564755  0.37339460  0.37578133  1
  Fe  Fe30  1  0.12512675  0.87431920  0.87672290  1
  Fe  Fe31  1  0.00109478  -0.00296226  0.24892822  1
  Fe  Fe32  1  0.00041387  0.00093428  0.75104594  1
  Fe  Fe33  1  0.24984325  0.00204526  -0.00186079  1
  Fe  Fe34  1  0.25231943  0.25158942  0.24761477  1
  Fe  Fe35  1  0.24995807  0.49979612  0.25066694  1
  Fe  Fe36  1  0.74807701  0.50018713  0.25367392  1
  Fe  Fe37  1  0.25088884  0.75512663  0.25007589  1
  Fe  Fe38  1  0.87422900  0.87541958  0.37505950  1
  Fe  Fe39  1  -0.00471081  0.74870655  0.50243327  1
  Fe  Fe40  1  0.62470536  0.37695397  0.61981683  1
  Fe  Fe41  1  0.50069938  0.49877307  0.25141460  1
  Fe  Fe42  1  0.25161009  0.75070348  0.74979279  1
  Fe  Fe43  1  0.62217134  0.37084476  0.37887857  1
  Fe  Fe44  1  0.37740168  0.87756426  0.62789214  1
  Fe  Fe45  1  -0.00180676  0.74982810  0.74859053  1
  Fe  Fe46  1  0.12700895  0.37352515  0.12284936  1
  Fe  Fe47  1  0.74535588  0.00376942  0.25443631  1
  Fe  Fe48  1  -0.00168641  0.00010842  0.49888584  1
  Fe  Fe49  1  0.75288258  0.74620532  0.50369283  1
  Fe  Fe50  1  0.00027652  0.24991984  0.25047019  1
  Fe  Fe51  1  0.87259314  0.12468032  0.62218048  1
  Fe  Fe52  1  0.74968706  0.74914381  0.24941919  1
  Fe  Fe53  1  0.25029668  0.50095281  -0.00012473  1
  Fe  Fe54  1  0.37986346  0.12547952  0.37245520  1
  Fe  Fe55  1  0.87335935  0.37626205  0.62426314  1
  Fe  Fe56  1  0.37583781  0.12459556  0.87124314  1
  Fe  Fe57  1  0.50095232  0.74907566  -0.00048012  1
  Fe  Fe58  1  0.62672872  0.12613695  0.62010205  1
  Fe  Fe59  1  -0.00108685  0.50031088  0.49913018  1
  Fe  Fe60  1  -0.00366043  0.75172951  0.00249182  1
  Fe  Fe61  1  0.50230332  0.00081376  -0.00102613  1
  Fe  Fe62  1  0.37405271  0.12185423  0.62800530  1
  Fe  Fe63  1  0.87218567  0.62278228  0.12727951  1
  Fe  Fe64  1  0.49776731  0.24961545  0.00400058  1
  Fe  Fe65  1  0.74691066  0.24624570  0.25312871  1
  Fe  Fe66  1  0.87227118  0.12879181  0.87242696  1
  Fe  Fe67  1  0.74793559  0.00162646  0.74905575  1
  Fe  Fe68  1  0.75052045  0.49700328  -0.00174921  1
  Fe  Fe69  1  0.87580263  0.37353179  0.37482140  1
  Fe  Fe70  1  -0.00351951  0.49732350  0.00119335  1
  Fe  Fe71  1  0.62473792  0.87383580  0.37773945  1
  Fe  Fe72  1  0.25267003  0.75077240  0.50084370  1
  Fe  Fe73  1  -0.00021847  0.75323945  0.24705406  1
  Fe  Fe74  1  0.25084525  0.24903365  0.50054417  1
  Fe  Fe75  1  0.62526521  0.87622210  0.12458020  1
  Fe  Fe76  1  0.50015258  -0.00018139  0.49978212  1
  Fe  Fe77  1  0.62573131  0.87343638  0.87299095  1
  Fe  Fe78  1  0.37605312  0.37417363  0.87541863  1
  Fe  Fe79  1  0.12429268  0.87566344  0.62392790  1
  Fe  Fe80  1  0.12555586  0.12581161  0.12369176  1
  Fe  Fe81  1  -0.00246811  -0.00051692  0.00039023  1
  Fe  Fe82  1  0.62727666  0.13129702  0.87605657  1
  Fe  Fe83  1  0.87275439  0.12444952  0.12790945  1
  Fe  Fe84  1  0.12456623  0.12513544  0.37488613  1
  Fe  Fe85  1  0.12642729  0.37437030  0.37823173  1
  Fe  Fe86  1  0.00271014  0.49775048  0.75078187  1
  Fe  Fe87  1  0.37812896  0.62387220  0.87293788  1
  Fe  Fe88  1  0.50358012  0.50070289  -0.00166173  1
  Fe  Fe89  1  0.24904249  0.50025000  0.75050430  1
  Co  Co90  1  0.62600174  0.62645061  0.87388710  1
  Co  Co91  1  0.24571617  -0.00074046  0.75230609  1
  Co  Co92  1  0.50375093  0.49695299  0.75242916  1
  Co  Co93  1  0.62516181  0.62358374  0.12649132  1
  Co  Co94  1  0.37575168  0.37893148  0.12372160  1
  Co  Co95  1  -0.00032887  0.25046835  0.50129253  1
  Co  Co96  1  0.37612202  0.87619702  0.12207672  1
  Co  Co97  1  0.86969645  0.87758836  0.12685412  1
  Co  Co98  1  0.74715138  0.25107339  0.74494827  1
  Co  Co99  1  0.12293929  0.12816242  0.87728049  1
  Co  Co100  1  0.87219823  0.37559208  0.13192130  1
  Co  Co101  1  0.87354597  0.37396215  0.86961246  1
  Co  Co102  1  0.62448817  0.12551331  0.12369223  1
  Co  Co103  1  0.50089668  0.74946773  0.75053684  1
  Co  Co104  1  0.61744454  0.12799825  0.37858495  1
  Co  Co105  1  0.49969873  0.75086489  0.50049336  1
  Co  Co106  1  0.12715510  0.37596786  0.62276897  1
  Co  Co107  1  0.25389088  0.74914095  -0.00298896  1
  Co  Co108  1  0.50093127  0.25266494  0.24623071  1
  Co  Co109  1  0.50292785  -0.00349053  0.25130810  1
  Co  Co110  1  0.49886912  0.49978946  0.49644638  1
  Co  Co111  1  0.62451388  0.36845259  0.87804417  1
  Co  Co112  1  0.12319541  0.87369384  0.37808715  1
  Co  Co113  1  0.87414541  0.87849850  0.62597911  1
  Co  Co114  1  0.87452960  0.61878555  0.62888457  1
  Co  Co115  1  0.62121985  0.62187289  0.62319093  1
  Co  Co116  1  0.75208036  0.24934483  0.49685163  1
  Co  Co117  1  0.25152627  0.50198776  0.49862526  1
  Co  Co118  1  0.75473980  0.25220546  0.00322779  1
  Co  Co119  1  0.12832243  0.87487757  0.12081739  1
  Co  Co120  1  0.87771026  0.12429470  0.37555532  1
  Co  Co121  1  0.49570291  0.24944775  0.50467559  1
  Co  Co122  1  0.75141410  0.50201918  0.49678307  1
  Co  Co123  1  0.50641264  0.00262895  0.75017133  1
  Co  Co124  1  0.37678433  0.87588327  0.37722807  1
  Co  Co125  1  0.87617025  0.62595476  0.37190974  1
  Co  Co126  1  0.25437749  0.24723986  0.00132344  1
  Co  Co127  1  0.74894284  0.00010851  0.49734153  1
