# generated using pymatgen
data_Fe45Co19
_symmetry_space_group_name_H-M   'P 1'
_cell_length_a   11.41648427
_cell_length_b   11.41566558
_cell_length_c   11.41617662
_cell_angle_alpha   89.99937675
_cell_angle_beta   90.00151042
_cell_angle_gamma   89.99923161
_symmetry_Int_Tables_number   1
_chemical_formula_structural   Fe45Co19
_chemical_formula_sum   'Fe90 Co38'
_cell_volume   1487.83338428
_cell_formula_units_Z   2
loop_
 _symmetry_equiv_pos_site_id
 _symmetry_equiv_pos_as_xyz
  1  'x, y, z'
loop_
 _atom_site_type_symbol
 _atom_site_label
 _atom_site_symmetry_multiplicity
 _atom_site_fract_x
 _atom_site_fract_y
 _atom_site_fract_z
 _atom_site_occupancy
  Fe  Fe0  1  0.00188687  0.24944521  0.24826200  1
  Fe  Fe1  1  0.87475109  0.87523365  0.12495342  1
  Fe  Fe2  1  0.62546707  0.12676359  0.62555915  1
  Fe  Fe3  1  0.24884413  0.25209933  0.25006125  1
  Fe  Fe4  1  0.50125744  0.50107050  0.75238892  1
  Fe  Fe5  1  -0.00001175  0.24700166  0.74860353  1
  Fe  Fe6  1  0.12216314  0.87444444  0.37568515  1
  Fe  Fe7  1  0.74924221  0.75032070  -0.00027878  1
  Fe  Fe8  1  -0.00220988  0.74705912  0.74906566  1
  Fe  Fe9  1  0.37601855  0.37506593  0.62423730  1
  Fe  Fe10  1  0.62810380  0.62536183  0.62567274  1
  Fe  Fe11  1  0.74656796  0.74934540  0.25063267  1
  Fe  Fe12  1  0.49884480  0.24761104  0.49502176  1
  Fe  Fe13  1  0.49896740  0.74666896  0.75353299  1
  Fe  Fe14  1  0.62296533  0.37466686  0.12413792  1
  Fe  Fe15  1  0.74759741  0.49998507  0.25043038  1
  Fe  Fe16  1  0.74853718  0.00086136  0.00053645  1
  Fe  Fe17  1  -0.00066762  0.00081891  -0.00024756  1
  Fe  Fe18  1  0.12242832  0.87274125  0.12284925  1
  Fe  Fe19  1  0.87499863  0.12376837  0.12549607  1
  Fe  Fe20  1  0.74955803  -0.00124204  0.24894474  1
  Fe  Fe21  1  0.37485430  0.87425825  0.87616390  1
  Fe  Fe22  1  0.50134228  0.00419121  -0.00302223  1
  Fe  Fe23  1  0.12509776  0.62637336  0.37436300  1
  Fe  Fe24  1  0.24873037  0.49870973  0.75124976  1
  Fe  Fe25  1  0.37777194  0.62889794  0.12275638  1
  Fe  Fe26  1  0.87497017  0.62224305  0.87522921  1
  Fe  Fe27  1  0.87295261  0.62510854  0.37634534  1
  Fe  Fe28  1  0.24883739  0.49798946  0.49808132  1
  Fe  Fe29  1  0.37318873  0.12484493  0.62404473  1
  Fe  Fe30  1  0.00238894  0.50073571  0.24879949  1
  Fe  Fe31  1  0.87415117  0.12310405  0.37339778  1
  Fe  Fe32  1  0.50031872  0.74929527  0.49939215  1
  Fe  Fe33  1  0.74898752  0.25105600  0.24927309  1
  Fe  Fe34  1  0.25003987  -0.00014251  0.75012859  1
  Fe  Fe35  1  0.62608343  0.87496860  0.87394426  1
  Fe  Fe36  1  0.62161391  0.37249654  0.62526584  1
  Fe  Fe37  1  0.62662863  0.12618905  0.12505563  1
  Fe  Fe38  1  0.50362667  0.50401497  -0.00341632  1
  Fe  Fe39  1  0.75381787  0.75103393  0.74674166  1
  Fe  Fe40  1  0.74997695  0.49826827  0.49934210  1
  Fe  Fe41  1  0.87993154  0.37666699  0.62560082  1
  Fe  Fe42  1  0.49963761  0.00225998  0.25141794  1
  Fe  Fe43  1  -0.00162803  0.74990506  0.24791954  1
  Fe  Fe44  1  -0.00379814  0.74821458  0.50336085  1
  Fe  Fe45  1  0.12220578  0.37491320  0.87726611  1
  Fe  Fe46  1  0.12497475  0.12308698  0.37272530  1
  Fe  Fe47  1  0.37663215  0.87545028  0.62569079  1
  Fe  Fe48  1  0.24810623  -0.00109882  0.50120350  1
  Fe  Fe49  1  0.87627114  0.87647595  0.37567437  1
  Fe  Fe50  1  0.62072239  0.87204590  0.12386817  1
  Fe  Fe51  1  0.24957484  0.75148732  0.50219425  1
  Fe  Fe52  1  0.24813869  0.50001372  0.24864820  1
  Fe  Fe53  1  0.75057639  -0.00167686  0.50198831  1
  Fe  Fe54  1  0.75110001  0.00182208  0.74928430  1
  Fe  Fe55  1  0.12256175  0.87372974  0.87481025  1
  Fe  Fe56  1  0.24928742  0.74912244  0.74976375  1
  Fe  Fe57  1  0.75080477  0.25104577  0.50048182  1
  Fe  Fe58  1  0.37175614  0.12556246  0.12422389  1
  Fe  Fe59  1  0.12811085  0.12598401  0.87606131  1
  Fe  Fe60  1  0.87346225  0.62412127  0.12351007  1
  Fe  Fe61  1  0.50254574  0.50255958  0.25216690  1
  Fe  Fe62  1  0.12343694  0.37533051  0.62382099  1
  Fe  Fe63  1  0.50063062  0.24816298  0.25282301  1
  Fe  Fe64  1  0.12372965  0.62209410  0.62464152  1
  Fe  Fe65  1  0.87673779  0.37464160  0.37422998  1
  Fe  Fe66  1  0.75016730  0.49280244  0.75276917  1
  Fe  Fe67  1  0.37677069  0.37395666  0.12401575  1
  Fe  Fe68  1  0.74903911  0.49515859  -0.00287760  1
  Fe  Fe69  1  0.37394030  0.62350356  0.62591262  1
  Fe  Fe70  1  0.00112814  0.24708027  0.50017042  1
  Fe  Fe71  1  0.24885783  -0.00315147  0.24730789  1
  Fe  Fe72  1  0.37419023  0.62460755  0.37574065  1
  Fe  Fe73  1  0.87599768  0.87623840  0.87347379  1
  Fe  Fe74  1  0.62370276  0.87459002  0.62578399  1
  Fe  Fe75  1  0.49983957  0.00439356  0.75196997  1
  Fe  Fe76  1  0.24998925  -0.00195774  0.00150568  1
  Fe  Fe77  1  0.62402800  0.87551994  0.37607040  1
  Fe  Fe78  1  0.00092338  0.24963113  0.00286121  1
  Fe  Fe79  1  0.87025945  0.12925111  0.87578934  1
  Fe  Fe80  1  0.87658635  0.37593196  0.12476621  1
  Fe  Fe81  1  0.24829819  0.49995625  0.00220651  1
  Fe  Fe82  1  0.25261509  0.75203791  0.24726461  1
  Fe  Fe83  1  0.25211457  0.25207152  0.75129474  1
  Fe  Fe84  1  0.11940746  0.87831115  0.62751793  1
  Fe  Fe85  1  0.12443196  0.62640186  0.87943278  1
  Fe  Fe86  1  0.50051150  0.49979223  0.49808632  1
  Fe  Fe87  1  0.37639358  0.87710578  0.37576910  1
  Fe  Fe88  1  0.37816120  0.37453114  0.87688347  1
  Fe  Fe89  1  0.24989085  0.25106186  0.49731191  1
  Co  Co90  1  0.63034606  0.13012123  0.87349918  1
  Co  Co91  1  0.12458726  0.62814593  0.12394848  1
  Co  Co92  1  0.12850483  0.12500571  0.62663285  1
  Co  Co93  1  0.37051555  0.62414737  0.87528191  1
  Co  Co94  1  0.87342088  0.12424425  0.62515246  1
  Co  Co95  1  0.50038701  0.74865493  0.25333432  1
  Co  Co96  1  0.62148741  0.36809220  0.87543413  1
  Co  Co97  1  -0.00379269  0.75029225  0.00033158  1
  Co  Co98  1  0.75178379  0.25463141  0.74691000  1
  Co  Co99  1  0.38124596  0.87459330  0.12270128  1
  Co  Co100  1  0.87932860  0.37183353  0.87559622  1
  Co  Co101  1  0.37553946  0.37626719  0.37300310  1
  Co  Co102  1  0.00019945  0.50120434  0.49751162  1
  Co  Co103  1  0.49949852  0.24494122  -0.00009413  1
  Co  Co104  1  0.74980444  0.25343506  0.00354749  1
  Co  Co105  1  0.12663530  0.12477006  0.12409606  1
  Co  Co106  1  0.63124514  0.62588753  0.87223374  1
  Co  Co107  1  0.00060405  -0.00104448  0.24772722  1
  Co  Co108  1  0.50050477  0.00243928  0.50016336  1
  Co  Co109  1  0.25190821  0.75208776  0.00186896  1
  Co  Co110  1  0.25057483  0.25301519  -0.00064708  1
  Co  Co111  1  0.62583201  0.62595206  0.12322356  1
  Co  Co112  1  0.37092118  0.12269619  0.37401910  1
  Co  Co113  1  -0.00118681  0.00637194  0.75367456  1
  Co  Co114  1  0.00010461  0.49991202  0.00234274  1
  Co  Co115  1  0.87962417  0.87991908  0.62677368  1
  Co  Co116  1  0.50163384  0.74729942  -0.00591598  1
  Co  Co117  1  0.87236096  0.61930052  0.62636280  1
  Co  Co118  1  0.12542783  0.37412631  0.12471161  1
  Co  Co119  1  0.62551499  0.37425202  0.37429245  1
  Co  Co120  1  0.37099760  0.12475040  0.87616426  1
  Co  Co121  1  0.62968717  0.12438914  0.37528822  1
  Co  Co122  1  0.12341752  0.37525005  0.37434088  1
  Co  Co123  1  0.75218098  0.75277294  0.50261327  1
  Co  Co124  1  0.00071252  0.00390257  0.49973719  1
  Co  Co125  1  0.49656508  0.24649850  0.75125240  1
  Co  Co126  1  0.62722747  0.62540761  0.37786131  1
  Co  Co127  1  0.00120710  0.50095999  0.75194166  1
