# generated using pymatgen
data_Fe45Co19
_symmetry_space_group_name_H-M   'P 1'
_cell_length_a   11.41537942
_cell_length_b   11.41431262
_cell_length_c   11.41652184
_cell_angle_alpha   90.01258477
_cell_angle_beta   90.00348951
_cell_angle_gamma   89.99018580
_symmetry_Int_Tables_number   1
_chemical_formula_structural   Fe45Co19
_chemical_formula_sum   'Fe90 Co38'
_cell_volume   1487.55800023
_cell_formula_units_Z   2
loop_
 _symmetry_equiv_pos_site_id
 _symmetry_equiv_pos_as_xyz
  1  'x, y, z'
loop_
 _atom_site_type_symbol
 _atom_site_label
 _atom_site_symmetry_multiplicity
 _atom_site_fract_x
 _atom_site_fract_y
 _atom_site_fract_z
 _atom_site_occupancy
  Fe  Fe0  1  0.49686149  0.24918101  0.75027669  1
  Fe  Fe1  1  0.24628277  0.00144345  0.49799427  1
  Fe  Fe2  1  0.37401113  0.12669298  0.87776027  1
  Fe  Fe3  1  0.49988555  0.75119735  0.50290335  1
  Fe  Fe4  1  0.62164491  0.37535693  0.12426810  1
  Fe  Fe5  1  0.00006553  0.74631382  0.25273489  1
  Fe  Fe6  1  0.49924688  0.00022457  0.74886512  1
  Fe  Fe7  1  0.62335400  0.62811049  0.12556808  1
  Fe  Fe8  1  0.37581991  0.87285060  0.87348049  1
  Fe  Fe9  1  0.62359765  0.87338811  0.37503103  1
  Fe  Fe10  1  0.87657433  0.87593628  0.62343731  1
  Fe  Fe11  1  0.00168169  0.00220603  0.25172492  1
  Fe  Fe12  1  0.25181425  0.75068461  0.25085864  1
  Fe  Fe13  1  0.75043851  -0.00072255  0.25025957  1
  Fe  Fe14  1  0.00144060  0.74937839  -0.00030390  1
  Fe  Fe15  1  0.87586632  0.87301447  0.37406410  1
  Fe  Fe16  1  0.25082016  0.49641323  -0.00083898  1
  Fe  Fe17  1  -0.00218388  0.24935554  0.24942010  1
  Fe  Fe18  1  0.49939873  0.50287224  0.25106499  1
  Fe  Fe19  1  0.75031475  0.25392656  0.50306199  1
  Fe  Fe20  1  0.62543296  0.62961091  0.87225010  1
  Fe  Fe21  1  0.24778899  0.00198736  0.25190471  1
  Fe  Fe22  1  0.25194572  0.25471437  0.00329586  1
  Fe  Fe23  1  0.62753182  0.62866834  0.62632934  1
  Fe  Fe24  1  0.49852002  0.50507389  -0.00226141  1
  Fe  Fe25  1  0.50321597  0.49895510  0.50172268  1
  Fe  Fe26  1  0.00175672  0.49955532  -0.00193468  1
  Fe  Fe27  1  0.87562757  0.87724028  0.87670361  1
  Fe  Fe28  1  0.87366200  0.12574518  0.37770321  1
  Fe  Fe29  1  0.74997610  0.49926047  0.74859059  1
  Fe  Fe30  1  0.25175896  0.75045021  -0.00014958  1
  Fe  Fe31  1  0.37310913  0.62204535  0.62547482  1
  Fe  Fe32  1  0.12674096  0.12886016  0.62574299  1
  Fe  Fe33  1  0.25300369  0.49454181  0.24843990  1
  Fe  Fe34  1  0.75596887  0.24936037  0.74641242  1
  Fe  Fe35  1  0.74833689  0.49923777  0.00021612  1
  Fe  Fe36  1  0.24748212  0.49338655  0.50104819  1
  Fe  Fe37  1  0.00359943  0.00115403  0.49727449  1
  Fe  Fe38  1  0.00199742  0.74518813  0.49657380  1
  Fe  Fe39  1  0.62752387  0.12596877  0.87438649  1
  Fe  Fe40  1  0.62861952  0.62845240  0.37580624  1
  Fe  Fe41  1  0.87479962  0.62434496  0.12607417  1
  Fe  Fe42  1  0.00025909  0.50155249  0.25441417  1
  Fe  Fe43  1  0.62285046  0.37269170  0.37372007  1
  Fe  Fe44  1  0.25008613  0.75127644  0.74863178  1
  Fe  Fe45  1  0.87309536  0.37832788  0.37759556  1
  Fe  Fe46  1  0.87575570  0.37798744  0.12531994  1
  Fe  Fe47  1  0.87291622  0.12211479  0.12194102  1
  Fe  Fe48  1  0.87713565  0.37489202  0.87229395  1
  Fe  Fe49  1  0.12708171  0.37000839  0.37269075  1
  Fe  Fe50  1  0.49873823  0.24983731  0.50065746  1
  Fe  Fe51  1  0.62512175  0.12452030  0.62348727  1
  Fe  Fe52  1  0.37307661  0.62320437  0.37708971  1
  Fe  Fe53  1  0.37726899  0.87545699  0.12590268  1
  Fe  Fe54  1  -0.00044005  0.25209274  0.50301977  1
  Fe  Fe55  1  0.00015161  0.00414618  0.75133978  1
  Fe  Fe56  1  0.37155550  0.12802867  0.37624880  1
  Fe  Fe57  1  0.62438053  0.87089076  0.87042161  1
  Fe  Fe58  1  0.75183114  0.00078376  0.74921548  1
  Fe  Fe59  1  0.24792074  0.75006093  0.50080567  1
  Fe  Fe60  1  0.12657960  0.12747950  0.12675741  1
  Fe  Fe61  1  0.37334978  0.12457152  0.62379172  1
  Fe  Fe62  1  0.12609684  0.13039821  0.87378181  1
  Fe  Fe63  1  0.12737738  0.62260005  0.12631274  1
  Fe  Fe64  1  -0.00201052  0.74702926  0.74983380  1
  Fe  Fe65  1  0.74971223  0.25156562  0.00049636  1
  Fe  Fe66  1  0.12792156  0.62510970  0.87460298  1
  Fe  Fe67  1  0.12334139  0.87516489  0.62588632  1
  Fe  Fe68  1  0.24993259  0.49286403  0.75239397  1
  Fe  Fe69  1  0.74833426  0.50036671  0.25024866  1
  Fe  Fe70  1  0.24871807  0.00058951  0.75136294  1
  Fe  Fe71  1  0.12421601  0.87410773  0.12652744  1
  Fe  Fe72  1  0.75116018  0.25062583  0.24884948  1
  Fe  Fe73  1  0.49898942  0.00323579  0.25352964  1
  Fe  Fe74  1  0.37431148  0.87553677  0.37746515  1
  Fe  Fe75  1  -0.00162023  0.25062692  0.00081125  1
  Fe  Fe76  1  0.87293876  0.62422208  0.87630136  1
  Fe  Fe77  1  0.74689224  -0.00142615  0.49880801  1
  Fe  Fe78  1  0.75042852  0.75280064  0.00261402  1
  Fe  Fe79  1  0.50214581  0.00037878  -0.00154284  1
  Fe  Fe80  1  0.37458674  0.87796571  0.62342181  1
  Fe  Fe81  1  0.49652995  0.24810574  0.24820803  1
  Fe  Fe82  1  0.00304378  0.00048619  -0.00073064  1
  Fe  Fe83  1  0.24875159  -0.00204044  -0.00098834  1
  Fe  Fe84  1  0.62327897  0.37347161  0.87353198  1
  Fe  Fe85  1  0.62585606  0.12479613  0.12558011  1
  Fe  Fe86  1  0.12512407  0.62151871  0.62535228  1
  Fe  Fe87  1  0.87478216  0.61896448  0.61915977  1
  Fe  Fe88  1  0.49966739  0.50086199  0.75003640  1
  Fe  Fe89  1  0.62088923  0.87266982  0.12704071  1
  Co  Co90  1  0.74541586  -0.00374175  0.00094361  1
  Co  Co91  1  0.12579740  0.13119589  0.37488308  1
  Co  Co92  1  0.37812402  0.37602882  0.62456972  1
  Co  Co93  1  0.75002409  0.75282997  0.50181280  1
  Co  Co94  1  0.25379796  0.25355384  0.74965353  1
  Co  Co95  1  0.87389964  0.12114676  0.61943253  1
  Co  Co96  1  0.00614004  0.50008219  0.49407897  1
  Co  Co97  1  0.49707701  0.74801029  0.25374680  1
  Co  Co98  1  0.12365920  0.87332828  0.87263898  1
  Co  Co99  1  0.13195675  0.62360839  0.37284794  1
  Co  Co100  1  0.37322832  0.62457854  0.12662177  1
  Co  Co101  1  0.49750667  0.74796694  -0.00122982  1
  Co  Co102  1  0.74344335  0.49608842  0.50101169  1
  Co  Co103  1  0.87327310  0.12327113  0.88016874  1
  Co  Co104  1  0.12177265  0.37580322  0.12639460  1
  Co  Co105  1  0.75624476  0.74961847  0.74769650  1
  Co  Co106  1  0.37226144  0.62519622  0.87155701  1
  Co  Co107  1  0.12097825  0.37067902  0.87241508  1
  Co  Co108  1  0.12021751  0.37367112  0.62987219  1
  Co  Co109  1  0.87929087  0.38273980  0.62459143  1
  Co  Co110  1  0.75109806  0.75114704  0.24763054  1
  Co  Co111  1  0.00066098  0.50346030  0.75285119  1
  Co  Co112  1  0.12478261  0.87336715  0.37462871  1
  Co  Co113  1  0.25422046  0.25217638  0.24528671  1
  Co  Co114  1  0.37794152  0.37525103  0.37607119  1
  Co  Co115  1  0.38167642  0.37719669  0.12202694  1
  Co  Co116  1  0.87921004  0.87607913  0.12522016  1
  Co  Co117  1  0.25044484  0.25364715  0.50303361  1
  Co  Co118  1  0.86924571  0.62287215  0.37771840  1
  Co  Co119  1  0.62264971  0.37189709  0.62851568  1
  Co  Co120  1  -0.00651391  0.24518120  0.74699875  1
  Co  Co121  1  0.50084175  0.00127944  0.49865326  1
  Co  Co122  1  0.62499591  0.87613329  0.62747179  1
  Co  Co123  1  0.62701606  0.12857748  0.37568032  1
  Co  Co124  1  0.49584880  0.74964158  0.74565174  1
  Co  Co125  1  0.37448785  0.12183546  0.12276148  1
  Co  Co126  1  0.37985631  0.37412907  0.87771172  1
  Co  Co127  1  0.50198366  0.24632642  0.00090579  1
