# generated using pymatgen
data_Fe45Co19
_symmetry_space_group_name_H-M   'P 1'
_cell_length_a   11.41392017
_cell_length_b   11.41503788
_cell_length_c   11.41496229
_cell_angle_alpha   89.98620551
_cell_angle_beta   89.99373045
_cell_angle_gamma   89.98551027
_symmetry_Int_Tables_number   1
_chemical_formula_structural   Fe45Co19
_chemical_formula_sum   'Fe90 Co38'
_cell_volume   1487.25911656
_cell_formula_units_Z   2
loop_
 _symmetry_equiv_pos_site_id
 _symmetry_equiv_pos_as_xyz
  1  'x, y, z'
loop_
 _atom_site_type_symbol
 _atom_site_label
 _atom_site_symmetry_multiplicity
 _atom_site_fract_x
 _atom_site_fract_y
 _atom_site_fract_z
 _atom_site_occupancy
  Fe  Fe0  1  0.24998982  0.74944321  0.49868869  1
  Fe  Fe1  1  0.24983086  0.25028206  0.74938565  1
  Fe  Fe2  1  0.12686399  0.37751032  0.62123834  1
  Fe  Fe3  1  0.87500974  0.37637351  0.87484490  1
  Fe  Fe4  1  0.62751177  0.12151661  0.37750127  1
  Fe  Fe5  1  0.25060229  -0.00097301  0.75097157  1
  Fe  Fe6  1  0.24969862  0.24815634  0.00150481  1
  Fe  Fe7  1  0.50059023  0.25052614  0.74781757  1
  Fe  Fe8  1  0.75070188  -0.00043496  -0.00249123  1
  Fe  Fe9  1  0.00078168  0.25010373  0.00103304  1
  Fe  Fe10  1  0.37666255  0.37392202  0.87642217  1
  Fe  Fe11  1  0.12462230  0.12364931  0.87641654  1
  Fe  Fe12  1  0.87317394  0.37719169  0.62313920  1
  Fe  Fe13  1  0.49989855  0.49995294  0.49973143  1
  Fe  Fe14  1  0.37793551  0.62713267  0.37319639  1
  Fe  Fe15  1  0.25133141  0.50130745  0.75056215  1
  Fe  Fe16  1  0.87198880  0.37643458  0.12500663  1
  Fe  Fe17  1  0.12473070  0.37711776  0.87680762  1
  Fe  Fe18  1  0.50353912  -0.00352197  0.24937964  1
  Fe  Fe19  1  0.24770332  -0.00130820  0.25140513  1
  Fe  Fe20  1  0.62817004  0.37696543  0.62113295  1
  Fe  Fe21  1  0.87523922  0.12362292  0.37494650  1
  Fe  Fe22  1  0.12469775  0.62462826  0.87623205  1
  Fe  Fe23  1  0.37196614  0.37516374  0.37690128  1
  Fe  Fe24  1  0.62365162  0.62466679  0.37585792  1
  Fe  Fe25  1  0.87462519  0.12606776  0.12546120  1
  Fe  Fe26  1  0.37653953  0.87479826  0.87449719  1
  Fe  Fe27  1  0.37486585  0.12448952  0.62325769  1
  Fe  Fe28  1  0.74637935  0.50054375  0.24930892  1
  Fe  Fe29  1  0.50221739  0.49817127  0.24979284  1
  Fe  Fe30  1  0.12179013  0.62967870  0.37223744  1
  Fe  Fe31  1  0.74719822  0.25201640  -0.00171591  1
  Fe  Fe32  1  0.74485385  0.74990784  0.24785713  1
  Fe  Fe33  1  0.25227562  0.50230088  0.00147213  1
  Fe  Fe34  1  0.75152944  -0.00001283  0.75308884  1
  Fe  Fe35  1  -0.00042504  0.50314251  0.49894402  1
  Fe  Fe36  1  0.37574533  0.12477928  0.87568141  1
  Fe  Fe37  1  0.50042983  -0.00189641  0.74716006  1
  Fe  Fe38  1  0.50305479  0.75332133  0.50075567  1
  Fe  Fe39  1  0.12430858  0.62577743  0.62525519  1
  Fe  Fe40  1  0.87218203  0.87264371  0.37352677  1
  Fe  Fe41  1  0.00117215  0.50186336  0.24643215  1
  Fe  Fe42  1  -0.00125999  0.50208534  0.00350438  1
  Fe  Fe43  1  0.62165053  0.62536293  0.87558416  1
  Fe  Fe44  1  0.87158751  0.87283912  0.62839716  1
  Fe  Fe45  1  0.87612612  0.62792633  0.37120116  1
  Fe  Fe46  1  0.24959351  -0.00115907  0.49829722  1
  Fe  Fe47  1  0.87083976  0.87413144  0.12474220  1
  Fe  Fe48  1  0.12341304  0.87395820  0.87628956  1
  Fe  Fe49  1  0.12811859  0.87374639  0.12485424  1
  Fe  Fe50  1  0.62291643  0.12517215  0.87419859  1
  Fe  Fe51  1  0.24595268  0.24941166  0.25141021  1
  Fe  Fe52  1  0.87344816  0.37716976  0.37543510  1
  Fe  Fe53  1  0.37610460  0.37314752  0.12581919  1
  Fe  Fe54  1  0.74716179  0.74937181  -0.00143098  1
  Fe  Fe55  1  0.25151238  0.74927998  0.75161797  1
  Fe  Fe56  1  0.50117596  0.75155048  0.74878735  1
  Fe  Fe57  1  0.62618682  0.12433788  0.12464480  1
  Fe  Fe58  1  0.74876533  0.50180092  0.75143602  1
  Fe  Fe59  1  0.24905018  0.50215856  0.24959674  1
  Fe  Fe60  1  0.50250538  0.24958145  0.49947525  1
  Fe  Fe61  1  0.50234118  0.25051177  0.25110573  1
  Fe  Fe62  1  0.49964208  0.49873841  0.74889764  1
  Fe  Fe63  1  0.37534748  0.12404925  0.37557419  1
  Fe  Fe64  1  0.37628884  0.62623229  0.62484644  1
  Fe  Fe65  1  0.00060384  0.25101339  0.74948358  1
  Fe  Fe66  1  0.37149834  0.37553347  0.62086932  1
  Fe  Fe67  1  -0.00260066  -0.00034514  0.75249633  1
  Fe  Fe68  1  0.87339078  0.12555262  0.62422082  1
  Fe  Fe69  1  0.25426621  0.74988820  0.00017294  1
  Fe  Fe70  1  -0.00208898  -0.00448069  0.49886773  1
  Fe  Fe71  1  0.49879094  -0.00250935  0.00180126  1
  Fe  Fe72  1  0.00352537  0.25142519  0.24974649  1
  Fe  Fe73  1  0.12530593  0.87419750  0.62473632  1
  Fe  Fe74  1  0.37393514  0.12332918  0.12570745  1
  Fe  Fe75  1  0.74882822  0.74797490  0.50187255  1
  Fe  Fe76  1  0.74803517  0.24989737  0.25259744  1
  Fe  Fe77  1  0.87564930  0.62475295  0.87615618  1
  Fe  Fe78  1  0.37592174  0.87339851  0.37300531  1
  Fe  Fe79  1  0.87487737  0.62464286  0.62660226  1
  Fe  Fe80  1  -0.00032591  -0.00331497  0.24973080  1
  Fe  Fe81  1  0.50187910  0.49784960  0.00127601  1
  Fe  Fe82  1  -0.00165378  0.00007720  0.00022886  1
  Fe  Fe83  1  0.12455885  0.12308524  0.62309249  1
  Fe  Fe84  1  0.50314345  -0.00354889  0.50263192  1
  Fe  Fe85  1  0.00075058  0.25084905  0.49837739  1
  Fe  Fe86  1  -0.00115941  0.74919716  0.75031878  1
  Fe  Fe87  1  0.38028113  0.62927769  0.12655809  1
  Fe  Fe88  1  0.74871017  0.25002763  0.74997343  1
  Fe  Fe89  1  -0.00167814  0.74819526  0.00423635  1
  Co  Co90  1  0.50552069  0.75367469  0.25030409  1
  Co  Co91  1  0.75160890  0.50486866  0.49842453  1
  Co  Co92  1  0.62702096  0.12312777  0.62489817  1
  Co  Co93  1  0.62598982  0.37671308  0.37729916  1
  Co  Co94  1  -0.00276890  0.75092667  0.50206718  1
  Co  Co95  1  0.74977555  0.74644168  0.75232342  1
  Co  Co96  1  0.87535245  0.12789292  0.87567831  1
  Co  Co97  1  0.24880560  0.24672839  0.49808695  1
  Co  Co98  1  0.12443434  0.12303049  0.12511199  1
  Co  Co99  1  0.87584968  0.87174639  0.87563267  1
  Co  Co100  1  0.00037291  0.50005149  0.74936597  1
  Co  Co101  1  0.37358448  0.87373928  0.62466391  1
  Co  Co102  1  0.74756973  0.49974680  -0.00194465  1
  Co  Co103  1  0.62946757  0.87446102  0.62808438  1
  Co  Co104  1  0.86965695  0.62452259  0.12606245  1
  Co  Co105  1  0.12636301  0.37805620  0.37612718  1
  Co  Co106  1  0.62565175  0.37415624  0.12581186  1
  Co  Co107  1  0.75031412  0.24869187  0.49769733  1
  Co  Co108  1  0.25184622  -0.00195940  -0.00068124  1
  Co  Co109  1  -0.00139528  0.75207745  0.24447500  1
  Co  Co110  1  0.75211840  -0.00108410  0.50108329  1
  Co  Co111  1  0.12563964  0.37654525  0.12388185  1
  Co  Co112  1  0.75065812  0.00078740  0.24913406  1
  Co  Co113  1  0.24936936  0.50676612  0.49820183  1
  Co  Co114  1  0.62319368  0.62474461  0.62520467  1
  Co  Co115  1  0.50014078  0.75431785  0.00124714  1
  Co  Co116  1  0.50059207  0.24840155  0.00173453  1
  Co  Co117  1  0.62270446  0.37473372  0.87393471  1
  Co  Co118  1  0.37894040  0.62514846  0.87491731  1
  Co  Co119  1  0.12751500  0.62706146  0.12485273  1
  Co  Co120  1  0.62295806  0.62479879  0.12321605  1
  Co  Co121  1  0.62446629  0.87528644  0.87301208  1
  Co  Co122  1  0.37494882  0.87363155  0.12871665  1
  Co  Co123  1  0.12210898  0.12278740  0.37547186  1
  Co  Co124  1  0.62902593  0.87672371  0.37658713  1
  Co  Co125  1  0.62691925  0.87596999  0.12368661  1
  Co  Co126  1  0.12396664  0.87143358  0.37504254  1
  Co  Co127  1  0.25116636  0.74885936  0.25089691  1
