# generated using pymatgen
data_Fe45Co19
_symmetry_space_group_name_H-M   'P 1'
_cell_length_a   11.41624012
_cell_length_b   11.41447780
_cell_length_c   11.41461947
_cell_angle_alpha   90.01376108
_cell_angle_beta   89.99859091
_cell_angle_gamma   89.99500190
_symmetry_Int_Tables_number   1
_chemical_formula_structural   Fe45Co19
_chemical_formula_sum   'Fe90 Co38'
_cell_volume   1487.44380163
_cell_formula_units_Z   2
loop_
 _symmetry_equiv_pos_site_id
 _symmetry_equiv_pos_as_xyz
  1  'x, y, z'
loop_
 _atom_site_type_symbol
 _atom_site_label
 _atom_site_symmetry_multiplicity
 _atom_site_fract_x
 _atom_site_fract_y
 _atom_site_fract_z
 _atom_site_occupancy
  Fe  Fe0  1  0.00163233  0.74891073  0.74751819  1
  Fe  Fe1  1  0.49895232  0.25319483  0.75224081  1
  Fe  Fe2  1  0.12684806  0.87321360  0.37579216  1
  Fe  Fe3  1  0.87498029  0.62473772  0.87534630  1
  Fe  Fe4  1  0.87604085  0.37553854  0.87479114  1
  Fe  Fe5  1  0.74969056  0.75100386  0.75028572  1
  Fe  Fe6  1  0.62407218  0.12636077  0.87431346  1
  Fe  Fe7  1  0.74883997  0.00140169  0.50068192  1
  Fe  Fe8  1  0.37557212  0.62843962  0.87764219  1
  Fe  Fe9  1  0.00479586  0.74723607  0.50095267  1
  Fe  Fe10  1  0.87443597  0.62670568  0.12756571  1
  Fe  Fe11  1  0.37404763  0.37499741  0.37593680  1
  Fe  Fe12  1  0.25232826  -0.00497776  -0.00463893  1
  Fe  Fe13  1  0.25066453  0.49978966  0.75228452  1
  Fe  Fe14  1  0.87286535  0.87342855  0.12663060  1
  Fe  Fe15  1  0.50229275  0.75285181  0.24820985  1
  Fe  Fe16  1  0.37244238  0.62573646  0.62754644  1
  Fe  Fe17  1  0.50178986  0.74910162  0.74948188  1
  Fe  Fe18  1  0.12613803  0.62393453  0.12603428  1
  Fe  Fe19  1  0.12746040  0.87584471  0.12345462  1
  Fe  Fe20  1  -0.00138162  0.00225993  0.00352239  1
  Fe  Fe21  1  0.12256547  0.37414092  0.87467442  1
  Fe  Fe22  1  0.25036784  0.74781000  0.24889757  1
  Fe  Fe23  1  0.87673490  0.37441662  0.37588476  1
  Fe  Fe24  1  0.37469464  0.37565405  0.62576200  1
  Fe  Fe25  1  0.24830123  0.50125313  0.49865844  1
  Fe  Fe26  1  0.49994186  0.00203536  0.50181940  1
  Fe  Fe27  1  0.00317553  -0.00048677  0.74677288  1
  Fe  Fe28  1  0.62357474  0.62323720  0.12426332  1
  Fe  Fe29  1  0.87512502  0.87381319  0.62326114  1
  Fe  Fe30  1  0.75055051  0.00041854  -0.00129842  1
  Fe  Fe31  1  0.00086501  0.74953853  0.00210396  1
  Fe  Fe32  1  0.00215756  0.00124803  0.24896370  1
  Fe  Fe33  1  0.12504454  0.37440267  0.12375108  1
  Fe  Fe34  1  0.62466471  0.12647611  0.37419068  1
  Fe  Fe35  1  0.00142125  0.24560786  0.24611515  1
  Fe  Fe36  1  0.49890560  -0.00192536  0.00123825  1
  Fe  Fe37  1  0.12299391  0.12554703  0.87534948  1
  Fe  Fe38  1  0.12437307  0.62493016  0.87530552  1
  Fe  Fe39  1  0.87513196  0.87198342  0.37377464  1
  Fe  Fe40  1  0.25013029  0.24964066  -0.00104605  1
  Fe  Fe41  1  0.50000708  0.50288283  0.50225126  1
  Fe  Fe42  1  0.75341721  0.50125729  0.74723502  1
  Fe  Fe43  1  -0.00108854  0.49969019  -0.00064674  1
  Fe  Fe44  1  0.49935459  0.49522475  -0.00503130  1
  Fe  Fe45  1  0.24942339  0.00194435  0.25118392  1
  Fe  Fe46  1  0.49850653  0.49677052  0.24920082  1
  Fe  Fe47  1  0.74606577  0.74733215  0.49769494  1
  Fe  Fe48  1  0.12285000  0.37625867  0.62749609  1
  Fe  Fe49  1  0.00177978  0.50490071  0.50284456  1
  Fe  Fe50  1  0.62405311  0.37178748  0.12454101  1
  Fe  Fe51  1  0.24960767  0.24848658  0.74841923  1
  Fe  Fe52  1  0.87547157  0.12543294  0.37360584  1
  Fe  Fe53  1  0.37473031  0.62329186  0.37190598  1
  Fe  Fe54  1  0.75149557  0.25012485  0.00005680  1
  Fe  Fe55  1  0.75382472  0.24882581  0.74680060  1
  Fe  Fe56  1  0.49920890  0.00037068  0.74798830  1
  Fe  Fe57  1  0.37461357  0.12586093  0.12377560  1
  Fe  Fe58  1  0.74973914  -0.00075330  0.74872189  1
  Fe  Fe59  1  0.62412242  0.37703708  0.62704549  1
  Fe  Fe60  1  0.87585261  0.37376913  0.12528985  1
  Fe  Fe61  1  0.62472269  0.87452391  0.62334923  1
  Fe  Fe62  1  0.49921506  0.24919994  0.50111937  1
  Fe  Fe63  1  0.37312831  0.12718179  0.37745751  1
  Fe  Fe64  1  0.74841093  0.74963591  -0.00032089  1
  Fe  Fe65  1  0.00038944  0.24773960  0.50395073  1
  Fe  Fe66  1  0.00233448  0.00080872  0.49962364  1
  Fe  Fe67  1  0.24855865  0.00234464  0.50239033  1
  Fe  Fe68  1  0.49974456  0.74828350  0.49956666  1
  Fe  Fe69  1  0.62307902  0.87544947  0.87622393  1
  Fe  Fe70  1  0.49977430  -0.00024416  0.24920838  1
  Fe  Fe71  1  0.37533098  0.12468297  0.87353792  1
  Fe  Fe72  1  0.62452782  0.37494091  0.37497737  1
  Fe  Fe73  1  0.24703214  0.75568560  0.75416632  1
  Fe  Fe74  1  0.37214976  0.87547081  0.62562774  1
  Fe  Fe75  1  0.00100558  0.50072196  0.25005992  1
  Fe  Fe76  1  0.37518329  0.37344734  0.12354053  1
  Fe  Fe77  1  0.75100668  0.24883990  0.50185783  1
  Fe  Fe78  1  0.87740983  0.12472052  0.87412043  1
  Fe  Fe79  1  0.25151049  0.50127360  0.00078319  1
  Fe  Fe80  1  0.62525419  0.62190506  0.87469950  1
  Fe  Fe81  1  0.24975647  0.25029550  0.25109623  1
  Fe  Fe82  1  0.74953067  0.50290537  0.49994411  1
  Fe  Fe83  1  0.37470509  0.87549714  0.37526514  1
  Fe  Fe84  1  0.74854895  -0.00159789  0.25126605  1
  Fe  Fe85  1  0.75012137  0.49927021  0.25030843  1
  Fe  Fe86  1  0.87599821  0.62737822  0.37237668  1
  Fe  Fe87  1  0.12425825  0.37450294  0.37470576  1
  Fe  Fe88  1  0.87787720  0.87495084  0.87549238  1
  Fe  Fe89  1  0.62456379  0.12779387  0.12550174  1
  Co  Co90  1  0.49696909  0.49878661  0.75358637  1
  Co  Co91  1  0.87351647  0.62764883  0.62373243  1
  Co  Co92  1  0.62450830  0.62337787  0.62735061  1
  Co  Co93  1  0.25047241  0.49820829  0.24921442  1
  Co  Co94  1  0.12637472  0.12533950  0.62596783  1
  Co  Co95  1  0.37041066  0.37380700  0.87547712  1
  Co  Co96  1  0.12943991  0.12349882  0.12168907  1
  Co  Co97  1  0.62405567  0.12661499  0.62678831  1
  Co  Co98  1  0.25116276  0.74750066  0.49786670  1
  Co  Co99  1  0.87663055  0.37735204  0.62277325  1
  Co  Co100  1  0.87122552  0.12415143  0.12682938  1
  Co  Co101  1  0.12699231  0.87438316  0.62218208  1
  Co  Co102  1  0.75070966  0.25203417  0.25130720  1
  Co  Co103  1  0.37315794  0.12559141  0.62613158  1
  Co  Co104  1  0.63093428  0.37562345  0.87194962  1
  Co  Co105  1  0.38004916  0.87257052  0.87415061  1
  Co  Co106  1  0.37753475  0.62424859  0.12351349  1
  Co  Co107  1  0.00401602  0.75183848  0.24913761  1
  Co  Co108  1  0.75133941  0.49916265  0.00251222  1
  Co  Co109  1  0.24853931  -0.00252158  0.75291581  1
  Co  Co110  1  0.62322941  0.87650659  0.37722677  1
  Co  Co111  1  -0.00211162  0.25013021  0.74856209  1
  Co  Co112  1  0.24892557  0.25263964  0.50139656  1
  Co  Co113  1  0.12996389  0.62500536  0.62799804  1
  Co  Co114  1  -0.00194118  0.50244722  0.74957959  1
  Co  Co115  1  0.37296537  0.87406834  0.12568757  1
  Co  Co116  1  0.49725310  0.24955842  0.25204608  1
  Co  Co117  1  0.12627746  0.62409805  0.37238507  1
  Co  Co118  1  0.11923469  0.87581503  0.87794426  1
  Co  Co119  1  -0.00204728  0.24890753  0.00183527  1
  Co  Co120  1  0.74511731  0.75028627  0.25085109  1
  Co  Co121  1  0.50012794  0.25227011  -0.00408229  1
  Co  Co122  1  0.50225726  0.75158005  0.00209480  1
  Co  Co123  1  0.62212256  0.62269974  0.37211784  1
  Co  Co124  1  0.87609462  0.12151215  0.62426073  1
  Co  Co125  1  0.24884970  0.75132963  -0.00081263  1
  Co  Co126  1  0.12525226  0.12734300  0.37653982  1
  Co  Co127  1  0.62699876  0.87703072  0.12298367  1
