# generated using pymatgen
data_Fe45Co19
_symmetry_space_group_name_H-M   'P 1'
_cell_length_a   11.41540848
_cell_length_b   11.41566798
_cell_length_c   11.41553108
_cell_angle_alpha   90.00610506
_cell_angle_beta   90.00150922
_cell_angle_gamma   90.00656162
_symmetry_Int_Tables_number   1
_chemical_formula_structural   Fe45Co19
_chemical_formula_sum   'Fe90 Co38'
_cell_volume   1487.60935516
_cell_formula_units_Z   2
loop_
 _symmetry_equiv_pos_site_id
 _symmetry_equiv_pos_as_xyz
  1  'x, y, z'
loop_
 _atom_site_type_symbol
 _atom_site_label
 _atom_site_symmetry_multiplicity
 _atom_site_fract_x
 _atom_site_fract_y
 _atom_site_fract_z
 _atom_site_occupancy
  Fe  Fe0  1  0.62424587  0.37640913  0.87243781  1
  Fe  Fe1  1  0.12492065  0.37702485  0.62692180  1
  Fe  Fe2  1  0.00335439  0.24781437  0.74964534  1
  Fe  Fe3  1  0.62499921  0.37556871  0.12445541  1
  Fe  Fe4  1  0.75019507  -0.00142103  0.74733412  1
  Fe  Fe5  1  0.37166514  0.12621813  0.87311841  1
  Fe  Fe6  1  0.24820894  0.25247876  -0.00270191  1
  Fe  Fe7  1  0.00014691  0.25202110  0.49989164  1
  Fe  Fe8  1  0.75375163  0.25080872  0.74946155  1
  Fe  Fe9  1  0.37662363  0.87636009  0.12489384  1
  Fe  Fe10  1  0.62690450  0.12470384  0.87305101  1
  Fe  Fe11  1  0.87413749  0.87553035  0.87747787  1
  Fe  Fe12  1  0.00009969  0.50037759  0.25105658  1
  Fe  Fe13  1  -0.00145188  0.75425249  0.25349600  1
  Fe  Fe14  1  0.12602140  0.12440023  0.37660478  1
  Fe  Fe15  1  0.87361940  0.12308165  0.37714596  1
  Fe  Fe16  1  0.00180673  -0.00485184  0.49564703  1
  Fe  Fe17  1  0.37668564  0.12779853  0.37725845  1
  Fe  Fe18  1  0.62451184  0.37178324  0.37744737  1
  Fe  Fe19  1  -0.00122061  0.24769805  0.25019167  1
  Fe  Fe20  1  0.25033488  0.50343084  0.75509395  1
  Fe  Fe21  1  0.00310948  -0.00108535  0.75129126  1
  Fe  Fe22  1  0.12419401  0.37579199  0.12565098  1
  Fe  Fe23  1  0.24764330  0.50094178  0.49826316  1
  Fe  Fe24  1  0.12350226  0.87583524  0.12890539  1
  Fe  Fe25  1  0.24701170  0.50301802  -0.00233837  1
  Fe  Fe26  1  0.12618932  0.87335756  0.62481776  1
  Fe  Fe27  1  0.87782096  0.37598168  0.87476446  1
  Fe  Fe28  1  0.00286507  0.50337130  -0.00017846  1
  Fe  Fe29  1  0.50015126  0.49934580  0.50019189  1
  Fe  Fe30  1  0.87538271  0.62695818  0.87585441  1
  Fe  Fe31  1  0.12403840  0.12314967  0.12522469  1
  Fe  Fe32  1  0.37508285  0.87770869  0.62664315  1
  Fe  Fe33  1  0.75205120  0.74906991  0.74755101  1
  Fe  Fe34  1  0.87401237  0.37665888  0.37663585  1
  Fe  Fe35  1  0.24913376  0.75018432  0.50153338  1
  Fe  Fe36  1  0.74702969  0.75147843  0.00398941  1
  Fe  Fe37  1  0.49728944  0.25116855  0.75006238  1
  Fe  Fe38  1  0.87344530  0.87365831  0.61918797  1
  Fe  Fe39  1  0.62477795  0.87491552  0.87285208  1
  Fe  Fe40  1  0.50001369  0.75055324  0.24857536  1
  Fe  Fe41  1  0.49761860  0.49652989  0.25120833  1
  Fe  Fe42  1  0.49886913  0.50063899  -0.00263351  1
  Fe  Fe43  1  0.87605678  0.37831833  0.62357547  1
  Fe  Fe44  1  0.87371435  0.62530434  0.37756741  1
  Fe  Fe45  1  0.62687765  0.87473000  0.37702061  1
  Fe  Fe46  1  0.37287451  0.37681247  0.62663906  1
  Fe  Fe47  1  0.87621360  0.12191547  0.87675407  1
  Fe  Fe48  1  0.37431500  0.87453848  0.87324851  1
  Fe  Fe49  1  0.37468642  0.62405587  0.12603768  1
  Fe  Fe50  1  0.62490058  0.12809378  0.37715100  1
  Fe  Fe51  1  0.87752379  0.11953555  0.12205780  1
  Fe  Fe52  1  0.62551550  0.62374552  0.37272737  1
  Fe  Fe53  1  0.62364004  0.12436178  0.12490096  1
  Fe  Fe54  1  0.87458898  0.62515577  0.12654574  1
  Fe  Fe55  1  0.37409471  0.62363731  0.62538646  1
  Fe  Fe56  1  0.37548747  0.37404440  0.12274059  1
  Fe  Fe57  1  0.75147712  -0.00221824  0.24879615  1
  Fe  Fe58  1  0.24895539  0.74776071  0.00232736  1
  Fe  Fe59  1  0.49896953  0.00078713  0.25171900  1
  Fe  Fe60  1  0.75023316  0.24983561  -0.00090876  1
  Fe  Fe61  1  0.37296603  0.62513192  0.37337539  1
  Fe  Fe62  1  0.37385346  0.87378479  0.37582546  1
  Fe  Fe63  1  0.49782905  0.74931439  0.74932837  1
  Fe  Fe64  1  0.62442078  0.62440736  0.87297251  1
  Fe  Fe65  1  0.74871579  0.75128873  0.24670184  1
  Fe  Fe66  1  0.87546837  0.37598928  0.12472413  1
  Fe  Fe67  1  0.00020673  0.50433715  0.75069224  1
  Fe  Fe68  1  0.12749221  0.62694382  0.37173055  1
  Fe  Fe69  1  0.75055617  0.50124016  -0.00025344  1
  Fe  Fe70  1  0.12656199  0.37392113  0.37349049  1
  Fe  Fe71  1  0.24702498  -0.00181809  -0.00212914  1
  Fe  Fe72  1  0.87775076  0.12341732  0.62279374  1
  Fe  Fe73  1  0.62662593  0.37597139  0.62620568  1
  Fe  Fe74  1  0.75112551  0.24984080  0.24921785  1
  Fe  Fe75  1  0.12519416  0.86873664  0.87141742  1
  Fe  Fe76  1  0.00087667  0.74983295  0.00183894  1
  Fe  Fe77  1  0.62523407  0.12665942  0.62540373  1
  Fe  Fe78  1  0.50126621  0.74921168  0.50125438  1
  Fe  Fe79  1  0.50172053  0.74961558  0.00205204  1
  Fe  Fe80  1  0.25237995  0.25080604  0.25002052  1
  Fe  Fe81  1  0.50149333  0.00027940  0.50179860  1
  Fe  Fe82  1  0.37582415  0.12597500  0.12323105  1
  Fe  Fe83  1  0.87687183  0.62421537  0.61940725  1
  Fe  Fe84  1  0.62504673  0.62302299  0.62766462  1
  Fe  Fe85  1  0.00087698  0.24909966  -0.00065141  1
  Fe  Fe86  1  0.50057289  0.00139758  -0.00293853  1
  Fe  Fe87  1  0.37219504  0.12243330  0.62756821  1
  Fe  Fe88  1  0.25122575  0.00033846  0.25156473  1
  Fe  Fe89  1  0.25052545  0.24965791  0.50246138  1
  Co  Co90  1  0.62369551  0.87356415  0.62605335  1
  Co  Co91  1  0.13049425  0.87429974  0.37369843  1
  Co  Co92  1  0.25183308  -0.00095546  0.49970888  1
  Co  Co93  1  0.12269560  0.37613701  0.87356994  1
  Co  Co94  1  0.24721199  0.24905158  0.74879188  1
  Co  Co95  1  0.12353529  0.62984665  0.87140477  1
  Co  Co96  1  0.24499926  -0.00007404  0.75153632  1
  Co  Co97  1  0.25221720  0.75136336  0.24742987  1
  Co  Co98  1  0.00426274  0.75092255  0.49734373  1
  Co  Co99  1  0.37483872  0.37346662  0.87486568  1
  Co  Co100  1  0.12572858  0.12746934  0.87614030  1
  Co  Co101  1  0.25137579  0.49765474  0.24911983  1
  Co  Co102  1  0.12497803  0.62614624  0.62766571  1
  Co  Co103  1  0.00430160  0.50107044  0.49778574  1
  Co  Co104  1  0.62358874  0.62139805  0.12674164  1
  Co  Co105  1  0.62176005  0.87789069  0.12592662  1
  Co  Co106  1  0.75385104  0.50159366  0.75018741  1
  Co  Co107  1  0.74696182  -0.00160297  0.00035071  1
  Co  Co108  1  0.12358097  0.12278886  0.62048430  1
  Co  Co109  1  0.49760576  0.25041195  0.50498965  1
  Co  Co110  1  0.86859293  0.87293112  0.37901616  1
  Co  Co111  1  0.49697489  0.50048433  0.75026056  1
  Co  Co112  1  0.74683097  0.00167503  0.50296455  1
  Co  Co113  1  0.74800091  0.50008678  0.49969659  1
  Co  Co114  1  0.37604011  0.62771513  0.87652014  1
  Co  Co115  1  0.50157932  0.24828384  -0.00206423  1
  Co  Co116  1  0.74576973  0.74660081  0.50165294  1
  Co  Co117  1  -0.00056094  -0.00197071  0.25475505  1
  Co  Co118  1  -0.00492047  0.75036930  0.74671540  1
  Co  Co119  1  0.37488096  0.37380538  0.37786731  1
  Co  Co120  1  0.50065884  0.00105299  0.75089934  1
  Co  Co121  1  0.12398006  0.62590086  0.12942269  1
  Co  Co122  1  0.49912021  0.25138075  0.24874775  1
  Co  Co123  1  0.87750531  0.87718875  0.12310355  1
  Co  Co124  1  0.00549575  -0.00244056  -0.00347730  1
  Co  Co125  1  0.25402647  0.74877897  0.74805927  1
  Co  Co126  1  0.75296925  0.25094020  0.50197517  1
  Co  Co127  1  0.75072059  0.49858905  0.25105398  1
