# generated using pymatgen
data_Fe45Co19
_symmetry_space_group_name_H-M   'P 1'
_cell_length_a   11.41574914
_cell_length_b   11.41509964
_cell_length_c   11.41539999
_cell_angle_alpha   89.99647880
_cell_angle_beta   89.99211831
_cell_angle_gamma   90.00430483
_symmetry_Int_Tables_number   1
_chemical_formula_structural   Fe45Co19
_chemical_formula_sum   'Fe90 Co38'
_cell_volume   1487.56259942
_cell_formula_units_Z   2
loop_
 _symmetry_equiv_pos_site_id
 _symmetry_equiv_pos_as_xyz
  1  'x, y, z'
loop_
 _atom_site_type_symbol
 _atom_site_label
 _atom_site_symmetry_multiplicity
 _atom_site_fract_x
 _atom_site_fract_y
 _atom_site_fract_z
 _atom_site_occupancy
  Fe  Fe0  1  0.75069219  0.75400257  0.00313997  1
  Fe  Fe1  1  0.49936609  0.50397465  0.75250616  1
  Fe  Fe2  1  0.12230532  0.12704816  0.12272962  1
  Fe  Fe3  1  0.74882125  0.49891424  0.24965028  1
  Fe  Fe4  1  -0.00106959  -0.00401855  -0.00408345  1
  Fe  Fe5  1  0.12771638  0.87648102  0.37298988  1
  Fe  Fe6  1  0.87414410  0.62607351  0.62251708  1
  Fe  Fe7  1  0.00008843  0.75113828  -0.00245506  1
  Fe  Fe8  1  0.62665004  0.87627642  0.87304813  1
  Fe  Fe9  1  0.50265742  0.00116551  0.00035628  1
  Fe  Fe10  1  0.12387303  0.37434047  0.37550969  1
  Fe  Fe11  1  0.74947018  0.75440933  0.74479370  1
  Fe  Fe12  1  0.62322534  0.37354695  0.87677311  1
  Fe  Fe13  1  0.75039494  0.25042518  0.24822081  1
  Fe  Fe14  1  0.49967013  0.24692143  0.75226505  1
  Fe  Fe15  1  0.24979852  0.00081555  0.74984528  1
  Fe  Fe16  1  0.50246143  0.50160853  0.24811883  1
  Fe  Fe17  1  0.37126856  0.87784626  0.37312556  1
  Fe  Fe18  1  0.62293836  0.12135118  0.62771818  1
  Fe  Fe19  1  0.50023493  0.24821424  0.50061639  1
  Fe  Fe20  1  0.37595766  0.87646786  0.62503753  1
  Fe  Fe21  1  0.50111973  0.49961797  0.50064301  1
  Fe  Fe22  1  -0.00103319  0.25127326  0.50055972  1
  Fe  Fe23  1  0.49834922  0.75064845  0.49871780  1
  Fe  Fe24  1  0.12388436  0.37650173  0.62503634  1
  Fe  Fe25  1  0.37532644  0.12437122  0.12544962  1
  Fe  Fe26  1  0.37313915  0.12466311  0.87537944  1
  Fe  Fe27  1  0.87133823  0.12167685  0.12375846  1
  Fe  Fe28  1  0.75070440  0.25092017  0.74998087  1
  Fe  Fe29  1  0.12142395  0.87419782  0.12631642  1
  Fe  Fe30  1  0.62834190  0.12366412  0.87535765  1
  Fe  Fe31  1  0.74740929  0.50035388  0.74857639  1
  Fe  Fe32  1  0.12752274  0.62567398  0.87682253  1
  Fe  Fe33  1  0.25103738  0.24954787  0.50116463  1
  Fe  Fe34  1  0.12304460  0.12616635  0.87543279  1
  Fe  Fe35  1  0.12291879  0.62228669  0.12368488  1
  Fe  Fe36  1  0.62747843  0.62631219  0.37630227  1
  Fe  Fe37  1  0.12264924  0.37544037  0.87617946  1
  Fe  Fe38  1  0.87233680  0.62375054  0.37729957  1
  Fe  Fe39  1  0.12700890  0.12496622  0.37440220  1
  Fe  Fe40  1  0.12297640  0.12459729  0.62723567  1
  Fe  Fe41  1  0.87298873  0.62661964  0.87413494  1
  Fe  Fe42  1  0.00142323  0.00041286  0.49910516  1
  Fe  Fe43  1  0.25326210  0.50162894  0.75108620  1
  Fe  Fe44  1  0.62519031  0.87511349  0.37480230  1
  Fe  Fe45  1  0.25358448  0.49771024  -0.00076313  1
  Fe  Fe46  1  0.24912232  0.24997793  0.75075862  1
  Fe  Fe47  1  0.62428943  0.62726019  0.62232448  1
  Fe  Fe48  1  0.12416098  0.87559604  0.62584178  1
  Fe  Fe49  1  0.37634835  0.62439807  0.12256921  1
  Fe  Fe50  1  0.00178991  0.74857205  0.49780013  1
  Fe  Fe51  1  0.50186322  0.24694621  0.24864031  1
  Fe  Fe52  1  -0.00235342  0.25121726  0.24826827  1
  Fe  Fe53  1  -0.00077586  0.00188351  0.25095435  1
  Fe  Fe54  1  0.12876562  0.62347567  0.37687568  1
  Fe  Fe55  1  -0.00601130  0.25381713  -0.00157766  1
  Fe  Fe56  1  0.37291136  0.62390281  0.37711469  1
  Fe  Fe57  1  0.74873137  0.25175516  0.50360317  1
  Fe  Fe58  1  0.25296964  0.25338010  0.00099563  1
  Fe  Fe59  1  0.62640081  0.62692769  0.87662462  1
  Fe  Fe60  1  0.62278961  0.37278044  0.12096024  1
  Fe  Fe61  1  0.87799345  0.12281069  0.62774534  1
  Fe  Fe62  1  0.87554862  0.37704299  0.62563424  1
  Fe  Fe63  1  0.49872837  0.74934269  0.75093437  1
  Fe  Fe64  1  0.37729473  0.37467009  0.62721329  1
  Fe  Fe65  1  0.50263487  0.74966451  0.00230259  1
  Fe  Fe66  1  0.87256021  0.12582650  0.37558560  1
  Fe  Fe67  1  0.75033463  -0.00351876  0.50337803  1
  Fe  Fe68  1  0.37656777  0.37483061  0.37354953  1
  Fe  Fe69  1  0.25003914  0.49733895  0.24844777  1
  Fe  Fe70  1  0.25224616  0.74807304  0.74895432  1
  Fe  Fe71  1  0.37140133  0.12330181  0.37411789  1
  Fe  Fe72  1  0.62791575  0.12349969  0.37486953  1
  Fe  Fe73  1  -0.00081712  0.49860949  0.25127561  1
  Fe  Fe74  1  0.37217284  0.87245592  0.87897834  1
  Fe  Fe75  1  0.75043392  0.75213428  0.24868991  1
  Fe  Fe76  1  0.49818741  0.00139638  0.49992563  1
  Fe  Fe77  1  0.87609109  0.87445228  0.37492725  1
  Fe  Fe78  1  0.50006645  0.74937569  0.24825718  1
  Fe  Fe79  1  0.12751559  0.62410716  0.62208334  1
  Fe  Fe80  1  0.24897522  0.25105950  0.24692893  1
  Fe  Fe81  1  0.87394950  0.12218642  0.87242530  1
  Fe  Fe82  1  0.24849213  -0.00165396  0.00273852  1
  Fe  Fe83  1  0.25058089  0.75056449  0.24696215  1
  Fe  Fe84  1  0.87597554  0.62524780  0.12489228  1
  Fe  Fe85  1  0.00004150  0.50186048  0.75128711  1
  Fe  Fe86  1  0.50189071  0.00123270  0.24822777  1
  Fe  Fe87  1  0.00089294  0.75141047  0.75246658  1
  Fe  Fe88  1  0.75068652  0.49867286  -0.00057590  1
  Fe  Fe89  1  0.62598401  0.37404175  0.37612295  1
  Co  Co90  1  0.62496284  0.87651987  0.12743440  1
  Co  Co91  1  0.88072115  0.87424374  0.62428674  1
  Co  Co92  1  0.62180378  0.37442515  0.62764171  1
  Co  Co93  1  0.24769619  0.00070512  0.24472479  1
  Co  Co94  1  0.74970573  -0.00353502  0.00029808  1
  Co  Co95  1  0.24932540  0.00123707  0.50278621  1
  Co  Co96  1  0.87184393  0.87410453  0.87311463  1
  Co  Co97  1  0.37727296  0.87549733  0.12383750  1
  Co  Co98  1  0.87474112  0.37761103  0.12582750  1
  Co  Co99  1  0.49819435  0.24627721  -0.00038665  1
  Co  Co100  1  0.87358782  0.37401510  0.37604502  1
  Co  Co101  1  0.75021494  -0.00217745  0.25042974  1
  Co  Co102  1  0.00095397  0.74709094  0.25248391  1
  Co  Co103  1  0.87854033  0.87511356  0.12664661  1
  Co  Co104  1  0.61942595  0.87624119  0.62507872  1
  Co  Co105  1  0.37834634  0.37421811  0.87275816  1
  Co  Co106  1  0.25175528  0.49660989  0.50050611  1
  Co  Co107  1  0.00136377  -0.00343470  0.75398701  1
  Co  Co108  1  -0.00295146  0.50087904  -0.00253911  1
  Co  Co109  1  0.37432933  0.62923217  0.87887932  1
  Co  Co110  1  0.37579052  0.62476039  0.62228434  1
  Co  Co111  1  0.75102269  -0.00328805  0.74634077  1
  Co  Co112  1  0.49977097  0.50177762  -0.00160280  1
  Co  Co113  1  0.62863782  0.12566584  0.12359015  1
  Co  Co114  1  0.37599914  0.12584846  0.62650210  1
  Co  Co115  1  0.75358159  0.25066820  -0.00189313  1
  Co  Co116  1  0.87419921  0.37816424  0.87128542  1
  Co  Co117  1  -0.00052417  0.25206285  0.75138901  1
  Co  Co118  1  0.24707352  0.74979679  0.00553409  1
  Co  Co119  1  0.74958259  0.75357137  0.50139423  1
  Co  Co120  1  0.13005781  0.87322363  0.87444284  1
  Co  Co121  1  0.74780372  0.49807428  0.50170780  1
  Co  Co122  1  0.12251948  0.37518125  0.12238321  1
  Co  Co123  1  0.62716287  0.62513905  0.12393424  1
  Co  Co124  1  0.49727374  -0.00049656  0.75426292  1
  Co  Co125  1  -0.00070412  0.50064576  0.49881762  1
  Co  Co126  1  0.25030434  0.75223873  0.50014089  1
  Co  Co127  1  0.37913806  0.37504747  0.12645875  1
