# generated using pymatgen
data_Fe45Co19
_symmetry_space_group_name_H-M   'P 1'
_cell_length_a   11.41619423
_cell_length_b   11.41426153
_cell_length_c   11.41532264
_cell_angle_alpha   89.99582286
_cell_angle_beta   89.99795648
_cell_angle_gamma   89.99048274
_symmetry_Int_Tables_number   1
_chemical_formula_structural   Fe45Co19
_chemical_formula_sum   'Fe90 Co38'
_cell_volume   1487.50129154
_cell_formula_units_Z   2
loop_
 _symmetry_equiv_pos_site_id
 _symmetry_equiv_pos_as_xyz
  1  'x, y, z'
loop_
 _atom_site_type_symbol
 _atom_site_label
 _atom_site_symmetry_multiplicity
 _atom_site_fract_x
 _atom_site_fract_y
 _atom_site_fract_z
 _atom_site_occupancy
  Fe  Fe0  1  0.12415054  0.87690937  0.87623511  1
  Fe  Fe1  1  0.87351753  0.36956227  0.61714376  1
  Fe  Fe2  1  0.24396369  0.75119608  0.25023018  1
  Fe  Fe3  1  0.62633408  0.37476742  0.87295788  1
  Fe  Fe4  1  0.24903683  0.74904397  0.00184432  1
  Fe  Fe5  1  0.37452387  0.62383611  0.87505005  1
  Fe  Fe6  1  0.74993002  0.24670095  0.74603239  1
  Fe  Fe7  1  0.37631875  0.62701321  0.62395135  1
  Fe  Fe8  1  0.12451593  0.37470311  0.87493074  1
  Fe  Fe9  1  0.24922097  0.74975519  0.75011182  1
  Fe  Fe10  1  0.00050565  0.00150235  0.49872989  1
  Fe  Fe11  1  0.75052433  0.00098467  0.00432104  1
  Fe  Fe12  1  0.37425118  0.62441976  0.12722821  1
  Fe  Fe13  1  -0.00624211  0.49722383  0.25314965  1
  Fe  Fe14  1  0.25034927  0.49855129  0.74707701  1
  Fe  Fe15  1  0.37560180  0.87446921  0.87623334  1
  Fe  Fe16  1  -0.00229963  0.49953434  0.74633105  1
  Fe  Fe17  1  0.12440184  0.12432964  0.62446635  1
  Fe  Fe18  1  0.24860776  0.25126105  0.49766137  1
  Fe  Fe19  1  0.50011773  0.25028037  0.00176718  1
  Fe  Fe20  1  0.00284193  0.74838211  0.49855365  1
  Fe  Fe21  1  0.37514929  0.87407177  0.62388664  1
  Fe  Fe22  1  -0.00118574  0.25189825  0.00034589  1
  Fe  Fe23  1  0.37092657  0.87767645  0.37328515  1
  Fe  Fe24  1  0.25021541  0.25150347  0.74971681  1
  Fe  Fe25  1  0.12494689  0.12641405  0.87631596  1
  Fe  Fe26  1  0.49982416  -0.00038706  0.49725397  1
  Fe  Fe27  1  0.50108169  0.24783784  0.25068629  1
  Fe  Fe28  1  0.62568007  0.62690210  0.62440540  1
  Fe  Fe29  1  0.87491062  0.87048893  0.37230244  1
  Fe  Fe30  1  -0.00265829  0.00250777  0.74944881  1
  Fe  Fe31  1  0.12645480  0.12769771  0.12538273  1
  Fe  Fe32  1  0.87325199  0.62814290  0.62140567  1
  Fe  Fe33  1  0.62526458  0.87374043  0.87481107  1
  Fe  Fe34  1  0.25007158  0.00181336  0.00269110  1
  Fe  Fe35  1  0.25179786  0.49486073  0.00261336  1
  Fe  Fe36  1  0.37358940  0.12778920  0.87696020  1
  Fe  Fe37  1  0.49764695  0.49874432  0.25122453  1
  Fe  Fe38  1  0.74906056  0.24830658  0.25359937  1
  Fe  Fe39  1  0.00140967  0.74896279  0.00097407  1
  Fe  Fe40  1  0.12812147  0.12247976  0.37390856  1
  Fe  Fe41  1  0.87563888  0.86931769  0.12946693  1
  Fe  Fe42  1  -0.00230767  0.24836958  0.74779626  1
  Fe  Fe43  1  0.37380815  0.12389774  0.37257334  1
  Fe  Fe44  1  -0.00222509  0.00203193  0.00240077  1
  Fe  Fe45  1  0.00088740  -0.00101841  0.25025465  1
  Fe  Fe46  1  0.37313194  0.87607187  0.12719185  1
  Fe  Fe47  1  -0.00037537  0.74921843  0.74961650  1
  Fe  Fe48  1  0.75201098  0.50038130  0.74860769  1
  Fe  Fe49  1  0.24934762  0.25690364  0.24923636  1
  Fe  Fe50  1  0.62704244  0.12511133  0.87676086  1
  Fe  Fe51  1  0.37777699  0.37304052  0.62283670  1
  Fe  Fe52  1  0.87452885  0.12984069  0.12519731  1
  Fe  Fe53  1  0.87479759  0.87504068  0.87596498  1
  Fe  Fe54  1  0.75462848  0.50331008  0.25273952  1
  Fe  Fe55  1  0.50320941  0.75224983  0.49713385  1
  Fe  Fe56  1  0.62606220  0.62643611  0.87357151  1
  Fe  Fe57  1  0.00158987  0.25348067  0.25433617  1
  Fe  Fe58  1  0.24800879  0.74814816  0.49877275  1
  Fe  Fe59  1  0.49857889  0.00027433  0.75121570  1
  Fe  Fe60  1  0.87345151  0.37186336  0.87447766  1
  Fe  Fe61  1  0.62548291  0.87512347  0.62722378  1
  Fe  Fe62  1  0.12577574  0.87602091  0.62321764  1
  Fe  Fe63  1  0.37783157  0.12651362  0.62279149  1
  Fe  Fe64  1  0.74993303  0.50097666  0.49552496  1
  Fe  Fe65  1  0.50155185  0.75201127  0.25025666  1
  Fe  Fe66  1  0.75273045  0.00254887  0.74978596  1
  Fe  Fe67  1  0.12438463  0.62197520  0.87483470  1
  Fe  Fe68  1  0.62716504  0.37496024  0.12831965  1
  Fe  Fe69  1  0.87487506  0.62538272  0.87595977  1
  Fe  Fe70  1  0.74897319  0.74898548  0.00276939  1
  Fe  Fe71  1  0.25141244  0.00073254  0.74866296  1
  Fe  Fe72  1  0.50028988  0.49846393  -0.00020735  1
  Fe  Fe73  1  0.87398942  0.87371017  0.62306332  1
  Fe  Fe74  1  0.12304388  0.37726484  0.61995523  1
  Fe  Fe75  1  0.75182223  0.49850640  0.00222191  1
  Fe  Fe76  1  0.50095807  0.49818570  0.49833173  1
  Fe  Fe77  1  0.37457503  0.62393980  0.37388646  1
  Fe  Fe78  1  0.74974700  0.00085240  0.49915950  1
  Fe  Fe79  1  0.50047177  0.75037435  0.00194698  1
  Fe  Fe80  1  0.50762707  0.25036049  0.49675067  1
  Fe  Fe81  1  0.50088966  0.00122993  0.00560489  1
  Fe  Fe82  1  0.50190409  0.25009440  0.75005655  1
  Fe  Fe83  1  0.62791424  0.87897028  0.36822966  1
  Fe  Fe84  1  0.12505572  0.61758150  0.37614812  1
  Fe  Fe85  1  -0.00428315  0.49673016  0.00163345  1
  Fe  Fe86  1  0.87351164  0.12830216  0.37883230  1
  Fe  Fe87  1  0.49971010  0.50066182  0.74972195  1
  Fe  Fe88  1  0.62424960  0.62425455  0.12722399  1
  Fe  Fe89  1  0.12302113  0.61967299  0.12664418  1
  Co  Co90  1  0.37690255  0.37374116  0.37631170  1
  Co  Co91  1  0.87418166  0.12660231  0.87732693  1
  Co  Co92  1  0.12531306  0.87788328  0.37898448  1
  Co  Co93  1  0.75577209  0.00291054  0.24785465  1
  Co  Co94  1  0.87275244  0.37143962  0.12783582  1
  Co  Co95  1  0.25324457  0.49539063  0.24876768  1
  Co  Co96  1  -0.00547330  0.50077910  0.49915347  1
  Co  Co97  1  0.25057557  0.25404843  0.00233325  1
  Co  Co98  1  0.12100366  0.37676278  0.12620117  1
  Co  Co99  1  0.87745641  0.62814489  0.12567526  1
  Co  Co100  1  0.00608922  0.24849005  0.49621867  1
  Co  Co101  1  0.12300527  0.87612004  0.12230815  1
  Co  Co102  1  0.62518521  0.11945993  0.37188707  1
  Co  Co103  1  0.37922364  0.37392844  0.12575417  1
  Co  Co104  1  0.25443777  0.49923673  0.50151526  1
  Co  Co105  1  0.62592800  0.37765727  0.62584773  1
  Co  Co106  1  0.62689643  0.12608044  0.12673795  1
  Co  Co107  1  0.87518889  0.12727035  0.61904048  1
  Co  Co108  1  0.62643115  0.37762977  0.37082300  1
  Co  Co109  1  0.74029697  0.24727061  0.49934275  1
  Co  Co110  1  0.74524221  0.75120181  0.49663574  1
  Co  Co111  1  0.12431498  0.62342855  0.62398857  1
  Co  Co112  1  0.49806227  0.00131824  0.24724932  1
  Co  Co113  1  0.87265901  0.36989742  0.38006394  1
  Co  Co114  1  0.74865174  0.25168842  0.00060414  1
  Co  Co115  1  0.87718516  0.63098585  0.37551267  1
  Co  Co116  1  0.37179415  0.12613302  0.12788149  1
  Co  Co117  1  0.12510351  0.38193147  0.37754942  1
  Co  Co118  1  0.37588848  0.37533360  0.87413236  1
  Co  Co119  1  0.62785081  0.87538365  0.12950429  1
  Co  Co120  1  0.00738845  0.74996831  0.25222230  1
  Co  Co121  1  0.62311533  0.12042046  0.62527537  1
  Co  Co122  1  0.75128793  0.74987716  0.75014062  1
  Co  Co123  1  0.74732194  0.74432761  0.25106983  1
  Co  Co124  1  0.25155634  0.00300101  0.50177673  1
  Co  Co125  1  0.24661968  -0.00224516  0.24786472  1
  Co  Co126  1  0.62171682  0.62289353  0.37399715  1
  Co  Co127  1  0.49989328  0.74937465  0.75068549  1
