# generated using pymatgen
data_Fe45Co19
_symmetry_space_group_name_H-M   'P 1'
_cell_length_a   11.41418898
_cell_length_b   11.41536937
_cell_length_c   11.41504077
_cell_angle_alpha   90.00269905
_cell_angle_beta   90.00127187
_cell_angle_gamma   90.00101575
_symmetry_Int_Tables_number   1
_chemical_formula_structural   Fe45Co19
_chemical_formula_sum   'Fe90 Co38'
_cell_volume   1487.34765650
_cell_formula_units_Z   2
loop_
 _symmetry_equiv_pos_site_id
 _symmetry_equiv_pos_as_xyz
  1  'x, y, z'
loop_
 _atom_site_type_symbol
 _atom_site_label
 _atom_site_symmetry_multiplicity
 _atom_site_fract_x
 _atom_site_fract_y
 _atom_site_fract_z
 _atom_site_occupancy
  Fe  Fe0  1  0.00142850  0.49785525  0.74831383  1
  Fe  Fe1  1  0.75241861  0.74909061  0.50222934  1
  Fe  Fe2  1  0.24805545  0.24928519  0.75003079  1
  Fe  Fe3  1  0.74241994  0.25364393  0.24794185  1
  Fe  Fe4  1  0.87652561  0.87325644  0.12559712  1
  Fe  Fe5  1  0.87481347  0.12497187  0.37115280  1
  Fe  Fe6  1  0.62735642  0.62394885  0.37693448  1
  Fe  Fe7  1  0.49800097  0.00113903  0.00029363  1
  Fe  Fe8  1  0.49883433  0.50073211  0.50009150  1
  Fe  Fe9  1  0.50050237  0.49946975  0.75122609  1
  Fe  Fe10  1  0.62543193  0.62534367  0.62537411  1
  Fe  Fe11  1  0.12530175  0.37349618  0.62286143  1
  Fe  Fe12  1  0.12293567  0.12456551  0.12740823  1
  Fe  Fe13  1  0.87265940  0.87597204  0.37690342  1
  Fe  Fe14  1  0.37275954  0.62548219  0.37262457  1
  Fe  Fe15  1  0.87637382  0.12473517  0.87291015  1
  Fe  Fe16  1  0.12768107  0.87620281  0.87853777  1
  Fe  Fe17  1  0.50239889  0.75230520  0.25245591  1
  Fe  Fe18  1  0.12553350  0.12479060  0.62199447  1
  Fe  Fe19  1  0.37492859  0.37427925  0.37474549  1
  Fe  Fe20  1  0.37298356  0.87688137  0.87249978  1
  Fe  Fe21  1  0.74657083  -0.00157795  0.24954696  1
  Fe  Fe22  1  0.12558228  0.87471595  0.61889500  1
  Fe  Fe23  1  0.24876280  0.75132065  0.74699217  1
  Fe  Fe24  1  0.87031045  0.37694248  0.37586331  1
  Fe  Fe25  1  0.49567840  0.74690334  -0.00093863  1
  Fe  Fe26  1  0.50003212  0.75200846  0.74927101  1
  Fe  Fe27  1  0.12734100  0.62537153  0.37979048  1
  Fe  Fe28  1  -0.00092445  0.75381730  0.74871735  1
  Fe  Fe29  1  0.37288620  0.12062986  0.86988931  1
  Fe  Fe30  1  0.75118766  0.49898330  0.74813551  1
  Fe  Fe31  1  0.24827022  0.49935648  0.74829314  1
  Fe  Fe32  1  -0.00061573  0.50055711  0.25026285  1
  Fe  Fe33  1  0.62461835  0.87682824  0.62118182  1
  Fe  Fe34  1  0.75342935  0.50135242  0.00150338  1
  Fe  Fe35  1  0.74926799  0.74971937  0.24979302  1
  Fe  Fe36  1  0.00162774  -0.00213192  0.75022564  1
  Fe  Fe37  1  0.62568517  0.37526304  0.62284928  1
  Fe  Fe38  1  0.24902768  0.00273461  0.25334692  1
  Fe  Fe39  1  0.87544849  0.12531677  0.12842851  1
  Fe  Fe40  1  0.00129442  0.25199060  0.25135857  1
  Fe  Fe41  1  0.24882419  0.50033597  0.25017347  1
  Fe  Fe42  1  0.87692687  0.37211680  0.87284374  1
  Fe  Fe43  1  0.12544750  0.37604795  0.12250946  1
  Fe  Fe44  1  0.25222620  0.74721160  0.00246491  1
  Fe  Fe45  1  0.12372862  0.62477265  0.87571655  1
  Fe  Fe46  1  0.62517493  0.62599265  0.87396575  1
  Fe  Fe47  1  0.25197254  0.24702865  0.00091416  1
  Fe  Fe48  1  0.37970930  0.12491569  0.13153776  1
  Fe  Fe49  1  0.62408706  0.87440369  0.12276312  1
  Fe  Fe50  1  0.12565210  0.12384402  0.87623783  1
  Fe  Fe51  1  0.50525870  0.49610792  0.25098818  1
  Fe  Fe52  1  0.87781467  0.62747870  0.87492974  1
  Fe  Fe53  1  0.00144432  0.75067534  0.25241640  1
  Fe  Fe54  1  0.62375518  0.62398811  0.12370366  1
  Fe  Fe55  1  0.50090486  0.24965472  0.75163605  1
  Fe  Fe56  1  0.49298087  -0.00284608  0.49584004  1
  Fe  Fe57  1  0.74930160  0.24709272  0.50010184  1
  Fe  Fe58  1  0.12075845  0.62402877  0.12271360  1
  Fe  Fe59  1  0.87669345  0.12404574  0.62677265  1
  Fe  Fe60  1  0.49542628  0.75210338  0.49961086  1
  Fe  Fe61  1  0.12552705  0.37543188  0.37700438  1
  Fe  Fe62  1  0.74885859  0.24972723  0.74896072  1
  Fe  Fe63  1  0.62041490  0.12339961  0.37208910  1
  Fe  Fe64  1  0.87211334  0.62263586  0.37422658  1
  Fe  Fe65  1  0.25271079  0.24585679  0.49793169  1
  Fe  Fe66  1  -0.00225302  0.50070474  0.50288859  1
  Fe  Fe67  1  0.37358091  0.62440918  0.62652449  1
  Fe  Fe68  1  0.62669016  0.12564002  0.87831505  1
  Fe  Fe69  1  0.75154966  0.00079684  0.00186028  1
  Fe  Fe70  1  -0.00052285  -0.00099414  0.00119549  1
  Fe  Fe71  1  -0.00056367  0.00081928  0.49603416  1
  Fe  Fe72  1  0.75254870  0.74897217  0.00025247  1
  Fe  Fe73  1  0.37338072  0.87380477  0.12869189  1
  Fe  Fe74  1  0.62385773  0.37407997  0.88040628  1
  Fe  Fe75  1  0.74885633  -0.00199025  0.74924765  1
  Fe  Fe76  1  0.62505171  0.87428804  0.87727369  1
  Fe  Fe77  1  0.62158178  0.12264668  0.62401555  1
  Fe  Fe78  1  -0.00202158  0.25013576  0.49871273  1
  Fe  Fe79  1  0.12600735  0.87622699  0.12568516  1
  Fe  Fe80  1  0.87467224  0.37525791  0.12666758  1
  Fe  Fe81  1  0.37449193  0.37365880  0.62503573  1
  Fe  Fe82  1  0.25334081  0.50371753  0.00001640  1
  Fe  Fe83  1  0.12952655  0.87439156  0.37768294  1
  Fe  Fe84  1  0.00058154  0.25033317  -0.00031103  1
  Fe  Fe85  1  0.75224555  0.75404219  0.74813204  1
  Fe  Fe86  1  0.24870497  0.25063703  0.25073692  1
  Fe  Fe87  1  0.37457880  0.37547577  0.87610206  1
  Fe  Fe88  1  0.49869688  0.24964813  0.49953467  1
  Fe  Fe89  1  0.37841355  0.37620006  0.12329963  1
  Co  Co90  1  -0.00260916  0.74897124  0.49813832  1
  Co  Co91  1  0.00068433  -0.00317089  0.25209764  1
  Co  Co92  1  0.62769016  0.87424906  0.37945431  1
  Co  Co93  1  0.87424170  0.87593713  0.87648007  1
  Co  Co94  1  0.12742079  0.37569686  0.87769174  1
  Co  Co95  1  0.37951414  0.12816732  0.36892420  1
  Co  Co96  1  0.37506207  0.87884494  0.62914952  1
  Co  Co97  1  0.25105775  0.49977099  0.50103472  1
  Co  Co98  1  0.75399628  0.24938932  0.00129289  1
  Co  Co99  1  0.50586427  0.25722302  0.24944890  1
  Co  Co100  1  0.25231971  0.00188918  0.00390492  1
  Co  Co101  1  0.25517119  0.00308969  0.49744801  1
  Co  Co102  1  0.24504899  0.74596181  0.24718074  1
  Co  Co103  1  0.49653403  0.50619062  -0.00365263  1
  Co  Co104  1  0.24434433  -0.00122201  0.74671271  1
  Co  Co105  1  0.00109175  0.75337807  -0.00000491  1
  Co  Co106  1  0.37307178  0.62690305  0.86867943  1
  Co  Co107  1  0.87449994  0.37177552  0.62511748  1
  Co  Co108  1  0.12442019  0.62667525  0.62378194  1
  Co  Co109  1  0.49558199  0.24437020  -0.00224119  1
  Co  Co110  1  0.62303317  0.12486288  0.12510383  1
  Co  Co111  1  0.75172910  0.50204883  0.50498306  1
  Co  Co112  1  0.74628729  0.49832939  0.24545322  1
  Co  Co113  1  0.74958355  0.00439973  0.49843730  1
  Co  Co114  1  0.50534860  -0.00083669  0.75240059  1
  Co  Co115  1  0.62123698  0.37573705  0.11433280  1
  Co  Co116  1  0.87652175  0.62680963  0.62796871  1
  Co  Co117  1  0.36853947  0.87105096  0.36966483  1
  Co  Co118  1  0.87782900  0.62717577  0.12570781  1
  Co  Co119  1  -0.00265487  0.49722714  -0.00041171  1
  Co  Co120  1  0.25505407  0.75021787  0.50347121  1
  Co  Co121  1  0.62827451  0.37720246  0.38144762  1
  Co  Co122  1  0.37802413  0.62443091  0.13190677  1
  Co  Co123  1  0.37630357  0.12278443  0.62942637  1
  Co  Co124  1  0.12331070  0.12593513  0.37440142  1
  Co  Co125  1  0.00386915  0.25020472  0.75045721  1
  Co  Co126  1  0.50213675  -0.00667339  0.25167830  1
  Co  Co127  1  0.87503338  0.87850160  0.62134689  1
