# generated using pymatgen
data_Fe45Co19
_symmetry_space_group_name_H-M   'P 1'
_cell_length_a   11.41413689
_cell_length_b   11.41564045
_cell_length_c   11.41522679
_cell_angle_alpha   89.99143108
_cell_angle_beta   90.00618210
_cell_angle_gamma   90.00633631
_symmetry_Int_Tables_number   1
_chemical_formula_structural   Fe45Co19
_chemical_formula_sum   'Fe90 Co38'
_cell_volume   1487.40039606
_cell_formula_units_Z   2
loop_
 _symmetry_equiv_pos_site_id
 _symmetry_equiv_pos_as_xyz
  1  'x, y, z'
loop_
 _atom_site_type_symbol
 _atom_site_label
 _atom_site_symmetry_multiplicity
 _atom_site_fract_x
 _atom_site_fract_y
 _atom_site_fract_z
 _atom_site_occupancy
  Fe  Fe0  1  0.37393268  0.62663002  0.12493522  1
  Fe  Fe1  1  0.75085961  -0.00260802  0.24993096  1
  Fe  Fe2  1  0.37729020  0.37645258  0.37246112  1
  Fe  Fe3  1  -0.00263222  0.25123143  -0.00005562  1
  Fe  Fe4  1  0.49841595  0.75094133  0.49921265  1
  Fe  Fe5  1  0.37786673  0.87319532  0.87490585  1
  Fe  Fe6  1  0.62850530  0.62308466  0.12464263  1
  Fe  Fe7  1  0.50022906  0.24733089  0.75336732  1
  Fe  Fe8  1  0.87274671  0.12627570  0.37573368  1
  Fe  Fe9  1  0.12413817  0.37668021  0.62468097  1
  Fe  Fe10  1  0.24896787  0.75054772  -0.00193963  1
  Fe  Fe11  1  -0.00621870  0.50057341  -0.00200982  1
  Fe  Fe12  1  0.62532573  0.62416064  0.37515897  1
  Fe  Fe13  1  0.24974924  0.24891492  0.75080201  1
  Fe  Fe14  1  -0.00073692  0.50114705  0.25103573  1
  Fe  Fe15  1  0.12670211  0.62344253  0.37690696  1
  Fe  Fe16  1  0.12156327  0.37493240  0.12613137  1
  Fe  Fe17  1  -0.00293554  -0.00105319  0.00027867  1
  Fe  Fe18  1  0.87151739  0.63006278  0.37196539  1
  Fe  Fe19  1  0.49839545  0.50152983  0.00025642  1
  Fe  Fe20  1  0.87327541  0.12780661  0.62337438  1
  Fe  Fe21  1  0.37605334  0.12553929  0.12524545  1
  Fe  Fe22  1  0.87589538  0.37308746  0.37199884  1
  Fe  Fe23  1  0.87593833  0.87337810  0.62571020  1
  Fe  Fe24  1  0.12301032  0.87380504  0.12416941  1
  Fe  Fe25  1  0.00484349  0.74626085  0.75126039  1
  Fe  Fe26  1  0.37288195  0.62860904  0.62600924  1
  Fe  Fe27  1  0.62521833  0.12393024  0.62175769  1
  Fe  Fe28  1  0.62853989  0.12086008  0.88035940  1
  Fe  Fe29  1  -0.00034790  0.50152212  0.75249080  1
  Fe  Fe30  1  -0.00221557  -0.00014632  0.50099461  1
  Fe  Fe31  1  0.25144641  0.49886891  0.50062315  1
  Fe  Fe32  1  0.87359219  0.62767021  0.12800894  1
  Fe  Fe33  1  0.25089461  -0.00096410  0.50214358  1
  Fe  Fe34  1  0.62822063  0.62401608  0.87598243  1
  Fe  Fe35  1  0.37683966  0.87347940  0.12565367  1
  Fe  Fe36  1  0.00082060  0.00246395  0.74788802  1
  Fe  Fe37  1  0.50093295  0.00052107  0.24979539  1
  Fe  Fe38  1  0.24964456  0.49924510  0.24812195  1
  Fe  Fe39  1  0.12249697  0.87512189  0.87513324  1
  Fe  Fe40  1  0.62788859  0.37801931  0.87606980  1
  Fe  Fe41  1  0.62444297  0.37582338  0.62507532  1
  Fe  Fe42  1  0.37639056  0.12355459  0.37544260  1
  Fe  Fe43  1  0.24786652  0.75029422  0.25131308  1
  Fe  Fe44  1  0.62349885  0.87656192  0.87750881  1
  Fe  Fe45  1  0.49992267  0.24964528  0.49898458  1
  Fe  Fe46  1  0.12552257  0.37760787  0.87698702  1
  Fe  Fe47  1  0.62143577  0.37838565  0.37369456  1
  Fe  Fe48  1  0.37582329  0.62486752  0.37397393  1
  Fe  Fe49  1  0.74834041  0.25002007  0.75050556  1
  Fe  Fe50  1  0.50185085  0.75010881  0.24944252  1
  Fe  Fe51  1  0.75054643  0.49895235  0.49947258  1
  Fe  Fe52  1  0.12430602  0.87579651  0.37582545  1
  Fe  Fe53  1  0.12401708  0.62469079  0.12126063  1
  Fe  Fe54  1  0.24764397  0.24960306  0.24959523  1
  Fe  Fe55  1  0.49857180  0.00157450  0.74970330  1
  Fe  Fe56  1  0.50149046  0.24758720  -0.00084465  1
  Fe  Fe57  1  0.25072059  0.25162937  -0.00034022  1
  Fe  Fe58  1  0.87824003  0.87112194  0.12889888  1
  Fe  Fe59  1  0.87292586  0.12681054  0.12479294  1
  Fe  Fe60  1  0.75281206  0.75280714  -0.00078212  1
  Fe  Fe61  1  0.62634423  0.12309905  0.37677543  1
  Fe  Fe62  1  0.12600228  0.12396518  0.87717824  1
  Fe  Fe63  1  0.62530327  0.62479183  0.62318546  1
  Fe  Fe64  1  0.24897245  0.50145033  0.75091988  1
  Fe  Fe65  1  0.62501105  0.37763683  0.12531456  1
  Fe  Fe66  1  0.74741706  0.25132100  0.24835613  1
  Fe  Fe67  1  0.74784273  0.75087384  0.74938313  1
  Fe  Fe68  1  0.87389888  0.37456915  0.62695515  1
  Fe  Fe69  1  0.37378045  0.87236524  0.62576856  1
  Fe  Fe70  1  0.00090243  0.74964974  0.49970370  1
  Fe  Fe71  1  -0.00135697  0.49980303  0.49858339  1
  Fe  Fe72  1  0.62463119  0.87603411  0.62289057  1
  Fe  Fe73  1  0.87422390  0.62484022  0.62660407  1
  Fe  Fe74  1  0.62289658  0.87724290  0.12118439  1
  Fe  Fe75  1  0.00128759  0.25111133  0.49964125  1
  Fe  Fe76  1  0.24965590  0.25135521  0.50048984  1
  Fe  Fe77  1  0.50025548  0.50191356  0.74990785  1
  Fe  Fe78  1  0.87224581  0.12527516  0.87627217  1
  Fe  Fe79  1  0.24835883  0.00074320  0.24817386  1
  Fe  Fe80  1  0.24946261  0.00081123  0.74839476  1
  Fe  Fe81  1  0.75111298  -0.00065929  0.74941830  1
  Fe  Fe82  1  0.37693714  0.37358431  0.62750051  1
  Fe  Fe83  1  0.00059321  0.00205586  0.25014933  1
  Fe  Fe84  1  0.00155857  0.24957634  0.75123532  1
  Fe  Fe85  1  0.12480015  0.12574514  0.37632188  1
  Fe  Fe86  1  0.37794310  0.37410864  0.12580468  1
  Fe  Fe87  1  0.25165111  -0.00085292  0.00066856  1
  Fe  Fe88  1  0.62703407  0.87534792  0.37824750  1
  Fe  Fe89  1  0.37397303  0.62544365  0.87512579  1
  Co  Co90  1  0.24580873  0.74921921  0.75331681  1
  Co  Co91  1  0.50077798  0.74677258  0.00032056  1
  Co  Co92  1  -0.00245270  0.74871781  -0.00213508  1
  Co  Co93  1  0.12482052  0.37552351  0.37362286  1
  Co  Co94  1  0.62792611  0.12160344  0.12269001  1
  Co  Co95  1  0.12541701  0.12600351  0.62360758  1
  Co  Co96  1  0.37606686  0.12616406  0.62477406  1
  Co  Co97  1  0.37458203  0.87584577  0.37271748  1
  Co  Co98  1  0.75538103  0.49931946  0.00101981  1
  Co  Co99  1  0.00108282  0.24696492  0.25009636  1
  Co  Co100  1  0.74532501  0.75352954  0.24825703  1
  Co  Co101  1  0.87094103  0.62666818  0.87198919  1
  Co  Co102  1  0.74933080  0.49988788  0.74772389  1
  Co  Co103  1  0.49635977  0.00283751  0.00014672  1
  Co  Co104  1  0.37635057  0.37602271  0.87411523  1
  Co  Co105  1  0.49897517  0.50314879  0.24703304  1
  Co  Co106  1  0.12603825  0.62366967  0.62233583  1
  Co  Co107  1  0.49821182  0.50073605  0.50243858  1
  Co  Co108  1  0.37311920  0.12475865  0.87554974  1
  Co  Co109  1  0.87184695  0.37388772  0.87209547  1
  Co  Co110  1  0.75092218  0.49817664  0.25189818  1
  Co  Co111  1  0.75079889  0.75009949  0.50172722  1
  Co  Co112  1  0.50249266  0.24730735  0.24994734  1
  Co  Co113  1  0.25224912  0.49807675  0.00202285  1
  Co  Co114  1  0.12491422  0.87335578  0.62438369  1
  Co  Co115  1  0.49856421  -0.00130272  0.50069246  1
  Co  Co116  1  0.12600967  0.62241512  0.87972583  1
  Co  Co117  1  0.24972774  0.75084800  0.49751966  1
  Co  Co118  1  0.87640906  0.37451898  0.12837032  1
  Co  Co119  1  0.75381477  -0.00172266  0.50103800  1
  Co  Co120  1  0.87599441  0.87203809  0.37333326  1
  Co  Co121  1  0.75614243  -0.00549260  0.00107687  1
  Co  Co122  1  0.87719201  0.87339049  0.86975065  1
  Co  Co123  1  0.12474218  0.12543708  0.12153256  1
  Co  Co124  1  0.74840735  0.25351753  0.49911702  1
  Co  Co125  1  0.50215448  0.74937407  0.75027443  1
  Co  Co126  1  0.74949023  0.25293368  0.00213600  1
  Co  Co127  1  0.00540528  0.74853689  0.25188279  1
