# generated using pymatgen
data_Fe45Co19
_symmetry_space_group_name_H-M   'P 1'
_cell_length_a   11.41569183
_cell_length_b   11.41522794
_cell_length_c   11.41551098
_cell_angle_alpha   89.99174071
_cell_angle_beta   90.00099452
_cell_angle_gamma   89.99581832
_symmetry_Int_Tables_number   1
_chemical_formula_structural   Fe45Co19
_chemical_formula_sum   'Fe90 Co38'
_cell_volume   1487.58631605
_cell_formula_units_Z   2
loop_
 _symmetry_equiv_pos_site_id
 _symmetry_equiv_pos_as_xyz
  1  'x, y, z'
loop_
 _atom_site_type_symbol
 _atom_site_label
 _atom_site_symmetry_multiplicity
 _atom_site_fract_x
 _atom_site_fract_y
 _atom_site_fract_z
 _atom_site_occupancy
  Fe  Fe0  1  0.00014700  0.49838564  0.25018875  1
  Fe  Fe1  1  0.74782687  0.00403311  0.24824609  1
  Fe  Fe2  1  0.75076742  0.50107365  0.49898750  1
  Fe  Fe3  1  0.24830449  0.00157523  0.50313248  1
  Fe  Fe4  1  0.50133268  0.50178584  0.24894687  1
  Fe  Fe5  1  0.25160824  0.50225313  0.74902959  1
  Fe  Fe6  1  0.24991397  0.74963412  -0.00126904  1
  Fe  Fe7  1  0.12251590  0.62693484  0.62562341  1
  Fe  Fe8  1  0.25267342  0.24836050  0.50087144  1
  Fe  Fe9  1  0.12643078  0.37278892  0.12707824  1
  Fe  Fe10  1  0.37680667  0.62500342  0.87540764  1
  Fe  Fe11  1  0.37335413  0.37350116  0.12799588  1
  Fe  Fe12  1  0.62865613  0.87817381  0.37792077  1
  Fe  Fe13  1  0.87513945  0.12258550  0.37592390  1
  Fe  Fe14  1  0.50093208  0.49857115  0.74873655  1
  Fe  Fe15  1  0.12385582  0.87270821  0.12389247  1
  Fe  Fe16  1  0.49997078  0.75142849  0.74894378  1
  Fe  Fe17  1  0.87304322  0.62432929  0.87498005  1
  Fe  Fe18  1  0.75012457  0.24812168  0.49871402  1
  Fe  Fe19  1  0.87530367  0.87642968  0.12254244  1
  Fe  Fe20  1  0.12385700  0.87506404  0.37322950  1
  Fe  Fe21  1  0.25040497  0.50038283  0.49923410  1
  Fe  Fe22  1  0.62674933  0.87646615  0.87453572  1
  Fe  Fe23  1  0.62447212  0.62578069  0.37634353  1
  Fe  Fe24  1  0.12477485  0.12555995  0.37509168  1
  Fe  Fe25  1  0.62682039  0.37155738  0.12847382  1
  Fe  Fe26  1  0.62333704  0.62766299  0.62151507  1
  Fe  Fe27  1  0.49807491  0.49671770  0.49910706  1
  Fe  Fe28  1  0.75005537  0.24734361  -0.00029440  1
  Fe  Fe29  1  0.62654963  0.87462994  0.12588454  1
  Fe  Fe30  1  0.37504470  0.37513448  0.87373816  1
  Fe  Fe31  1  0.75358819  0.74827083  0.25388126  1
  Fe  Fe32  1  0.00039069  0.25201431  -0.00429539  1
  Fe  Fe33  1  0.74914301  0.50055196  0.74736641  1
  Fe  Fe34  1  0.25511981  0.24395818  0.75060209  1
  Fe  Fe35  1  0.00007716  0.25107339  0.49926771  1
  Fe  Fe36  1  0.12672667  0.37240472  0.37252062  1
  Fe  Fe37  1  0.25004764  0.49946268  0.00102898  1
  Fe  Fe38  1  0.50195302  -0.00123301  0.00212712  1
  Fe  Fe39  1  0.50002952  0.75154609  0.00033394  1
  Fe  Fe40  1  0.62465379  0.62511933  0.87525940  1
  Fe  Fe41  1  0.37679287  0.62591470  0.62255484  1
  Fe  Fe42  1  0.12377204  0.62629987  0.12574279  1
  Fe  Fe43  1  0.37346311  0.87800041  0.37468122  1
  Fe  Fe44  1  0.00110492  0.49758874  -0.00294201  1
  Fe  Fe45  1  0.49855363  0.24184980  0.25191207  1
  Fe  Fe46  1  0.74970760  0.75348622  0.74802071  1
  Fe  Fe47  1  0.75068359  0.24877862  0.75086329  1
  Fe  Fe48  1  0.49957267  0.24938985  0.00009335  1
  Fe  Fe49  1  0.25021987  0.74925327  0.25081741  1
  Fe  Fe50  1  0.12506859  0.62608194  0.87433414  1
  Fe  Fe51  1  0.75171866  -0.00171069  0.74682796  1
  Fe  Fe52  1  0.87846261  0.12074430  0.87464232  1
  Fe  Fe53  1  0.12222927  0.62614733  0.37404879  1
  Fe  Fe54  1  0.12440974  0.12776327  0.12551221  1
  Fe  Fe55  1  0.87853622  0.12544280  0.62657823  1
  Fe  Fe56  1  0.49855999  0.00103685  0.74972630  1
  Fe  Fe57  1  0.37387218  0.87813856  0.12582080  1
  Fe  Fe58  1  0.25028693  0.74920968  0.49963231  1
  Fe  Fe59  1  0.00135135  0.49708760  0.50048548  1
  Fe  Fe60  1  0.74965052  0.75024452  -0.00066752  1
  Fe  Fe61  1  0.37209552  0.87685258  0.87413497  1
  Fe  Fe62  1  0.37249729  0.37463680  0.37198596  1
  Fe  Fe63  1  0.24590996  0.00275914  -0.00347224  1
  Fe  Fe64  1  0.62668911  0.37255290  0.37261587  1
  Fe  Fe65  1  0.62389168  0.37186770  0.62444333  1
  Fe  Fe66  1  0.12715187  0.37267907  0.62841388  1
  Fe  Fe67  1  0.87332671  0.37456402  0.37281427  1
  Fe  Fe68  1  0.37431428  0.87596260  0.62538019  1
  Fe  Fe69  1  0.12104205  0.12557484  0.62964269  1
  Fe  Fe70  1  0.12682521  0.87404892  0.62844551  1
  Fe  Fe71  1  0.50082540  -0.00031046  0.49849592  1
  Fe  Fe72  1  0.62663625  0.37523275  0.87459208  1
  Fe  Fe73  1  0.87374723  0.37381270  0.62464801  1
  Fe  Fe74  1  0.49949979  0.75253789  0.25236796  1
  Fe  Fe75  1  -0.00129973  0.49578273  0.75192177  1
  Fe  Fe76  1  0.62391332  0.12382289  0.87534330  1
  Fe  Fe77  1  0.00086009  0.00037728  0.24844089  1
  Fe  Fe78  1  0.50193288  0.50046822  0.00288902  1
  Fe  Fe79  1  0.37548971  0.62596732  0.12699875  1
  Fe  Fe80  1  0.87591725  0.62476551  0.12583278  1
  Fe  Fe81  1  0.87618126  0.12504847  0.12327607  1
  Fe  Fe82  1  0.87744985  0.62777311  0.62217074  1
  Fe  Fe83  1  0.87309433  0.37369387  0.12660261  1
  Fe  Fe84  1  -0.00182642  0.75455609  0.75383620  1
  Fe  Fe85  1  0.74684616  0.50096567  0.00357289  1
  Fe  Fe86  1  0.24947207  0.00297172  0.24898855  1
  Fe  Fe87  1  0.00001855  -0.00263714  0.50169958  1
  Fe  Fe88  1  0.62154124  0.12679983  0.62311031  1
  Fe  Fe89  1  0.25017253  0.24772412  -0.00209227  1
  Co  Co90  1  0.75023300  0.24480452  0.25070759  1
  Co  Co91  1  0.24828964  0.50200393  0.24987455  1
  Co  Co92  1  0.87310686  0.87817391  0.87963375  1
  Co  Co93  1  -0.00359094  0.25577512  0.75307005  1
  Co  Co94  1  0.25151911  0.00461621  0.74998404  1
  Co  Co95  1  -0.00090682  0.24926428  0.25113895  1
  Co  Co96  1  0.74962872  0.50251031  0.25039060  1
  Co  Co97  1  0.50247143  0.00140289  0.25036408  1
  Co  Co98  1  0.12719867  0.87500168  0.87426035  1
  Co  Co99  1  0.25188989  0.74914484  0.74973509  1
  Co  Co100  1  0.37480014  0.12126609  0.12316154  1
  Co  Co101  1  -0.00057677  0.75011326  -0.00188907  1
  Co  Co102  1  0.75169506  0.00152515  0.50572625  1
  Co  Co103  1  0.11982639  0.12495497  0.86959920  1
  Co  Co104  1  0.75123147  0.74994342  0.49934322  1
  Co  Co105  1  0.00417001  -0.00031720  0.00083908  1
  Co  Co106  1  0.49930072  0.25026759  0.75172543  1
  Co  Co107  1  0.74795589  0.00156290  0.00097131  1
  Co  Co108  1  0.37419280  0.37426809  0.62674891  1
  Co  Co109  1  0.62326251  0.87592624  0.62271775  1
  Co  Co110  1  0.25165240  0.24537231  0.25033798  1
  Co  Co111  1  0.86911507  0.37726713  0.87665776  1
  Co  Co112  1  0.87354200  0.87998142  0.37502349  1
  Co  Co113  1  -0.00203892  -0.00716428  0.74957398  1
  Co  Co114  1  0.62317025  0.12509971  0.12296523  1
  Co  Co115  1  0.37830477  0.12311392  0.87865945  1
  Co  Co116  1  0.37580158  0.62489556  0.37431723  1
  Co  Co117  1  -0.00272612  0.75235888  0.24998843  1
  Co  Co118  1  0.87873236  0.62358448  0.37778737  1
  Co  Co119  1  0.13005943  0.37389618  0.87186706  1
  Co  Co120  1  0.37313761  0.12104556  0.37709433  1
  Co  Co121  1  0.00123864  0.75488097  0.49742473  1
  Co  Co122  1  0.87504374  0.87212799  0.62109413  1
  Co  Co123  1  0.62459394  0.62920951  0.12660359  1
  Co  Co124  1  0.49787338  0.25231076  0.49674983  1
  Co  Co125  1  0.62594235  0.12339002  0.37921244  1
  Co  Co126  1  0.49862211  0.75305929  0.49825916  1
  Co  Co127  1  0.37942873  0.12461794  0.62165305  1
