# generated using pymatgen
data_Fe45Co19
_symmetry_space_group_name_H-M   'P 1'
_cell_length_a   11.41476575
_cell_length_b   11.41446761
_cell_length_c   11.41653412
_cell_angle_alpha   89.99394386
_cell_angle_beta   89.99524078
_cell_angle_gamma   90.01489008
_symmetry_Int_Tables_number   1
_chemical_formula_structural   Fe45Co19
_chemical_formula_sum   'Fe90 Co38'
_cell_volume   1487.49982702
_cell_formula_units_Z   2
loop_
 _symmetry_equiv_pos_site_id
 _symmetry_equiv_pos_as_xyz
  1  'x, y, z'
loop_
 _atom_site_type_symbol
 _atom_site_label
 _atom_site_symmetry_multiplicity
 _atom_site_fract_x
 _atom_site_fract_y
 _atom_site_fract_z
 _atom_site_occupancy
  Fe  Fe0  1  0.74982800  0.49838063  0.75147972  1
  Fe  Fe1  1  0.37604802  0.62634133  0.12771817  1
  Fe  Fe2  1  0.12412613  0.63063558  0.12541030  1
  Fe  Fe3  1  0.12852343  0.87189483  0.87575006  1
  Fe  Fe4  1  0.12468146  0.87300010  0.62599713  1
  Fe  Fe5  1  -0.00259142  0.24850985  0.25033236  1
  Fe  Fe6  1  0.12590726  0.62437932  0.62703688  1
  Fe  Fe7  1  0.87448320  0.87320582  0.62675977  1
  Fe  Fe8  1  0.37747349  0.12237822  0.37569471  1
  Fe  Fe9  1  0.37599179  0.87469351  0.87698709  1
  Fe  Fe10  1  0.74894568  0.49992027  0.49978282  1
  Fe  Fe11  1  -0.00147624  0.50118763  0.24745864  1
  Fe  Fe12  1  0.87469502  0.62426030  0.62635071  1
  Fe  Fe13  1  0.37563868  0.37579718  0.87661256  1
  Fe  Fe14  1  0.00275428  0.49882441  0.50011356  1
  Fe  Fe15  1  0.74620774  0.49718450  -0.00099341  1
  Fe  Fe16  1  0.75066940  0.25291839  0.75334276  1
  Fe  Fe17  1  0.50052692  0.24883401  0.24895858  1
  Fe  Fe18  1  0.12684150  0.12715395  0.62686328  1
  Fe  Fe19  1  0.62787869  0.87265742  0.62711757  1
  Fe  Fe20  1  0.00145004  0.25410172  0.75105138  1
  Fe  Fe21  1  0.74981672  0.49828178  0.24909448  1
  Fe  Fe22  1  0.12557017  0.87371163  0.37392442  1
  Fe  Fe23  1  0.00152293  0.50208141  -0.00307450  1
  Fe  Fe24  1  0.25220143  0.74773472  0.50072737  1
  Fe  Fe25  1  0.62619840  0.62576818  0.62575549  1
  Fe  Fe26  1  0.00034982  0.00021326  -0.00131320  1
  Fe  Fe27  1  0.12679333  0.12530998  0.87373018  1
  Fe  Fe28  1  0.87259001  0.87623183  0.87283995  1
  Fe  Fe29  1  0.12620123  0.12449010  0.12506262  1
  Fe  Fe30  1  0.37784309  0.87655004  0.37697879  1
  Fe  Fe31  1  0.87700259  0.37438508  0.37514475  1
  Fe  Fe32  1  0.75124067  0.24930335  0.49820539  1
  Fe  Fe33  1  0.50110506  0.75445971  0.24799040  1
  Fe  Fe34  1  0.74778777  -0.00278111  0.25213734  1
  Fe  Fe35  1  0.62393674  0.62670318  0.87269286  1
  Fe  Fe36  1  0.49985445  0.25054744  0.50213872  1
  Fe  Fe37  1  0.87482897  0.62502974  0.37562221  1
  Fe  Fe38  1  0.49932956  0.50048224  0.50029862  1
  Fe  Fe39  1  0.25024285  0.49985765  0.49531789  1
  Fe  Fe40  1  0.25133163  0.25066600  0.25066888  1
  Fe  Fe41  1  0.87480914  0.87427506  0.12309308  1
  Fe  Fe42  1  0.24938816  0.00038616  0.50171502  1
  Fe  Fe43  1  0.50026778  0.49884823  0.25044556  1
  Fe  Fe44  1  0.50048435  -0.00194799  0.74917340  1
  Fe  Fe45  1  0.12354357  0.87179348  0.12404921  1
  Fe  Fe46  1  0.50236553  0.24861577  0.00012012  1
  Fe  Fe47  1  0.74803952  0.00139181  -0.00420882  1
  Fe  Fe48  1  0.37315155  0.87558658  0.62630561  1
  Fe  Fe49  1  0.62306008  0.12114156  0.37601661  1
  Fe  Fe50  1  0.37432685  0.62809952  0.87179374  1
  Fe  Fe51  1  0.37269744  0.12460808  0.62659560  1
  Fe  Fe52  1  0.37335515  0.12216818  0.87565895  1
  Fe  Fe53  1  0.62569294  0.12623305  0.62684968  1
  Fe  Fe54  1  0.50099021  0.49849237  0.74826950  1
  Fe  Fe55  1  0.25250859  -0.00050844  0.24743552  1
  Fe  Fe56  1  0.25046024  0.50245325  0.00103169  1
  Fe  Fe57  1  0.24663744  0.49815595  0.75215491  1
  Fe  Fe58  1  0.87525127  0.87543219  0.37724349  1
  Fe  Fe59  1  0.25047518  0.24941511  -0.00042161  1
  Fe  Fe60  1  0.50048962  0.50192272  0.00068765  1
  Fe  Fe61  1  0.62656710  0.12459281  0.12599223  1
  Fe  Fe62  1  0.62389099  0.37477630  0.37539268  1
  Fe  Fe63  1  0.75000708  -0.00017982  0.50209002  1
  Fe  Fe64  1  -0.00110973  -0.00065710  0.24972796  1
  Fe  Fe65  1  0.49908458  0.74891875  0.50382928  1
  Fe  Fe66  1  0.37687807  0.37414435  0.12454600  1
  Fe  Fe67  1  0.87466590  0.62749063  0.12189433  1
  Fe  Fe68  1  -0.00065713  0.74865073  0.49894745  1
  Fe  Fe69  1  0.87544375  0.12559217  0.62759477  1
  Fe  Fe70  1  0.12606595  0.62809852  0.37088170  1
  Fe  Fe71  1  0.62376804  0.62769165  0.37513207  1
  Fe  Fe72  1  0.87162085  0.37240696  0.12182217  1
  Fe  Fe73  1  -0.00012389  0.00149201  0.50148284  1
  Fe  Fe74  1  0.25118147  0.49898894  0.25138150  1
  Fe  Fe75  1  0.37813546  0.87823883  0.11931586  1
  Fe  Fe76  1  0.37287199  0.37665489  0.62412930  1
  Fe  Fe77  1  0.24865612  0.25235966  0.49844202  1
  Fe  Fe78  1  -0.00133863  0.74577226  0.75398771  1
  Fe  Fe79  1  0.12355561  0.12486375  0.37503336  1
  Fe  Fe80  1  0.00125058  0.00012675  0.75050195  1
  Fe  Fe81  1  0.87655621  0.37651360  0.62574078  1
  Fe  Fe82  1  0.74950422  0.75203293  0.25158081  1
  Fe  Fe83  1  -0.00127977  0.24821546  -0.00146480  1
  Fe  Fe84  1  0.12485318  0.37457169  0.12451506  1
  Fe  Fe85  1  0.74797569  0.75068861  -0.00272079  1
  Fe  Fe86  1  0.62519989  0.62594039  0.12584101  1
  Fe  Fe87  1  0.62558989  0.12471853  0.87167368  1
  Fe  Fe88  1  0.87110223  0.12503682  0.12436096  1
  Fe  Fe89  1  0.49811411  0.25209110  0.74944920  1
  Co  Co90  1  0.00192820  0.50077517  0.75335572  1
  Co  Co91  1  0.37327829  0.62104578  0.62699185  1
  Co  Co92  1  0.62191943  0.37556509  0.87503037  1
  Co  Co93  1  0.62610589  0.37429137  0.62486347  1
  Co  Co94  1  0.25426795  0.75386897  0.24756606  1
  Co  Co95  1  0.50058928  0.74682394  -0.00024449  1
  Co  Co96  1  0.49966797  -0.00127514  0.24676424  1
  Co  Co97  1  0.62163004  0.87548618  0.37842607  1
  Co  Co98  1  0.87184728  0.62214122  0.87704920  1
  Co  Co99  1  0.37749377  0.37402215  0.37484642  1
  Co  Co100  1  0.25123498  0.75063457  0.74844628  1
  Co  Co101  1  0.50351327  0.00349230  -0.00152940  1
  Co  Co102  1  0.74909761  0.25066659  0.25282042  1
  Co  Co103  1  0.12156949  0.37450650  0.37285765  1
  Co  Co104  1  0.87498090  0.12261574  0.37484694  1
  Co  Co105  1  0.87580865  0.37597057  0.87721311  1
  Co  Co106  1  0.12642748  0.37584893  0.62470860  1
  Co  Co107  1  0.74734064  0.24955689  -0.00360881  1
  Co  Co108  1  0.62336361  0.87377350  0.87455732  1
  Co  Co109  1  0.12533833  0.37449669  0.87796885  1
  Co  Co110  1  0.50093472  -0.00036810  0.50640019  1
  Co  Co111  1  0.25186271  0.25197185  0.75199447  1
  Co  Co112  1  0.37501917  0.12530221  0.12328225  1
  Co  Co113  1  0.24768803  0.00008530  0.00102859  1
  Co  Co114  1  0.49890362  0.75138454  0.74737316  1
  Co  Co115  1  0.62412398  0.37435771  0.12461080  1
  Co  Co116  1  0.25292021  0.74861895  0.00196731  1
  Co  Co117  1  -0.00408276  0.75028788  0.25095679  1
  Co  Co118  1  0.75057280  0.74970481  0.49970361  1
  Co  Co119  1  0.87594115  0.12463968  0.87329949  1
  Co  Co120  1  0.12823198  0.62780404  0.87611331  1
  Co  Co121  1  0.62564807  0.87586235  0.12081269  1
  Co  Co122  1  -0.00029752  0.24928725  0.50090456  1
  Co  Co123  1  0.24984376  -0.00131319  0.75035560  1
  Co  Co124  1  0.37719801  0.62755772  0.37315731  1
  Co  Co125  1  0.74871979  -0.00014156  0.74921873  1
  Co  Co126  1  -0.00187729  0.75064646  -0.00431066  1
  Co  Co127  1  0.75087158  0.74832517  0.75132462  1
