# generated using pymatgen
data_Fe45Co19
_symmetry_space_group_name_H-M   'P 1'
_cell_length_a   11.41590360
_cell_length_b   11.41591992
_cell_length_c   11.41488193
_cell_angle_alpha   90.01211254
_cell_angle_beta   89.99407869
_cell_angle_gamma   89.99783415
_symmetry_Int_Tables_number   1
_chemical_formula_structural   Fe45Co19
_chemical_formula_sum   'Fe90 Co38'
_cell_volume   1487.62208716
_cell_formula_units_Z   2
loop_
 _symmetry_equiv_pos_site_id
 _symmetry_equiv_pos_as_xyz
  1  'x, y, z'
loop_
 _atom_site_type_symbol
 _atom_site_label
 _atom_site_symmetry_multiplicity
 _atom_site_fract_x
 _atom_site_fract_y
 _atom_site_fract_z
 _atom_site_occupancy
  Fe  Fe0  1  -0.00122094  0.50173238  0.25432904  1
  Fe  Fe1  1  -0.00373931  0.00257900  0.75316014  1
  Fe  Fe2  1  0.00115443  0.49950461  0.75213771  1
  Fe  Fe3  1  0.75038446  0.24610294  0.50160901  1
  Fe  Fe4  1  -0.00340396  0.24780835  0.74786719  1
  Fe  Fe5  1  0.12538434  0.62590128  0.12607589  1
  Fe  Fe6  1  0.49992865  0.24961708  0.00123565  1
  Fe  Fe7  1  0.12520502  0.87717390  0.62785023  1
  Fe  Fe8  1  0.12292119  0.37469207  0.62284749  1
  Fe  Fe9  1  0.12480452  0.12455435  0.12784219  1
  Fe  Fe10  1  0.62590815  0.12518012  0.87512419  1
  Fe  Fe11  1  0.87198021  0.37676606  0.37467290  1
  Fe  Fe12  1  0.62280393  0.37411146  0.62438602  1
  Fe  Fe13  1  0.37755099  0.62281414  0.62522609  1
  Fe  Fe14  1  0.50268941  0.49984841  0.25279196  1
  Fe  Fe15  1  0.62316681  0.62339449  0.62646057  1
  Fe  Fe16  1  0.87180556  0.87890192  0.62492036  1
  Fe  Fe17  1  0.75355881  -0.00214734  -0.00063855  1
  Fe  Fe18  1  -0.00207320  0.75037140  0.49900276  1
  Fe  Fe19  1  0.50203000  0.75176597  0.50222575  1
  Fe  Fe20  1  0.24694267  0.49911186  -0.00348289  1
  Fe  Fe21  1  0.37530094  0.62329808  0.12498754  1
  Fe  Fe22  1  0.24969392  0.75025054  -0.00043330  1
  Fe  Fe23  1  0.00159537  0.49867181  -0.00275409  1
  Fe  Fe24  1  0.50097362  0.75192832  0.74989746  1
  Fe  Fe25  1  0.62647116  0.62598239  0.87473050  1
  Fe  Fe26  1  0.37862781  0.37693675  0.62140470  1
  Fe  Fe27  1  0.87536923  0.37615688  0.62331526  1
  Fe  Fe28  1  0.49792035  0.75159540  -0.00242303  1
  Fe  Fe29  1  0.62690280  0.37262948  0.12856609  1
  Fe  Fe30  1  0.37328999  0.12569647  0.37739758  1
  Fe  Fe31  1  0.87426078  0.62383959  0.12773759  1
  Fe  Fe32  1  0.37379481  0.87978432  0.62735125  1
  Fe  Fe33  1  0.49931927  0.00089934  -0.00185460  1
  Fe  Fe34  1  0.00019350  0.25088776  0.00217346  1
  Fe  Fe35  1  0.12526678  0.87524638  0.12755580  1
  Fe  Fe36  1  0.37328352  0.12477414  0.12581675  1
  Fe  Fe37  1  0.37445428  0.87622264  0.37581091  1
  Fe  Fe38  1  0.12382776  0.37535836  0.12658620  1
  Fe  Fe39  1  0.86926234  0.87334054  0.37656733  1
  Fe  Fe40  1  0.25094229  0.24441194  0.74375931  1
  Fe  Fe41  1  0.25080835  0.74955519  0.50253861  1
  Fe  Fe42  1  0.00202032  -0.00125762  0.25334935  1
  Fe  Fe43  1  0.50117798  -0.00053367  0.24908587  1
  Fe  Fe44  1  0.62550286  0.37209696  0.87230533  1
  Fe  Fe45  1  0.24603033  0.00210803  0.50124300  1
  Fe  Fe46  1  0.62926644  0.87577248  0.87247617  1
  Fe  Fe47  1  0.24781898  0.50014737  0.75033324  1
  Fe  Fe48  1  0.12413007  0.12741539  0.87414025  1
  Fe  Fe49  1  0.74883225  0.50161730  0.50004713  1
  Fe  Fe50  1  0.12511919  0.87374517  0.87211673  1
  Fe  Fe51  1  0.12902221  0.87129687  0.37354879  1
  Fe  Fe52  1  0.62898086  0.87989900  0.62795649  1
  Fe  Fe53  1  0.50154851  0.49764860  -0.00215806  1
  Fe  Fe54  1  0.87520263  0.62361092  0.62337795  1
  Fe  Fe55  1  0.37349142  0.87663338  0.12613975  1
  Fe  Fe56  1  0.50041259  0.75330662  0.24944294  1
  Fe  Fe57  1  0.87491384  0.62600222  0.87455590  1
  Fe  Fe58  1  0.12678958  0.37474193  0.37900940  1
  Fe  Fe59  1  0.12369396  0.62389973  0.62265964  1
  Fe  Fe60  1  -0.00110579  0.75227688  0.00035965  1
  Fe  Fe61  1  0.12476821  0.12760815  0.37853319  1
  Fe  Fe62  1  0.49803740  0.24571011  0.74787739  1
  Fe  Fe63  1  0.87551877  0.37314740  0.87554474  1
  Fe  Fe64  1  0.74716774  -0.00291212  0.24846835  1
  Fe  Fe65  1  0.87603572  0.12209733  0.37853541  1
  Fe  Fe66  1  0.37439864  0.37616609  0.12639630  1
  Fe  Fe67  1  -0.00169228  0.74928292  0.25259210  1
  Fe  Fe68  1  0.62944933  0.63004402  0.37371413  1
  Fe  Fe69  1  0.75379173  0.24433172  0.74664858  1
  Fe  Fe70  1  0.62737452  0.37219416  0.37434308  1
  Fe  Fe71  1  -0.00190851  0.25035555  0.25197756  1
  Fe  Fe72  1  0.62558904  0.12532253  0.37365697  1
  Fe  Fe73  1  0.37362654  0.37259144  0.87321471  1
  Fe  Fe74  1  0.37099849  0.87777823  0.87012714  1
  Fe  Fe75  1  0.50396279  0.00050410  0.49959351  1
  Fe  Fe76  1  0.75011958  0.49749522  0.00118602  1
  Fe  Fe77  1  0.24732681  0.00081486  -0.00101086  1
  Fe  Fe78  1  0.24873337  0.50091927  0.25249878  1
  Fe  Fe79  1  0.75139795  0.25072603  0.00357426  1
  Fe  Fe80  1  0.37453498  0.62628896  0.37601561  1
  Fe  Fe81  1  0.37400072  0.62470578  0.87256186  1
  Fe  Fe82  1  0.37423408  0.37338692  0.37818998  1
  Fe  Fe83  1  0.24937216  0.25015840  0.00103766  1
  Fe  Fe84  1  0.87641832  0.12205712  0.12469475  1
  Fe  Fe85  1  0.74970900  0.49974674  0.75053960  1
  Fe  Fe86  1  -0.00167997  0.74938240  0.74900186  1
  Fe  Fe87  1  0.49947866  0.24832143  0.24974892  1
  Fe  Fe88  1  0.75297393  0.75316969  0.00281314  1
  Fe  Fe89  1  0.62470538  0.62696615  0.12483574  1
  Co  Co90  1  0.88007606  0.12058289  0.61732075  1
  Co  Co91  1  0.86994512  0.62767940  0.37471356  1
  Co  Co92  1  0.62179114  0.87569180  0.12128804  1
  Co  Co93  1  0.50068694  0.49924610  0.75290857  1
  Co  Co94  1  -0.00208477  0.50098485  0.49732493  1
  Co  Co95  1  0.75035782  0.74812896  0.74817330  1
  Co  Co96  1  0.25046190  0.50094269  0.50063767  1
  Co  Co97  1  0.87591517  0.12794391  0.88031595  1
  Co  Co98  1  0.50156882  0.24832105  0.49943551  1
  Co  Co99  1  0.75388006  0.24634808  0.24977244  1
  Co  Co100  1  0.25232612  0.74899582  0.24954538  1
  Co  Co101  1  0.00256011  -0.00717830  0.49587936  1
  Co  Co102  1  0.62393351  0.12333443  0.62682245  1
  Co  Co103  1  0.12601283  0.62735412  0.37755167  1
  Co  Co104  1  0.00242394  -0.00101641  -0.00219055  1
  Co  Co105  1  0.12513811  0.36960632  0.87197664  1
  Co  Co106  1  0.87670015  0.37568613  0.12605050  1
  Co  Co107  1  0.37872840  0.11975021  0.62175341  1
  Co  Co108  1  0.24717862  0.00669202  0.74804869  1
  Co  Co109  1  0.75568806  0.00658827  0.75139888  1
  Co  Co110  1  0.12386585  0.62862554  0.87411145  1
  Co  Co111  1  0.25013651  0.74801491  0.74741258  1
  Co  Co112  1  0.25026314  0.24764296  0.50475808  1
  Co  Co113  1  0.11605312  0.12403925  0.62109680  1
  Co  Co114  1  0.74940948  0.49987595  0.24879673  1
  Co  Co115  1  0.24921777  0.00145860  0.25175561  1
  Co  Co116  1  0.24943549  0.25110038  0.25121380  1
  Co  Co117  1  0.74916683  0.75551851  0.24436508  1
  Co  Co118  1  -0.00299882  0.25408766  0.49780987  1
  Co  Co119  1  0.50322035  0.50098631  0.49541953  1
  Co  Co120  1  0.74902302  0.74978886  0.50481679  1
  Co  Co121  1  0.37452678  0.12512800  0.87612047  1
  Co  Co122  1  0.62600120  0.87325452  0.37671651  1
  Co  Co123  1  0.87498557  0.87241711  0.87244230  1
  Co  Co124  1  0.50102027  0.00070750  0.75264031  1
  Co  Co125  1  0.74677056  0.00275879  0.49975732  1
  Co  Co126  1  0.87960252  0.87882637  0.12705394  1
  Co  Co127  1  0.62638027  0.12404753  0.12371067  1
