# generated using pymatgen
data_Fe45Co19
_symmetry_space_group_name_H-M   'P 1'
_cell_length_a   11.41671203
_cell_length_b   11.41577678
_cell_length_c   11.41586897
_cell_angle_alpha   89.99289050
_cell_angle_beta   89.99880610
_cell_angle_gamma   89.99615909
_symmetry_Int_Tables_number   1
_chemical_formula_structural   Fe45Co19
_chemical_formula_sum   'Fe90 Co38'
_cell_volume   1487.83744929
_cell_formula_units_Z   2
loop_
 _symmetry_equiv_pos_site_id
 _symmetry_equiv_pos_as_xyz
  1  'x, y, z'
loop_
 _atom_site_type_symbol
 _atom_site_label
 _atom_site_symmetry_multiplicity
 _atom_site_fract_x
 _atom_site_fract_y
 _atom_site_fract_z
 _atom_site_occupancy
  Fe  Fe0  1  0.12517169  0.62644019  0.12576041  1
  Fe  Fe1  1  0.62461648  0.87605098  0.87551730  1
  Fe  Fe2  1  0.87263704  0.87397124  0.37410962  1
  Fe  Fe3  1  -0.00294719  0.49855336  0.49602313  1
  Fe  Fe4  1  -0.00044957  0.49969099  0.75236337  1
  Fe  Fe5  1  0.12295147  0.37510785  0.62496365  1
  Fe  Fe6  1  0.50034490  0.50108830  0.00018038  1
  Fe  Fe7  1  0.62631930  0.37364933  0.37315593  1
  Fe  Fe8  1  0.37240986  0.12236624  0.87403569  1
  Fe  Fe9  1  0.62150009  0.37251924  0.62770624  1
  Fe  Fe10  1  0.49907764  0.24853723  -0.00105645  1
  Fe  Fe11  1  0.37823626  0.37582917  0.12763683  1
  Fe  Fe12  1  0.24999294  0.75190102  0.25100361  1
  Fe  Fe13  1  0.75015135  0.00006853  0.74928001  1
  Fe  Fe14  1  0.75183024  0.75356826  0.00342221  1
  Fe  Fe15  1  0.37546767  0.62300748  0.62587812  1
  Fe  Fe16  1  0.25214065  0.49672922  0.49900431  1
  Fe  Fe17  1  0.25177611  -0.00568466  -0.00093184  1
  Fe  Fe18  1  -0.00309887  0.25176982  0.49668353  1
  Fe  Fe19  1  0.87313256  0.62578921  0.87476552  1
  Fe  Fe20  1  0.37505527  0.62617229  0.12575731  1
  Fe  Fe21  1  0.62738421  0.12287796  0.87781900  1
  Fe  Fe22  1  -0.00071679  0.49878280  -0.00045685  1
  Fe  Fe23  1  0.74987689  0.24912771  0.00322464  1
  Fe  Fe24  1  0.24720167  -0.00139450  0.74872755  1
  Fe  Fe25  1  0.87487914  0.12335256  0.12524633  1
  Fe  Fe26  1  0.24899824  0.49844777  0.25147350  1
  Fe  Fe27  1  0.25068779  -0.00067727  0.50016366  1
  Fe  Fe28  1  0.49830391  0.24955592  0.49897455  1
  Fe  Fe29  1  0.37544105  0.12212257  0.12566997  1
  Fe  Fe30  1  0.37643836  0.37855870  0.86913081  1
  Fe  Fe31  1  0.50069106  0.49853611  0.50044146  1
  Fe  Fe32  1  0.50042857  0.75104132  0.49913503  1
  Fe  Fe33  1  -0.00003795  -0.00062191  -0.00132809  1
  Fe  Fe34  1  -0.00055701  0.25004373  0.75458663  1
  Fe  Fe35  1  0.75189668  0.25311935  0.50112832  1
  Fe  Fe36  1  0.12642199  0.12355990  0.12284702  1
  Fe  Fe37  1  0.12618087  0.12686826  0.37717583  1
  Fe  Fe38  1  0.87585460  0.37323829  0.12793162  1
  Fe  Fe39  1  0.50105382  0.00167764  0.25416414  1
  Fe  Fe40  1  0.24957558  0.25155464  0.75017127  1
  Fe  Fe41  1  0.24992886  -0.00175316  0.25234998  1
  Fe  Fe42  1  0.62760804  0.62623408  0.87733951  1
  Fe  Fe43  1  0.86891177  0.62407271  0.37551861  1
  Fe  Fe44  1  0.12030971  0.87303048  0.62154733  1
  Fe  Fe45  1  0.87652413  0.87436758  0.87274314  1
  Fe  Fe46  1  -0.00027848  0.74933167  0.25239856  1
  Fe  Fe47  1  0.12456830  0.87249994  0.37871024  1
  Fe  Fe48  1  0.24731263  0.75029116  0.74765221  1
  Fe  Fe49  1  0.12312784  0.12656514  0.62296014  1
  Fe  Fe50  1  0.62920832  0.62725292  0.37727945  1
  Fe  Fe51  1  0.74889250  0.49891435  0.74888368  1
  Fe  Fe52  1  0.25135509  0.75440667  0.00065602  1
  Fe  Fe53  1  0.87555976  0.12583001  0.62582053  1
  Fe  Fe54  1  0.49699732  0.75239252  -0.00044990  1
  Fe  Fe55  1  0.12523945  0.62589668  0.87625604  1
  Fe  Fe56  1  0.62310194  0.87739064  0.12431260  1
  Fe  Fe57  1  -0.00052802  0.24910839  -0.00216271  1
  Fe  Fe58  1  0.75101806  -0.00011027  0.50105495  1
  Fe  Fe59  1  0.12305605  0.62522186  0.62087745  1
  Fe  Fe60  1  0.00192005  0.49966813  0.25259547  1
  Fe  Fe61  1  0.87478535  0.62656433  0.12642141  1
  Fe  Fe62  1  0.50086731  0.00176674  0.49744134  1
  Fe  Fe63  1  0.00159388  0.00233164  0.75140146  1
  Fe  Fe64  1  0.87234517  0.62507150  0.62423649  1
  Fe  Fe65  1  0.25168828  0.25225349  -0.00125643  1
  Fe  Fe66  1  -0.00018941  0.75211114  0.00158794  1
  Fe  Fe67  1  0.74641174  0.50009107  0.24622809  1
  Fe  Fe68  1  0.00180344  0.00130835  0.25231630  1
  Fe  Fe69  1  0.74959093  0.49914235  0.00361809  1
  Fe  Fe70  1  0.37680107  0.87513770  0.62513609  1
  Fe  Fe71  1  0.62505377  0.37513200  0.87503484  1
  Fe  Fe72  1  0.12355832  0.37395273  0.12504710  1
  Fe  Fe73  1  0.37610371  0.12581012  0.62470125  1
  Fe  Fe74  1  0.50200294  0.75061160  0.25163770  1
  Fe  Fe75  1  0.50127507  0.00287259  0.75034588  1
  Fe  Fe76  1  0.24985169  0.25083038  0.25076055  1
  Fe  Fe77  1  0.50339556  0.24595389  0.24978977  1
  Fe  Fe78  1  0.87232520  0.12770854  0.37323439  1
  Fe  Fe79  1  0.37418400  0.62572262  0.37586869  1
  Fe  Fe80  1  0.62479161  0.87608831  0.62375729  1
  Fe  Fe81  1  0.75035603  0.24938886  0.75025779  1
  Fe  Fe82  1  0.87756614  0.87370044  0.62529046  1
  Fe  Fe83  1  0.62820071  0.62627869  0.62272060  1
  Fe  Fe84  1  0.25376122  0.25373129  0.49939963  1
  Fe  Fe85  1  0.74784456  0.00088463  0.24904486  1
  Fe  Fe86  1  0.25054970  0.49881004  0.00020620  1
  Fe  Fe87  1  0.50271245  0.50272195  0.24894072  1
  Fe  Fe88  1  0.50236307  0.74827845  0.74981150  1
  Fe  Fe89  1  0.37370252  0.62467827  0.87216557  1
  Co  Co90  1  0.62393294  0.62897116  0.12216642  1
  Co  Co91  1  0.37740721  0.87589168  0.12893973  1
  Co  Co92  1  0.62208336  0.37436814  0.12465664  1
  Co  Co93  1  0.24643239  0.50096637  0.74803620  1
  Co  Co94  1  0.12320814  0.87398118  0.87417499  1
  Co  Co95  1  0.12730941  0.12417317  0.87660120  1
  Co  Co96  1  0.50458577  0.50415876  0.74986367  1
  Co  Co97  1  0.75302981  -0.00294167  0.00045157  1
  Co  Co98  1  0.12466491  0.37576213  0.87525076  1
  Co  Co99  1  0.62690254  0.87461467  0.37613644  1
  Co  Co100  1  0.62603602  0.12576236  0.62307155  1
  Co  Co101  1  0.62356364  0.11996069  0.12077558  1
  Co  Co102  1  0.37852151  0.37534775  0.37157544  1
  Co  Co103  1  0.75133258  0.75325723  0.50158841  1
  Co  Co104  1  0.87286724  0.12421138  0.87493433  1
  Co  Co105  1  -0.00211306  0.00193224  0.49795561  1
  Co  Co106  1  0.87269030  0.37555740  0.87565605  1
  Co  Co107  1  0.74940861  0.75131069  0.74942609  1
  Co  Co108  1  -0.00428547  0.74719943  0.49704386  1
  Co  Co109  1  0.00181542  0.24750773  0.25004106  1
  Co  Co110  1  0.74867867  0.75103790  0.24676585  1
  Co  Co111  1  0.12436734  0.37344786  0.37571902  1
  Co  Co112  1  0.49576110  -0.00076048  -0.00249044  1
  Co  Co113  1  0.62844102  0.12628994  0.37846165  1
  Co  Co114  1  0.37385099  0.12527935  0.37534727  1
  Co  Co115  1  0.87758569  0.37481181  0.62766282  1
  Co  Co116  1  0.12354576  0.87501181  0.12628619  1
  Co  Co117  1  0.25179139  0.75012151  0.50243076  1
  Co  Co118  1  0.12771811  0.62579197  0.37665778  1
  Co  Co119  1  0.49998948  0.24497280  0.75309673  1
  Co  Co120  1  0.74633976  0.24755839  0.24525198  1
  Co  Co121  1  0.37518146  0.87419675  0.86914486  1
  Co  Co122  1  0.37842567  0.37619774  0.62940656  1
  Co  Co123  1  0.37519015  0.87425674  0.37659051  1
  Co  Co124  1  0.87160061  0.37490731  0.36928358  1
  Co  Co125  1  0.87719009  0.87666596  0.12787092  1
  Co  Co126  1  0.74920016  0.49464803  0.50234556  1
  Co  Co127  1  0.00030134  0.74713013  0.74884863  1
