# generated using pymatgen
data_Fe45Co19
_symmetry_space_group_name_H-M   'P 1'
_cell_length_a   11.41600991
_cell_length_b   11.41535365
_cell_length_c   11.41490704
_cell_angle_alpha   89.99105235
_cell_angle_beta   90.00353207
_cell_angle_gamma   90.00598103
_symmetry_Int_Tables_number   1
_chemical_formula_structural   Fe45Co19
_chemical_formula_sum   'Fe90 Co38'
_cell_volume   1487.56543365
_cell_formula_units_Z   2
loop_
 _symmetry_equiv_pos_site_id
 _symmetry_equiv_pos_as_xyz
  1  'x, y, z'
loop_
 _atom_site_type_symbol
 _atom_site_label
 _atom_site_symmetry_multiplicity
 _atom_site_fract_x
 _atom_site_fract_y
 _atom_site_fract_z
 _atom_site_occupancy
  Fe  Fe0  1  0.87628104  0.87373384  0.37808483  1
  Fe  Fe1  1  0.87561286  0.87691312  0.12148763  1
  Fe  Fe2  1  0.49884819  -0.00167806  0.24983654  1
  Fe  Fe3  1  0.75050268  0.74985570  0.00003891  1
  Fe  Fe4  1  0.37516574  0.62311597  0.87742297  1
  Fe  Fe5  1  0.24829992  0.24898886  0.00179820  1
  Fe  Fe6  1  0.12348544  0.37478270  0.87618983  1
  Fe  Fe7  1  0.74816685  0.25249009  0.49646033  1
  Fe  Fe8  1  0.37617270  0.87415785  0.37722506  1
  Fe  Fe9  1  -0.00123765  0.25423244  0.24570910  1
  Fe  Fe10  1  0.87610509  0.62377191  0.87585165  1
  Fe  Fe11  1  0.75151399  0.49596876  0.25240462  1
  Fe  Fe12  1  0.00032102  0.00126523  0.75116294  1
  Fe  Fe13  1  0.87657901  0.37571917  0.87736809  1
  Fe  Fe14  1  0.49988098  0.50071282  0.74937700  1
  Fe  Fe15  1  0.25216658  0.75098552  0.25144905  1
  Fe  Fe16  1  0.00341693  0.50070548  0.49809995  1
  Fe  Fe17  1  0.37498882  0.12358303  0.62522209  1
  Fe  Fe18  1  0.74996572  0.25249525  0.75097593  1
  Fe  Fe19  1  0.25063000  0.25295551  0.75000731  1
  Fe  Fe20  1  0.74654507  0.49893693  0.49687461  1
  Fe  Fe21  1  0.12341164  0.87420213  0.62332165  1
  Fe  Fe22  1  0.37573183  0.12442002  0.87492102  1
  Fe  Fe23  1  0.12599751  0.87591118  0.12221348  1
  Fe  Fe24  1  0.87582228  0.12606256  0.37404203  1
  Fe  Fe25  1  0.62702159  0.12429898  0.12647234  1
  Fe  Fe26  1  0.37742059  0.37501891  0.37728132  1
  Fe  Fe27  1  0.50323982  0.00031639  -0.00158631  1
  Fe  Fe28  1  0.49652127  0.50154928  0.24818787  1
  Fe  Fe29  1  0.12171349  0.87353012  0.37614201  1
  Fe  Fe30  1  0.62699323  0.62766666  0.62786969  1
  Fe  Fe31  1  0.12730256  0.62556245  0.12634027  1
  Fe  Fe32  1  0.24665570  0.50096879  0.49693024  1
  Fe  Fe33  1  0.49979629  0.24975593  0.74968553  1
  Fe  Fe34  1  0.24893274  0.49850895  0.74959707  1
  Fe  Fe35  1  0.50250098  0.25079291  0.00031371  1
  Fe  Fe36  1  0.62581881  0.62723811  0.12847589  1
  Fe  Fe37  1  0.37321850  0.12388264  0.12579122  1
  Fe  Fe38  1  0.87441510  0.12513512  0.87760381  1
  Fe  Fe39  1  0.50214482  0.00031650  0.50049858  1
  Fe  Fe40  1  0.49866138  0.74721505  0.00207999  1
  Fe  Fe41  1  0.74655889  -0.00206116  0.75457905  1
  Fe  Fe42  1  0.74622219  0.49989028  -0.00071265  1
  Fe  Fe43  1  0.00004205  0.25139975  0.74978567  1
  Fe  Fe44  1  0.62599115  0.87335945  0.12700030  1
  Fe  Fe45  1  0.62263714  0.37461017  0.62364037  1
  Fe  Fe46  1  0.00162842  0.24921088  0.50101761  1
  Fe  Fe47  1  0.62441716  0.37547278  0.12741921  1
  Fe  Fe48  1  0.87635491  0.87574878  0.87860998  1
  Fe  Fe49  1  0.75224366  -0.00161322  0.25032846  1
  Fe  Fe50  1  -0.00169299  0.74853290  0.75047060  1
  Fe  Fe51  1  0.87314632  0.12351216  0.62485049  1
  Fe  Fe52  1  0.25187208  0.49961091  0.00297752  1
  Fe  Fe53  1  0.12466116  0.62503041  0.87634436  1
  Fe  Fe54  1  0.50151582  0.74832435  0.49943651  1
  Fe  Fe55  1  0.62591222  0.12413558  0.37329245  1
  Fe  Fe56  1  0.62494120  0.62910993  0.37097842  1
  Fe  Fe57  1  0.37288026  0.87524556  0.12284185  1
  Fe  Fe58  1  0.87480313  0.62622395  0.37543152  1
  Fe  Fe59  1  0.25004352  -0.00048371  0.75215066  1
  Fe  Fe60  1  0.25148760  0.74989199  0.75091008  1
  Fe  Fe61  1  0.87439259  0.62429725  0.62378726  1
  Fe  Fe62  1  0.00055601  0.49955113  0.00234612  1
  Fe  Fe63  1  0.37562758  0.87545886  0.62502122  1
  Fe  Fe64  1  0.37323749  0.62446879  0.62166018  1
  Fe  Fe65  1  0.12615013  0.12473710  0.62691842  1
  Fe  Fe66  1  0.12537685  0.62594348  0.62562141  1
  Fe  Fe67  1  0.37675778  0.37661021  0.62087264  1
  Fe  Fe68  1  0.37806722  0.37668165  0.87824319  1
  Fe  Fe69  1  0.62527991  0.12572434  0.62619237  1
  Fe  Fe70  1  0.62403586  0.87187258  0.62962412  1
  Fe  Fe71  1  0.37709856  0.87555213  0.87533986  1
  Fe  Fe72  1  0.49895570  0.24945327  0.25071501  1
  Fe  Fe73  1  0.74841602  -0.00205875  0.49904532  1
  Fe  Fe74  1  0.75011051  0.49897046  0.75078661  1
  Fe  Fe75  1  0.12441065  0.12519431  0.37092665  1
  Fe  Fe76  1  0.24748919  -0.00011637  0.49857171  1
  Fe  Fe77  1  0.12420526  0.87487848  0.87816549  1
  Fe  Fe78  1  0.25255130  0.49765421  0.25015379  1
  Fe  Fe79  1  0.24898968  0.25008117  0.49905061  1
  Fe  Fe80  1  0.87667995  0.37708557  0.62282366  1
  Fe  Fe81  1  0.12669566  0.12230328  0.12734219  1
  Fe  Fe82  1  0.87361901  0.12426927  0.12349419  1
  Fe  Fe83  1  0.37355704  0.12379723  0.37416965  1
  Fe  Fe84  1  0.62443801  0.62747135  0.87283011  1
  Fe  Fe85  1  0.74826631  0.25170979  0.00041907  1
  Fe  Fe86  1  0.87565065  0.87506832  0.62299209  1
  Fe  Fe87  1  -0.00065705  0.49719001  0.24941708  1
  Fe  Fe88  1  -0.00198416  0.75043466  0.24810957  1
  Fe  Fe89  1  0.87322205  0.62349687  0.12542839  1
  Co  Co90  1  0.24959768  0.00227711  -0.00161522  1
  Co  Co91  1  0.75493073  0.75245440  0.24967469  1
  Co  Co92  1  -0.00031324  0.74770264  0.00203950  1
  Co  Co93  1  0.12668264  0.37681369  0.12468408  1
  Co  Co94  1  0.00057397  0.00303627  0.49989954  1
  Co  Co95  1  0.50247443  0.50256096  0.00279598  1
  Co  Co96  1  0.37682328  0.37353787  0.12295032  1
  Co  Co97  1  0.62066251  0.37483665  0.37263318  1
  Co  Co98  1  -0.00012771  0.74683160  0.50061064  1
  Co  Co99  1  -0.00160656  -0.00222631  0.24914838  1
  Co  Co100  1  0.62303305  0.37575189  0.87408801  1
  Co  Co101  1  0.87212710  0.37615996  0.12210154  1
  Co  Co102  1  0.37229604  0.62630094  0.12526174  1
  Co  Co103  1  0.37467492  0.62544768  0.37560843  1
  Co  Co104  1  0.87758780  0.37414351  0.37683572  1
  Co  Co105  1  0.74836174  0.75026105  0.49964884  1
  Co  Co106  1  0.62220060  0.86947671  0.87405638  1
  Co  Co107  1  0.74677543  -0.00161937  -0.00111566  1
  Co  Co108  1  0.49539792  0.75128582  0.24908294  1
  Co  Co109  1  0.00059227  0.50058245  0.74983994  1
  Co  Co110  1  0.25046745  -0.00337001  0.25149185  1
  Co  Co111  1  0.75554699  0.75047072  0.75155672  1
  Co  Co112  1  0.75088506  0.25190714  0.25097770  1
  Co  Co113  1  0.00255561  0.00315792  0.00005788  1
  Co  Co114  1  0.12515965  0.12690023  0.87283992  1
  Co  Co115  1  0.62605032  0.12710450  0.87523523  1
  Co  Co116  1  0.25188905  0.25244482  0.24911414  1
  Co  Co117  1  0.50224243  0.00251756  0.75129402  1
  Co  Co118  1  0.62469304  0.87352778  0.37145601  1
  Co  Co119  1  0.12478535  0.62627758  0.37072955  1
  Co  Co120  1  0.50048314  0.24667588  0.49902909  1
  Co  Co121  1  0.50390347  0.50452673  0.49927734  1
  Co  Co122  1  0.24902075  0.75008530  0.49916861  1
  Co  Co123  1  0.49435086  0.74653668  0.74941652  1
  Co  Co124  1  0.00169610  0.24885852  0.00307538  1
  Co  Co125  1  0.12447233  0.37515542  0.62447137  1
  Co  Co126  1  0.12459840  0.37347134  0.37346007  1
  Co  Co127  1  0.25086263  0.74915918  -0.00152894  1
