# generated using pymatgen
data_Fe45Co19
_symmetry_space_group_name_H-M   'P 1'
_cell_length_a   11.41602928
_cell_length_b   11.41409760
_cell_length_c   11.41537649
_cell_angle_alpha   89.99528268
_cell_angle_beta   90.00485754
_cell_angle_gamma   90.00803763
_symmetry_Int_Tables_number   1
_chemical_formula_structural   Fe45Co19
_chemical_formula_sum   'Fe90 Co38'
_cell_volume   1487.46545254
_cell_formula_units_Z   2
loop_
 _symmetry_equiv_pos_site_id
 _symmetry_equiv_pos_as_xyz
  1  'x, y, z'
loop_
 _atom_site_type_symbol
 _atom_site_label
 _atom_site_symmetry_multiplicity
 _atom_site_fract_x
 _atom_site_fract_y
 _atom_site_fract_z
 _atom_site_occupancy
  Fe  Fe0  1  0.50041413  0.24299616  0.75146672  1
  Fe  Fe1  1  0.49983403  0.50388839  -0.00174972  1
  Fe  Fe2  1  0.87117263  0.62445755  0.62265257  1
  Fe  Fe3  1  0.74860676  0.75008450  0.74902841  1
  Fe  Fe4  1  0.87568603  0.12761385  0.12861861  1
  Fe  Fe5  1  0.25378753  0.00091547  0.75217945  1
  Fe  Fe6  1  0.50019976  0.50105177  0.50075679  1
  Fe  Fe7  1  0.87243218  0.62546666  0.87480251  1
  Fe  Fe8  1  0.37804944  0.37096691  0.62319091  1
  Fe  Fe9  1  0.50342831  0.74892657  0.75174494  1
  Fe  Fe10  1  0.37475182  0.37441414  0.37501054  1
  Fe  Fe11  1  0.37666472  0.87576101  0.62672526  1
  Fe  Fe12  1  0.25149734  0.50090673  0.50295336  1
  Fe  Fe13  1  0.24817201  0.25015706  0.24739880  1
  Fe  Fe14  1  -0.00007789  -0.00090487  0.75289872  1
  Fe  Fe15  1  0.25004968  0.74908668  0.75022948  1
  Fe  Fe16  1  0.75202308  -0.00080522  0.00238335  1
  Fe  Fe17  1  -0.00062934  0.50070748  0.25083246  1
  Fe  Fe18  1  0.74827473  0.00265050  0.74877618  1
  Fe  Fe19  1  0.00039514  0.75107436  0.50047875  1
  Fe  Fe20  1  0.37794960  0.86770229  0.12246353  1
  Fe  Fe21  1  0.00075664  0.50422266  -0.00147806  1
  Fe  Fe22  1  0.12404904  0.12564958  0.37302453  1
  Fe  Fe23  1  0.74818133  0.75294577  0.25133511  1
  Fe  Fe24  1  0.37407304  0.62915461  0.37611281  1
  Fe  Fe25  1  -0.00060556  -0.00159091  -0.00054965  1
  Fe  Fe26  1  0.24809811  0.25072503  0.00130240  1
  Fe  Fe27  1  0.62747436  0.12051199  0.37267908  1
  Fe  Fe28  1  0.25001892  -0.00177062  0.50005860  1
  Fe  Fe29  1  0.12818801  0.87355796  0.87786797  1
  Fe  Fe30  1  0.87471374  0.87615746  0.62505285  1
  Fe  Fe31  1  0.12360188  0.87002882  0.12380872  1
  Fe  Fe32  1  0.24830898  0.24999942  0.50154365  1
  Fe  Fe33  1  0.25031653  0.25016940  0.74952804  1
  Fe  Fe34  1  0.00062989  0.25021357  0.75007164  1
  Fe  Fe35  1  0.37444205  0.12554356  0.12294774  1
  Fe  Fe36  1  0.62350655  0.37395471  0.87615280  1
  Fe  Fe37  1  0.37628365  0.37757578  0.12480884  1
  Fe  Fe38  1  0.12486448  0.87625833  0.62552966  1
  Fe  Fe39  1  0.62388339  0.62713202  0.12447324  1
  Fe  Fe40  1  0.12594764  0.12273081  0.62545659  1
  Fe  Fe41  1  0.12747442  0.12274894  0.87745881  1
  Fe  Fe42  1  0.12343399  0.37746665  0.62677751  1
  Fe  Fe43  1  0.12660895  0.62677405  0.37517530  1
  Fe  Fe44  1  0.62586319  0.87811193  0.87399110  1
  Fe  Fe45  1  0.87799490  0.87101196  0.12528343  1
  Fe  Fe46  1  0.62594620  0.87840418  0.37634143  1
  Fe  Fe47  1  0.87405186  0.12385503  0.87605733  1
  Fe  Fe48  1  0.37332896  0.12547265  0.37553252  1
  Fe  Fe49  1  0.12442837  0.62291610  0.62800302  1
  Fe  Fe50  1  0.74948209  0.49968959  0.00044751  1
  Fe  Fe51  1  0.49601567  -0.00018947  -0.00440253  1
  Fe  Fe52  1  0.00271168  0.24998348  0.00098996  1
  Fe  Fe53  1  -0.00283797  0.00123525  0.49751342  1
  Fe  Fe54  1  0.87621385  0.37047673  0.37337499  1
  Fe  Fe55  1  0.25176599  -0.00296584  0.24672089  1
  Fe  Fe56  1  0.12529601  0.38034440  0.87230210  1
  Fe  Fe57  1  0.37703170  0.62728615  0.62509247  1
  Fe  Fe58  1  0.62306456  0.37550392  0.37477727  1
  Fe  Fe59  1  0.74836574  0.24831499  0.75225951  1
  Fe  Fe60  1  0.74902750  0.75171066  -0.00111907  1
  Fe  Fe61  1  0.25122622  0.50492293  0.24794682  1
  Fe  Fe62  1  0.62341886  0.12202455  0.12539981  1
  Fe  Fe63  1  0.49896896  0.00199065  0.50203610  1
  Fe  Fe64  1  0.12538577  0.37922558  0.12529215  1
  Fe  Fe65  1  0.87256321  0.62719343  0.37677599  1
  Fe  Fe66  1  0.87530818  0.37432334  0.12595217  1
  Fe  Fe67  1  0.50045400  0.24879792  0.24943737  1
  Fe  Fe68  1  0.62444955  0.87699652  0.62431885  1
  Fe  Fe69  1  0.87498017  0.12604993  0.62433407  1
  Fe  Fe70  1  0.62255959  0.37685824  0.12508503  1
  Fe  Fe71  1  0.62429440  0.37328196  0.62374949  1
  Fe  Fe72  1  0.37551976  0.37453852  0.87659702  1
  Fe  Fe73  1  0.50018816  0.50365318  0.25160615  1
  Fe  Fe74  1  -0.00259476  0.49805869  0.50143947  1
  Fe  Fe75  1  -0.00206953  -0.00082490  0.25110456  1
  Fe  Fe76  1  0.74992941  0.49962150  0.25054289  1
  Fe  Fe77  1  0.62114750  0.87550769  0.12481445  1
  Fe  Fe78  1  0.74803568  0.25018700  0.00188475  1
  Fe  Fe79  1  0.12574619  0.37513712  0.37536731  1
  Fe  Fe80  1  0.50118299  0.50111510  0.74978517  1
  Fe  Fe81  1  0.62709932  0.62629693  0.37978451  1
  Fe  Fe82  1  0.87628040  0.62782827  0.12567671  1
  Fe  Fe83  1  0.12592918  0.87247145  0.37402101  1
  Fe  Fe84  1  0.37476200  0.87183683  0.37590244  1
  Fe  Fe85  1  0.74889375  0.24928816  0.49783227  1
  Fe  Fe86  1  0.87557076  0.37439956  0.87551194  1
  Fe  Fe87  1  -0.00192066  0.75108207  0.75229911  1
  Fe  Fe88  1  0.74967354  0.49849998  0.74876101  1
  Fe  Fe89  1  0.25023530  0.50846355  0.00033470  1
  Co  Co90  1  0.75330021  0.00066782  0.50036892  1
  Co  Co91  1  0.50339908  0.75045348  0.25448873  1
  Co  Co92  1  0.50175978  0.24664849  0.49645669  1
  Co  Co93  1  0.87132934  0.87663767  0.87376463  1
  Co  Co94  1  -0.00157582  0.74982518  0.25452859  1
  Co  Co95  1  0.12015190  0.62885120  0.12773095  1
  Co  Co96  1  0.37427687  0.87232598  0.87433018  1
  Co  Co97  1  0.25286965  -0.00368678  0.00290110  1
  Co  Co98  1  -0.00623237  0.49960562  0.74831396  1
  Co  Co99  1  0.62813264  0.62340089  0.87461064  1
  Co  Co100  1  0.49939070  0.00429380  0.75110979  1
  Co  Co101  1  0.12492176  0.12092837  0.12475331  1
  Co  Co102  1  0.37187012  0.12659066  0.87776633  1
  Co  Co103  1  0.50277831  0.74859678  -0.00598857  1
  Co  Co104  1  0.50087227  0.24913148  0.00163575  1
  Co  Co105  1  0.00036260  0.74843735  -0.00653737  1
  Co  Co106  1  0.62594395  0.12528373  0.62241943  1
  Co  Co107  1  0.62632789  0.12245372  0.87943221  1
  Co  Co108  1  0.25137749  0.74985121  0.24764882  1
  Co  Co109  1  0.00144614  0.24923834  0.50234558  1
  Co  Co110  1  0.12470560  0.62265751  0.86833720  1
  Co  Co111  1  0.00468057  0.25141473  0.24702644  1
  Co  Co112  1  0.49580746  -0.00056339  0.25001442  1
  Co  Co113  1  0.74934921  0.75413981  0.50088314  1
  Co  Co114  1  0.75035021  0.49539629  0.49907028  1
  Co  Co115  1  0.25569077  0.49868720  0.74766553  1
  Co  Co116  1  0.87460048  0.12873912  0.37128701  1
  Co  Co117  1  0.38123136  0.62888015  0.12612761  1
  Co  Co118  1  0.50102333  0.75158700  0.50063829  1
  Co  Co119  1  0.87400794  0.87396649  0.37615838  1
  Co  Co120  1  0.62692676  0.62368436  0.62225263  1
  Co  Co121  1  0.24866367  0.75076092  0.50371631  1
  Co  Co122  1  0.74470496  0.25155806  0.24808961  1
  Co  Co123  1  0.37566098  0.62591847  0.87225437  1
  Co  Co124  1  0.37310836  0.12480643  0.62306646  1
  Co  Co125  1  0.87228391  0.37158871  0.62508627  1
  Co  Co126  1  0.24924470  0.74349044  -0.00005058  1
  Co  Co127  1  0.75335734  -0.00351233  0.24755848  1
