# generated using pymatgen
data_Fe45Co19
_symmetry_space_group_name_H-M   'P 1'
_cell_length_a   11.41582593
_cell_length_b   11.41534373
_cell_length_c   11.41403973
_cell_angle_alpha   89.99408005
_cell_angle_beta   90.00500425
_cell_angle_gamma   89.99760738
_symmetry_Int_Tables_number   1
_chemical_formula_structural   Fe45Co19
_chemical_formula_sum   'Fe90 Co38'
_cell_volume   1487.42715779
_cell_formula_units_Z   2
loop_
 _symmetry_equiv_pos_site_id
 _symmetry_equiv_pos_as_xyz
  1  'x, y, z'
loop_
 _atom_site_type_symbol
 _atom_site_label
 _atom_site_symmetry_multiplicity
 _atom_site_fract_x
 _atom_site_fract_y
 _atom_site_fract_z
 _atom_site_occupancy
  Fe  Fe0  1  0.00007303  0.49854068  -0.00196070  1
  Fe  Fe1  1  0.74883927  0.24951860  -0.00137875  1
  Fe  Fe2  1  0.12792135  0.87620829  0.62404062  1
  Fe  Fe3  1  0.25420320  0.00164775  0.74971782  1
  Fe  Fe4  1  0.37965432  0.12170378  0.38018848  1
  Fe  Fe5  1  0.74840636  0.50201203  0.00125571  1
  Fe  Fe6  1  0.12052227  0.37844420  0.62357662  1
  Fe  Fe7  1  0.87473166  0.62717891  0.87381685  1
  Fe  Fe8  1  0.12754074  0.62164890  0.37851099  1
  Fe  Fe9  1  0.87220495  0.37313065  0.37671216  1
  Fe  Fe10  1  0.62737413  0.87667586  0.12991684  1
  Fe  Fe11  1  0.12731272  0.87468166  0.12548033  1
  Fe  Fe12  1  0.38048991  0.37621490  0.62421839  1
  Fe  Fe13  1  0.25223539  0.74842939  0.25324524  1
  Fe  Fe14  1  0.00086664  0.75116606  0.50007402  1
  Fe  Fe15  1  -0.00061521  0.75266663  0.74924900  1
  Fe  Fe16  1  0.25112614  0.49794127  0.25363331  1
  Fe  Fe17  1  0.24841755  0.25221711  0.49999040  1
  Fe  Fe18  1  -0.00222188  -0.00186446  0.74951575  1
  Fe  Fe19  1  0.12915261  0.87505836  0.87505083  1
  Fe  Fe20  1  0.74905355  0.24534782  0.25251233  1
  Fe  Fe21  1  0.75079290  0.74910098  0.74666624  1
  Fe  Fe22  1  0.12492772  0.12494863  0.87502864  1
  Fe  Fe23  1  0.12308088  0.12562976  0.12510233  1
  Fe  Fe24  1  0.25159473  0.74975397  0.74654920  1
  Fe  Fe25  1  0.12293127  0.12625036  0.37528561  1
  Fe  Fe26  1  0.62568720  0.62616700  0.87409700  1
  Fe  Fe27  1  -0.00029813  -0.00149263  0.49723747  1
  Fe  Fe28  1  0.12539928  0.37385218  0.87396656  1
  Fe  Fe29  1  0.49728214  0.75185927  0.74816705  1
  Fe  Fe30  1  0.37815716  0.37503183  0.37899276  1
  Fe  Fe31  1  0.25028503  0.50065195  0.00035400  1
  Fe  Fe32  1  -0.00025908  0.25179603  0.50025600  1
  Fe  Fe33  1  0.75062207  0.49872862  0.50611117  1
  Fe  Fe34  1  0.62681210  0.62839655  0.37540294  1
  Fe  Fe35  1  0.49762534  0.75155740  0.25271645  1
  Fe  Fe36  1  0.62472823  0.12318783  0.12815751  1
  Fe  Fe37  1  0.62458534  0.87476852  0.87307868  1
  Fe  Fe38  1  0.37694376  0.62336409  0.12624039  1
  Fe  Fe39  1  0.25186911  0.24946733  0.74686069  1
  Fe  Fe40  1  -0.00027392  0.25128211  0.24987669  1
  Fe  Fe41  1  0.74985367  0.74879989  0.00423786  1
  Fe  Fe42  1  0.62551447  0.37555790  0.12661684  1
  Fe  Fe43  1  0.50111214  0.50085739  0.25343587  1
  Fe  Fe44  1  0.74763530  0.00164004  0.49086377  1
  Fe  Fe45  1  0.50115241  0.49915378  -0.00217951  1
  Fe  Fe46  1  0.25150953  0.49958663  0.74732167  1
  Fe  Fe47  1  0.00007557  0.75198270  -0.00011910  1
  Fe  Fe48  1  0.37547220  0.62421631  0.61888836  1
  Fe  Fe49  1  0.12283355  0.62173387  0.62282831  1
  Fe  Fe50  1  0.87315512  0.87531908  0.62155005  1
  Fe  Fe51  1  -0.00131327  0.24861183  0.74978293  1
  Fe  Fe52  1  0.75335267  -0.00120697  0.75193743  1
  Fe  Fe53  1  0.87367365  0.37552797  0.12498728  1
  Fe  Fe54  1  0.25046662  0.00250819  0.25157572  1
  Fe  Fe55  1  0.12529130  0.12402635  0.62468858  1
  Fe  Fe56  1  0.37121844  0.87566191  0.12377462  1
  Fe  Fe57  1  0.37421948  0.62711776  0.87569904  1
  Fe  Fe58  1  0.50859710  0.24802509  0.50603978  1
  Fe  Fe59  1  -0.00156594  0.50022747  0.25366265  1
  Fe  Fe60  1  0.50258888  0.25070696  -0.00096871  1
  Fe  Fe61  1  0.62594970  0.87789815  0.62552990  1
  Fe  Fe62  1  0.12586676  0.62610342  0.87406265  1
  Fe  Fe63  1  0.00064839  -0.00214070  -0.00021981  1
  Fe  Fe64  1  0.62423075  0.12397229  0.87178150  1
  Fe  Fe65  1  0.87181737  0.12601870  0.62148275  1
  Fe  Fe66  1  0.49471491  0.00246136  0.74652151  1
  Fe  Fe67  1  0.12380276  0.62431673  0.12573881  1
  Fe  Fe68  1  0.87384753  0.87640384  0.12967021  1
  Fe  Fe69  1  0.87569206  0.12469191  0.87602462  1
  Fe  Fe70  1  0.24944480  0.24945434  0.00010786  1
  Fe  Fe71  1  -0.00078416  0.74960013  0.25216150  1
  Fe  Fe72  1  0.74960961  0.50461043  0.24766577  1
  Fe  Fe73  1  0.74966128  -0.00055173  -0.00031454  1
  Fe  Fe74  1  0.62441582  0.37557847  0.86733063  1
  Fe  Fe75  1  0.49969206  0.75203584  0.00072672  1
  Fe  Fe76  1  0.62675909  0.37458419  0.37492673  1
  Fe  Fe77  1  0.12505431  0.37466150  0.12655347  1
  Fe  Fe78  1  0.37723572  0.37210659  0.87215665  1
  Fe  Fe79  1  0.87613977  0.12362542  0.12616616  1
  Fe  Fe80  1  0.37611007  0.12519733  0.12305141  1
  Fe  Fe81  1  0.25195572  0.24983832  0.25298033  1
  Fe  Fe82  1  0.12729866  0.87551995  0.37538294  1
  Fe  Fe83  1  0.49977794  0.75455369  0.49759262  1
  Fe  Fe84  1  0.49977049  0.25015644  0.24953881  1
  Fe  Fe85  1  0.87117136  0.62894780  0.37818288  1
  Fe  Fe86  1  0.49894490  -0.00123854  -0.00039737  1
  Fe  Fe87  1  0.37596676  0.37601351  0.12517114  1
  Fe  Fe88  1  0.87345577  0.37502082  0.87218377  1
  Fe  Fe89  1  0.62221947  0.62377682  0.62510451  1
  Co  Co90  1  0.25029685  0.74762465  0.00152061  1
  Co  Co91  1  0.75208677  0.50361700  0.74553900  1
  Co  Co92  1  0.75015153  0.24965464  0.74845278  1
  Co  Co93  1  -0.00481534  0.49980339  0.49704176  1
  Co  Co94  1  0.74979381  0.74644241  0.24504177  1
  Co  Co95  1  0.37366563  0.87965911  0.37860766  1
  Co  Co96  1  0.61722538  0.12342244  0.37168805  1
  Co  Co97  1  0.87275064  0.87239093  0.87578207  1
  Co  Co98  1  0.62688191  0.87360972  0.37063669  1
  Co  Co99  1  0.37439509  0.62293071  0.37798968  1
  Co  Co100  1  0.37413621  0.87429172  0.87504094  1
  Co  Co101  1  0.12350900  0.37480821  0.37515746  1
  Co  Co102  1  0.24916210  0.74980292  0.49894549  1
  Co  Co103  1  0.49697194  -0.00303989  0.24820851  1
  Co  Co104  1  0.37246829  0.12475331  0.61836437  1
  Co  Co105  1  0.50478206  0.50031975  0.49836809  1
  Co  Co106  1  0.25046033  0.49635685  0.50040091  1
  Co  Co107  1  0.87954199  0.62395857  0.12421059  1
  Co  Co108  1  0.87139260  0.86959631  0.37466152  1
  Co  Co109  1  0.74691830  0.75029332  0.50484473  1
  Co  Co110  1  0.87916262  0.12833961  0.37610832  1
  Co  Co111  1  -0.00096142  0.25089152  -0.00015945  1
  Co  Co112  1  -0.00064444  0.50012949  0.75237674  1
  Co  Co113  1  0.24950594  0.00177055  -0.00072723  1
  Co  Co114  1  0.37600276  0.12729022  0.87682396  1
  Co  Co115  1  0.37214977  0.87584299  0.62078076  1
  Co  Co116  1  0.24644882  0.00106244  0.49880125  1
  Co  Co117  1  0.74504507  0.24990695  0.50025665  1
  Co  Co118  1  0.62341343  0.37799498  0.63193873  1
  Co  Co119  1  0.49739879  0.50416716  0.75093041  1
  Co  Co120  1  0.61934381  0.62461917  0.12541067  1
  Co  Co121  1  0.50021991  0.24320640  0.74507630  1
  Co  Co122  1  0.87672775  0.37250084  0.62619337  1
  Co  Co123  1  0.63189243  0.11972475  0.62799901  1
  Co  Co124  1  0.00040410  -0.00209738  0.25270244  1
  Co  Co125  1  0.75216823  0.00402856  0.25700337  1
  Co  Co126  1  0.87985131  0.62697559  0.62516851  1
  Co  Co127  1  0.50500170  -0.00279122  0.50381234  1
