# generated using pymatgen
data_Fe45Co19
_symmetry_space_group_name_H-M   'P 1'
_cell_length_a   11.41501499
_cell_length_b   11.41600851
_cell_length_c   11.41509944
_cell_angle_alpha   90.00397449
_cell_angle_beta   89.99989486
_cell_angle_gamma   90.00179961
_symmetry_Int_Tables_number   1
_chemical_formula_structural   Fe45Co19
_chemical_formula_sum   'Fe90 Co38'
_cell_volume   1487.54621821
_cell_formula_units_Z   2
loop_
 _symmetry_equiv_pos_site_id
 _symmetry_equiv_pos_as_xyz
  1  'x, y, z'
loop_
 _atom_site_type_symbol
 _atom_site_label
 _atom_site_symmetry_multiplicity
 _atom_site_fract_x
 _atom_site_fract_y
 _atom_site_fract_z
 _atom_site_occupancy
  Fe  Fe0  1  0.74952370  0.49986212  0.00224406  1
  Fe  Fe1  1  0.12641071  0.37683283  0.37488322  1
  Fe  Fe2  1  0.25025755  -0.00011650  -0.00063049  1
  Fe  Fe3  1  0.12466795  0.87477312  0.62351166  1
  Fe  Fe4  1  0.25027346  -0.00157889  0.50226265  1
  Fe  Fe5  1  0.49925335  0.00310388  0.50534908  1
  Fe  Fe6  1  0.62375178  0.37325511  0.12556110  1
  Fe  Fe7  1  0.62316657  0.87648303  0.12594209  1
  Fe  Fe8  1  0.00290566  0.74899937  0.49566953  1
  Fe  Fe9  1  0.62564848  0.12494518  0.37601771  1
  Fe  Fe10  1  0.87372516  0.62480696  0.87627663  1
  Fe  Fe11  1  0.50044024  0.50026763  0.49887801  1
  Fe  Fe12  1  0.25226298  0.25021394  0.24840947  1
  Fe  Fe13  1  0.12443662  0.62305757  0.12550557  1
  Fe  Fe14  1  0.87622053  0.87392715  0.62561398  1
  Fe  Fe15  1  0.12562381  0.12428258  0.12424449  1
  Fe  Fe16  1  -0.00048504  0.25105080  0.25071605  1
  Fe  Fe17  1  0.00002511  0.25123124  0.75069689  1
  Fe  Fe18  1  -0.00012238  0.25029851  -0.00143632  1
  Fe  Fe19  1  0.62398786  0.37447284  0.37385435  1
  Fe  Fe20  1  -0.00006825  0.50166520  0.49636835  1
  Fe  Fe21  1  0.75243881  0.24789188  0.50038782  1
  Fe  Fe22  1  0.62097766  0.62629825  0.12723681  1
  Fe  Fe23  1  0.37530838  0.12485671  0.37601586  1
  Fe  Fe24  1  0.25031299  0.49801668  0.74954810  1
  Fe  Fe25  1  0.49781216  0.24507464  -0.00070446  1
  Fe  Fe26  1  0.00079637  -0.00022722  0.75047763  1
  Fe  Fe27  1  0.74843410  0.50229489  0.49906590  1
  Fe  Fe28  1  0.00133781  0.50014606  0.75150324  1
  Fe  Fe29  1  0.50163995  0.50287268  0.75152995  1
  Fe  Fe30  1  0.50323211  0.24199308  0.75031462  1
  Fe  Fe31  1  0.25225986  0.49955171  0.50064261  1
  Fe  Fe32  1  0.74994954  0.00017792  0.24973299  1
  Fe  Fe33  1  0.37645636  0.87937739  0.86920386  1
  Fe  Fe34  1  0.12598775  0.62548854  0.87607494  1
  Fe  Fe35  1  0.37418776  0.62524774  0.87635871  1
  Fe  Fe36  1  0.37611569  0.62667872  0.62615188  1
  Fe  Fe37  1  0.25052657  0.25118137  0.49921582  1
  Fe  Fe38  1  0.74787919  0.74858768  0.49960832  1
  Fe  Fe39  1  0.49762888  0.24981089  0.24996429  1
  Fe  Fe40  1  0.49968280  0.00292182  -0.00278001  1
  Fe  Fe41  1  0.12272350  0.37593671  0.12337825  1
  Fe  Fe42  1  0.25063375  0.75256368  0.24907739  1
  Fe  Fe43  1  0.62440984  0.12417052  0.12544964  1
  Fe  Fe44  1  0.87356912  0.12674257  0.12708495  1
  Fe  Fe45  1  0.75405131  0.00118992  0.50174476  1
  Fe  Fe46  1  0.75201333  -0.00155477  0.00119072  1
  Fe  Fe47  1  0.74840240  0.75119222  0.25020508  1
  Fe  Fe48  1  0.74678420  0.50136427  0.75040773  1
  Fe  Fe49  1  0.37515175  0.37148748  0.87558102  1
  Fe  Fe50  1  0.24963949  0.49714220  -0.00059881  1
  Fe  Fe51  1  0.75050899  0.75084349  0.00132979  1
  Fe  Fe52  1  0.49888954  0.50117846  0.00119353  1
  Fe  Fe53  1  0.25013905  0.75274348  0.00006766  1
  Fe  Fe54  1  0.24964954  0.75257960  0.75082400  1
  Fe  Fe55  1  0.75006225  0.25110592  0.00119942  1
  Fe  Fe56  1  0.62360946  0.87646958  0.37507611  1
  Fe  Fe57  1  0.87025915  0.12568701  0.87169804  1
  Fe  Fe58  1  0.12345836  0.12222760  0.37553744  1
  Fe  Fe59  1  0.25449123  0.49773380  0.24800688  1
  Fe  Fe60  1  0.87758203  0.87403863  0.87758798  1
  Fe  Fe61  1  -0.00287513  0.24787993  0.49911304  1
  Fe  Fe62  1  -0.00138974  -0.00039359  0.24942683  1
  Fe  Fe63  1  0.87319734  0.37392307  0.37316926  1
  Fe  Fe64  1  0.62366525  0.87517166  0.87196435  1
  Fe  Fe65  1  0.87627040  0.87556142  0.37440973  1
  Fe  Fe66  1  0.62371936  0.37403067  0.87674797  1
  Fe  Fe67  1  0.87477849  0.37551210  0.62576187  1
  Fe  Fe68  1  0.49886608  0.75075220  -0.00071567  1
  Fe  Fe69  1  0.50075670  0.74886306  0.49967274  1
  Fe  Fe70  1  0.62273498  0.87407855  0.62925281  1
  Fe  Fe71  1  0.87403720  0.62576688  0.62406629  1
  Fe  Fe72  1  0.75035144  0.49957302  0.24951122  1
  Fe  Fe73  1  0.25097127  -0.00056641  0.24981285  1
  Fe  Fe74  1  0.24883698  0.25004516  0.74946527  1
  Fe  Fe75  1  0.37789734  0.87786164  0.12563514  1
  Fe  Fe76  1  0.12368956  0.37578934  0.62368817  1
  Fe  Fe77  1  0.12803617  0.12379018  0.87573642  1
  Fe  Fe78  1  0.37682946  0.87661863  0.37533962  1
  Fe  Fe79  1  0.12351895  0.12462330  0.62346128  1
  Fe  Fe80  1  0.37803173  0.37143701  0.62522662  1
  Fe  Fe81  1  0.62404748  0.37350249  0.62436149  1
  Fe  Fe82  1  0.12585994  0.62473216  0.62397312  1
  Fe  Fe83  1  0.00219334  0.74994456  0.25164247  1
  Fe  Fe84  1  0.37722060  0.62461198  0.37127374  1
  Fe  Fe85  1  0.00094154  0.74950369  0.75185647  1
  Fe  Fe86  1  0.87404737  0.37613033  0.87563511  1
  Fe  Fe87  1  0.87773528  0.62405471  0.12625516  1
  Fe  Fe88  1  0.25020820  0.75069899  0.49811498  1
  Fe  Fe89  1  0.12074114  0.87662763  0.12173941  1
  Co  Co90  1  0.49936266  0.75286098  0.24979374  1
  Co  Co91  1  0.63070683  0.12369640  0.87618351  1
  Co  Co92  1  0.87579395  0.12395362  0.37214466  1
  Co  Co93  1  0.37465199  0.12273428  0.12434033  1
  Co  Co94  1  0.62306238  0.62410483  0.37164989  1
  Co  Co95  1  0.37556230  0.37420446  0.37697053  1
  Co  Co96  1  0.37180445  0.12709574  0.62436338  1
  Co  Co97  1  0.00063292  0.49900768  -0.00213904  1
  Co  Co98  1  0.62624327  0.62663081  0.87792472  1
  Co  Co99  1  0.12446303  0.87833096  0.37491615  1
  Co  Co100  1  0.37525359  0.62652421  0.12408333  1
  Co  Co101  1  -0.00217503  0.49853902  0.25304008  1
  Co  Co102  1  0.50015747  0.74635606  0.75212123  1
  Co  Co103  1  0.00036492  0.74693740  0.00066396  1
  Co  Co104  1  0.50153991  0.24776229  0.49994482  1
  Co  Co105  1  0.75020097  -0.00448286  0.75027635  1
  Co  Co106  1  0.37000759  0.12405411  0.87454030  1
  Co  Co107  1  0.74836482  0.24925734  0.25005584  1
  Co  Co108  1  0.24805787  -0.00135418  0.74661218  1
  Co  Co109  1  0.87335755  0.62718423  0.37475624  1
  Co  Co110  1  0.87365441  0.12529492  0.62996339  1
  Co  Co111  1  0.37778360  0.87391896  0.62794264  1
  Co  Co112  1  0.37573310  0.37304510  0.12074684  1
  Co  Co113  1  0.12867592  0.62242033  0.37262587  1
  Co  Co114  1  0.12263236  0.87683629  0.87795730  1
  Co  Co115  1  -0.00336532  0.00488371  -0.00031023  1
  Co  Co116  1  0.87628011  0.37431062  0.12495952  1
  Co  Co117  1  0.75063972  0.74928235  0.75119844  1
  Co  Co118  1  0.50049642  0.00195597  0.25116382  1
  Co  Co119  1  0.63199278  0.12542645  0.62499742  1
  Co  Co120  1  0.50135987  0.00742090  0.74796606  1
  Co  Co121  1  0.74749898  0.25434493  0.74979078  1
  Co  Co122  1  0.49778804  0.49655696  0.24818791  1
  Co  Co123  1  0.87722369  0.87427560  0.12583417  1
  Co  Co124  1  0.62523356  0.62677335  0.62558292  1
  Co  Co125  1  0.24918387  0.25011854  0.00197120  1
  Co  Co126  1  0.12644676  0.37386819  0.87484289  1
  Co  Co127  1  -0.00248896  0.00082762  0.50121060  1
