# generated using pymatgen
data_Fe45Co19
_symmetry_space_group_name_H-M   'P 1'
_cell_length_a   11.41563928
_cell_length_b   11.41503127
_cell_length_c   11.41595844
_cell_angle_alpha   89.98682267
_cell_angle_beta   90.00282559
_cell_angle_gamma   89.98400257
_symmetry_Int_Tables_number   1
_chemical_formula_structural   Fe45Co19
_chemical_formula_sum   'Fe90 Co38'
_cell_volume   1487.61206839
_cell_formula_units_Z   2
loop_
 _symmetry_equiv_pos_site_id
 _symmetry_equiv_pos_as_xyz
  1  'x, y, z'
loop_
 _atom_site_type_symbol
 _atom_site_label
 _atom_site_symmetry_multiplicity
 _atom_site_fract_x
 _atom_site_fract_y
 _atom_site_fract_z
 _atom_site_occupancy
  Fe  Fe0  1  0.87441857  0.87593256  0.37541786  1
  Fe  Fe1  1  -0.00061784  0.24883866  -0.00067529  1
  Fe  Fe2  1  0.00249604  0.50077872  0.25007834  1
  Fe  Fe3  1  0.37620950  0.87429062  0.62833210  1
  Fe  Fe4  1  0.12490213  0.12447021  0.12431527  1
  Fe  Fe5  1  0.12823887  0.87306687  0.12370580  1
  Fe  Fe6  1  0.49679993  -0.00325189  0.00109583  1
  Fe  Fe7  1  0.62380599  0.62574425  0.87580097  1
  Fe  Fe8  1  0.25000315  0.24966982  0.25085980  1
  Fe  Fe9  1  0.87344771  0.37508836  0.87652734  1
  Fe  Fe10  1  0.75053096  0.49855965  0.49973649  1
  Fe  Fe11  1  0.25331001  0.50104840  -0.00268595  1
  Fe  Fe12  1  0.25061125  0.00081878  -0.00105040  1
  Fe  Fe13  1  0.00060073  0.25036419  0.74955077  1
  Fe  Fe14  1  0.00265500  0.74839387  0.25279027  1
  Fe  Fe15  1  0.25059025  -0.00145739  0.25200253  1
  Fe  Fe16  1  0.00090157  0.49701432  0.74870250  1
  Fe  Fe17  1  0.74648496  0.75333093  0.74693193  1
  Fe  Fe18  1  0.87488475  0.87914371  0.87084711  1
  Fe  Fe19  1  0.37585671  0.12428262  0.87170229  1
  Fe  Fe20  1  0.25089227  0.49929561  0.50134734  1
  Fe  Fe21  1  0.00028994  0.00089701  0.25085865  1
  Fe  Fe22  1  0.50230351  -0.00171640  0.74942733  1
  Fe  Fe23  1  0.25200565  0.25017484  0.49937771  1
  Fe  Fe24  1  0.37332901  0.62984341  0.12675837  1
  Fe  Fe25  1  0.25173723  0.24876716  0.75112683  1
  Fe  Fe26  1  0.37606890  0.37465758  0.62929471  1
  Fe  Fe27  1  0.37660752  0.62647289  0.63051945  1
  Fe  Fe28  1  0.74736242  0.24856791  0.75317925  1
  Fe  Fe29  1  0.49858698  0.24925427  0.50010831  1
  Fe  Fe30  1  0.49599955  0.75419119  -0.00280363  1
  Fe  Fe31  1  0.74686290  0.49830749  0.75159105  1
  Fe  Fe32  1  -0.00075224  0.50073919  -0.00010996  1
  Fe  Fe33  1  0.25018298  0.74813426  0.49969206  1
  Fe  Fe34  1  0.87441890  0.62483794  0.87277821  1
  Fe  Fe35  1  0.37579633  0.87310229  0.37509596  1
  Fe  Fe36  1  0.87598194  0.62343004  0.37598692  1
  Fe  Fe37  1  0.37531433  0.62664046  0.86850455  1
  Fe  Fe38  1  0.87529476  0.12601834  0.62605364  1
  Fe  Fe39  1  -0.00189231  0.00257743  0.50006649  1
  Fe  Fe40  1  0.62332699  0.37410732  0.11871931  1
  Fe  Fe41  1  0.50203480  0.75536703  0.24919548  1
  Fe  Fe42  1  0.12493144  0.62527187  0.87416605  1
  Fe  Fe43  1  0.62446197  0.62759663  0.12143673  1
  Fe  Fe44  1  0.87500363  0.12523253  0.12675492  1
  Fe  Fe45  1  0.87482832  0.87470797  0.12583596  1
  Fe  Fe46  1  0.62399251  0.12310241  0.37251087  1
  Fe  Fe47  1  0.75231525  0.00104802  0.00115963  1
  Fe  Fe48  1  0.87812327  0.12176871  0.87352934  1
  Fe  Fe49  1  0.24693822  0.00117437  0.74793467  1
  Fe  Fe50  1  0.49991261  0.50079818  0.50230556  1
  Fe  Fe51  1  0.49856661  0.00069264  0.49908920  1
  Fe  Fe52  1  0.74753304  0.25161403  0.25137481  1
  Fe  Fe53  1  0.25320154  0.24825488  -0.00106880  1
  Fe  Fe54  1  0.12738890  0.37395243  0.87515397  1
  Fe  Fe55  1  0.74794546  0.75214935  0.25127787  1
  Fe  Fe56  1  0.75200661  0.75113378  -0.00183368  1
  Fe  Fe57  1  0.87454804  0.62412558  0.62572202  1
  Fe  Fe58  1  0.87398462  0.62490199  0.12468326  1
  Fe  Fe59  1  0.50214933  0.49895417  0.24847252  1
  Fe  Fe60  1  0.37681306  0.37523720  0.37372297  1
  Fe  Fe61  1  0.87401984  0.37448257  0.12421850  1
  Fe  Fe62  1  0.74669463  0.49889818  0.24915986  1
  Fe  Fe63  1  0.62433838  0.62535470  0.37639997  1
  Fe  Fe64  1  0.12357950  0.87453797  0.62215542  1
  Fe  Fe65  1  0.37728007  0.12334332  0.12882557  1
  Fe  Fe66  1  0.12773383  0.62781393  0.12294279  1
  Fe  Fe67  1  0.62291233  0.12314272  0.87677380  1
  Fe  Fe68  1  0.00037285  0.75215169  0.74774093  1
  Fe  Fe69  1  0.37626986  0.12551786  0.37247795  1
  Fe  Fe70  1  0.50210195  0.74963613  0.50359525  1
  Fe  Fe71  1  -0.00045668  0.49312870  0.50200993  1
  Fe  Fe72  1  0.12564164  0.37399942  0.12431566  1
  Fe  Fe73  1  0.25272308  0.00103954  0.50103757  1
  Fe  Fe74  1  0.37646740  0.62586517  0.37390579  1
  Fe  Fe75  1  0.62373415  0.12478023  0.62446937  1
  Fe  Fe76  1  0.62381580  0.12294039  0.12679414  1
  Fe  Fe77  1  0.75055089  -0.00073518  0.50121580  1
  Fe  Fe78  1  0.12535829  0.87707503  0.87558590  1
  Fe  Fe79  1  0.12460089  0.87551048  0.37750952  1
  Fe  Fe80  1  0.12375763  0.62439413  0.62357342  1
  Fe  Fe81  1  0.74999930  0.75157423  0.50265307  1
  Fe  Fe82  1  0.12464048  0.12879151  0.62180589  1
  Fe  Fe83  1  0.75229332  0.25124057  0.49771273  1
  Fe  Fe84  1  0.62551636  0.37442983  0.62389530  1
  Fe  Fe85  1  0.37695666  0.37442321  0.12346091  1
  Fe  Fe86  1  0.24937365  0.50146013  0.25130306  1
  Fe  Fe87  1  -0.00085415  0.75122439  -0.00148865  1
  Fe  Fe88  1  0.62029084  0.37441120  0.88063362  1
  Fe  Fe89  1  0.00086343  0.24832875  0.25534302  1
  Co  Co90  1  0.12435740  0.12554322  0.87580505  1
  Co  Co91  1  0.87158425  0.37288888  0.62802219  1
  Co  Co92  1  0.37636549  0.12442024  0.62746453  1
  Co  Co93  1  0.24899981  0.49967255  0.74989652  1
  Co  Co94  1  0.37704473  0.37374097  0.87376919  1
  Co  Co95  1  0.62693955  0.87739104  0.87698723  1
  Co  Co96  1  0.12724508  0.37140993  0.62573971  1
  Co  Co97  1  0.00432532  0.00088146  0.74693827  1
  Co  Co98  1  0.50229607  0.25210025  0.24977169  1
  Co  Co99  1  0.49699659  0.24582871  0.00090968  1
  Co  Co100  1  -0.00241852  0.25167492  0.49772592  1
  Co  Co101  1  0.37288163  0.87626147  0.86938359  1
  Co  Co102  1  0.49984817  -0.00511803  0.24977801  1
  Co  Co103  1  0.62605493  0.62306835  0.62503731  1
  Co  Co104  1  0.62627125  0.87512036  0.12076391  1
  Co  Co105  1  -0.00244904  0.75114690  0.50028635  1
  Co  Co106  1  0.25223421  0.74938766  -0.00499806  1
  Co  Co107  1  0.12370793  0.62199484  0.37987486  1
  Co  Co108  1  0.50300204  0.49830030  0.74974431  1
  Co  Co109  1  0.62300890  0.87848982  0.62344988  1
  Co  Co110  1  0.75083333  0.50143302  -0.00021124  1
  Co  Co111  1  0.50236908  0.25018710  0.74958117  1
  Co  Co112  1  0.50522204  0.75259091  0.74983754  1
  Co  Co113  1  0.74741816  0.00217791  0.74870640  1
  Co  Co114  1  0.74926429  -0.00265877  0.24949151  1
  Co  Co115  1  0.62325522  0.37551975  0.37824690  1
  Co  Co116  1  0.24699948  0.74943172  0.25581750  1
  Co  Co117  1  0.12730934  0.12483142  0.37753261  1
  Co  Co118  1  0.62501894  0.87572472  0.37843141  1
  Co  Co119  1  0.87524138  0.37666769  0.37197587  1
  Co  Co120  1  0.75077399  0.24623219  -0.00116414  1
  Co  Co121  1  0.12664008  0.37455873  0.37496349  1
  Co  Co122  1  0.49563937  0.50430288  -0.00011333  1
  Co  Co123  1  0.87213200  0.12369704  0.37484812  1
  Co  Co124  1  0.37017403  0.87291365  0.12570136  1
  Co  Co125  1  0.24553221  0.75083158  0.74786888  1
  Co  Co126  1  0.87493304  0.87794378  0.62716901  1
  Co  Co127  1  -0.00015504  -0.00086121  0.00195925  1
