# generated using pymatgen
data_Fe45Co19
_symmetry_space_group_name_H-M   'P 1'
_cell_length_a   11.41525490
_cell_length_b   11.41500010
_cell_length_c   11.41442340
_cell_angle_alpha   89.99638676
_cell_angle_beta   89.99578397
_cell_angle_gamma   90.00511532
_symmetry_Int_Tables_number   1
_chemical_formula_structural   Fe45Co19
_chemical_formula_sum   'Fe90 Co38'
_cell_volume   1487.35797810
_cell_formula_units_Z   2
loop_
 _symmetry_equiv_pos_site_id
 _symmetry_equiv_pos_as_xyz
  1  'x, y, z'
loop_
 _atom_site_type_symbol
 _atom_site_label
 _atom_site_symmetry_multiplicity
 _atom_site_fract_x
 _atom_site_fract_y
 _atom_site_fract_z
 _atom_site_occupancy
  Fe  Fe0  1  0.12683669  0.37432378  0.37472764  1
  Fe  Fe1  1  0.50144374  0.50143905  -0.00273784  1
  Fe  Fe2  1  0.50159398  0.50588034  0.75016319  1
  Fe  Fe3  1  0.87528337  0.37226215  0.62712241  1
  Fe  Fe4  1  0.12066218  0.87231352  0.63088921  1
  Fe  Fe5  1  0.12527134  0.12384453  0.12132016  1
  Fe  Fe6  1  0.25040984  0.74517010  0.74948046  1
  Fe  Fe7  1  0.75243780  0.00604600  0.74751577  1
  Fe  Fe8  1  0.37665983  0.37717254  0.87409074  1
  Fe  Fe9  1  0.00096982  0.25105090  0.49990487  1
  Fe  Fe10  1  0.62616496  0.37479506  0.37466826  1
  Fe  Fe11  1  -0.00102990  0.24751071  0.24961823  1
  Fe  Fe12  1  0.38087930  0.12190399  0.62407415  1
  Fe  Fe13  1  0.87456904  0.12263562  0.11930092  1
  Fe  Fe14  1  0.50089257  0.75491914  0.49857420  1
  Fe  Fe15  1  0.87741635  0.62725958  0.62482396  1
  Fe  Fe16  1  0.87897277  0.87619678  0.62863575  1
  Fe  Fe17  1  0.87452362  0.12266377  0.37714020  1
  Fe  Fe18  1  0.24775142  0.75128830  0.50280285  1
  Fe  Fe19  1  0.24848186  0.00085883  0.75051941  1
  Fe  Fe20  1  0.50137905  -0.00316905  -0.00149443  1
  Fe  Fe21  1  0.00049258  0.00104394  0.25007443  1
  Fe  Fe22  1  0.87313948  0.37438719  0.37430960  1
  Fe  Fe23  1  0.00320896  -0.00272626  -0.00968817  1
  Fe  Fe24  1  0.87158981  0.37531167  0.87270584  1
  Fe  Fe25  1  0.74869370  0.00046841  0.24931873  1
  Fe  Fe26  1  0.75156499  0.75422271  0.49967990  1
  Fe  Fe27  1  0.62165872  0.12243747  0.37658933  1
  Fe  Fe28  1  0.00109920  0.50008525  0.50072993  1
  Fe  Fe29  1  0.50156811  0.50046347  0.50186322  1
  Fe  Fe30  1  0.87470815  0.87895948  0.12331501  1
  Fe  Fe31  1  0.37673390  0.12289637  0.12252359  1
  Fe  Fe32  1  0.25299991  -0.00131940  0.24774240  1
  Fe  Fe33  1  0.12534345  0.37410262  0.12639379  1
  Fe  Fe34  1  0.74938893  0.50100706  0.50172191  1
  Fe  Fe35  1  -0.00193607  0.75147634  0.24868348  1
  Fe  Fe36  1  0.12571331  0.87496926  0.37351058  1
  Fe  Fe37  1  0.12058039  0.12598941  0.62900310  1
  Fe  Fe38  1  0.74722923  0.25136790  -0.00193761  1
  Fe  Fe39  1  0.74762069  0.24705465  0.50400929  1
  Fe  Fe40  1  0.37355193  0.62538750  0.37924698  1
  Fe  Fe41  1  0.12694546  0.37273390  0.87149852  1
  Fe  Fe42  1  0.37398790  0.12335874  0.87589337  1
  Fe  Fe43  1  0.24985381  0.50351220  0.74714876  1
  Fe  Fe44  1  0.74816310  -0.00145558  0.50166901  1
  Fe  Fe45  1  0.00124227  -0.00231283  0.49997095  1
  Fe  Fe46  1  0.24888814  -0.00136024  0.50424404  1
  Fe  Fe47  1  0.74793972  0.49921191  0.00003841  1
  Fe  Fe48  1  0.87951451  0.62361476  0.11949633  1
  Fe  Fe49  1  0.12520324  0.62668302  0.37539737  1
  Fe  Fe50  1  0.49995482  0.50238957  0.25006312  1
  Fe  Fe51  1  0.37487456  0.37561083  0.37613643  1
  Fe  Fe52  1  0.75057032  0.24832479  0.24934907  1
  Fe  Fe53  1  0.24837437  0.50015311  0.00129506  1
  Fe  Fe54  1  0.25266566  0.25118301  0.00074039  1
  Fe  Fe55  1  0.62171259  0.37379381  0.12382072  1
  Fe  Fe56  1  0.12120062  0.62721396  0.87831248  1
  Fe  Fe57  1  0.49952545  0.74758468  0.75373818  1
  Fe  Fe58  1  0.74782273  0.50309294  0.74948216  1
  Fe  Fe59  1  0.62244701  0.62960662  0.12439634  1
  Fe  Fe60  1  0.75190411  0.75084193  -0.00022435  1
  Fe  Fe61  1  0.25233451  0.25011797  0.74707563  1
  Fe  Fe62  1  0.62871333  0.87469250  0.87291606  1
  Fe  Fe63  1  0.62276759  0.12539914  0.12484175  1
  Fe  Fe64  1  0.37583618  0.87435939  0.62759384  1
  Fe  Fe65  1  0.50134262  0.24825064  0.75194705  1
  Fe  Fe66  1  0.25021864  0.74975808  0.00114063  1
  Fe  Fe67  1  0.00093768  0.50118489  0.75034054  1
  Fe  Fe68  1  0.62426449  0.87585324  0.62924624  1
  Fe  Fe69  1  0.25185445  0.25094624  0.50400104  1
  Fe  Fe70  1  0.37709844  0.62683548  0.12179915  1
  Fe  Fe71  1  0.87479850  0.62682958  0.37531836  1
  Fe  Fe72  1  0.87494447  0.37450976  0.12483727  1
  Fe  Fe73  1  0.37642518  0.12154170  0.37814655  1
  Fe  Fe74  1  0.00006956  0.25106644  -0.00364728  1
  Fe  Fe75  1  0.25253434  0.24965796  0.24823538  1
  Fe  Fe76  1  0.12741236  0.12445818  0.37524758  1
  Fe  Fe77  1  0.12614858  0.87525496  0.12252955  1
  Fe  Fe78  1  0.75292056  0.74571315  0.75118062  1
  Fe  Fe79  1  0.24868469  0.49925375  0.50573169  1
  Fe  Fe80  1  0.62682452  0.12378945  0.87488546  1
  Fe  Fe81  1  0.62742058  0.62948583  0.37459770  1
  Fe  Fe82  1  0.37150945  0.87460496  0.87587982  1
  Fe  Fe83  1  0.25059383  0.50155939  0.24685902  1
  Fe  Fe84  1  0.74959305  0.50186423  0.24751195  1
  Fe  Fe85  1  0.62123492  0.87052070  0.12961406  1
  Fe  Fe86  1  0.62385277  0.37398643  0.62767270  1
  Fe  Fe87  1  0.00086470  0.50030140  0.24923550  1
  Fe  Fe88  1  0.25255151  0.75032184  0.24821608  1
  Fe  Fe89  1  0.49802440  0.25046645  0.25030641  1
  Co  Co90  1  -0.00053390  0.75204166  0.49845290  1
  Co  Co91  1  0.61876203  0.12180169  0.62492966  1
  Co  Co92  1  0.62384715  0.37624571  0.87268170  1
  Co  Co93  1  0.49354405  0.74929803  0.25432052  1
  Co  Co94  1  0.62820317  0.62627744  0.87695275  1
  Co  Co95  1  0.37729123  0.62714413  0.62302913  1
  Co  Co96  1  0.12129481  0.62762014  0.62552643  1
  Co  Co97  1  -0.00313619  0.24777848  0.75390954  1
  Co  Co98  1  0.37338513  0.62456444  0.87711054  1
  Co  Co99  1  0.75616612  0.74876442  0.24693318  1
  Co  Co100  1  0.00250674  0.49444258  -0.00138559  1
  Co  Co101  1  -0.00296729  0.75668478  -0.00382042  1
  Co  Co102  1  0.12912674  0.12845686  0.87437556  1
  Co  Co103  1  0.37865399  0.37716490  0.62810546  1
  Co  Co104  1  0.87997975  0.12430774  0.62407697  1
  Co  Co105  1  0.50005064  0.25163913  0.50074606  1
  Co  Co106  1  0.37701350  0.87333042  0.12119068  1
  Co  Co107  1  0.49846890  -0.00170262  0.75481866  1
  Co  Co108  1  0.00082345  0.00077947  0.75791993  1
  Co  Co109  1  0.62794807  0.87320043  0.36901207  1
  Co  Co110  1  0.50215428  -0.00728810  0.49911961  1
  Co  Co111  1  0.86843005  0.87797936  0.87313130  1
  Co  Co112  1  0.62482500  0.62899944  0.62288005  1
  Co  Co113  1  0.37756562  0.37683884  0.12288122  1
  Co  Co114  1  0.37075541  0.87703031  0.37737069  1
  Co  Co115  1  -0.00355473  0.75025986  0.75661296  1
  Co  Co116  1  0.74393514  -0.00270813  0.00205942  1
  Co  Co117  1  0.87577112  0.62161582  0.87846000  1
  Co  Co118  1  0.13090756  0.87082440  0.87260923  1
  Co  Co119  1  0.12320170  0.37349914  0.62737131  1
  Co  Co120  1  0.87078941  0.12412980  0.87935605  1
  Co  Co121  1  0.50111570  0.75283937  -0.00647253  1
  Co  Co122  1  0.49988071  0.24788827  -0.00304224  1
  Co  Co123  1  0.49745378  -0.00181706  0.24960347  1
  Co  Co124  1  0.24985912  -0.00047648  -0.00139136  1
  Co  Co125  1  0.74868192  0.24551099  0.74805655  1
  Co  Co126  1  0.87467036  0.87743063  0.37358989  1
  Co  Co127  1  0.12204451  0.62728818  0.12225650  1
