# generated using pymatgen
data_Fe45Co19
_symmetry_space_group_name_H-M   'P 1'
_cell_length_a   11.41476273
_cell_length_b   11.41530889
_cell_length_c   11.41431696
_cell_angle_alpha   90.00426756
_cell_angle_beta   90.00592947
_cell_angle_gamma   90.00288798
_symmetry_Int_Tables_number   1
_chemical_formula_structural   Fe45Co19
_chemical_formula_sum   'Fe90 Co38'
_cell_volume   1487.32021392
_cell_formula_units_Z   2
loop_
 _symmetry_equiv_pos_site_id
 _symmetry_equiv_pos_as_xyz
  1  'x, y, z'
loop_
 _atom_site_type_symbol
 _atom_site_label
 _atom_site_symmetry_multiplicity
 _atom_site_fract_x
 _atom_site_fract_y
 _atom_site_fract_z
 _atom_site_occupancy
  Fe  Fe0  1  0.62509704  0.62460822  0.12544641  1
  Fe  Fe1  1  0.87233660  0.87407373  0.87305327  1
  Fe  Fe2  1  0.62717403  0.37939183  0.63040861  1
  Fe  Fe3  1  0.74842987  0.74629150  0.74407728  1
  Fe  Fe4  1  0.37589876  0.12472844  0.37846106  1
  Fe  Fe5  1  0.24941209  0.75100996  0.50195050  1
  Fe  Fe6  1  0.75274710  0.24837091  0.24811457  1
  Fe  Fe7  1  0.38220013  0.62312958  0.62201414  1
  Fe  Fe8  1  0.00251663  0.49359921  0.50160693  1
  Fe  Fe9  1  0.50260882  0.50009219  0.25605804  1
  Fe  Fe10  1  -0.00096405  0.25313459  0.50427210  1
  Fe  Fe11  1  0.00001740  0.00046862  0.25240169  1
  Fe  Fe12  1  0.87681307  0.62142939  0.62349155  1
  Fe  Fe13  1  0.74903237  0.74904004  -0.00114868  1
  Fe  Fe14  1  0.37335126  0.37534438  0.62442766  1
  Fe  Fe15  1  0.50149308  0.00028014  0.25135980  1
  Fe  Fe16  1  0.12804489  0.37349632  0.87180476  1
  Fe  Fe17  1  0.87739626  0.62510549  0.12241475  1
  Fe  Fe18  1  0.62583569  0.87633551  0.87104387  1
  Fe  Fe19  1  0.24612134  -0.00095998  0.50194089  1
  Fe  Fe20  1  0.24886755  0.24967933  0.50049971  1
  Fe  Fe21  1  0.25245123  0.24469780  0.74934512  1
  Fe  Fe22  1  0.87492231  0.87346452  0.12407472  1
  Fe  Fe23  1  0.24915200  0.00175874  -0.00092522  1
  Fe  Fe24  1  -0.00013641  0.25189162  0.00156391  1
  Fe  Fe25  1  0.12311024  0.12741084  0.87580804  1
  Fe  Fe26  1  0.87171210  0.37058196  0.86919588  1
  Fe  Fe27  1  0.00097958  0.74954727  0.25134270  1
  Fe  Fe28  1  0.75128529  0.24733844  0.50368890  1
  Fe  Fe29  1  0.37667175  0.62566279  0.87544993  1
  Fe  Fe30  1  0.24779808  0.74574003  0.25081306  1
  Fe  Fe31  1  0.37586765  0.12411142  0.12296954  1
  Fe  Fe32  1  0.24659948  0.50363230  0.25270142  1
  Fe  Fe33  1  0.62101027  0.12302293  0.62411801  1
  Fe  Fe34  1  0.50075306  -0.00364372  0.50042954  1
  Fe  Fe35  1  0.50097992  0.25462609  0.50037168  1
  Fe  Fe36  1  0.62525486  0.87451849  0.12564716  1
  Fe  Fe37  1  0.87400765  0.37251999  0.37578037  1
  Fe  Fe38  1  0.12344507  0.62467427  0.62429488  1
  Fe  Fe39  1  0.25195062  0.50280963  0.74971203  1
  Fe  Fe40  1  0.12312321  0.62545777  0.87445424  1
  Fe  Fe41  1  0.12489580  0.87465907  0.12570178  1
  Fe  Fe42  1  0.00122771  0.75486736  0.50121829  1
  Fe  Fe43  1  0.50035216  0.25168145  0.00145345  1
  Fe  Fe44  1  0.87752959  0.62445679  0.37792762  1
  Fe  Fe45  1  0.12841192  0.87321366  0.86982717  1
  Fe  Fe46  1  0.62398130  0.12645779  0.87633983  1
  Fe  Fe47  1  -0.00033911  0.49567770  0.74841938  1
  Fe  Fe48  1  0.50056524  -0.00104956  -0.00024405  1
  Fe  Fe49  1  0.37300734  0.87776647  0.63060392  1
  Fe  Fe50  1  0.50048302  0.49734357  -0.00212761  1
  Fe  Fe51  1  0.37476349  0.87483849  0.12559823  1
  Fe  Fe52  1  0.37229129  0.37464134  0.37449552  1
  Fe  Fe53  1  0.74968712  0.00207313  0.25196290  1
  Fe  Fe54  1  0.75217318  0.74836245  0.25160604  1
  Fe  Fe55  1  0.00101948  0.49828977  0.25134672  1
  Fe  Fe56  1  0.49873824  0.25039856  0.24957975  1
  Fe  Fe57  1  0.75118109  0.00119726  0.00044024  1
  Fe  Fe58  1  0.37171383  0.87500359  0.37411131  1
  Fe  Fe59  1  0.62667491  0.37593429  0.12578159  1
  Fe  Fe60  1  0.24831429  0.74803956  -0.00002884  1
  Fe  Fe61  1  -0.00138073  0.75125194  0.74764877  1
  Fe  Fe62  1  0.49906031  0.74943518  0.25270037  1
  Fe  Fe63  1  0.24865322  0.24785698  0.24846120  1
  Fe  Fe64  1  0.74972467  0.50149651  0.25263932  1
  Fe  Fe65  1  0.12658346  0.37636634  0.12478879  1
  Fe  Fe66  1  0.74972870  0.00529004  0.74872933  1
  Fe  Fe67  1  0.24881525  0.50004381  0.49893420  1
  Fe  Fe68  1  0.24875385  0.00293678  0.24998655  1
  Fe  Fe69  1  0.75062580  0.49927928  -0.00327495  1
  Fe  Fe70  1  0.37283426  0.87667181  0.87029244  1
  Fe  Fe71  1  0.37253208  0.37721342  0.12551387  1
  Fe  Fe72  1  0.87340189  0.87777607  0.37909909  1
  Fe  Fe73  1  0.87697428  0.12466389  0.12472701  1
  Fe  Fe74  1  -0.00072477  0.49706889  -0.00208754  1
  Fe  Fe75  1  0.50098660  0.75162153  -0.00183104  1
  Fe  Fe76  1  0.62290793  0.62292861  0.87052462  1
  Fe  Fe77  1  -0.00000451  0.00078396  0.75084120  1
  Fe  Fe78  1  -0.00087386  -0.00251446  -0.00238161  1
  Fe  Fe79  1  0.87323629  0.88092444  0.62300306  1
  Fe  Fe80  1  0.62430758  0.12772718  0.37487002  1
  Fe  Fe81  1  0.12272430  0.12523705  0.62522368  1
  Fe  Fe82  1  0.37220181  0.37279431  0.87621115  1
  Fe  Fe83  1  0.62851076  0.87154131  0.37900487  1
  Fe  Fe84  1  0.49829515  0.24903535  0.74987528  1
  Fe  Fe85  1  0.87706324  0.62663764  0.87501234  1
  Fe  Fe86  1  0.12167918  0.12770268  0.37520030  1
  Fe  Fe87  1  0.74673074  0.50156718  0.49930625  1
  Fe  Fe88  1  0.37604321  0.62349113  0.12479866  1
  Fe  Fe89  1  0.75026298  0.24987092  0.00104013  1
  Co  Co90  1  0.12245835  0.62585218  0.38009781  1
  Co  Co91  1  0.37691889  0.12496917  0.87869556  1
  Co  Co92  1  0.86964924  0.37594768  0.62689168  1
  Co  Co93  1  0.74817164  0.00535484  0.49890454  1
  Co  Co94  1  0.37593645  0.62470122  0.37839269  1
  Co  Co95  1  0.12690734  0.87385610  0.37318083  1
  Co  Co96  1  0.75246467  0.50415233  0.75147090  1
  Co  Co97  1  0.12684430  0.87538393  0.63072031  1
  Co  Co98  1  0.37692377  0.12437515  0.61971788  1
  Co  Co99  1  0.87621369  0.12812850  0.87469621  1
  Co  Co100  1  0.62781032  0.87636324  0.62510136  1
  Co  Co101  1  0.12569132  0.37297227  0.37496362  1
  Co  Co102  1  0.12206808  0.12360887  0.12363388  1
  Co  Co103  1  0.49746600  0.75583272  0.50194285  1
  Co  Co104  1  0.00412014  -0.00149819  0.49920543  1
  Co  Co105  1  0.49947618  0.00246219  0.74970142  1
  Co  Co106  1  0.50306954  0.49353880  0.49457675  1
  Co  Co107  1  0.50121775  0.75193054  0.74900247  1
  Co  Co108  1  0.75264599  0.74704264  0.50486713  1
  Co  Co109  1  0.13049286  0.37446329  0.62816376  1
  Co  Co110  1  0.87773345  0.12739356  0.37648397  1
  Co  Co111  1  0.25160060  0.74384569  0.74796167  1
  Co  Co112  1  0.25038127  0.00823844  0.74931071  1
  Co  Co113  1  0.24958147  0.50149193  -0.00174904  1
  Co  Co114  1  0.87909953  0.12179902  0.62416301  1
  Co  Co115  1  0.00001041  0.25239434  0.24755726  1
  Co  Co116  1  -0.00042687  0.25208296  0.74564913  1
  Co  Co117  1  0.62926541  0.37018683  0.37304198  1
  Co  Co118  1  0.12115334  0.62391100  0.12214896  1
  Co  Co119  1  0.74908856  0.24430284  0.74630285  1
  Co  Co120  1  0.61863416  0.62125772  0.62379420  1
  Co  Co121  1  0.62734148  0.37314964  0.87176544  1
  Co  Co122  1  0.49612092  0.49668218  0.75245331  1
  Co  Co123  1  0.87337197  0.37681161  0.12506034  1
  Co  Co124  1  0.24898322  0.24895411  0.00224579  1
  Co  Co125  1  0.00141818  0.75346955  -0.00186621  1
  Co  Co126  1  0.62477948  0.12503697  0.12492363  1
  Co  Co127  1  0.62362348  0.63052904  0.37942050  1
