# generated using pymatgen
data_Fe45Co19
_symmetry_space_group_name_H-M   'P 1'
_cell_length_a   11.41370510
_cell_length_b   11.41551566
_cell_length_c   11.41484327
_cell_angle_alpha   89.99269499
_cell_angle_beta   90.00803044
_cell_angle_gamma   89.99827081
_symmetry_Int_Tables_number   1
_chemical_formula_structural   Fe45Co19
_chemical_formula_sum   'Fe90 Co38'
_cell_volume   1487.27790611
_cell_formula_units_Z   2
loop_
 _symmetry_equiv_pos_site_id
 _symmetry_equiv_pos_as_xyz
  1  'x, y, z'
loop_
 _atom_site_type_symbol
 _atom_site_label
 _atom_site_symmetry_multiplicity
 _atom_site_fract_x
 _atom_site_fract_y
 _atom_site_fract_z
 _atom_site_occupancy
  Fe  Fe0  1  0.87581344  0.12707472  0.37671364  1
  Fe  Fe1  1  0.12680574  0.37839133  0.12792917  1
  Fe  Fe2  1  -0.00152716  0.74964250  0.74919627  1
  Fe  Fe3  1  0.25388565  0.74928764  0.24922250  1
  Fe  Fe4  1  -0.00238002  -0.00043922  0.75124942  1
  Fe  Fe5  1  0.12541377  0.62493377  0.87253262  1
  Fe  Fe6  1  0.62551408  0.12597664  0.12619285  1
  Fe  Fe7  1  0.87199301  0.37751986  0.12582694  1
  Fe  Fe8  1  0.12895382  0.11999719  0.13132375  1
  Fe  Fe9  1  0.12416100  0.12525198  0.87358999  1
  Fe  Fe10  1  0.62598259  0.87605302  0.12639919  1
  Fe  Fe11  1  0.50141523  0.00202681  -0.00073933  1
  Fe  Fe12  1  0.37517038  0.62574800  0.87544792  1
  Fe  Fe13  1  0.24854683  0.75140041  -0.00140402  1
  Fe  Fe14  1  0.50258343  0.74808547  0.00131700  1
  Fe  Fe15  1  0.25106117  -0.00220443  0.75237332  1
  Fe  Fe16  1  0.62085433  0.37607156  0.62752150  1
  Fe  Fe17  1  0.12492120  0.87552305  0.62589471  1
  Fe  Fe18  1  0.49893556  0.00229710  0.74996201  1
  Fe  Fe19  1  0.49929387  0.50240276  0.25099920  1
  Fe  Fe20  1  -0.00120253  0.50098179  -0.00029283  1
  Fe  Fe21  1  0.12469258  0.87530584  0.37187306  1
  Fe  Fe22  1  0.74683814  0.49922659  0.49876606  1
  Fe  Fe23  1  0.49706550  0.75065414  0.74629924  1
  Fe  Fe24  1  0.12603524  0.37439488  0.37304768  1
  Fe  Fe25  1  0.87603236  0.87412959  0.62162707  1
  Fe  Fe26  1  0.75049771  0.74889530  0.24907334  1
  Fe  Fe27  1  0.87434008  0.62463959  0.62283290  1
  Fe  Fe28  1  0.62538998  0.37665337  0.87217988  1
  Fe  Fe29  1  0.24509922  0.24719632  0.50060202  1
  Fe  Fe30  1  0.12416771  0.37471254  0.87525525  1
  Fe  Fe31  1  0.62137511  0.87885100  0.62305939  1
  Fe  Fe32  1  0.62531599  0.12583528  0.37270561  1
  Fe  Fe33  1  0.62806842  0.62255949  0.12681322  1
  Fe  Fe34  1  0.87466853  0.37350155  0.37638317  1
  Fe  Fe35  1  0.62714209  0.62473759  0.87060806  1
  Fe  Fe36  1  0.50223276  0.24764944  0.50028110  1
  Fe  Fe37  1  0.74911717  0.25258841  0.00040004  1
  Fe  Fe38  1  0.12693710  0.62441785  0.62648604  1
  Fe  Fe39  1  0.24956367  -0.00282318  -0.00170303  1
  Fe  Fe40  1  0.87547790  0.12705091  0.62261645  1
  Fe  Fe41  1  0.24872995  0.00201495  0.49854709  1
  Fe  Fe42  1  0.37640688  0.87439822  0.12224458  1
  Fe  Fe43  1  0.74707445  0.25084632  0.50088010  1
  Fe  Fe44  1  0.25342437  0.75316160  0.74959338  1
  Fe  Fe45  1  0.50126635  0.25034962  0.00106476  1
  Fe  Fe46  1  0.62155443  0.61986815  0.62706584  1
  Fe  Fe47  1  0.87315191  0.12329828  0.12394649  1
  Fe  Fe48  1  0.00015824  0.75101944  0.00203415  1
  Fe  Fe49  1  0.74593062  0.74913857  0.50197926  1
  Fe  Fe50  1  -0.00111667  0.50140565  0.25101358  1
  Fe  Fe51  1  0.00028413  0.24884487  0.24991719  1
  Fe  Fe52  1  0.50256985  0.50038497  -0.00099663  1
  Fe  Fe53  1  -0.00364968  0.49867305  0.74971626  1
  Fe  Fe54  1  0.00139283  0.50009010  0.49997570  1
  Fe  Fe55  1  0.38071507  0.87260866  0.37940663  1
  Fe  Fe56  1  0.12411435  0.37422875  0.62543389  1
  Fe  Fe57  1  0.37428966  0.37368692  0.37577299  1
  Fe  Fe58  1  0.87313801  0.87242823  0.87663882  1
  Fe  Fe59  1  0.62714080  0.12688228  0.87208303  1
  Fe  Fe60  1  0.25564594  0.49501631  0.74999135  1
  Fe  Fe61  1  0.12486584  0.62624210  0.37474069  1
  Fe  Fe62  1  0.74702180  0.00136816  0.49973124  1
  Fe  Fe63  1  0.37439036  0.12735449  0.62639663  1
  Fe  Fe64  1  0.37276825  0.12675117  0.37300272  1
  Fe  Fe65  1  0.75172970  -0.00099541  0.74955641  1
  Fe  Fe66  1  0.74834236  -0.00075181  -0.00204799  1
  Fe  Fe67  1  0.24877168  0.25008494  0.00268394  1
  Fe  Fe68  1  0.62098839  0.87289499  0.37595184  1
  Fe  Fe69  1  0.25049956  0.75020559  0.50202100  1
  Fe  Fe70  1  0.12577012  0.62554538  0.12709350  1
  Fe  Fe71  1  0.00099295  0.24925866  0.00194928  1
  Fe  Fe72  1  0.49773063  0.00027488  0.24984862  1
  Fe  Fe73  1  -0.00281420  0.75138209  0.24796710  1
  Fe  Fe74  1  0.75333671  0.25248058  0.74970011  1
  Fe  Fe75  1  0.62571378  0.37465450  0.37027179  1
  Fe  Fe76  1  0.37495080  0.37862226  0.12431536  1
  Fe  Fe77  1  0.24905235  0.50092449  -0.00063014  1
  Fe  Fe78  1  0.87517491  0.87391674  0.37668201  1
  Fe  Fe79  1  0.37380140  0.12739069  0.87625218  1
  Fe  Fe80  1  0.00084487  -0.00219860  0.00182798  1
  Fe  Fe81  1  0.25174114  0.49977482  0.49991139  1
  Fe  Fe82  1  0.37926543  0.62689956  0.37787322  1
  Fe  Fe83  1  0.00400589  0.00266007  0.49807428  1
  Fe  Fe84  1  0.62449204  0.87283274  0.87331570  1
  Fe  Fe85  1  0.87025018  0.62559101  0.87592908  1
  Fe  Fe86  1  0.87423898  0.62571915  0.37720483  1
  Fe  Fe87  1  0.75091640  0.00062529  0.25168238  1
  Fe  Fe88  1  0.49778769  0.24936683  0.24690512  1
  Fe  Fe89  1  -0.00205847  0.25093002  0.75031830  1
  Co  Co90  1  0.87408728  0.62322665  0.12302341  1
  Co  Co91  1  0.00568630  0.24760028  0.49840500  1
  Co  Co92  1  0.49780576  0.25100052  0.75239243  1
  Co  Co93  1  0.37595936  0.87929220  0.62142292  1
  Co  Co94  1  0.25190185  0.50264243  0.25276943  1
  Co  Co95  1  0.37479458  0.62239711  0.62394940  1
  Co  Co96  1  0.87639431  0.37358059  0.62005829  1
  Co  Co97  1  0.62255543  0.62810962  0.37436724  1
  Co  Co98  1  0.25724686  -0.00540880  0.25257393  1
  Co  Co99  1  0.50075545  0.49824819  0.49683272  1
  Co  Co100  1  0.37742913  0.37136132  0.62051220  1
  Co  Co101  1  0.75090787  0.50258433  0.25236403  1
  Co  Co102  1  0.12701020  0.12347479  0.36722924  1
  Co  Co103  1  0.25122254  0.25282733  0.24705125  1
  Co  Co104  1  0.49342185  0.49728089  0.75243039  1
  Co  Co105  1  0.37937651  0.87420451  0.87713789  1
  Co  Co106  1  0.50140841  0.74778001  0.50608791  1
  Co  Co107  1  0.62641892  0.12627658  0.62856695  1
  Co  Co108  1  0.50046291  0.00653510  0.49922721  1
  Co  Co109  1  0.87500163  0.12523032  0.87684462  1
  Co  Co110  1  0.62524944  0.37542074  0.12908544  1
  Co  Co111  1  0.12215057  0.87411303  0.87366986  1
  Co  Co112  1  0.75354610  0.49795795  0.74870358  1
  Co  Co113  1  0.74748392  0.74963755  0.00147195  1
  Co  Co114  1  -0.00402068  -0.00083291  0.25010778  1
  Co  Co115  1  0.12459349  0.12411065  0.63042282  1
  Co  Co116  1  0.00287797  0.74964622  0.50075750  1
  Co  Co117  1  0.49958183  0.74887966  0.24531673  1
  Co  Co118  1  0.87177181  0.87647118  0.12372057  1
  Co  Co119  1  0.25070020  0.25375520  0.75087124  1
  Co  Co120  1  0.37358419  0.12327402  0.12368166  1
  Co  Co121  1  0.87570455  0.37547990  0.87807337  1
  Co  Co122  1  0.74732148  0.49841782  -0.00067445  1
  Co  Co123  1  0.37449411  0.37315223  0.88101607  1
  Co  Co124  1  0.75197378  0.24807277  0.24945115  1
  Co  Co125  1  0.37405400  0.62342400  0.12253709  1
  Co  Co126  1  0.74876604  0.75131400  0.74501849  1
  Co  Co127  1  0.12727439  0.87511330  0.12822327  1
