# generated using pymatgen
data_Fe45Co19
_symmetry_space_group_name_H-M   'P 1'
_cell_length_a   11.41532132
_cell_length_b   11.41548018
_cell_length_c   11.41651607
_cell_angle_alpha   90.00175633
_cell_angle_beta   89.99892175
_cell_angle_gamma   90.00321968
_symmetry_Int_Tables_number   1
_chemical_formula_structural   Fe45Co19
_chemical_formula_sum   'Fe90 Co38'
_cell_volume   1487.70189463
_cell_formula_units_Z   2
loop_
 _symmetry_equiv_pos_site_id
 _symmetry_equiv_pos_as_xyz
  1  'x, y, z'
loop_
 _atom_site_type_symbol
 _atom_site_label
 _atom_site_symmetry_multiplicity
 _atom_site_fract_x
 _atom_site_fract_y
 _atom_site_fract_z
 _atom_site_occupancy
  Fe  Fe0  1  0.50102592  -0.00056789  0.74959871  1
  Fe  Fe1  1  0.62388633  0.37760036  0.62242570  1
  Fe  Fe2  1  0.37769606  0.37393890  0.37612240  1
  Fe  Fe3  1  0.75020717  0.74999788  0.25224045  1
  Fe  Fe4  1  0.74736229  0.25024658  0.75114350  1
  Fe  Fe5  1  0.12333292  0.87563582  0.62729757  1
  Fe  Fe6  1  0.50168143  0.75042184  -0.00088858  1
  Fe  Fe7  1  0.87455071  0.37286293  0.87464719  1
  Fe  Fe8  1  0.00331820  0.24523096  0.74905150  1
  Fe  Fe9  1  0.50232118  0.25012253  0.74913062  1
  Fe  Fe10  1  0.00233232  0.74802378  0.75027817  1
  Fe  Fe11  1  0.25481685  0.00261901  -0.00083426  1
  Fe  Fe12  1  0.62358172  0.87858448  0.37741410  1
  Fe  Fe13  1  0.50025125  0.75011493  0.25052702  1
  Fe  Fe14  1  0.50096377  0.74995426  0.50073459  1
  Fe  Fe15  1  0.37521789  0.62587231  0.87349524  1
  Fe  Fe16  1  0.12446719  0.37513049  0.62668185  1
  Fe  Fe17  1  0.62679150  0.12173785  0.62409102  1
  Fe  Fe18  1  0.37367524  0.62576900  0.12610903  1
  Fe  Fe19  1  0.62409107  0.37756506  0.87592981  1
  Fe  Fe20  1  0.12706171  0.62438538  0.12491543  1
  Fe  Fe21  1  0.24896001  0.24940350  0.25123300  1
  Fe  Fe22  1  0.62508816  0.12257756  0.12274776  1
  Fe  Fe23  1  0.37684539  0.37585263  0.62716505  1
  Fe  Fe24  1  -0.00113112  0.24977435  0.50090216  1
  Fe  Fe25  1  0.12452581  0.12479238  0.37690463  1
  Fe  Fe26  1  0.62608804  0.62448752  0.12438809  1
  Fe  Fe27  1  0.87339607  0.37342285  0.62634040  1
  Fe  Fe28  1  0.87429003  0.37311511  0.37258446  1
  Fe  Fe29  1  0.25236408  0.00124665  0.24952764  1
  Fe  Fe30  1  0.50035522  0.24747753  -0.00223393  1
  Fe  Fe31  1  -0.00052993  0.49938278  0.49986664  1
  Fe  Fe32  1  -0.00242018  0.00197689  0.50364403  1
  Fe  Fe33  1  0.50242278  0.75034008  0.75030839  1
  Fe  Fe34  1  0.24703679  0.50175712  0.75091555  1
  Fe  Fe35  1  0.25225203  -0.00013581  0.50065727  1
  Fe  Fe36  1  0.50189410  0.24748109  0.49947191  1
  Fe  Fe37  1  0.12564520  0.87748670  0.12383865  1
  Fe  Fe38  1  0.74978402  0.50106023  0.49679492  1
  Fe  Fe39  1  0.12661386  0.62500109  0.37355596  1
  Fe  Fe40  1  0.74921599  0.75112305  0.74741396  1
  Fe  Fe41  1  0.37640818  0.87542841  0.12544857  1
  Fe  Fe42  1  0.25044423  0.49978338  0.49950214  1
  Fe  Fe43  1  0.00122523  0.49676269  0.24848372  1
  Fe  Fe44  1  0.37607981  0.87491332  0.37386126  1
  Fe  Fe45  1  -0.00019231  0.49688817  0.00069425  1
  Fe  Fe46  1  0.87550988  0.87454604  0.37640890  1
  Fe  Fe47  1  0.24951440  0.75020625  0.50086461  1
  Fe  Fe48  1  0.50336883  0.24553020  0.25334199  1
  Fe  Fe49  1  -0.00547651  0.00056132  -0.00218706  1
  Fe  Fe50  1  0.49933206  0.50080654  0.25269729  1
  Fe  Fe51  1  0.12490335  0.87694115  0.37403242  1
  Fe  Fe52  1  0.37459633  0.87523762  0.87306438  1
  Fe  Fe53  1  0.62676248  0.37391356  0.12532198  1
  Fe  Fe54  1  0.24913445  0.49794538  -0.00206093  1
  Fe  Fe55  1  0.87408634  0.62650901  0.62230627  1
  Fe  Fe56  1  0.75649975  -0.00219009  0.74929776  1
  Fe  Fe57  1  -0.00114389  0.00149022  0.24873015  1
  Fe  Fe58  1  0.37617398  0.37257645  0.12512093  1
  Fe  Fe59  1  0.74916744  0.49906912  0.25194053  1
  Fe  Fe60  1  0.25025568  0.49790916  0.25143173  1
  Fe  Fe61  1  0.87326173  0.87427821  0.12437967  1
  Fe  Fe62  1  0.24993577  0.75135671  -0.00040714  1
  Fe  Fe63  1  0.12287834  0.87681777  0.87433194  1
  Fe  Fe64  1  0.37572433  0.37415148  0.87146689  1
  Fe  Fe65  1  0.00012467  0.50275309  0.75055989  1
  Fe  Fe66  1  -0.00018123  0.25255338  0.00054927  1
  Fe  Fe67  1  0.37568730  0.62445708  0.62675111  1
  Fe  Fe68  1  0.87340528  0.62309439  0.12524925  1
  Fe  Fe69  1  0.50105106  0.50140833  -0.00141852  1
  Fe  Fe70  1  0.37452736  0.87453561  0.62801264  1
  Fe  Fe71  1  0.87234461  0.62709116  0.87774794  1
  Fe  Fe72  1  -0.00061601  0.75049756  0.00215188  1
  Fe  Fe73  1  0.62840186  0.87580203  0.87739168  1
  Fe  Fe74  1  0.00066662  0.25095317  0.24899391  1
  Fe  Fe75  1  0.00115205  0.75088985  0.24942649  1
  Fe  Fe76  1  0.87194066  0.12933301  0.12425100  1
  Fe  Fe77  1  0.12626335  0.12517142  0.12240214  1
  Fe  Fe78  1  0.74898678  0.49992419  0.75152295  1
  Fe  Fe79  1  0.62491860  0.87835856  0.12367009  1
  Fe  Fe80  1  0.75420139  -0.00146324  0.50293240  1
  Fe  Fe81  1  0.24728037  0.00359106  0.75065434  1
  Fe  Fe82  1  0.62414220  0.62357014  0.62438881  1
  Fe  Fe83  1  0.75134876  0.00210770  0.25027257  1
  Fe  Fe84  1  0.25072924  0.24947469  -0.00380350  1
  Fe  Fe85  1  0.74910657  0.24852085  0.49633423  1
  Fe  Fe86  1  0.37473846  0.12601575  0.62681809  1
  Fe  Fe87  1  0.00081060  0.74853103  0.49841424  1
  Fe  Fe88  1  0.25001339  0.25089271  0.50104428  1
  Fe  Fe89  1  0.62663773  0.12119640  0.87639564  1
  Co  Co90  1  0.74651881  0.24685186  0.25345017  1
  Co  Co91  1  0.74730814  0.25099132  -0.00175496  1
  Co  Co92  1  0.87008175  0.37320022  0.12616745  1
  Co  Co93  1  0.62496764  0.11739961  0.37833087  1
  Co  Co94  1  0.50168355  0.50040072  0.75114247  1
  Co  Co95  1  0.24730395  0.74858940  0.75005821  1
  Co  Co96  1  0.87892959  0.87052051  0.62483157  1
  Co  Co97  1  0.62387219  0.37612285  0.37576515  1
  Co  Co98  1  0.49569945  0.00022823  0.50276727  1
  Co  Co99  1  0.62721937  0.62680098  0.87491167  1
  Co  Co100  1  0.12468117  0.62454595  0.62275955  1
  Co  Co101  1  0.12329097  0.12350884  0.87803816  1
  Co  Co102  1  0.87646475  0.62492405  0.37392569  1
  Co  Co103  1  0.12416497  0.37419918  0.37653626  1
  Co  Co104  1  0.37726277  0.12569020  0.87133175  1
  Co  Co105  1  0.62428358  0.62604832  0.37459775  1
  Co  Co106  1  0.87643728  0.12458342  0.37543633  1
  Co  Co107  1  0.87246853  0.12864622  0.62628727  1
  Co  Co108  1  0.37347460  0.62680179  0.37398431  1
  Co  Co109  1  0.87433490  0.12912458  0.87452495  1
  Co  Co110  1  0.74930804  0.49840999  -0.00125072  1
  Co  Co111  1  0.12425602  0.62604328  0.87849940  1
  Co  Co112  1  0.74808247  0.75009495  0.49926656  1
  Co  Co113  1  0.49735930  0.00189574  0.24924595  1
  Co  Co114  1  0.12618338  0.12428215  0.62192942  1
  Co  Co115  1  0.49916725  0.50187726  0.49821552  1
  Co  Co116  1  0.24769803  0.24860155  0.75040458  1
  Co  Co117  1  0.12324499  0.37424502  0.87263051  1
  Co  Co118  1  0.75476953  -0.00013592  -0.00018207  1
  Co  Co119  1  0.37450613  0.12562557  0.37618731  1
  Co  Co120  1  0.12832880  0.37394616  0.12364006  1
  Co  Co121  1  0.49716007  -0.00005318  -0.00052427  1
  Co  Co122  1  0.24873556  0.75295333  0.24865223  1
  Co  Co123  1  0.74928414  0.75048693  0.00335383  1
  Co  Co124  1  0.37604541  0.12810712  0.12527677  1
  Co  Co125  1  0.87537404  0.87088071  0.87395717  1
  Co  Co126  1  0.62531560  0.87717667  0.62368741  1
  Co  Co127  1  -0.00272733  0.00282267  0.74899575  1
