# generated using pymatgen
data_Fe45Co19
_symmetry_space_group_name_H-M   'P 1'
_cell_length_a   11.41560142
_cell_length_b   11.41505845
_cell_length_c   11.41610780
_cell_angle_alpha   89.99928987
_cell_angle_beta   89.99877465
_cell_angle_gamma   90.00229551
_symmetry_Int_Tables_number   1
_chemical_formula_structural   Fe45Co19
_chemical_formula_sum   'Fe90 Co38'
_cell_volume   1487.63023688
_cell_formula_units_Z   2
loop_
 _symmetry_equiv_pos_site_id
 _symmetry_equiv_pos_as_xyz
  1  'x, y, z'
loop_
 _atom_site_type_symbol
 _atom_site_label
 _atom_site_symmetry_multiplicity
 _atom_site_fract_x
 _atom_site_fract_y
 _atom_site_fract_z
 _atom_site_occupancy
  Fe  Fe0  1  0.87392161  0.62628387  0.12525945  1
  Fe  Fe1  1  0.62497330  0.87692083  0.87617470  1
  Fe  Fe2  1  0.00022332  0.00127480  0.00122059  1
  Fe  Fe3  1  0.50029191  0.24975163  0.49913881  1
  Fe  Fe4  1  0.87815453  0.37248834  0.87629693  1
  Fe  Fe5  1  0.49873234  0.00029542  0.49819366  1
  Fe  Fe6  1  0.75005922  0.49787693  0.00069047  1
  Fe  Fe7  1  0.87448528  0.62576777  0.62245581  1
  Fe  Fe8  1  0.25336672  0.00292765  0.25325334  1
  Fe  Fe9  1  0.75265960  0.00039247  0.75092579  1
  Fe  Fe10  1  0.74819914  0.24929662  0.00286485  1
  Fe  Fe11  1  0.49935239  0.24887976  0.00086149  1
  Fe  Fe12  1  0.49565542  0.50006884  0.25250928  1
  Fe  Fe13  1  0.36849311  0.13052710  0.87480667  1
  Fe  Fe14  1  0.25015137  0.00115647  -0.00036073  1
  Fe  Fe15  1  0.50510753  0.75098670  0.25248419  1
  Fe  Fe16  1  0.74925489  0.75136567  0.00248473  1
  Fe  Fe17  1  0.00477287  0.24951977  0.74874819  1
  Fe  Fe18  1  0.24518122  0.74875968  0.49728318  1
  Fe  Fe19  1  0.24975030  0.25159993  0.49904458  1
  Fe  Fe20  1  0.87815216  0.87367227  0.62143706  1
  Fe  Fe21  1  0.87387295  0.13058529  0.37294804  1
  Fe  Fe22  1  0.13083415  0.37881320  0.37005621  1
  Fe  Fe23  1  0.87590176  0.12783348  0.62490701  1
  Fe  Fe24  1  0.87659188  0.87393412  0.87608548  1
  Fe  Fe25  1  0.12503014  0.87664333  0.12583693  1
  Fe  Fe26  1  0.62341242  0.37421735  0.12633029  1
  Fe  Fe27  1  0.00126929  0.49786447  0.00239709  1
  Fe  Fe28  1  0.75246183  0.49538901  0.24919304  1
  Fe  Fe29  1  0.25177240  0.49775291  0.75015483  1
  Fe  Fe30  1  0.00264008  -0.00026895  0.74863259  1
  Fe  Fe31  1  0.37042628  0.37015189  0.12722485  1
  Fe  Fe32  1  0.37404955  0.87420280  0.62347993  1
  Fe  Fe33  1  0.12549093  0.12335577  0.37519344  1
  Fe  Fe34  1  0.62594965  0.12365702  0.37411329  1
  Fe  Fe35  1  0.49791889  0.24531062  0.25068179  1
  Fe  Fe36  1  0.25098752  0.49739019  0.00047912  1
  Fe  Fe37  1  0.12534876  0.62372790  0.12594280  1
  Fe  Fe38  1  0.12475457  0.62338554  0.62286710  1
  Fe  Fe39  1  0.12441887  0.37817159  0.62403316  1
  Fe  Fe40  1  0.00088615  0.74871704  0.25099295  1
  Fe  Fe41  1  0.37162241  0.12354168  0.62444198  1
  Fe  Fe42  1  0.62424111  0.62498053  0.87419057  1
  Fe  Fe43  1  0.12861956  0.12041029  0.62352216  1
  Fe  Fe44  1  0.37576701  0.62833761  0.12633139  1
  Fe  Fe45  1  0.62581894  0.12297605  0.87675921  1
  Fe  Fe46  1  0.62308404  0.37477105  0.87515861  1
  Fe  Fe47  1  0.37537869  0.62579696  0.87522525  1
  Fe  Fe48  1  0.75211544  0.49725053  0.74966471  1
  Fe  Fe49  1  0.12446933  0.87419608  0.87707232  1
  Fe  Fe50  1  -0.00158470  0.00157720  0.25184363  1
  Fe  Fe51  1  0.86997556  0.62793272  0.37522172  1
  Fe  Fe52  1  0.74990737  0.25089461  0.74959024  1
  Fe  Fe53  1  0.00928116  0.25132043  0.00424960  1
  Fe  Fe54  1  0.49878711  0.24961579  0.74930060  1
  Fe  Fe55  1  0.49606598  0.00100691  0.75271200  1
  Fe  Fe56  1  0.37588314  0.87678041  0.12623661  1
  Fe  Fe57  1  0.00155648  0.25113916  0.49763602  1
  Fe  Fe58  1  0.62471198  0.12382372  0.62589415  1
  Fe  Fe59  1  0.62501680  0.62323244  0.12750894  1
  Fe  Fe60  1  0.75080841  0.00188421  0.24704133  1
  Fe  Fe61  1  0.24769392  0.74842290  0.25157892  1
  Fe  Fe62  1  0.50061107  0.75039848  0.00040084  1
  Fe  Fe63  1  0.87787496  0.12972504  0.12672049  1
  Fe  Fe64  1  0.62623394  0.37469236  0.37513698  1
  Fe  Fe65  1  0.12586723  0.62507149  0.87735190  1
  Fe  Fe66  1  0.49755510  0.49848596  0.00102213  1
  Fe  Fe67  1  0.87804710  0.12693434  0.87614931  1
  Fe  Fe68  1  -0.00273054  0.49878855  0.49684467  1
  Fe  Fe69  1  0.37658163  0.87374828  0.37519597  1
  Fe  Fe70  1  0.87490923  0.62675615  0.87677264  1
  Fe  Fe71  1  0.37427869  0.87172611  0.87502651  1
  Fe  Fe72  1  0.62380984  0.87785751  0.62596089  1
  Fe  Fe73  1  0.24817722  0.75120700  0.74869791  1
  Fe  Fe74  1  0.75230290  0.00202897  0.50074962  1
  Fe  Fe75  1  0.62516070  0.62324943  0.62467273  1
  Fe  Fe76  1  0.62566799  0.37529333  0.62401994  1
  Fe  Fe77  1  -0.00156847  0.49999183  0.75048779  1
  Fe  Fe78  1  0.00231604  0.75015577  0.74873074  1
  Fe  Fe79  1  0.49790002  0.49915015  0.75065737  1
  Fe  Fe80  1  0.50616371  0.74992127  0.49679143  1
  Fe  Fe81  1  0.87320213  0.87295399  0.37658644  1
  Fe  Fe82  1  0.37554685  0.62704241  0.62244272  1
  Fe  Fe83  1  0.12167674  0.87703547  0.37725065  1
  Fe  Fe84  1  0.62219521  0.88217328  0.12322910  1
  Fe  Fe85  1  0.74891585  0.75101364  0.74804606  1
  Fe  Fe86  1  -0.00442352  0.49740987  0.25013884  1
  Fe  Fe87  1  0.37535182  0.37493515  0.62359347  1
  Fe  Fe88  1  0.87651386  0.87388389  0.12575882  1
  Fe  Fe89  1  0.49805849  0.50034666  0.49606228  1
  Co  Co90  1  0.00067557  0.74971280  0.00254374  1
  Co  Co91  1  0.12428018  0.37624016  0.87292186  1
  Co  Co92  1  0.24751764  0.25342016  0.74670879  1
  Co  Co93  1  0.37504190  0.12591731  0.37914193  1
  Co  Co94  1  0.00259106  0.74705606  0.49757880  1
  Co  Co95  1  0.74620168  0.25016878  0.24711060  1
  Co  Co96  1  0.12339612  0.87728173  0.62059175  1
  Co  Co97  1  0.74541616  0.75099111  0.50102654  1
  Co  Co98  1  0.49998728  0.75052697  0.74964270  1
  Co  Co99  1  0.25035699  0.74996271  0.00218048  1
  Co  Co100  1  0.49655125  0.00315207  0.25227867  1
  Co  Co101  1  0.37205095  0.37272422  0.37284529  1
  Co  Co102  1  0.25116907  -0.00210214  0.49666032  1
  Co  Co103  1  0.74655302  0.75316678  0.24758354  1
  Co  Co104  1  0.62918081  0.62079029  0.37287542  1
  Co  Co105  1  0.37351958  0.12547865  0.12215710  1
  Co  Co106  1  0.87707243  0.37199146  0.62511344  1
  Co  Co107  1  0.74842237  0.24967773  0.50165932  1
  Co  Co108  1  0.75493161  0.00147460  0.00155694  1
  Co  Co109  1  0.49424155  0.00178385  -0.00465599  1
  Co  Co110  1  0.12413682  0.61947646  0.37277625  1
  Co  Co111  1  0.87261848  0.36977014  0.37514164  1
  Co  Co112  1  0.62212582  0.12104463  0.12362365  1
  Co  Co113  1  -0.00319796  0.00349050  0.49869942  1
  Co  Co114  1  0.37438387  0.37169557  0.87565569  1
  Co  Co115  1  0.13007253  0.37930264  0.13291135  1
  Co  Co116  1  0.00460989  0.25298305  0.25058176  1
  Co  Co117  1  0.12528326  0.12080557  0.12818665  1
  Co  Co118  1  0.75234409  0.49709942  0.50079986  1
  Co  Co119  1  0.25010231  0.24332397  0.25104381  1
  Co  Co120  1  0.87603128  0.37056906  0.12336674  1
  Co  Co121  1  0.12674196  0.12360591  0.87320551  1
  Co  Co122  1  0.24995765  -0.00371584  0.75087444  1
  Co  Co123  1  0.62753919  0.88088409  0.37423627  1
  Co  Co124  1  0.25244606  0.50079930  0.49931288  1
  Co  Co125  1  0.37611129  0.62944904  0.37642818  1
  Co  Co126  1  0.24216396  0.25177492  0.00237127  1
  Co  Co127  1  0.25700047  0.50571150  0.25026224  1
