# generated using pymatgen
data_Fe45Co19
_symmetry_space_group_name_H-M   'P 1'
_cell_length_a   11.41441310
_cell_length_b   11.41369095
_cell_length_c   11.41477433
_cell_angle_alpha   90.00343673
_cell_angle_beta   90.00483534
_cell_angle_gamma   90.00765234
_symmetry_Int_Tables_number   1
_chemical_formula_structural   Fe45Co19
_chemical_formula_sum   'Fe90 Co38'
_cell_volume   1487.12343905
_cell_formula_units_Z   2
loop_
 _symmetry_equiv_pos_site_id
 _symmetry_equiv_pos_as_xyz
  1  'x, y, z'
loop_
 _atom_site_type_symbol
 _atom_site_label
 _atom_site_symmetry_multiplicity
 _atom_site_fract_x
 _atom_site_fract_y
 _atom_site_fract_z
 _atom_site_occupancy
  Fe  Fe0  1  0.87238089  0.87149287  0.37525987  1
  Fe  Fe1  1  0.25202991  0.00135787  0.00204663  1
  Fe  Fe2  1  0.12637963  0.87787229  0.12690474  1
  Fe  Fe3  1  0.74995941  -0.00036036  -0.00092726  1
  Fe  Fe4  1  0.49966128  0.74801129  0.00198167  1
  Fe  Fe5  1  0.62690811  0.87366157  0.37404352  1
  Fe  Fe6  1  0.50100583  0.74984226  0.75251875  1
  Fe  Fe7  1  0.87922663  0.37934305  0.37231113  1
  Fe  Fe8  1  0.12440382  0.87414130  0.62648762  1
  Fe  Fe9  1  0.50086088  0.74933048  0.49833000  1
  Fe  Fe10  1  0.37389138  0.62706935  0.62478407  1
  Fe  Fe11  1  0.00130223  0.75011472  0.25084480  1
  Fe  Fe12  1  -0.00609580  0.49876090  0.00290868  1
  Fe  Fe13  1  0.00043718  0.74948618  0.50036169  1
  Fe  Fe14  1  0.75190394  0.50102554  0.49746893  1
  Fe  Fe15  1  0.62592917  0.37852391  0.12517965  1
  Fe  Fe16  1  0.74935003  0.00055373  0.50163715  1
  Fe  Fe17  1  -0.00007131  0.50086722  0.74819280  1
  Fe  Fe18  1  -0.00069616  0.00013666  -0.00082009  1
  Fe  Fe19  1  0.12419059  0.37513123  0.87782256  1
  Fe  Fe20  1  0.49986889  -0.00221707  0.49929996  1
  Fe  Fe21  1  0.24809577  0.50060484  0.24814087  1
  Fe  Fe22  1  0.25055301  0.49949605  0.75039375  1
  Fe  Fe23  1  0.37569361  0.62448855  0.87622349  1
  Fe  Fe24  1  0.75139255  0.25183102  0.00048639  1
  Fe  Fe25  1  0.12644988  0.62569755  0.62531002  1
  Fe  Fe26  1  0.37670587  0.87607198  0.87819139  1
  Fe  Fe27  1  0.37595763  0.37613394  0.12561960  1
  Fe  Fe28  1  0.00033587  -0.00022843  0.50004194  1
  Fe  Fe29  1  0.37742908  0.12616377  0.12442451  1
  Fe  Fe30  1  0.12338619  0.37233776  0.12251750  1
  Fe  Fe31  1  0.37408902  0.62761599  0.37141995  1
  Fe  Fe32  1  0.50022592  0.25097006  -0.00123285  1
  Fe  Fe33  1  0.37391407  0.87305249  0.62444712  1
  Fe  Fe34  1  0.37505097  0.12504778  0.62662710  1
  Fe  Fe35  1  0.74763045  0.25010869  0.74848970  1
  Fe  Fe36  1  0.87276484  0.37771342  0.87376480  1
  Fe  Fe37  1  0.12710177  0.87785534  0.37187002  1
  Fe  Fe38  1  0.50176980  0.25264415  0.25091488  1
  Fe  Fe39  1  0.12356617  0.62503080  0.12264505  1
  Fe  Fe40  1  0.37512044  0.37586982  0.37526514  1
  Fe  Fe41  1  0.62459523  0.12443716  0.37530654  1
  Fe  Fe42  1  0.87573441  0.87500049  0.87173121  1
  Fe  Fe43  1  0.62420471  0.37706321  0.62106231  1
  Fe  Fe44  1  0.24754453  -0.00000596  0.75134807  1
  Fe  Fe45  1  0.50139699  0.25142032  0.74960057  1
  Fe  Fe46  1  0.87449640  0.37472775  0.62545159  1
  Fe  Fe47  1  0.49865879  0.49886689  0.74895525  1
  Fe  Fe48  1  0.87492690  0.62614110  0.62491393  1
  Fe  Fe49  1  0.74921072  0.74536123  -0.00265898  1
  Fe  Fe50  1  0.87342035  0.12394225  0.87313884  1
  Fe  Fe51  1  0.62554223  0.12487995  0.12569724  1
  Fe  Fe52  1  0.24995816  -0.00003247  0.49949826  1
  Fe  Fe53  1  0.87637529  0.12399342  0.37413916  1
  Fe  Fe54  1  0.12578012  0.37513596  0.62395795  1
  Fe  Fe55  1  0.62391337  0.62089971  0.12583929  1
  Fe  Fe56  1  0.62756235  0.62496514  0.37208963  1
  Fe  Fe57  1  0.87584656  0.12376926  0.62707405  1
  Fe  Fe58  1  0.62638444  0.87408692  0.62562210  1
  Fe  Fe59  1  0.12300626  0.62455897  0.87613791  1
  Fe  Fe60  1  0.25211229  0.49945378  0.00071202  1
  Fe  Fe61  1  0.87495047  0.87571724  0.62860806  1
  Fe  Fe62  1  0.00377241  0.24861471  0.25089940  1
  Fe  Fe63  1  0.87427899  0.87199294  0.12464213  1
  Fe  Fe64  1  0.25151077  0.49998481  0.50092022  1
  Fe  Fe65  1  0.62777096  0.38117942  0.87722393  1
  Fe  Fe66  1  -0.00030766  0.75047173  -0.00219640  1
  Fe  Fe67  1  0.37208795  0.87109861  0.37041999  1
  Fe  Fe68  1  0.74864846  0.25248616  0.25246239  1
  Fe  Fe69  1  0.49992797  0.25031439  0.50030652  1
  Fe  Fe70  1  0.37482790  0.37429950  0.87546066  1
  Fe  Fe71  1  0.62462976  0.87557712  0.12298785  1
  Fe  Fe72  1  0.75053908  0.24987291  0.49816372  1
  Fe  Fe73  1  0.00253656  0.25044470  0.49836406  1
  Fe  Fe74  1  0.37498239  0.12552551  0.37484200  1
  Fe  Fe75  1  0.62518106  0.12401775  0.87597074  1
  Fe  Fe76  1  0.49888538  -0.00230337  0.24922472  1
  Fe  Fe77  1  0.87630660  0.12683870  0.12585858  1
  Fe  Fe78  1  0.00111824  0.24901865  0.75172278  1
  Fe  Fe79  1  0.24700758  0.24798428  0.25000687  1
  Fe  Fe80  1  0.75169090  -0.00124123  0.24893689  1
  Fe  Fe81  1  0.12204855  0.62145637  0.37593926  1
  Fe  Fe82  1  0.24787802  0.25008512  0.49826871  1
  Fe  Fe83  1  0.50239385  -0.00027325  0.75138986  1
  Fe  Fe84  1  0.62441855  0.62434890  0.62544743  1
  Fe  Fe85  1  0.24864276  0.75077458  0.75266451  1
  Fe  Fe86  1  0.25142384  0.74975241  0.00184445  1
  Fe  Fe87  1  0.24983492  0.25040980  0.75037027  1
  Fe  Fe88  1  0.12615789  0.12684636  0.87890968  1
  Fe  Fe89  1  0.74876846  0.74745328  0.75295260  1
  Co  Co90  1  0.62428753  0.87397926  0.87748126  1
  Co  Co91  1  0.00420102  0.00173488  0.75190574  1
  Co  Co92  1  0.24594089  0.74627283  0.24737835  1
  Co  Co93  1  0.49810106  0.50410445  0.49835798  1
  Co  Co94  1  0.50180342  0.75079335  0.24768657  1
  Co  Co95  1  0.49969556  0.49925339  0.25269394  1
  Co  Co96  1  0.12206001  0.12470981  0.12351285  1
  Co  Co97  1  -0.00121676  0.50062688  0.50363009  1
  Co  Co98  1  0.74950385  0.74913790  0.50201629  1
  Co  Co99  1  0.75627504  0.50189337  0.00490932  1
  Co  Co100  1  0.37361789  0.87357281  0.12629055  1
  Co  Co101  1  -0.00406115  -0.00197589  0.24929985  1
  Co  Co102  1  0.25293078  0.25004141  0.00128894  1
  Co  Co103  1  0.49973843  0.00180912  0.00104889  1
  Co  Co104  1  -0.00026745  0.50163947  0.24490731  1
  Co  Co105  1  0.62377736  0.61981206  0.87667684  1
  Co  Co106  1  -0.00389016  0.25017857  -0.00227863  1
  Co  Co107  1  0.87589746  0.63015158  0.12855675  1
  Co  Co108  1  0.12449436  0.12077923  0.37392901  1
  Co  Co109  1  0.24746550  0.74985886  0.49866837  1
  Co  Co110  1  0.00128117  0.74851297  0.74970757  1
  Co  Co111  1  0.75018159  0.50169416  0.74761937  1
  Co  Co112  1  0.87571342  0.62608087  0.37356320  1
  Co  Co113  1  0.87697546  0.62343839  0.87401245  1
  Co  Co114  1  0.12533639  0.87394246  0.87673590  1
  Co  Co115  1  0.37545472  0.12494548  0.87358167  1
  Co  Co116  1  0.62397143  0.12558175  0.62275073  1
  Co  Co117  1  0.49672103  0.49900815  0.00024322  1
  Co  Co118  1  0.25307164  0.00393561  0.24789399  1
  Co  Co119  1  0.37515791  0.37440762  0.62342189  1
  Co  Co120  1  0.12519196  0.12637292  0.62335192  1
  Co  Co121  1  0.74832016  0.75052208  0.24776721  1
  Co  Co122  1  0.62425697  0.37656993  0.37733373  1
  Co  Co123  1  0.87614916  0.37039582  0.12880368  1
  Co  Co124  1  0.37621276  0.62376836  0.12705500  1
  Co  Co125  1  0.12369243  0.37910662  0.37501378  1
  Co  Co126  1  0.74635521  0.00018379  0.75034591  1
  Co  Co127  1  0.75295976  0.49909593  0.24841246  1
