# generated using pymatgen
data_Fe45Co19
_symmetry_space_group_name_H-M   'P 1'
_cell_length_a   11.41492860
_cell_length_b   11.41448031
_cell_length_c   11.41547731
_cell_angle_alpha   89.99358939
_cell_angle_beta   89.99581907
_cell_angle_gamma   89.98144230
_symmetry_Int_Tables_number   1
_chemical_formula_structural   Fe45Co19
_chemical_formula_sum   'Fe90 Co38'
_cell_volume   1487.38497975
_cell_formula_units_Z   2
loop_
 _symmetry_equiv_pos_site_id
 _symmetry_equiv_pos_as_xyz
  1  'x, y, z'
loop_
 _atom_site_type_symbol
 _atom_site_label
 _atom_site_symmetry_multiplicity
 _atom_site_fract_x
 _atom_site_fract_y
 _atom_site_fract_z
 _atom_site_occupancy
  Fe  Fe0  1  0.49964456  0.75038684  0.24880974  1
  Fe  Fe1  1  0.12173981  0.87173221  0.38021367  1
  Fe  Fe2  1  0.50017365  0.74749168  0.00145458  1
  Fe  Fe3  1  0.50226779  0.25257368  0.50128799  1
  Fe  Fe4  1  0.87571982  0.12579249  0.37524431  1
  Fe  Fe5  1  0.50017729  0.49863949  0.24851020  1
  Fe  Fe6  1  0.49881673  0.24979491  0.24998410  1
  Fe  Fe7  1  0.37361949  0.37662065  0.12125717  1
  Fe  Fe8  1  0.74781736  0.25440758  0.50126746  1
  Fe  Fe9  1  0.63134862  0.62217235  0.37082415  1
  Fe  Fe10  1  0.62488421  0.12728625  0.37382706  1
  Fe  Fe11  1  0.37319829  0.12682414  0.37663348  1
  Fe  Fe12  1  0.49582365  0.25425836  0.74916604  1
  Fe  Fe13  1  0.75029976  0.49860853  -0.00084992  1
  Fe  Fe14  1  0.62478783  0.87370245  0.37503846  1
  Fe  Fe15  1  0.37401309  0.62621351  0.37414383  1
  Fe  Fe16  1  0.37626222  0.87463001  0.62416259  1
  Fe  Fe17  1  0.62604169  0.12360070  0.12563860  1
  Fe  Fe18  1  0.25059947  0.25460058  0.75141730  1
  Fe  Fe19  1  0.24907578  0.50003377  0.49829659  1
  Fe  Fe20  1  0.24768836  0.00072617  -0.00009091  1
  Fe  Fe21  1  0.12380389  0.37786835  0.62497297  1
  Fe  Fe22  1  0.62617581  0.87410326  0.62613184  1
  Fe  Fe23  1  0.24942412  0.74969452  0.00042949  1
  Fe  Fe24  1  0.25056529  -0.00139463  0.74993113  1
  Fe  Fe25  1  -0.00148636  0.50422203  0.50126473  1
  Fe  Fe26  1  -0.00441586  0.74785477  0.24976592  1
  Fe  Fe27  1  0.37722100  0.87429951  0.87735168  1
  Fe  Fe28  1  -0.00007321  0.75071594  0.74346299  1
  Fe  Fe29  1  0.75067466  0.74802666  0.50095778  1
  Fe  Fe30  1  0.87540600  0.37677726  0.37663433  1
  Fe  Fe31  1  0.50143496  0.00035049  0.75220528  1
  Fe  Fe32  1  0.24581195  0.24976737  -0.00238479  1
  Fe  Fe33  1  0.37488626  0.62113993  0.87826340  1
  Fe  Fe34  1  0.87504961  0.62671184  0.87362133  1
  Fe  Fe35  1  0.12623840  0.12402861  0.62570964  1
  Fe  Fe36  1  0.62612833  0.37387784  0.12527755  1
  Fe  Fe37  1  -0.00012281  0.00117569  0.24983354  1
  Fe  Fe38  1  0.49913157  0.74743834  0.74924925  1
  Fe  Fe39  1  0.62800077  0.62053477  0.62928407  1
  Fe  Fe40  1  0.74804141  -0.00020800  -0.00509937  1
  Fe  Fe41  1  0.12464931  0.62440039  0.87140864  1
  Fe  Fe42  1  0.87573354  0.12393195  0.87565050  1
  Fe  Fe43  1  0.74972895  0.00163207  0.49988073  1
  Fe  Fe44  1  0.87991346  0.37473876  0.87747948  1
  Fe  Fe45  1  0.12478056  0.62832803  0.37606168  1
  Fe  Fe46  1  0.75020470  0.75236302  -0.00139387  1
  Fe  Fe47  1  0.75302669  0.25499150  0.75067046  1
  Fe  Fe48  1  0.25187242  0.49572964  0.75357846  1
  Fe  Fe49  1  0.37246603  0.62458143  0.12492435  1
  Fe  Fe50  1  0.75025188  -0.00164432  0.25199979  1
  Fe  Fe51  1  0.62197230  0.37605583  0.87414699  1
  Fe  Fe52  1  0.25013400  -0.00414139  0.25011989  1
  Fe  Fe53  1  0.12502973  0.62602330  0.12629900  1
  Fe  Fe54  1  0.00377936  0.24445753  -0.00018851  1
  Fe  Fe55  1  0.37598161  0.87191227  0.37548265  1
  Fe  Fe56  1  0.37457101  0.37441754  0.37731012  1
  Fe  Fe57  1  0.87449228  0.12521312  0.12439703  1
  Fe  Fe58  1  0.37354900  0.12716274  0.62340760  1
  Fe  Fe59  1  -0.00228367  -0.00155404  0.74665918  1
  Fe  Fe60  1  0.24914723  -0.00100506  0.49974841  1
  Fe  Fe61  1  0.87585112  0.87627520  0.12177926  1
  Fe  Fe62  1  0.00122453  0.25049292  0.75048325  1
  Fe  Fe63  1  0.50133527  0.74652838  0.50122183  1
  Fe  Fe64  1  0.37434810  0.12615615  0.87442507  1
  Fe  Fe65  1  0.50112096  0.00110933  0.49970623  1
  Fe  Fe66  1  0.74988164  -0.00290898  0.75258232  1
  Fe  Fe67  1  0.63087826  0.62526008  0.12844747  1
  Fe  Fe68  1  0.12293315  0.37470532  0.12567333  1
  Fe  Fe69  1  0.37332422  0.62204074  0.62442110  1
  Fe  Fe70  1  0.12385605  0.87405316  0.12443700  1
  Fe  Fe71  1  0.62625815  0.62325980  0.87150055  1
  Fe  Fe72  1  0.62160744  0.87785898  0.12457899  1
  Fe  Fe73  1  0.00184113  0.50314243  -0.00065465  1
  Fe  Fe74  1  0.75258453  0.25218565  0.24962841  1
  Fe  Fe75  1  0.87096366  0.62171655  0.62703978  1
  Fe  Fe76  1  0.24667588  0.25203308  0.25292187  1
  Fe  Fe77  1  0.00483281  0.24831398  0.49631961  1
  Fe  Fe78  1  -0.00382446  0.50273900  0.24933269  1
  Fe  Fe79  1  0.25005105  0.75102556  0.74770077  1
  Fe  Fe80  1  0.50137922  0.24747689  -0.00015517  1
  Fe  Fe81  1  0.62580077  0.12689025  0.62802816  1
  Fe  Fe82  1  0.37414438  0.12258666  0.12538038  1
  Fe  Fe83  1  0.24918246  0.50048860  0.24961401  1
  Fe  Fe84  1  0.12209524  0.87647504  0.87388108  1
  Fe  Fe85  1  0.50351786  0.49880910  0.49956902  1
  Fe  Fe86  1  0.87732669  0.87299790  0.38023700  1
  Fe  Fe87  1  -0.00009186  0.74918315  -0.00033839  1
  Fe  Fe88  1  0.87789242  0.37340000  0.12210236  1
  Fe  Fe89  1  0.87405030  0.12704955  0.62369006  1
  Co  Co90  1  0.62573876  0.37572676  0.37158453  1
  Co  Co91  1  0.62172337  0.87089047  0.87428051  1
  Co  Co92  1  -0.00055138  0.00346912  0.50217877  1
  Co  Co93  1  0.87906557  0.87403692  0.87528224  1
  Co  Co94  1  0.74849118  0.49604707  0.50236308  1
  Co  Co95  1  0.49539387  0.49856601  0.74974599  1
  Co  Co96  1  0.75476155  0.49385766  0.75231722  1
  Co  Co97  1  0.87203314  0.62614559  0.12285949  1
  Co  Co98  1  0.75349402  0.75525949  0.24925519  1
  Co  Co99  1  0.12498633  0.87659311  0.62237808  1
  Co  Co100  1  0.50417285  0.50265032  0.00369931  1
  Co  Co101  1  0.12629013  0.12107246  0.37262817  1
  Co  Co102  1  0.12190997  0.37572666  0.87559168  1
  Co  Co103  1  0.00185544  0.00338263  0.00107255  1
  Co  Co104  1  0.74977992  0.25037398  -0.00177895  1
  Co  Co105  1  0.37727791  0.87652265  0.12280347  1
  Co  Co106  1  0.25059439  0.74971540  0.50285703  1
  Co  Co107  1  0.62585090  0.12966994  0.87084699  1
  Co  Co108  1  0.37313827  0.37593747  0.61961085  1
  Co  Co109  1  0.75447830  0.49537890  0.24661762  1
  Co  Co110  1  0.12936390  0.62093140  0.62709682  1
  Co  Co111  1  0.12285380  0.38067228  0.37410013  1
  Co  Co112  1  0.62402120  0.37661366  0.62951341  1
  Co  Co113  1  -0.00203277  0.50026741  0.74982965  1
  Co  Co114  1  0.12619114  0.12605067  0.12901633  1
  Co  Co115  1  0.00009329  0.24973945  0.25272902  1
  Co  Co116  1  0.24376878  0.25100501  0.49893985  1
  Co  Co117  1  0.12481865  0.12269584  0.87099186  1
  Co  Co118  1  0.49885932  0.00116173  0.25288976  1
  Co  Co119  1  0.88009396  0.37371466  0.62182294  1
  Co  Co120  1  0.37723726  0.37750242  0.88263978  1
  Co  Co121  1  0.87206372  0.87605640  0.62223101  1
  Co  Co122  1  0.75174679  0.75191012  0.75057120  1
  Co  Co123  1  0.87044113  0.62453825  0.37501511  1
  Co  Co124  1  0.24957229  0.75137133  0.24963853  1
  Co  Co125  1  0.50172386  0.00373504  -0.00447460  1
  Co  Co126  1  -0.00183070  0.74438762  0.50686920  1
  Co  Co127  1  0.24459330  0.50060446  0.00009104  1
