# generated using pymatgen
data_Fe45Co19
_symmetry_space_group_name_H-M   'P 1'
_cell_length_a   11.41415276
_cell_length_b   11.41565877
_cell_length_c   11.41492983
_cell_angle_alpha   90.00529968
_cell_angle_beta   89.99629919
_cell_angle_gamma   90.00132642
_symmetry_Int_Tables_number   1
_chemical_formula_structural   Fe45Co19
_chemical_formula_sum   'Fe90 Co38'
_cell_volume   1487.36618076
_cell_formula_units_Z   2
loop_
 _symmetry_equiv_pos_site_id
 _symmetry_equiv_pos_as_xyz
  1  'x, y, z'
loop_
 _atom_site_type_symbol
 _atom_site_label
 _atom_site_symmetry_multiplicity
 _atom_site_fract_x
 _atom_site_fract_y
 _atom_site_fract_z
 _atom_site_occupancy
  Fe  Fe0  1  0.25313462  0.24790846  0.24957551  1
  Fe  Fe1  1  0.00110095  -0.00021966  -0.00122785  1
  Fe  Fe2  1  0.49788908  0.25021437  0.74620215  1
  Fe  Fe3  1  0.87068708  0.87612565  0.12577585  1
  Fe  Fe4  1  0.37318223  0.37071397  0.38071116  1
  Fe  Fe5  1  0.12436130  0.12418994  0.37505537  1
  Fe  Fe6  1  0.75168504  0.49972955  0.49907630  1
  Fe  Fe7  1  0.37788565  0.37117836  0.12258702  1
  Fe  Fe8  1  0.62350967  0.62152424  0.37166141  1
  Fe  Fe9  1  0.00050548  0.50126795  -0.00160605  1
  Fe  Fe10  1  0.87143201  0.62376053  0.12348536  1
  Fe  Fe11  1  0.12442400  0.62363432  0.37328647  1
  Fe  Fe12  1  -0.00082337  0.24948956  0.24899415  1
  Fe  Fe13  1  0.12436338  0.87644186  0.37489754  1
  Fe  Fe14  1  0.25438715  0.75162484  0.74628792  1
  Fe  Fe15  1  0.62165761  0.87609407  0.62562032  1
  Fe  Fe16  1  0.00127519  -0.00220030  0.75166185  1
  Fe  Fe17  1  0.49766232  0.49896768  0.49881197  1
  Fe  Fe18  1  0.12828897  0.37518280  0.87542137  1
  Fe  Fe19  1  0.87456803  0.37433887  0.87496278  1
  Fe  Fe20  1  0.87205702  0.62653992  0.87570097  1
  Fe  Fe21  1  0.37813667  0.12781222  0.38022547  1
  Fe  Fe22  1  0.87500405  0.62666365  0.37526269  1
  Fe  Fe23  1  0.00168906  0.24871372  -0.00028816  1
  Fe  Fe24  1  0.24934602  0.74979095  0.49996775  1
  Fe  Fe25  1  0.12771395  0.87276804  0.87371951  1
  Fe  Fe26  1  0.74981490  0.24976558  0.50469602  1
  Fe  Fe27  1  0.62250703  0.12270776  0.87290354  1
  Fe  Fe28  1  0.25481056  0.50027542  0.74920979  1
  Fe  Fe29  1  0.12560400  0.12411032  0.12498845  1
  Fe  Fe30  1  0.74840544  0.24853404  0.74826250  1
  Fe  Fe31  1  0.49823070  -0.00430925  0.00149956  1
  Fe  Fe32  1  0.25035146  0.24827089  -0.00051519  1
  Fe  Fe33  1  0.74731909  0.75104717  0.74989685  1
  Fe  Fe34  1  0.12699729  0.62429797  0.12649488  1
  Fe  Fe35  1  0.25469967  0.50226202  0.00119330  1
  Fe  Fe36  1  0.75033469  0.00045820  0.74855637  1
  Fe  Fe37  1  0.12699557  0.37501742  0.37544627  1
  Fe  Fe38  1  0.25373344  0.00131062  0.24879499  1
  Fe  Fe39  1  0.74870161  0.00160632  0.00043118  1
  Fe  Fe40  1  0.62162801  0.12357157  0.12601736  1
  Fe  Fe41  1  0.49452243  0.50000507  0.74895143  1
  Fe  Fe42  1  0.12642386  0.37524098  0.12525504  1
  Fe  Fe43  1  0.87490421  0.12493764  0.37645765  1
  Fe  Fe44  1  0.74698418  0.74891467  0.24925742  1
  Fe  Fe45  1  0.25395782  0.74977402  0.00268854  1
  Fe  Fe46  1  0.37570297  0.62815998  0.37208899  1
  Fe  Fe47  1  0.49655216  -0.00171165  0.74806029  1
  Fe  Fe48  1  0.74782580  0.75019401  0.50030297  1
  Fe  Fe49  1  0.87472387  0.62479790  0.62555567  1
  Fe  Fe50  1  0.75037077  0.50012855  0.75140395  1
  Fe  Fe51  1  0.12709830  0.87552425  0.12611906  1
  Fe  Fe52  1  0.87703081  0.87506914  0.62484216  1
  Fe  Fe53  1  0.12561580  0.62615011  0.62538035  1
  Fe  Fe54  1  0.25403885  0.49962749  0.24974468  1
  Fe  Fe55  1  0.00056502  0.75232573  0.50033325  1
  Fe  Fe56  1  0.75092465  0.00002595  0.50118058  1
  Fe  Fe57  1  0.00106489  0.25027107  0.74879720  1
  Fe  Fe58  1  0.74613432  0.24979395  -0.00065777  1
  Fe  Fe59  1  0.74039388  0.74835698  0.00074347  1
  Fe  Fe60  1  0.50129409  0.75168680  0.49814876  1
  Fe  Fe61  1  0.25174881  -0.00054150  0.00111763  1
  Fe  Fe62  1  0.87316643  0.37520345  0.12408165  1
  Fe  Fe63  1  -0.00126636  0.49844717  0.49981606  1
  Fe  Fe64  1  0.49839646  0.00084406  0.25086334  1
  Fe  Fe65  1  0.25278658  -0.00022958  0.74815151  1
  Fe  Fe66  1  0.12420815  0.12188717  0.62497964  1
  Fe  Fe67  1  0.62335667  0.12531765  0.37787818  1
  Fe  Fe68  1  -0.00005631  0.75136756  0.24868456  1
  Fe  Fe69  1  0.87254523  0.87341983  0.87636430  1
  Fe  Fe70  1  0.62156755  0.62489408  0.62638841  1
  Fe  Fe71  1  0.00046362  0.75002043  -0.00014250  1
  Fe  Fe72  1  0.74907442  0.24839414  0.24835924  1
  Fe  Fe73  1  0.49815683  0.50553283  -0.00042987  1
  Fe  Fe74  1  0.87570196  0.12556609  0.87501074  1
  Fe  Fe75  1  0.12798088  0.62708322  0.87447377  1
  Fe  Fe76  1  0.62492945  0.37744377  0.62532926  1
  Fe  Fe77  1  0.62746475  0.87783564  0.37287624  1
  Fe  Fe78  1  0.25077981  -0.00063379  0.50156931  1
  Fe  Fe79  1  -0.00328700  -0.00061591  0.24977041  1
  Fe  Fe80  1  0.12874978  0.37720848  0.62313941  1
  Fe  Fe81  1  -0.00268432  0.49906721  0.25001562  1
  Fe  Fe82  1  0.37620317  0.12563148  0.87728101  1
  Fe  Fe83  1  0.62599164  0.37510878  0.37386437  1
  Fe  Fe84  1  0.37478540  0.87338930  0.37339875  1
  Fe  Fe85  1  -0.00013748  0.25066819  0.50236163  1
  Fe  Fe86  1  0.62149181  0.37681230  0.87434484  1
  Fe  Fe87  1  0.25348773  0.24906854  0.74858893  1
  Fe  Fe88  1  0.62311100  0.37889931  0.12706519  1
  Fe  Fe89  1  0.00062380  0.50167952  0.75160500  1
  Co  Co90  1  0.87433244  0.37622531  0.62638539  1
  Co  Co91  1  0.87556086  0.12511448  0.12296003  1
  Co  Co92  1  0.37198934  0.37481709  0.62000971  1
  Co  Co93  1  0.50417481  0.24931207  -0.00062938  1
  Co  Co94  1  0.25145527  0.50501867  0.49821751  1
  Co  Co95  1  0.24650457  0.24576254  0.50170706  1
  Co  Co96  1  -0.00053147  -0.00160855  0.49898863  1
  Co  Co97  1  0.62445904  0.87845736  0.87338683  1
  Co  Co98  1  0.12677937  0.12505180  0.87467162  1
  Co  Co99  1  0.50031842  0.75260099  0.75262376  1
  Co  Co100  1  0.50435902  0.74978706  -0.00164608  1
  Co  Co101  1  0.74687509  0.49963972  -0.00190726  1
  Co  Co102  1  0.37879811  0.63170584  0.12974972  1
  Co  Co103  1  0.50583620  0.75311649  0.25078643  1
  Co  Co104  1  0.37759084  0.87362925  0.62224733  1
  Co  Co105  1  0.24601770  0.75037759  0.25183399  1
  Co  Co106  1  0.62106990  0.62016059  0.12995835  1
  Co  Co107  1  0.37787570  0.12462008  0.62061165  1
  Co  Co108  1  0.62297928  0.62367479  0.87100735  1
  Co  Co109  1  0.37599705  0.87045290  0.12800499  1
  Co  Co110  1  0.62491756  0.87813455  0.12733446  1
  Co  Co111  1  0.37725798  0.12634877  0.12252263  1
  Co  Co112  1  0.37512991  0.62855818  0.87390243  1
  Co  Co113  1  0.49377283  0.49525770  0.25293176  1
  Co  Co114  1  0.62219499  0.12150200  0.62451060  1
  Co  Co115  1  0.87250484  0.87402212  0.37392403  1
  Co  Co116  1  0.50045820  -0.00319068  0.49803165  1
  Co  Co117  1  0.37451766  0.87403268  0.87597685  1
  Co  Co118  1  0.87396337  0.37186569  0.37554676  1
  Co  Co119  1  0.87677066  0.12373768  0.62574792  1
  Co  Co120  1  0.37839179  0.62757726  0.62300921  1
  Co  Co121  1  -0.00108734  0.74987074  0.75138361  1
  Co  Co122  1  0.74994174  0.00371900  0.25076326  1
  Co  Co123  1  0.12491992  0.87508308  0.62551615  1
  Co  Co124  1  0.37627202  0.37331633  0.87746452  1
  Co  Co125  1  0.50000911  0.24999235  0.25153759  1
  Co  Co126  1  0.75275960  0.50013484  0.25190693  1
  Co  Co127  1  0.50413786  0.25289791  0.50385705  1
