# generated using pymatgen
data_Fe45Co19
_symmetry_space_group_name_H-M   'P 1'
_cell_length_a   11.41444207
_cell_length_b   11.41666060
_cell_length_c   11.41554310
_cell_angle_alpha   89.99466713
_cell_angle_beta   89.99744708
_cell_angle_gamma   89.99991338
_symmetry_Int_Tables_number   1
_chemical_formula_structural   Fe45Co19
_chemical_formula_sum   'Fe90 Co38'
_cell_volume   1487.61433498
_cell_formula_units_Z   2
loop_
 _symmetry_equiv_pos_site_id
 _symmetry_equiv_pos_as_xyz
  1  'x, y, z'
loop_
 _atom_site_type_symbol
 _atom_site_label
 _atom_site_symmetry_multiplicity
 _atom_site_fract_x
 _atom_site_fract_y
 _atom_site_fract_z
 _atom_site_occupancy
  Fe  Fe0  1  0.49843145  0.25251390  0.50142756  1
  Fe  Fe1  1  0.12983823  0.37765302  0.62452602  1
  Fe  Fe2  1  0.12413461  0.37606700  0.12429106  1
  Fe  Fe3  1  0.25331447  0.00148224  0.24735440  1
  Fe  Fe4  1  0.49815853  -0.00282436  0.74749603  1
  Fe  Fe5  1  0.74809239  0.24787935  0.75059297  1
  Fe  Fe6  1  0.12179009  0.62352922  0.37552133  1
  Fe  Fe7  1  0.62340293  0.12354855  0.62455289  1
  Fe  Fe8  1  0.87079630  0.37631096  0.12351163  1
  Fe  Fe9  1  0.49960668  0.75207932  0.74860070  1
  Fe  Fe10  1  0.24934113  0.74790745  0.24680583  1
  Fe  Fe11  1  0.62654047  0.62690953  0.87626484  1
  Fe  Fe12  1  0.37262782  0.87213653  0.87666420  1
  Fe  Fe13  1  0.50132039  0.25033125  0.25034258  1
  Fe  Fe14  1  0.00137884  0.25084797  0.74867941  1
  Fe  Fe15  1  -0.00384208  0.50100324  0.24960973  1
  Fe  Fe16  1  0.49926429  0.75090802  0.24713339  1
  Fe  Fe17  1  0.87308874  0.37448528  0.87481840  1
  Fe  Fe18  1  0.24992521  0.74896364  0.49850863  1
  Fe  Fe19  1  0.50174949  0.25056196  0.00041882  1
  Fe  Fe20  1  0.62849492  0.62331455  0.12451250  1
  Fe  Fe21  1  0.62363790  0.12330296  0.87519413  1
  Fe  Fe22  1  0.75065416  -0.00009487  0.74990470  1
  Fe  Fe23  1  0.87504385  0.62479687  0.62368977  1
  Fe  Fe24  1  0.74904468  0.50150058  0.75201409  1
  Fe  Fe25  1  0.37599128  0.12584919  0.37384595  1
  Fe  Fe26  1  0.49777366  0.49822021  0.75220547  1
  Fe  Fe27  1  0.12676267  0.37632856  0.87558820  1
  Fe  Fe28  1  0.87763011  0.12251176  0.87592719  1
  Fe  Fe29  1  0.00017796  0.75110676  0.75136424  1
  Fe  Fe30  1  0.12187353  0.12159387  0.87601488  1
  Fe  Fe31  1  0.12555489  0.12501767  0.62445883  1
  Fe  Fe32  1  0.75123121  -0.00104280  0.49787644  1
  Fe  Fe33  1  0.87368695  0.87412246  0.62524931  1
  Fe  Fe34  1  0.62626912  0.87595542  0.12742806  1
  Fe  Fe35  1  0.50329670  0.49823948  0.25173047  1
  Fe  Fe36  1  0.74959864  0.75073796  0.75104509  1
  Fe  Fe37  1  0.62546361  0.12516948  0.37531772  1
  Fe  Fe38  1  0.87321175  0.37448003  0.37641860  1
  Fe  Fe39  1  0.00009074  0.49987297  0.74957776  1
  Fe  Fe40  1  -0.00345301  0.50055071  -0.00108899  1
  Fe  Fe41  1  0.24978665  0.24893296  0.00009395  1
  Fe  Fe42  1  0.37236053  0.62627658  0.87733477  1
  Fe  Fe43  1  0.24997178  0.50160158  0.24927520  1
  Fe  Fe44  1  0.75115146  0.24754192  0.25070617  1
  Fe  Fe45  1  0.87620965  0.12588109  0.62408033  1
  Fe  Fe46  1  0.00054223  0.25217312  0.50029549  1
  Fe  Fe47  1  0.12556444  0.62478390  0.87632379  1
  Fe  Fe48  1  0.24858439  0.24957357  0.24927038  1
  Fe  Fe49  1  0.87350398  0.87287172  0.12771656  1
  Fe  Fe50  1  0.62506853  0.87518671  0.87589130  1
  Fe  Fe51  1  0.37372539  0.62548896  0.62570065  1
  Fe  Fe52  1  0.37445823  0.37547584  0.12498744  1
  Fe  Fe53  1  0.75283862  0.74443754  0.25424092  1
  Fe  Fe54  1  0.62612478  0.37431639  0.87593441  1
  Fe  Fe55  1  -0.00364678  0.00151712  0.24978644  1
  Fe  Fe56  1  0.75227330  -0.00076011  0.00156190  1
  Fe  Fe57  1  0.62380709  0.62590900  0.62428353  1
  Fe  Fe58  1  0.50000987  0.74967719  0.00340136  1
  Fe  Fe59  1  0.12591340  0.37706695  0.37518942  1
  Fe  Fe60  1  0.74755257  0.50361847  0.49504838  1
  Fe  Fe61  1  0.12570513  0.87711182  0.87743591  1
  Fe  Fe62  1  0.49892442  -0.00281325  0.50052540  1
  Fe  Fe63  1  0.49819009  0.49697111  0.49747493  1
  Fe  Fe64  1  0.62996705  0.37640685  0.12476574  1
  Fe  Fe65  1  -0.00071099  -0.00123402  0.49932221  1
  Fe  Fe66  1  -0.00133061  0.24969107  0.00055180  1
  Fe  Fe67  1  0.12362633  0.12331511  0.12345944  1
  Fe  Fe68  1  0.49980663  0.49937476  -0.00048427  1
  Fe  Fe69  1  0.12261316  0.62390518  0.12308160  1
  Fe  Fe70  1  0.37719994  0.62519063  0.37313363  1
  Fe  Fe71  1  0.12697296  0.87438072  0.62522793  1
  Fe  Fe72  1  0.87208876  0.37585433  0.62410105  1
  Fe  Fe73  1  0.12728231  0.87716530  0.12355617  1
  Fe  Fe74  1  0.62578836  0.37615287  0.62402811  1
  Fe  Fe75  1  0.50100898  0.75311397  0.50202367  1
  Fe  Fe76  1  0.37463942  0.87408669  0.37278771  1
  Fe  Fe77  1  0.49631902  0.00000744  0.00324288  1
  Fe  Fe78  1  0.37660341  0.12934085  0.87158323  1
  Fe  Fe79  1  0.25294844  0.25132037  0.49971053  1
  Fe  Fe80  1  0.62547492  0.12305449  0.12576891  1
  Fe  Fe81  1  0.62700775  0.87437808  0.37361700  1
  Fe  Fe82  1  -0.00021795  0.75176332  0.49859834  1
  Fe  Fe83  1  0.25206266  -0.00017528  0.50033902  1
  Fe  Fe84  1  0.25061975  0.00005569  0.74950496  1
  Fe  Fe85  1  0.12391130  0.12450814  0.37474009  1
  Fe  Fe86  1  -0.00288389  0.75136930  -0.00019004  1
  Fe  Fe87  1  0.12635392  0.62342717  0.62427271  1
  Fe  Fe88  1  -0.00124871  0.24951889  0.25013459  1
  Fe  Fe89  1  0.12426392  0.87558555  0.37181141  1
  Co  Co90  1  0.49920749  -0.00014352  0.25052043  1
  Co  Co91  1  0.25098552  0.50130833  0.75221313  1
  Co  Co92  1  0.62021868  0.62841839  0.37566529  1
  Co  Co93  1  0.74890064  0.24891257  0.50181215  1
  Co  Co94  1  0.75261881  0.00274964  0.25147069  1
  Co  Co95  1  0.25317487  0.50141836  0.49794691  1
  Co  Co96  1  0.37393197  0.37462795  0.37111665  1
  Co  Co97  1  0.24936068  0.74844017  0.00365356  1
  Co  Co98  1  0.37645080  0.12825243  0.12680509  1
  Co  Co99  1  0.87516963  0.87674446  0.87335282  1
  Co  Co100  1  0.25088267  0.49984477  0.00052528  1
  Co  Co101  1  0.75008170  0.50299123  0.25533415  1
  Co  Co102  1  0.37423049  0.87459531  0.12516282  1
  Co  Co103  1  0.74984181  0.50155389  -0.00311699  1
  Co  Co104  1  0.00048560  0.49727467  0.50158780  1
  Co  Co105  1  0.24810674  0.74972864  0.75062542  1
  Co  Co106  1  0.87547704  0.87317443  0.37341512  1
  Co  Co107  1  0.37446081  0.37202041  0.87506538  1
  Co  Co108  1  0.87657246  0.12673180  0.37761624  1
  Co  Co109  1  0.62717760  0.37146981  0.37520561  1
  Co  Co110  1  0.37334569  0.37482035  0.62870270  1
  Co  Co111  1  0.74923091  0.24724531  -0.00203954  1
  Co  Co112  1  0.24643296  0.24916878  0.75088047  1
  Co  Co113  1  0.37234082  0.87347979  0.62508972  1
  Co  Co114  1  0.00093780  0.74902915  0.24794242  1
  Co  Co115  1  -0.00362286  -0.00259788  0.00394765  1
  Co  Co116  1  0.74976591  0.74855970  0.49905336  1
  Co  Co117  1  0.87467715  0.62600076  0.87397838  1
  Co  Co118  1  0.62757514  0.87500350  0.62586987  1
  Co  Co119  1  0.87266329  0.62407590  0.12283900  1
  Co  Co120  1  0.37617547  0.12576718  0.62647925  1
  Co  Co121  1  0.50460229  0.25278719  0.74803933  1
  Co  Co122  1  0.25500153  0.00309171  -0.00061358  1
  Co  Co123  1  0.87507135  0.12729395  0.12356782  1
  Co  Co124  1  0.00091898  -0.00139620  0.74678902  1
  Co  Co125  1  0.75037784  0.75190255  -0.00128522  1
  Co  Co126  1  0.37684362  0.62227101  0.12570485  1
  Co  Co127  1  0.88054417  0.62515799  0.37843506  1
