# generated using pymatgen
data_Fe45Co19
_symmetry_space_group_name_H-M   'P 1'
_cell_length_a   11.41474879
_cell_length_b   11.41562411
_cell_length_c   11.41466446
_cell_angle_alpha   89.98885618
_cell_angle_beta   90.00180752
_cell_angle_gamma   89.98342200
_symmetry_Int_Tables_number   1
_chemical_formula_structural   Fe45Co19
_chemical_formula_sum   'Fe90 Co38'
_cell_volume   1487.40467274
_cell_formula_units_Z   2
loop_
 _symmetry_equiv_pos_site_id
 _symmetry_equiv_pos_as_xyz
  1  'x, y, z'
loop_
 _atom_site_type_symbol
 _atom_site_label
 _atom_site_symmetry_multiplicity
 _atom_site_fract_x
 _atom_site_fract_y
 _atom_site_fract_z
 _atom_site_occupancy
  Fe  Fe0  1  0.87458847  0.62271665  0.37758706  1
  Fe  Fe1  1  0.86732613  0.88002302  0.87401638  1
  Fe  Fe2  1  0.50398284  0.49932325  -0.00370739  1
  Fe  Fe3  1  0.37750767  0.62543225  0.12109724  1
  Fe  Fe4  1  0.49862333  0.25116499  0.25026919  1
  Fe  Fe5  1  0.12483907  0.87559053  0.62538287  1
  Fe  Fe6  1  0.12626230  0.62562690  0.37462611  1
  Fe  Fe7  1  0.49766187  0.50175039  0.50106468  1
  Fe  Fe8  1  0.87117857  0.12488211  0.37315631  1
  Fe  Fe9  1  0.87375347  0.37742861  0.37497279  1
  Fe  Fe10  1  0.12266475  0.87410340  0.12273496  1
  Fe  Fe11  1  0.63147647  0.87099910  0.12591453  1
  Fe  Fe12  1  0.74735793  0.50158941  0.24822142  1
  Fe  Fe13  1  0.49994466  0.49824845  0.75484992  1
  Fe  Fe14  1  0.12537512  0.62721963  0.62773404  1
  Fe  Fe15  1  0.24609224  0.00279683  0.75057731  1
  Fe  Fe16  1  0.75005718  0.50007320  0.75033064  1
  Fe  Fe17  1  0.87359273  0.87777345  0.62662227  1
  Fe  Fe18  1  0.62305254  0.12834193  0.62480678  1
  Fe  Fe19  1  0.62335365  0.62670405  0.37676331  1
  Fe  Fe20  1  0.25009417  0.25017710  -0.00218018  1
  Fe  Fe21  1  0.00188498  0.50007882  0.50195133  1
  Fe  Fe22  1  0.62333875  0.62556485  0.62734314  1
  Fe  Fe23  1  0.24988791  -0.00061005  0.24867421  1
  Fe  Fe24  1  0.25248678  0.74971045  0.75359194  1
  Fe  Fe25  1  -0.00084408  -0.00085345  0.24924787  1
  Fe  Fe26  1  0.74670001  0.00048948  0.49990394  1
  Fe  Fe27  1  0.37676107  0.87563647  0.12197838  1
  Fe  Fe28  1  -0.00109985  -0.00068073  -0.00323532  1
  Fe  Fe29  1  0.50499887  -0.00063321  0.25093818  1
  Fe  Fe30  1  0.50310126  0.00033863  0.75189104  1
  Fe  Fe31  1  0.62554548  0.37351000  0.12387008  1
  Fe  Fe32  1  0.00213089  0.50119139  0.24795133  1
  Fe  Fe33  1  0.24991809  0.74952221  -0.00241857  1
  Fe  Fe34  1  0.75333766  0.25167636  -0.00261648  1
  Fe  Fe35  1  0.37246826  0.37460028  0.37491003  1
  Fe  Fe36  1  0.12035190  0.37523257  0.87266838  1
  Fe  Fe37  1  0.49797175  0.24969156  0.50094178  1
  Fe  Fe38  1  0.25180418  0.75073250  0.24825373  1
  Fe  Fe39  1  0.37608145  0.12461764  0.12438205  1
  Fe  Fe40  1  0.62709715  0.12825928  0.12668724  1
  Fe  Fe41  1  0.25037773  0.50152707  0.24735214  1
  Fe  Fe42  1  0.87452717  0.37828543  0.12264313  1
  Fe  Fe43  1  0.50040212  0.25094149  -0.00378308  1
  Fe  Fe44  1  0.12324031  0.37287613  0.62756217  1
  Fe  Fe45  1  0.50258814  -0.00063368  0.49897387  1
  Fe  Fe46  1  0.37534426  0.12391423  0.37460166  1
  Fe  Fe47  1  -0.00065845  0.75020871  0.50102122  1
  Fe  Fe48  1  0.87639218  0.37593540  0.62651978  1
  Fe  Fe49  1  0.50043100  0.74988013  0.24986097  1
  Fe  Fe50  1  0.75329785  0.25043384  0.75179654  1
  Fe  Fe51  1  0.87284564  0.12294445  0.12555269  1
  Fe  Fe52  1  0.12430763  0.12541063  0.12317876  1
  Fe  Fe53  1  0.24605026  0.50190090  -0.00110595  1
  Fe  Fe54  1  0.62583434  0.87159059  0.62696257  1
  Fe  Fe55  1  0.62625443  0.37362133  0.37636422  1
  Fe  Fe56  1  0.25146576  0.24631183  0.50493270  1
  Fe  Fe57  1  0.50430244  0.75263728  -0.00527299  1
  Fe  Fe58  1  -0.00369679  0.75126342  0.75147292  1
  Fe  Fe59  1  0.87852459  0.12243908  0.62771993  1
  Fe  Fe60  1  0.25226880  0.50254785  0.50212253  1
  Fe  Fe61  1  0.49973681  0.49981277  0.24925006  1
  Fe  Fe62  1  0.00038445  -0.00127283  0.49885360  1
  Fe  Fe63  1  0.25038304  0.50056284  0.75280701  1
  Fe  Fe64  1  0.25435707  0.74856802  0.50126541  1
  Fe  Fe65  1  0.74941117  0.74870512  0.50180586  1
  Fe  Fe66  1  0.87533322  0.61916141  0.87676509  1
  Fe  Fe67  1  0.37482031  0.12545198  0.87303092  1
  Fe  Fe68  1  -0.00115065  0.24976018  0.24998703  1
  Fe  Fe69  1  0.49835176  0.75069150  0.75321051  1
  Fe  Fe70  1  0.37704892  0.87449886  0.37645916  1
  Fe  Fe71  1  0.24941377  -0.00040499  -0.00171606  1
  Fe  Fe72  1  0.12585496  0.87410882  0.37573091  1
  Fe  Fe73  1  -0.00281833  0.75018858  0.24949289  1
  Fe  Fe74  1  0.12709064  0.37362024  0.37493906  1
  Fe  Fe75  1  -0.00215778  0.75061593  -0.00286071  1
  Fe  Fe76  1  0.87460862  0.62361437  0.62330611  1
  Fe  Fe77  1  0.62399636  0.37431813  0.62693285  1
  Fe  Fe78  1  0.12632852  0.12555925  0.37626784  1
  Fe  Fe79  1  0.37481691  0.37472914  0.12209614  1
  Fe  Fe80  1  0.75140372  0.25108470  0.50115226  1
  Fe  Fe81  1  0.87111655  0.87543008  0.37373732  1
  Fe  Fe82  1  0.37582955  0.37309258  0.63010007  1
  Fe  Fe83  1  -0.00433064  0.24919989  -0.00437171  1
  Fe  Fe84  1  0.62899928  0.12531625  0.87469106  1
  Fe  Fe85  1  0.87294298  0.62475510  0.12196211  1
  Fe  Fe86  1  0.50494062  -0.00196298  -0.00183661  1
  Fe  Fe87  1  0.37499641  0.87745861  0.62658402  1
  Fe  Fe88  1  -0.00132807  0.25042487  0.50044466  1
  Fe  Fe89  1  0.12440786  0.37219398  0.12548057  1
  Co  Co90  1  0.37591187  0.62571051  0.37305282  1
  Co  Co91  1  0.74795001  0.49992174  0.50215614  1
  Co  Co92  1  0.87125633  0.11898442  0.87291314  1
  Co  Co93  1  0.62820909  0.37314393  0.87419365  1
  Co  Co94  1  0.11979113  0.12350536  0.62389008  1
  Co  Co95  1  0.62568805  0.62618104  0.87185722  1
  Co  Co96  1  0.74951544  0.74774459  -0.00331204  1
  Co  Co97  1  0.62647068  0.87033277  0.37609358  1
  Co  Co98  1  0.62655822  0.12932834  0.37480873  1
  Co  Co99  1  0.00322945  -0.00188358  0.75364003  1
  Co  Co100  1  0.74607333  0.00253655  0.74494708  1
  Co  Co101  1  0.12473495  0.63023369  0.12505632  1
  Co  Co102  1  0.74471273  0.50051156  0.00007840  1
  Co  Co103  1  0.25121915  0.00030058  0.50078347  1
  Co  Co104  1  0.37657593  0.62469294  0.87823054  1
  Co  Co105  1  0.74651176  -0.00004456  0.00389671  1
  Co  Co106  1  0.12435940  0.12690309  0.87594513  1
  Co  Co107  1  0.00509004  0.50157621  0.00363371  1
  Co  Co108  1  0.37635219  0.62386117  0.63004348  1
  Co  Co109  1  0.63141793  0.87546083  0.87089859  1
  Co  Co110  1  0.62336536  0.62745590  0.12411059  1
  Co  Co111  1  0.87710554  0.38174464  0.87589031  1
  Co  Co112  1  0.25127721  0.24812044  0.24802285  1
  Co  Co113  1  0.75137609  0.25315360  0.24849418  1
  Co  Co114  1  0.74712983  -0.00075151  0.24981168  1
  Co  Co115  1  0.37374795  0.37381333  0.87507974  1
  Co  Co116  1  0.37479870  0.87804426  0.87485722  1
  Co  Co117  1  0.12220705  0.62570103  0.87235291  1
  Co  Co118  1  -0.00320055  0.24800748  0.75305308  1
  Co  Co119  1  0.75239517  0.74666242  0.25065851  1
  Co  Co120  1  0.49758736  0.74909557  0.50346454  1
  Co  Co121  1  0.37799146  0.12292204  0.62823799  1
  Co  Co122  1  0.87339649  0.87459130  0.12344902  1
  Co  Co123  1  0.75412287  0.74641866  0.75026170  1
  Co  Co124  1  -0.00093535  0.50236012  0.74601049  1
  Co  Co125  1  0.24783662  0.24773846  0.74889605  1
  Co  Co126  1  0.12565549  0.87290483  0.87535287  1
  Co  Co127  1  0.50091993  0.24965743  0.75339178  1
