# generated using pymatgen
data_Fe45Co19
_symmetry_space_group_name_H-M   'P 1'
_cell_length_a   11.41564704
_cell_length_b   11.41632237
_cell_length_c   11.41605144
_cell_angle_alpha   89.99900002
_cell_angle_beta   90.01433304
_cell_angle_gamma   89.99598803
_symmetry_Int_Tables_number   1
_chemical_formula_structural   Fe45Co19
_chemical_formula_sum   'Fe90 Co38'
_cell_volume   1487.79350462
_cell_formula_units_Z   2
loop_
 _symmetry_equiv_pos_site_id
 _symmetry_equiv_pos_as_xyz
  1  'x, y, z'
loop_
 _atom_site_type_symbol
 _atom_site_label
 _atom_site_symmetry_multiplicity
 _atom_site_fract_x
 _atom_site_fract_y
 _atom_site_fract_z
 _atom_site_occupancy
  Fe  Fe0  1  0.00095426  0.00094728  0.50226409  1
  Fe  Fe1  1  0.24755933  0.74969133  0.00157584  1
  Fe  Fe2  1  -0.00145370  0.49699961  0.75143041  1
  Fe  Fe3  1  0.24252145  -0.00003980  0.75083090  1
  Fe  Fe4  1  0.74975317  0.50016011  0.24930456  1
  Fe  Fe5  1  0.50072585  0.49904010  0.75075559  1
  Fe  Fe6  1  0.74958640  0.50155636  0.75306096  1
  Fe  Fe7  1  0.87456646  0.62563542  0.37468690  1
  Fe  Fe8  1  0.62265767  0.62792293  0.12082812  1
  Fe  Fe9  1  0.12426183  0.62287303  0.62487777  1
  Fe  Fe10  1  0.49987514  0.75171954  0.74837771  1
  Fe  Fe11  1  0.00064909  0.25094458  0.25029716  1
  Fe  Fe12  1  0.24969930  0.00304794  0.25201640  1
  Fe  Fe13  1  0.74865921  0.49997659  0.49878517  1
  Fe  Fe14  1  0.87440778  0.87730417  0.62607995  1
  Fe  Fe15  1  0.62414064  0.37333643  0.12362123  1
  Fe  Fe16  1  0.74916233  0.75170226  0.49892637  1
  Fe  Fe17  1  0.88005525  0.12280101  0.87380764  1
  Fe  Fe18  1  0.37403293  0.37479542  0.62307567  1
  Fe  Fe19  1  0.00154599  -0.00078811  0.24801558  1
  Fe  Fe20  1  0.74833706  0.50189786  -0.00266217  1
  Fe  Fe21  1  0.50031397  0.00066367  0.74867476  1
  Fe  Fe22  1  0.62474155  0.62518010  0.62448446  1
  Fe  Fe23  1  0.88051766  0.87598980  0.87735256  1
  Fe  Fe24  1  0.74955392  0.74977781  0.24898757  1
  Fe  Fe25  1  0.75016215  0.75108291  0.75224521  1
  Fe  Fe26  1  0.12295524  0.62638788  0.87778385  1
  Fe  Fe27  1  0.87828669  0.62629150  0.87817092  1
  Fe  Fe28  1  0.62332604  0.12580033  0.87348149  1
  Fe  Fe29  1  0.49871574  0.49813228  0.24900704  1
  Fe  Fe30  1  0.24618699  0.00234903  -0.00349402  1
  Fe  Fe31  1  0.62234161  0.62424938  0.37670356  1
  Fe  Fe32  1  0.00139545  0.75164778  0.74847169  1
  Fe  Fe33  1  -0.00026935  0.75006303  0.50010620  1
  Fe  Fe34  1  0.24884765  0.00102795  0.50167517  1
  Fe  Fe35  1  0.50376572  0.24679522  0.50120327  1
  Fe  Fe36  1  0.87429069  0.62439214  0.62459423  1
  Fe  Fe37  1  0.37461066  0.12684954  0.87334487  1
  Fe  Fe38  1  0.74689925  0.24563680  0.49725664  1
  Fe  Fe39  1  0.62630502  0.87432198  0.12250888  1
  Fe  Fe40  1  0.87566584  0.12594899  0.37299880  1
  Fe  Fe41  1  0.24859662  0.75022023  0.74869997  1
  Fe  Fe42  1  0.37811738  0.62392176  0.37843577  1
  Fe  Fe43  1  0.87422231  0.37660293  0.12397119  1
  Fe  Fe44  1  0.62373080  0.37287103  0.87618114  1
  Fe  Fe45  1  0.87625094  0.87429188  0.37320999  1
  Fe  Fe46  1  0.37708561  0.87726630  0.37688119  1
  Fe  Fe47  1  0.12554812  0.87559906  0.37509946  1
  Fe  Fe48  1  0.00171868  0.24962092  0.50170809  1
  Fe  Fe49  1  0.25044955  0.25041542  0.00075239  1
  Fe  Fe50  1  0.37418378  0.12620114  0.12548164  1
  Fe  Fe51  1  0.37177526  0.87659011  0.12440423  1
  Fe  Fe52  1  0.37622421  0.62383069  0.12243235  1
  Fe  Fe53  1  0.12528476  0.12557702  0.12550112  1
  Fe  Fe54  1  0.49918133  0.75247833  0.24919710  1
  Fe  Fe55  1  0.12673860  0.37813458  0.12912551  1
  Fe  Fe56  1  0.24957493  0.74757248  0.24903904  1
  Fe  Fe57  1  0.87214116  0.37354783  0.37461176  1
  Fe  Fe58  1  0.75029140  0.00030403  0.25169884  1
  Fe  Fe59  1  -0.00068640  0.25159637  -0.00000738  1
  Fe  Fe60  1  0.37399773  0.37491673  0.37558119  1
  Fe  Fe61  1  0.62365132  0.87267338  0.87804856  1
  Fe  Fe62  1  0.37857300  0.37249476  0.87718886  1
  Fe  Fe63  1  0.12457890  0.37067333  0.87075473  1
  Fe  Fe64  1  0.87573029  0.12369297  0.12535833  1
  Fe  Fe65  1  0.75113603  0.00026200  -0.00180122  1
  Fe  Fe66  1  0.87894927  0.62240974  0.12192366  1
  Fe  Fe67  1  0.75123227  0.24907636  0.75166472  1
  Fe  Fe68  1  0.37625601  0.12494301  0.37400483  1
  Fe  Fe69  1  0.62602391  0.37356275  0.62521150  1
  Fe  Fe70  1  0.12776809  0.37648664  0.37265980  1
  Fe  Fe71  1  0.62117800  0.87946014  0.37705354  1
  Fe  Fe72  1  0.37674389  0.62396081  0.62331804  1
  Fe  Fe73  1  0.25145911  0.74942694  0.50087711  1
  Fe  Fe74  1  0.87273031  0.12142570  0.62813971  1
  Fe  Fe75  1  0.00090991  0.49855548  0.49864788  1
  Fe  Fe76  1  0.37728706  0.62513619  0.87603435  1
  Fe  Fe77  1  0.00172129  0.75058367  0.24447155  1
  Fe  Fe78  1  0.87358183  0.37539955  0.62459130  1
  Fe  Fe79  1  0.37259157  0.87568874  0.87359249  1
  Fe  Fe80  1  0.75077072  0.24772469  -0.00007418  1
  Fe  Fe81  1  0.25067562  0.49846867  0.74967811  1
  Fe  Fe82  1  0.12523218  0.62307857  0.37305278  1
  Fe  Fe83  1  0.24653403  0.24912509  0.50008932  1
  Fe  Fe84  1  0.62525881  0.12459323  0.12704023  1
  Fe  Fe85  1  0.49830584  0.00073042  0.00077919  1
  Fe  Fe86  1  0.37267148  0.12541917  0.62797159  1
  Fe  Fe87  1  0.62673505  0.87987827  0.62275688  1
  Fe  Fe88  1  0.49986962  0.25024644  0.24957420  1
  Fe  Fe89  1  0.25009047  0.49811112  0.00033651  1
  Co  Co90  1  0.12258820  0.13105885  0.87364556  1
  Co  Co91  1  0.49987016  0.24644924  0.00093469  1
  Co  Co92  1  0.12384923  0.87169928  0.87632358  1
  Co  Co93  1  0.37262703  0.87667266  0.62708904  1
  Co  Co94  1  0.62235544  0.62830971  0.87614538  1
  Co  Co95  1  0.75263672  0.00166300  0.49535244  1
  Co  Co96  1  0.49814117  0.00480796  0.50432155  1
  Co  Co97  1  0.50077374  0.49956687  -0.00035958  1
  Co  Co98  1  0.12520161  0.12868875  0.62846079  1
  Co  Co99  1  0.12355281  0.12388536  0.37508731  1
  Co  Co100  1  0.49516690  0.75334689  -0.00019648  1
  Co  Co101  1  -0.00427163  0.25085994  0.74735940  1
  Co  Co102  1  0.75063472  0.24971564  0.24913508  1
  Co  Co103  1  0.00615615  -0.00098200  0.74893438  1
  Co  Co104  1  0.49824317  -0.00081874  0.24591694  1
  Co  Co105  1  0.12578889  0.87306223  0.62229251  1
  Co  Co106  1  -0.00279173  0.49883058  0.25325195  1
  Co  Co107  1  0.87209047  0.37392643  0.87574091  1
  Co  Co108  1  0.62607085  0.37462093  0.37330661  1
  Co  Co109  1  0.25506616  0.50214105  0.24972045  1
  Co  Co110  1  0.00263731  0.75395566  0.00692660  1
  Co  Co111  1  0.00360493  -0.00068632  0.00127853  1
  Co  Co112  1  0.12323403  0.61907371  0.12448695  1
  Co  Co113  1  0.62946832  0.12216721  0.62765799  1
  Co  Co114  1  0.49969026  0.75293767  0.50277090  1
  Co  Co115  1  0.24856385  0.50080469  0.50044572  1
  Co  Co116  1  0.25267216  0.25225277  0.74967033  1
  Co  Co117  1  0.24985102  0.24843620  0.25047923  1
  Co  Co118  1  0.87189111  0.87757755  0.12483097  1
  Co  Co119  1  0.50155004  0.49684096  0.50074311  1
  Co  Co120  1  0.75394574  0.74954644  -0.00114180  1
  Co  Co121  1  0.50034808  0.24954684  0.74800449  1
  Co  Co122  1  0.13044404  0.87823468  0.12660382  1
  Co  Co123  1  0.62246110  0.12241824  0.37146234  1
  Co  Co124  1  0.74953133  -0.00262430  0.75576193  1
  Co  Co125  1  0.37575069  0.37315434  0.12419850  1
  Co  Co126  1  0.00286510  0.49469591  -0.00413480  1
  Co  Co127  1  0.12475831  0.37520430  0.62703078  1
