# generated using pymatgen
data_Fe45Co19
_symmetry_space_group_name_H-M   'P 1'
_cell_length_a   11.41411558
_cell_length_b   11.41540619
_cell_length_c   11.41633791
_cell_angle_alpha   90.00644777
_cell_angle_beta   90.00445632
_cell_angle_gamma   90.00228782
_symmetry_Int_Tables_number   1
_chemical_formula_structural   Fe45Co19
_chemical_formula_sum   'Fe90 Co38'
_cell_volume   1487.51189104
_cell_formula_units_Z   2
loop_
 _symmetry_equiv_pos_site_id
 _symmetry_equiv_pos_as_xyz
  1  'x, y, z'
loop_
 _atom_site_type_symbol
 _atom_site_label
 _atom_site_symmetry_multiplicity
 _atom_site_fract_x
 _atom_site_fract_y
 _atom_site_fract_z
 _atom_site_occupancy
  Fe  Fe0  1  0.37811238  0.62719390  0.62123717  1
  Fe  Fe1  1  0.87614496  0.37656857  0.87436595  1
  Fe  Fe2  1  0.49764465  0.25052629  0.49994914  1
  Fe  Fe3  1  0.11894738  0.37377089  0.12581929  1
  Fe  Fe4  1  0.50167794  -0.00171292  -0.00174715  1
  Fe  Fe5  1  0.25189608  0.74809822  0.24851083  1
  Fe  Fe6  1  0.87832274  0.87434001  0.62667980  1
  Fe  Fe7  1  0.87558878  0.62512863  0.87496150  1
  Fe  Fe8  1  0.00046918  -0.00359470  -0.00158467  1
  Fe  Fe9  1  0.74974306  -0.00060517  0.50008706  1
  Fe  Fe10  1  0.00115480  0.50104606  0.00015521  1
  Fe  Fe11  1  0.36767229  0.12258778  0.87826192  1
  Fe  Fe12  1  0.49603471  0.24727696  0.75168941  1
  Fe  Fe13  1  0.74932760  0.49923472  -0.00131863  1
  Fe  Fe14  1  0.62179347  0.62672635  0.62075152  1
  Fe  Fe15  1  0.62463150  0.37527866  0.37590981  1
  Fe  Fe16  1  0.12279273  0.37433390  0.37125854  1
  Fe  Fe17  1  0.87595029  0.12436366  0.37692717  1
  Fe  Fe18  1  0.49835657  0.24964325  -0.00068878  1
  Fe  Fe19  1  0.24448785  -0.00376542  0.50362071  1
  Fe  Fe20  1  0.75053657  0.24989145  0.50139382  1
  Fe  Fe21  1  0.37120365  0.12365876  0.37666956  1
  Fe  Fe22  1  0.62661846  0.37395130  0.12451699  1
  Fe  Fe23  1  0.24962143  0.50559192  0.75171720  1
  Fe  Fe24  1  0.62894755  0.87243152  0.37303656  1
  Fe  Fe25  1  0.75334908  0.75570561  0.00042835  1
  Fe  Fe26  1  0.12438999  0.87156723  0.12729468  1
  Fe  Fe27  1  0.37242902  0.87644174  0.37432131  1
  Fe  Fe28  1  0.00098333  0.50127481  0.75003640  1
  Fe  Fe29  1  0.25056679  0.74973796  -0.00074816  1
  Fe  Fe30  1  0.75149421  0.24859189  0.75016867  1
  Fe  Fe31  1  0.49888257  0.00138208  0.75187369  1
  Fe  Fe32  1  0.24857078  0.49895366  0.50094465  1
  Fe  Fe33  1  0.37581808  0.37625609  0.12575300  1
  Fe  Fe34  1  0.50199958  0.00176307  0.25222736  1
  Fe  Fe35  1  0.12708081  0.87219614  0.86989359  1
  Fe  Fe36  1  0.62441041  0.62531617  0.12276637  1
  Fe  Fe37  1  0.37299310  0.12263309  0.12179244  1
  Fe  Fe38  1  0.24900808  0.75369518  0.50207046  1
  Fe  Fe39  1  0.62205463  0.87430783  0.62619699  1
  Fe  Fe40  1  0.62410659  0.37283547  0.87373408  1
  Fe  Fe41  1  0.24882338  0.24786236  0.24812181  1
  Fe  Fe42  1  0.75033927  0.49955503  0.50104798  1
  Fe  Fe43  1  0.50174120  0.50193729  0.25040167  1
  Fe  Fe44  1  0.00482666  -0.00340178  0.49964493  1
  Fe  Fe45  1  0.87497042  0.12135205  0.12291236  1
  Fe  Fe46  1  0.37530415  0.87318604  0.87161677  1
  Fe  Fe47  1  0.75412500  0.24983877  0.25102524  1
  Fe  Fe48  1  0.37226664  0.37448140  0.62694159  1
  Fe  Fe49  1  0.37373986  0.37624378  0.37330765  1
  Fe  Fe50  1  0.12609890  0.62686892  0.37455415  1
  Fe  Fe51  1  0.75272546  0.49960736  0.25028528  1
  Fe  Fe52  1  0.12627584  0.37300731  0.62752685  1
  Fe  Fe53  1  -0.00165725  0.75256995  -0.00229652  1
  Fe  Fe54  1  0.62728154  0.12331002  0.12392324  1
  Fe  Fe55  1  0.12242266  0.63036366  0.62622648  1
  Fe  Fe56  1  0.50118437  0.74881932  0.25051154  1
  Fe  Fe57  1  0.75296067  0.24896504  -0.00156722  1
  Fe  Fe58  1  0.87640880  0.62488731  0.12362150  1
  Fe  Fe59  1  0.00075728  0.50101307  0.49941085  1
  Fe  Fe60  1  0.37537731  0.87613433  0.12768214  1
  Fe  Fe61  1  0.74786401  -0.00034017  0.75135386  1
  Fe  Fe62  1  0.00586633  0.00255909  0.75020429  1
  Fe  Fe63  1  0.87656056  0.37429343  0.62613246  1
  Fe  Fe64  1  0.50096230  -0.00075219  0.49801084  1
  Fe  Fe65  1  0.87326318  0.87321054  0.37269940  1
  Fe  Fe66  1  0.24706393  0.00144493  0.24810527  1
  Fe  Fe67  1  0.62859290  0.87787285  0.12628916  1
  Fe  Fe68  1  0.24728913  0.50180655  0.24703459  1
  Fe  Fe69  1  0.62410060  0.12518971  0.62556086  1
  Fe  Fe70  1  0.49988053  0.50320135  0.75110660  1
  Fe  Fe71  1  0.12507929  0.12590210  0.11979376  1
  Fe  Fe72  1  0.74836998  0.50244483  0.75002472  1
  Fe  Fe73  1  0.37293862  0.37813360  0.87512988  1
  Fe  Fe74  1  0.37577221  0.62442885  0.37706083  1
  Fe  Fe75  1  -0.00114167  0.74851705  0.25067538  1
  Fe  Fe76  1  0.87455631  0.12154813  0.87492523  1
  Fe  Fe77  1  0.00486603  0.24754605  0.75481618  1
  Fe  Fe78  1  0.75048370  0.75037000  0.74949683  1
  Fe  Fe79  1  0.87278574  0.62641732  0.37656989  1
  Fe  Fe80  1  0.24720197  0.50116826  0.00074393  1
  Fe  Fe81  1  0.00285866  0.24934339  0.49913686  1
  Fe  Fe82  1  0.49948651  0.24731448  0.25004474  1
  Fe  Fe83  1  0.62371610  0.37432597  0.62707289  1
  Fe  Fe84  1  0.62078184  0.62993136  0.87858126  1
  Fe  Fe85  1  0.36967365  0.12526703  0.62343232  1
  Fe  Fe86  1  0.87701704  0.62705775  0.62431280  1
  Fe  Fe87  1  0.37694909  0.62379750  0.12161539  1
  Fe  Fe88  1  0.00200051  0.00085976  0.25096071  1
  Fe  Fe89  1  0.87740694  0.12391416  0.62519336  1
  Co  Co90  1  0.75086981  0.00272536  0.25262523  1
  Co  Co91  1  0.87588395  0.87766170  0.12886169  1
  Co  Co92  1  0.49886158  0.75586220  0.00464169  1
  Co  Co93  1  0.12464957  0.37841344  0.87579546  1
  Co  Co94  1  0.50193469  0.49618487  0.00008085  1
  Co  Co95  1  0.12186331  0.86914750  0.63031187  1
  Co  Co96  1  0.75047329  0.75134382  0.50350423  1
  Co  Co97  1  0.75026151  -0.00266342  -0.00311936  1
  Co  Co98  1  0.12404184  0.62685301  0.87432475  1
  Co  Co99  1  0.75041086  0.74725593  0.24630128  1
  Co  Co100  1  0.49883061  0.49700459  0.50006107  1
  Co  Co101  1  0.87522081  0.87777353  0.87056510  1
  Co  Co102  1  0.62600510  0.62472509  0.37695988  1
  Co  Co103  1  -0.00212538  0.50328681  0.25098875  1
  Co  Co104  1  0.00011426  0.75242816  0.49688197  1
  Co  Co105  1  0.62386956  0.87255138  0.87381930  1
  Co  Co106  1  0.87732645  0.37488918  0.37699591  1
  Co  Co107  1  0.37722706  0.87589857  0.62558135  1
  Co  Co108  1  -0.00397667  0.74860585  0.75303356  1
  Co  Co109  1  0.24782347  -0.00115930  0.74579400  1
  Co  Co110  1  0.12311759  0.62811028  0.12437215  1
  Co  Co111  1  0.12765754  0.12821141  0.62360951  1
  Co  Co112  1  0.25001006  0.25487268  0.00110052  1
  Co  Co113  1  0.87716357  0.37625778  0.12321740  1
  Co  Co114  1  0.37834797  0.62543489  0.88088050  1
  Co  Co115  1  -0.00184677  0.24824361  -0.00373947  1
  Co  Co116  1  0.24754309  0.24869422  0.75466076  1
  Co  Co117  1  -0.00286083  0.24652300  0.24910596  1
  Co  Co118  1  0.25457499  0.74618781  0.74905965  1
  Co  Co119  1  0.12716351  0.87301490  0.37066676  1
  Co  Co120  1  0.24904877  0.25342979  0.49735826  1
  Co  Co121  1  0.12633388  0.12508273  0.37560148  1
  Co  Co122  1  0.62618476  0.12733673  0.37615875  1
  Co  Co123  1  0.49839225  0.74834160  0.74856025  1
  Co  Co124  1  0.24922559  -0.00800166  0.00159199  1
  Co  Co125  1  0.62577577  0.12555224  0.87529256  1
  Co  Co126  1  0.13063931  0.12193095  0.88063296  1
  Co  Co127  1  0.49993147  0.75399129  0.49594506  1
