# generated using pymatgen
data_Fe45Co19
_symmetry_space_group_name_H-M   'P 1'
_cell_length_a   11.41614965
_cell_length_b   11.41586160
_cell_length_c   11.41446714
_cell_angle_alpha   89.99842282
_cell_angle_beta   90.00473839
_cell_angle_gamma   90.00350060
_symmetry_Int_Tables_number   1
_chemical_formula_structural   Fe45Co19
_chemical_formula_sum   'Fe90 Co38'
_cell_volume   1487.59252706
_cell_formula_units_Z   2
loop_
 _symmetry_equiv_pos_site_id
 _symmetry_equiv_pos_as_xyz
  1  'x, y, z'
loop_
 _atom_site_type_symbol
 _atom_site_label
 _atom_site_symmetry_multiplicity
 _atom_site_fract_x
 _atom_site_fract_y
 _atom_site_fract_z
 _atom_site_occupancy
  Fe  Fe0  1  0.49896637  0.00082774  0.50137273  1
  Fe  Fe1  1  0.87908928  0.87390447  0.37834287  1
  Fe  Fe2  1  0.74981368  0.75334276  0.74747589  1
  Fe  Fe3  1  0.87681299  0.87464054  0.87177273  1
  Fe  Fe4  1  -0.00358562  0.00115200  0.00011866  1
  Fe  Fe5  1  0.37230211  0.12845633  0.62526800  1
  Fe  Fe6  1  0.50477786  0.24772261  0.25051506  1
  Fe  Fe7  1  0.74962240  0.74911153  0.25267076  1
  Fe  Fe8  1  -0.00247426  0.24881465  0.24952981  1
  Fe  Fe9  1  0.25055182  -0.00069420  -0.00127003  1
  Fe  Fe10  1  0.62602604  0.62350744  0.87379768  1
  Fe  Fe11  1  0.62724627  0.62616961  0.62543931  1
  Fe  Fe12  1  0.37353650  0.62706885  0.62423782  1
  Fe  Fe13  1  0.75040541  -0.00295537  0.50541646  1
  Fe  Fe14  1  0.24975558  0.74901036  0.75125901  1
  Fe  Fe15  1  0.74845075  0.25319681  -0.00345812  1
  Fe  Fe16  1  0.37610965  0.87407638  0.87538539  1
  Fe  Fe17  1  0.62721410  0.12450230  0.62649370  1
  Fe  Fe18  1  0.74826999  0.49934212  0.49768436  1
  Fe  Fe19  1  0.87310530  0.37413713  0.37474437  1
  Fe  Fe20  1  0.50298779  0.75014193  0.50003239  1
  Fe  Fe21  1  0.24697560  0.74955225  0.25209595  1
  Fe  Fe22  1  0.24958003  0.00115642  0.24918636  1
  Fe  Fe23  1  0.12490961  0.12416176  0.87447604  1
  Fe  Fe24  1  0.00182522  0.24822964  0.50266884  1
  Fe  Fe25  1  0.12620297  0.62109179  0.12661477  1
  Fe  Fe26  1  0.37406776  0.87387682  0.12423260  1
  Fe  Fe27  1  0.24682902  0.74954853  -0.00127555  1
  Fe  Fe28  1  0.24315921  0.75068771  0.49807279  1
  Fe  Fe29  1  0.62469743  0.87712770  0.87425549  1
  Fe  Fe30  1  0.25078764  0.49868008  0.49895973  1
  Fe  Fe31  1  0.12408467  0.61949095  0.87232146  1
  Fe  Fe32  1  0.50133340  0.49793790  -0.00015061  1
  Fe  Fe33  1  0.87611653  0.87362309  0.12462380  1
  Fe  Fe34  1  0.12257877  0.12544513  0.12451192  1
  Fe  Fe35  1  0.62453849  0.12286063  0.87671200  1
  Fe  Fe36  1  0.37781876  0.37318346  0.37568001  1
  Fe  Fe37  1  0.12538203  0.37575945  0.62666682  1
  Fe  Fe38  1  0.49805770  0.50049008  0.74895771  1
  Fe  Fe39  1  0.50120707  0.25018579  0.75277930  1
  Fe  Fe40  1  0.87355243  0.37013830  0.62746133  1
  Fe  Fe41  1  0.75418531  0.00192324  0.24790317  1
  Fe  Fe42  1  0.50160363  0.75118059  0.24939188  1
  Fe  Fe43  1  0.12467579  0.12394437  0.37501658  1
  Fe  Fe44  1  0.12161780  0.87564372  0.87159220  1
  Fe  Fe45  1  0.37371134  0.62386830  0.12455949  1
  Fe  Fe46  1  0.00150027  0.74777066  -0.00026745  1
  Fe  Fe47  1  0.50193670  0.50049543  0.49971602  1
  Fe  Fe48  1  0.00062968  0.25215207  -0.00089001  1
  Fe  Fe49  1  0.25153431  0.00080639  0.75045025  1
  Fe  Fe50  1  0.12126725  0.38075401  0.87281565  1
  Fe  Fe51  1  0.50114911  0.50041280  0.25223937  1
  Fe  Fe52  1  0.74685206  0.25017888  0.49826204  1
  Fe  Fe53  1  0.62529060  0.87709499  0.37450761  1
  Fe  Fe54  1  -0.00211567  0.49871924  0.24807093  1
  Fe  Fe55  1  0.49839752  0.00071691  0.75007907  1
  Fe  Fe56  1  0.50346105  0.24837699  0.49812290  1
  Fe  Fe57  1  0.00249094  0.75001400  0.25209352  1
  Fe  Fe58  1  0.12269459  0.87751104  0.12556865  1
  Fe  Fe59  1  0.50194954  0.75138120  0.00028063  1
  Fe  Fe60  1  0.62903555  0.37726310  0.12760653  1
  Fe  Fe61  1  0.87400934  0.12510343  0.37772604  1
  Fe  Fe62  1  0.37544748  0.87219958  0.62583753  1
  Fe  Fe63  1  0.37525460  0.37229031  0.62430158  1
  Fe  Fe64  1  0.24958395  0.25258550  -0.00232806  1
  Fe  Fe65  1  0.62484773  0.37469909  0.62567494  1
  Fe  Fe66  1  -0.00229359  0.00542766  0.74532246  1
  Fe  Fe67  1  0.37523891  0.12606968  0.37587054  1
  Fe  Fe68  1  -0.00096163  0.74457114  0.74412855  1
  Fe  Fe69  1  0.75268180  0.49621991  0.75168816  1
  Fe  Fe70  1  0.37457046  0.62267472  0.87665553  1
  Fe  Fe71  1  0.62727284  0.62405962  0.12580357  1
  Fe  Fe72  1  0.00156660  0.00141848  0.50454913  1
  Fe  Fe73  1  0.87544229  0.62257337  0.87544531  1
  Fe  Fe74  1  0.50034751  0.00043931  0.24817922  1
  Fe  Fe75  1  0.87178451  0.37510829  0.12411014  1
  Fe  Fe76  1  0.24908570  0.25077699  0.25172429  1
  Fe  Fe77  1  0.87348765  0.62465266  0.12387974  1
  Fe  Fe78  1  -0.00131767  0.50203378  0.50509772  1
  Fe  Fe79  1  0.37460170  0.62538169  0.37475829  1
  Fe  Fe80  1  0.87262202  0.12838450  0.87222182  1
  Fe  Fe81  1  0.24911798  -0.00064779  0.50147267  1
  Fe  Fe82  1  0.62727435  0.12242257  0.12130678  1
  Fe  Fe83  1  0.12332866  0.37684869  0.37404389  1
  Fe  Fe84  1  0.37425701  0.37453791  0.12464719  1
  Fe  Fe85  1  0.87645739  0.62701198  0.37957299  1
  Fe  Fe86  1  0.74995895  0.75111217  -0.00113450  1
  Fe  Fe87  1  0.24925734  0.25142818  0.75252544  1
  Fe  Fe88  1  0.37628431  0.12649290  0.12095576  1
  Fe  Fe89  1  0.37406934  0.87494193  0.37477428  1
  Co  Co90  1  0.12541055  0.37404163  0.12626553  1
  Co  Co91  1  0.00243162  0.24858240  0.74893460  1
  Co  Co92  1  0.75233300  0.50331840  0.25394204  1
  Co  Co93  1  0.62462992  0.62588722  0.37571236  1
  Co  Co94  1  0.74970163  0.24672546  0.25113130  1
  Co  Co95  1  0.49886313  -0.00332509  0.00044432  1
  Co  Co96  1  0.12919366  0.12686576  0.62495191  1
  Co  Co97  1  0.24885318  0.49858990  0.00068737  1
  Co  Co98  1  -0.00577581  0.50178800  0.74468310  1
  Co  Co99  1  0.25180195  0.49803946  0.25191168  1
  Co  Co100  1  0.87923205  0.37480458  0.87419191  1
  Co  Co101  1  0.62739594  0.12099833  0.37612602  1
  Co  Co102  1  0.12394447  0.87520199  0.62895584  1
  Co  Co103  1  0.50240755  0.25365795  0.00052025  1
  Co  Co104  1  0.00499565  0.74748824  0.50332999  1
  Co  Co105  1  0.12238765  0.61992904  0.37455816  1
  Co  Co106  1  0.74759006  0.75388287  0.50041897  1
  Co  Co107  1  0.87869873  0.87305230  0.62443419  1
  Co  Co108  1  0.74711633  0.25152617  0.75266357  1
  Co  Co109  1  0.87155551  0.12982151  0.62541353  1
  Co  Co110  1  0.24842951  0.25195052  0.49754770  1
  Co  Co111  1  0.49984805  0.74807530  0.75160804  1
  Co  Co112  1  0.12218630  0.87885593  0.37408264  1
  Co  Co113  1  0.62580504  0.37543174  0.37311104  1
  Co  Co114  1  0.37683000  0.12652375  0.87727451  1
  Co  Co115  1  0.86819765  0.62625117  0.62222951  1
  Co  Co116  1  0.75477644  -0.00236157  -0.00181542  1
  Co  Co117  1  0.12844113  0.62193479  0.62711830  1
  Co  Co118  1  0.62817080  0.87605499  0.12540787  1
  Co  Co119  1  0.62130439  0.87447407  0.62676042  1
  Co  Co120  1  0.37633033  0.37549363  0.87556139  1
  Co  Co121  1  -0.00401333  0.00320577  0.24843519  1
  Co  Co122  1  0.87403837  0.12910840  0.12123959  1
  Co  Co123  1  0.62315410  0.37722869  0.87381553  1
  Co  Co124  1  0.25467595  0.49851793  0.74858108  1
  Co  Co125  1  0.75116248  -0.00139689  0.74823761  1
  Co  Co126  1  -0.00087857  0.50013074  0.00277505  1
  Co  Co127  1  0.75094130  0.49991525  -0.00285637  1
