# generated using pymatgen
data_Fe45Co19
_symmetry_space_group_name_H-M   'P 1'
_cell_length_a   11.41471658
_cell_length_b   11.41597465
_cell_length_c   11.41448929
_cell_angle_alpha   90.00493846
_cell_angle_beta   90.00197666
_cell_angle_gamma   89.98776885
_symmetry_Int_Tables_number   1
_chemical_formula_structural   Fe45Co19
_chemical_formula_sum   'Fe90 Co38'
_cell_volume   1487.42337294
_cell_formula_units_Z   2
loop_
 _symmetry_equiv_pos_site_id
 _symmetry_equiv_pos_as_xyz
  1  'x, y, z'
loop_
 _atom_site_type_symbol
 _atom_site_label
 _atom_site_symmetry_multiplicity
 _atom_site_fract_x
 _atom_site_fract_y
 _atom_site_fract_z
 _atom_site_occupancy
  Fe  Fe0  1  0.62551701  0.37459106  0.87661168  1
  Fe  Fe1  1  0.12706113  0.12834559  0.37791733  1
  Fe  Fe2  1  0.75031995  0.24955216  0.00110955  1
  Fe  Fe3  1  0.12558745  0.62583086  0.37369629  1
  Fe  Fe4  1  0.25194432  -0.00055649  0.50112939  1
  Fe  Fe5  1  0.12228916  0.62788936  0.12811335  1
  Fe  Fe6  1  0.24592105  0.50057226  0.74758486  1
  Fe  Fe7  1  0.75129838  0.00164065  0.50046117  1
  Fe  Fe8  1  0.62610178  0.62651286  0.62755234  1
  Fe  Fe9  1  0.87569140  0.12326368  0.12608907  1
  Fe  Fe10  1  0.37472772  0.62693717  0.87408369  1
  Fe  Fe11  1  0.37374527  0.87183950  0.87377508  1
  Fe  Fe12  1  0.62452366  0.37479393  0.37594346  1
  Fe  Fe13  1  0.00142931  -0.00134219  0.00083745  1
  Fe  Fe14  1  0.87684593  0.87430299  0.12597004  1
  Fe  Fe15  1  0.12734623  0.37258986  0.37797052  1
  Fe  Fe16  1  0.24975408  0.49888479  0.50249562  1
  Fe  Fe17  1  0.87265766  0.87471271  0.37408061  1
  Fe  Fe18  1  0.62319751  0.12405105  0.12279629  1
  Fe  Fe19  1  0.37186452  0.87712902  0.12636375  1
  Fe  Fe20  1  -0.00067760  0.00180702  0.49736383  1
  Fe  Fe21  1  0.24902211  -0.00405011  0.74645251  1
  Fe  Fe22  1  0.62436006  0.12633251  0.62327120  1
  Fe  Fe23  1  0.37495202  0.62792237  0.62802744  1
  Fe  Fe24  1  0.00123023  -0.00068606  0.75018130  1
  Fe  Fe25  1  0.50045012  0.49835647  0.00055549  1
  Fe  Fe26  1  0.37128410  0.12919461  0.37345235  1
  Fe  Fe27  1  0.87479639  0.87351997  0.87603385  1
  Fe  Fe28  1  0.87801775  0.37594890  0.12489761  1
  Fe  Fe29  1  0.50129432  0.75010689  0.24778811  1
  Fe  Fe30  1  0.87982776  0.37568790  0.62963733  1
  Fe  Fe31  1  0.49997227  0.50160753  0.50017003  1
  Fe  Fe32  1  0.50046463  0.25037809  0.75136355  1
  Fe  Fe33  1  0.37351098  0.37510476  0.87389605  1
  Fe  Fe34  1  0.75020614  0.25147072  0.74977551  1
  Fe  Fe35  1  0.75016947  0.49857698  0.50260386  1
  Fe  Fe36  1  0.62026540  0.87433616  0.62065711  1
  Fe  Fe37  1  0.12778515  0.12255642  0.87436884  1
  Fe  Fe38  1  0.00082428  0.50103860  0.49978487  1
  Fe  Fe39  1  0.75040151  0.50075918  0.00144647  1
  Fe  Fe40  1  0.37658905  0.87281170  0.37693484  1
  Fe  Fe41  1  0.74798289  0.75084862  0.00509804  1
  Fe  Fe42  1  0.00073635  0.24744569  -0.00128614  1
  Fe  Fe43  1  0.50287887  0.50062298  0.75012861  1
  Fe  Fe44  1  0.37301148  0.12564638  0.12628512  1
  Fe  Fe45  1  0.50093794  0.49769440  0.24947931  1
  Fe  Fe46  1  0.62726952  0.62564628  0.37330823  1
  Fe  Fe47  1  0.74932304  0.24997099  0.24900732  1
  Fe  Fe48  1  0.37580801  0.62420291  0.12508890  1
  Fe  Fe49  1  0.24645422  0.25012816  0.74621650  1
  Fe  Fe50  1  0.12486324  0.87280958  0.87594536  1
  Fe  Fe51  1  0.87766591  0.62661032  0.13006110  1
  Fe  Fe52  1  0.87790365  0.12526305  0.62609367  1
  Fe  Fe53  1  0.62378085  0.87452278  0.37659894  1
  Fe  Fe54  1  0.62500746  0.62736119  0.87621050  1
  Fe  Fe55  1  0.37653650  0.37219100  0.12586301  1
  Fe  Fe56  1  0.49849488  0.00174405  0.25306421  1
  Fe  Fe57  1  0.24955215  0.75041426  0.00274826  1
  Fe  Fe58  1  0.25147830  0.74948354  0.50260593  1
  Fe  Fe59  1  0.00316838  -0.00139637  0.25136052  1
  Fe  Fe60  1  0.24847697  0.50005893  0.00176706  1
  Fe  Fe61  1  0.87645724  0.37626353  0.37322339  1
  Fe  Fe62  1  0.12605882  0.62894271  0.87333755  1
  Fe  Fe63  1  0.62551926  0.12384327  0.87658614  1
  Fe  Fe64  1  0.87488181  0.62470309  0.62800542  1
  Fe  Fe65  1  0.25098054  0.24915451  -0.00027963  1
  Fe  Fe66  1  -0.00105299  0.74826291  0.49876326  1
  Fe  Fe67  1  0.49995153  -0.00216836  0.75021527  1
  Fe  Fe68  1  0.87717031  0.37609824  0.87332537  1
  Fe  Fe69  1  0.12758803  0.87293519  0.37481932  1
  Fe  Fe70  1  0.37372072  0.62331073  0.37304846  1
  Fe  Fe71  1  0.74980262  0.50051067  0.24867547  1
  Fe  Fe72  1  0.74890800  -0.00125640  0.24888998  1
  Fe  Fe73  1  0.62748395  0.12527308  0.37635531  1
  Fe  Fe74  1  0.62480925  0.87432942  0.87900329  1
  Fe  Fe75  1  0.37661207  0.37664164  0.62538774  1
  Fe  Fe76  1  0.24729049  0.49686863  0.24804318  1
  Fe  Fe77  1  0.87288769  0.62778538  0.87121096  1
  Fe  Fe78  1  0.12410230  0.37538763  0.87548036  1
  Fe  Fe79  1  -0.00007803  0.50315840  -0.00113725  1
  Fe  Fe80  1  0.87704321  0.87469971  0.62470403  1
  Fe  Fe81  1  0.49515287  0.00168000  -0.00214223  1
  Fe  Fe82  1  0.87334254  0.12321224  0.87470852  1
  Fe  Fe83  1  0.37527133  0.12313272  0.62661962  1
  Fe  Fe84  1  0.75454650  0.25072118  0.50028909  1
  Fe  Fe85  1  0.00257382  0.25051315  0.25014193  1
  Fe  Fe86  1  0.49691795  0.25030086  0.49801198  1
  Fe  Fe87  1  0.75053359  0.74893076  0.49962771  1
  Fe  Fe88  1  0.74845676  -0.00248142  0.74886431  1
  Fe  Fe89  1  0.12888254  0.12182116  0.12500638  1
  Co  Co90  1  0.62191715  0.87949677  0.12393010  1
  Co  Co91  1  0.00043238  0.75029681  0.74884151  1
  Co  Co92  1  0.49764531  0.00473325  0.49710791  1
  Co  Co93  1  -0.00032857  0.75255801  0.25391457  1
  Co  Co94  1  0.12723248  0.87511014  0.12606438  1
  Co  Co95  1  0.12442971  0.62692326  0.62409945  1
  Co  Co96  1  0.37418112  0.37664962  0.37401761  1
  Co  Co97  1  0.87475508  0.12375800  0.37150884  1
  Co  Co98  1  0.49841180  0.75080934  0.00304873  1
  Co  Co99  1  0.00329560  0.50350368  0.75199021  1
  Co  Co100  1  0.74734952  0.49791728  0.74977432  1
  Co  Co101  1  0.62366723  0.62312168  0.12491340  1
  Co  Co102  1  0.62306291  0.37232096  0.62288292  1
  Co  Co103  1  0.25190952  0.74930777  0.24959548  1
  Co  Co104  1  0.62507029  0.37419762  0.12447188  1
  Co  Co105  1  0.37905443  0.87363713  0.62179221  1
  Co  Co106  1  0.49811698  0.24886492  -0.00190048  1
  Co  Co107  1  0.74842653  0.75420184  0.74868814  1
  Co  Co108  1  0.24767894  0.25318497  0.24796336  1
  Co  Co109  1  0.25161099  -0.00105762  -0.00261707  1
  Co  Co110  1  0.74818044  0.75133873  0.24861154  1
  Co  Co111  1  0.12101623  0.37356067  0.62399092  1
  Co  Co112  1  0.37249741  0.12574440  0.87081995  1
  Co  Co113  1  0.12238369  0.37476951  0.12081191  1
  Co  Co114  1  0.87383113  0.62364906  0.37402956  1
  Co  Co115  1  0.12221785  0.87579208  0.62176183  1
  Co  Co116  1  0.50128299  0.24907551  0.25192809  1
  Co  Co117  1  0.25338343  0.25180904  0.50438451  1
  Co  Co118  1  0.00040147  0.74945137  0.00041929  1
  Co  Co119  1  0.75204387  -0.00043801  0.00076340  1
  Co  Co120  1  0.49979320  0.74410491  0.49858306  1
  Co  Co121  1  0.00237108  0.24736654  0.75283214  1
  Co  Co122  1  0.00342026  0.49871116  0.25185166  1
  Co  Co123  1  0.12338796  0.12387080  0.62147204  1
  Co  Co124  1  0.25003443  -0.00032449  0.25460998  1
  Co  Co125  1  0.50125207  0.75100681  0.75063013  1
  Co  Co126  1  0.24877919  0.75287293  0.74654291  1
  Co  Co127  1  -0.00391105  0.24993875  0.49819648  1
