# generated using pymatgen
data_Fe45Co19
_symmetry_space_group_name_H-M   'P 1'
_cell_length_a   11.41547679
_cell_length_b   11.41592619
_cell_length_c   11.41544810
_cell_angle_alpha   89.99442730
_cell_angle_beta   89.99085050
_cell_angle_gamma   89.99751951
_symmetry_Int_Tables_number   1
_chemical_formula_structural   Fe45Co19
_chemical_formula_sum   'Fe90 Co38'
_cell_volume   1487.64108303
_cell_formula_units_Z   2
loop_
 _symmetry_equiv_pos_site_id
 _symmetry_equiv_pos_as_xyz
  1  'x, y, z'
loop_
 _atom_site_type_symbol
 _atom_site_label
 _atom_site_symmetry_multiplicity
 _atom_site_fract_x
 _atom_site_fract_y
 _atom_site_fract_z
 _atom_site_occupancy
  Fe  Fe0  1  0.24888179  0.74822967  -0.00038735  1
  Fe  Fe1  1  0.00028229  -0.00056101  0.49799138  1
  Fe  Fe2  1  0.25144923  0.49933769  0.25209244  1
  Fe  Fe3  1  0.75233067  0.74767027  0.00186197  1
  Fe  Fe4  1  0.00038592  -0.00222662  0.75275405  1
  Fe  Fe5  1  0.62354834  0.62641280  0.87014340  1
  Fe  Fe6  1  0.37726962  0.12202997  0.37411309  1
  Fe  Fe7  1  0.50162858  0.24452860  0.50295812  1
  Fe  Fe8  1  0.62501605  0.87487678  0.37136229  1
  Fe  Fe9  1  0.37496850  0.37623020  0.12359978  1
  Fe  Fe10  1  0.12438951  0.87402572  0.37308643  1
  Fe  Fe11  1  -0.00134085  0.49745108  0.25369473  1
  Fe  Fe12  1  0.62697636  0.12839499  0.87051124  1
  Fe  Fe13  1  0.12198077  0.12624305  0.87759854  1
  Fe  Fe14  1  0.75261514  0.74970082  0.74805997  1
  Fe  Fe15  1  0.37574252  0.88007316  0.62613044  1
  Fe  Fe16  1  0.37364377  0.87617681  0.87556097  1
  Fe  Fe17  1  0.12417902  0.87557940  0.12626998  1
  Fe  Fe18  1  0.25029864  0.24732801  0.50063306  1
  Fe  Fe19  1  0.37444088  0.37366057  0.87413949  1
  Fe  Fe20  1  0.87538853  0.87720586  0.62336462  1
  Fe  Fe21  1  0.87341009  0.87607153  0.87741783  1
  Fe  Fe22  1  0.50111171  0.25021405  -0.00188929  1
  Fe  Fe23  1  0.00244158  0.49514337  -0.00422493  1
  Fe  Fe24  1  0.50022193  0.75163373  0.50387265  1
  Fe  Fe25  1  0.50119209  0.75125255  -0.00254201  1
  Fe  Fe26  1  0.87248678  0.87397200  0.37320945  1
  Fe  Fe27  1  0.24957006  0.75076315  0.50269145  1
  Fe  Fe28  1  -0.00379369  0.25040964  0.75081718  1
  Fe  Fe29  1  0.37784826  0.87681775  0.37381030  1
  Fe  Fe30  1  0.37468318  0.12389555  0.12430867  1
  Fe  Fe31  1  0.37675412  0.62405425  0.12431868  1
  Fe  Fe32  1  0.87193289  0.37415775  0.62028983  1
  Fe  Fe33  1  0.24757544  0.75258227  0.74843295  1
  Fe  Fe34  1  0.37739393  0.62609096  0.87055693  1
  Fe  Fe35  1  0.24839998  -0.00015045  0.49748204  1
  Fe  Fe36  1  0.62533293  0.37150169  0.87005400  1
  Fe  Fe37  1  0.37607064  0.62585171  0.37744509  1
  Fe  Fe38  1  0.37524096  0.37502057  0.37930465  1
  Fe  Fe39  1  0.75056883  0.25005309  0.24935368  1
  Fe  Fe40  1  0.75003276  0.50135878  0.25147776  1
  Fe  Fe41  1  0.50094277  0.50112927  0.50572392  1
  Fe  Fe42  1  0.12109951  0.62552415  0.87051378  1
  Fe  Fe43  1  0.25191015  0.49961181  0.74769042  1
  Fe  Fe44  1  0.74879704  0.74910019  0.50296608  1
  Fe  Fe45  1  0.37640092  0.87577929  0.12526326  1
  Fe  Fe46  1  0.87361204  0.12672425  0.37625716  1
  Fe  Fe47  1  0.24538916  0.25224736  0.00217605  1
  Fe  Fe48  1  0.12276571  0.62240031  0.12509410  1
  Fe  Fe49  1  0.49935134  0.25020336  0.25066231  1
  Fe  Fe50  1  0.24666897  0.00018753  0.00105090  1
  Fe  Fe51  1  0.62516516  0.37532178  0.12447135  1
  Fe  Fe52  1  0.50304575  0.00000367  -0.00296559  1
  Fe  Fe53  1  0.11968225  0.62550192  0.62839394  1
  Fe  Fe54  1  0.74670364  0.00471120  0.50076845  1
  Fe  Fe55  1  0.12563233  0.37306800  0.62598008  1
  Fe  Fe56  1  0.87410245  0.62649640  0.37632227  1
  Fe  Fe57  1  0.24820192  0.00152649  0.75208189  1
  Fe  Fe58  1  0.75138614  0.50094969  0.74668809  1
  Fe  Fe59  1  0.74989817  0.00287405  -0.00034409  1
  Fe  Fe60  1  0.00023829  0.75226418  0.50159324  1
  Fe  Fe61  1  -0.00146335  0.75207355  0.00118181  1
  Fe  Fe62  1  0.75375852  0.00401416  0.75077744  1
  Fe  Fe63  1  0.49998963  0.49958769  0.25165951  1
  Fe  Fe64  1  0.25447935  0.24578808  0.74771462  1
  Fe  Fe65  1  0.74843140  0.50101594  -0.00110835  1
  Fe  Fe66  1  0.12406129  0.62589704  0.37509755  1
  Fe  Fe67  1  0.87899548  0.12695230  0.11974038  1
  Fe  Fe68  1  0.25074046  0.74995115  0.24969240  1
  Fe  Fe69  1  0.12258700  0.12329576  0.62428304  1
  Fe  Fe70  1  0.24941505  0.50131896  0.50334622  1
  Fe  Fe71  1  0.87412060  0.37571330  0.12334985  1
  Fe  Fe72  1  0.62832598  0.37315758  0.37868446  1
  Fe  Fe73  1  -0.00063643  0.25060176  0.49841637  1
  Fe  Fe74  1  0.24902197  0.25036373  0.25002125  1
  Fe  Fe75  1  0.50121664  0.49950739  -0.00362079  1
  Fe  Fe76  1  0.62607777  0.37094157  0.62653284  1
  Fe  Fe77  1  0.62379462  0.62542598  0.12531372  1
  Fe  Fe78  1  -0.00098473  -0.00004572  0.24927133  1
  Fe  Fe79  1  0.87797159  0.62523613  0.87207242  1
  Fe  Fe80  1  0.62360999  0.87918544  0.62966413  1
  Fe  Fe81  1  0.00135470  0.25271916  0.24997870  1
  Fe  Fe82  1  0.62439067  0.62629817  0.37629844  1
  Fe  Fe83  1  0.62393913  0.12648687  0.12592045  1
  Fe  Fe84  1  -0.00110713  0.49798215  0.49980923  1
  Fe  Fe85  1  0.75005867  0.00215611  0.24895899  1
  Fe  Fe86  1  0.62705826  0.87288292  0.12584733  1
  Fe  Fe87  1  0.24832353  0.49980201  -0.00318166  1
  Fe  Fe88  1  0.87103136  0.37157155  0.87681355  1
  Fe  Fe89  1  0.12493013  0.12507161  0.37339509  1
  Co  Co90  1  0.75150175  0.74638710  0.24848678  1
  Co  Co91  1  0.49954510  0.49670166  0.74800199  1
  Co  Co92  1  0.87214393  0.87677505  0.12555654  1
  Co  Co93  1  0.49787031  0.00248216  0.75630515  1
  Co  Co94  1  0.24987680  -0.00047876  0.25024444  1
  Co  Co95  1  0.49960166  0.75527523  0.75028456  1
  Co  Co96  1  0.87857710  0.62659911  0.62541633  1
  Co  Co97  1  0.12766248  0.37479974  0.37668635  1
  Co  Co98  1  -0.00102826  0.75676161  0.74949242  1
  Co  Co99  1  0.62337361  0.12393572  0.63153120  1
  Co  Co100  1  0.37637276  0.62765984  0.62790393  1
  Co  Co101  1  0.00052949  -0.00394437  -0.00025264  1
  Co  Co102  1  0.37440909  0.37315648  0.62281601  1
  Co  Co103  1  0.74856482  0.24318640  0.50292069  1
  Co  Co104  1  0.50130614  0.00001278  0.24803654  1
  Co  Co105  1  -0.00429856  0.49369343  0.75006020  1
  Co  Co106  1  0.74807094  0.24918755  0.00067691  1
  Co  Co107  1  0.62957490  0.87462847  0.87373885  1
  Co  Co108  1  0.87017167  0.37310602  0.37746973  1
  Co  Co109  1  0.12913860  0.37304216  0.86802637  1
  Co  Co110  1  0.87828960  0.12587844  0.87972175  1
  Co  Co111  1  0.37239108  0.12496654  0.88092952  1
  Co  Co112  1  0.00403735  0.25613906  -0.00083252  1
  Co  Co113  1  0.12314310  0.12403447  0.12456888  1
  Co  Co114  1  0.74950352  0.50343093  0.50261368  1
  Co  Co115  1  0.12590706  0.37869152  0.12798429  1
  Co  Co116  1  0.75603249  0.24673950  0.74673885  1
  Co  Co117  1  0.87839711  0.62017824  0.12424757  1
  Co  Co118  1  0.62523827  0.12608682  0.37219075  1
  Co  Co119  1  0.87937480  0.12201095  0.62290132  1
  Co  Co120  1  0.37591671  0.11791987  0.62230113  1
  Co  Co121  1  0.12511146  0.87808477  0.62360683  1
  Co  Co122  1  0.49373207  0.24718789  0.74918313  1
  Co  Co123  1  -0.00129556  0.75069811  0.24830743  1
  Co  Co124  1  0.49912599  0.74950528  0.24953753  1
  Co  Co125  1  0.12632684  0.87378627  0.87714542  1
  Co  Co126  1  0.50516766  0.00114794  0.49864344  1
  Co  Co127  1  0.62360048  0.62690705  0.62876519  1
