# generated using pymatgen
data_Fe45Co19
_symmetry_space_group_name_H-M   'P 1'
_cell_length_a   11.41692763
_cell_length_b   11.41465580
_cell_length_c   11.41530533
_cell_angle_alpha   89.98677316
_cell_angle_beta   90.00033442
_cell_angle_gamma   90.00386472
_symmetry_Int_Tables_number   1
_chemical_formula_structural   Fe45Co19
_chemical_formula_sum   'Fe90 Co38'
_cell_volume   1487.64596428
_cell_formula_units_Z   2
loop_
 _symmetry_equiv_pos_site_id
 _symmetry_equiv_pos_as_xyz
  1  'x, y, z'
loop_
 _atom_site_type_symbol
 _atom_site_label
 _atom_site_symmetry_multiplicity
 _atom_site_fract_x
 _atom_site_fract_y
 _atom_site_fract_z
 _atom_site_occupancy
  Fe  Fe0  1  0.87578153  0.87563925  0.12750368  1
  Fe  Fe1  1  0.87440747  0.87489022  0.37444473  1
  Fe  Fe2  1  0.74544354  0.49789858  0.75160762  1
  Fe  Fe3  1  -0.00223555  0.75126268  -0.00067397  1
  Fe  Fe4  1  0.62414311  0.12914037  0.87601274  1
  Fe  Fe5  1  0.25299823  0.74974012  0.50046029  1
  Fe  Fe6  1  0.25080365  0.00094158  0.74929148  1
  Fe  Fe7  1  0.24878595  0.74708931  0.25136743  1
  Fe  Fe8  1  0.24861488  0.49714704  0.00430032  1
  Fe  Fe9  1  0.37634188  0.12642594  0.87337107  1
  Fe  Fe10  1  0.74667664  0.75136063  0.49815696  1
  Fe  Fe11  1  0.12876987  0.37237974  0.62490384  1
  Fe  Fe12  1  0.49765850  0.49919360  0.49683702  1
  Fe  Fe13  1  0.12628000  0.62392902  0.62239978  1
  Fe  Fe14  1  0.75079445  0.49859106  0.49624271  1
  Fe  Fe15  1  0.74797752  -0.00023949  0.49838015  1
  Fe  Fe16  1  0.37362182  0.37825610  0.36501729  1
  Fe  Fe17  1  0.12545775  0.62522298  0.87731676  1
  Fe  Fe18  1  -0.00044907  0.24879413  0.74996135  1
  Fe  Fe19  1  0.00067127  0.49977996  0.74890628  1
  Fe  Fe20  1  0.00125793  0.49920792  0.00127955  1
  Fe  Fe21  1  0.12386502  0.12371197  0.87597251  1
  Fe  Fe22  1  0.49794960  0.25098479  0.00318419  1
  Fe  Fe23  1  0.24876587  0.50051202  0.75120182  1
  Fe  Fe24  1  0.75057405  0.25032137  0.00143501  1
  Fe  Fe25  1  0.62355901  0.62389367  0.62166128  1
  Fe  Fe26  1  0.25230935  0.25188770  0.00351162  1
  Fe  Fe27  1  0.87728060  0.37668401  0.12974458  1
  Fe  Fe28  1  0.50052215  0.50133995  -0.00000116  1
  Fe  Fe29  1  0.50111264  -0.00368187  0.49986591  1
  Fe  Fe30  1  0.74867943  -0.00124748  -0.00083374  1
  Fe  Fe31  1  0.25290908  0.75125755  0.00023566  1
  Fe  Fe32  1  0.74757895  0.00106136  0.25084487  1
  Fe  Fe33  1  0.12930459  0.12929714  0.62222504  1
  Fe  Fe34  1  0.37538991  0.37548126  0.87531814  1
  Fe  Fe35  1  0.87734468  0.87872743  0.87396922  1
  Fe  Fe36  1  0.12337022  0.87724774  0.87408297  1
  Fe  Fe37  1  0.50366137  0.49943015  0.75180266  1
  Fe  Fe38  1  0.12536098  0.37081142  0.36925196  1
  Fe  Fe39  1  0.74852466  0.00214989  0.75235355  1
  Fe  Fe40  1  0.12585689  0.37333223  0.87583043  1
  Fe  Fe41  1  0.25114807  0.49744870  0.49699590  1
  Fe  Fe42  1  0.50090131  0.74709254  0.25168047  1
  Fe  Fe43  1  -0.00126537  0.24937290  0.00115414  1
  Fe  Fe44  1  0.62455853  0.12744138  0.62329498  1
  Fe  Fe45  1  -0.00115476  0.74935483  0.49984196  1
  Fe  Fe46  1  0.25333243  -0.00214281  0.00105956  1
  Fe  Fe47  1  0.49597371  0.25432733  0.50080720  1
  Fe  Fe48  1  0.00110802  0.74820672  0.74930293  1
  Fe  Fe49  1  0.87157388  0.37301870  0.62505304  1
  Fe  Fe50  1  0.87290261  0.62334642  0.87547932  1
  Fe  Fe51  1  0.37533225  0.62539702  0.87339249  1
  Fe  Fe52  1  0.87324701  0.37373915  0.87404914  1
  Fe  Fe53  1  0.87531596  0.62368955  0.12603059  1
  Fe  Fe54  1  0.62217438  0.87014345  0.87873724  1
  Fe  Fe55  1  0.62706437  0.62521014  0.12272452  1
  Fe  Fe56  1  0.62330614  0.37523667  0.12702738  1
  Fe  Fe57  1  0.37776753  0.87248330  0.87383122  1
  Fe  Fe58  1  0.87314447  0.87606462  0.62573191  1
  Fe  Fe59  1  0.25113545  0.00041924  0.25024836  1
  Fe  Fe60  1  0.62529718  0.37472743  0.37179467  1
  Fe  Fe61  1  0.12548677  0.87487024  0.62520903  1
  Fe  Fe62  1  0.62290652  0.12653433  0.37470689  1
  Fe  Fe63  1  0.62222976  0.12318320  0.12521726  1
  Fe  Fe64  1  0.37599154  0.62468514  0.62489642  1
  Fe  Fe65  1  0.87323212  0.62351770  0.62362468  1
  Fe  Fe66  1  0.12696683  0.12868494  0.37612387  1
  Fe  Fe67  1  0.74764184  0.74888816  0.75123911  1
  Fe  Fe68  1  0.87475570  0.12662509  0.37578679  1
  Fe  Fe69  1  0.00128771  0.00166859  0.25072105  1
  Fe  Fe70  1  0.87226549  0.12842713  0.62432429  1
  Fe  Fe71  1  0.37729869  0.87379084  0.62724889  1
  Fe  Fe72  1  -0.00031878  0.49731823  0.49741230  1
  Fe  Fe73  1  0.74869842  0.49860630  0.00000480  1
  Fe  Fe74  1  0.12534314  0.12564945  0.12474123  1
  Fe  Fe75  1  0.50195907  -0.00034961  0.75046388  1
  Fe  Fe76  1  0.37773319  0.12195158  0.12669224  1
  Fe  Fe77  1  0.50000738  0.25453356  0.74616842  1
  Fe  Fe78  1  0.12507810  0.87501789  0.37608203  1
  Fe  Fe79  1  0.87432663  0.12255858  0.12377937  1
  Fe  Fe80  1  0.37322658  0.62225291  0.12840693  1
  Fe  Fe81  1  0.87493102  0.37395487  0.36981217  1
  Fe  Fe82  1  0.25228339  0.00017587  0.50035965  1
  Fe  Fe83  1  0.12585271  0.87367360  0.12605101  1
  Fe  Fe84  1  0.37618646  0.12508751  0.37503443  1
  Fe  Fe85  1  0.74838128  0.74794490  0.25083703  1
  Fe  Fe86  1  0.62064261  0.87538978  0.12411599  1
  Fe  Fe87  1  0.00002047  0.00148313  0.50145075  1
  Fe  Fe88  1  0.00159143  0.74554222  0.25293741  1
  Fe  Fe89  1  0.37649160  0.87367440  0.37326840  1
  Co  Co90  1  0.50072584  0.75178662  0.49922813  1
  Co  Co91  1  0.50456252  0.50358289  0.24955054  1
  Co  Co92  1  -0.00083215  0.25240368  0.49957829  1
  Co  Co93  1  0.50293000  0.74761661  0.74844476  1
  Co  Co94  1  0.75347862  0.75245657  0.00128795  1
  Co  Co95  1  0.37710395  0.87500073  0.12828738  1
  Co  Co96  1  0.62463764  0.62449611  0.37789177  1
  Co  Co97  1  0.62512087  0.87492980  0.37241425  1
  Co  Co98  1  0.12665025  0.62518695  0.38033001  1
  Co  Co99  1  0.74878755  0.50166455  0.25037734  1
  Co  Co100  1  0.49844759  0.00027423  -0.00193788  1
  Co  Co101  1  0.37701996  0.37929242  0.12831845  1
  Co  Co102  1  0.74877718  0.25113389  0.49657801  1
  Co  Co103  1  0.37417847  0.62392618  0.37357811  1
  Co  Co104  1  0.12192135  0.37227701  0.12840730  1
  Co  Co105  1  0.24891303  0.74939079  0.74995877  1
  Co  Co106  1  0.00069384  0.00344814  0.74479398  1
  Co  Co107  1  0.49981375  -0.00006452  0.25204468  1
  Co  Co108  1  0.37273444  0.37887919  0.62812406  1
  Co  Co109  1  0.00057731  -0.00146705  0.00376349  1
  Co  Co110  1  0.62584566  0.37658791  0.62087472  1
  Co  Co111  1  0.24270748  0.50228911  0.24692195  1
  Co  Co112  1  0.74817781  0.25144587  0.75047574  1
  Co  Co113  1  0.25390180  0.24815798  0.24607452  1
  Co  Co114  1  0.62379898  0.37250050  0.87865052  1
  Co  Co115  1  0.87593669  0.12415602  0.87668380  1
  Co  Co116  1  -0.00251639  0.24584378  0.24903235  1
  Co  Co117  1  0.49951887  0.24921142  0.24872493  1
  Co  Co118  1  0.37631726  0.12446111  0.62458916  1
  Co  Co119  1  0.87348267  0.62565055  0.37605375  1
  Co  Co120  1  0.74887471  0.24851767  0.24836767  1
  Co  Co121  1  0.49602432  0.74604656  0.00264379  1
  Co  Co122  1  0.25608640  0.25362458  0.49748448  1
  Co  Co123  1  0.62631396  0.62730033  0.87904615  1
  Co  Co124  1  0.25163613  0.24972706  0.75117223  1
  Co  Co125  1  0.62674416  0.87587531  0.62598026  1
  Co  Co126  1  0.00357818  0.50495199  0.25182804  1
  Co  Co127  1  0.12424798  0.62766662  0.12067959  1
