# generated using pymatgen
data_Fe45Co19
_symmetry_space_group_name_H-M   'P 1'
_cell_length_a   11.41490610
_cell_length_b   11.41588124
_cell_length_c   11.41534874
_cell_angle_alpha   89.99978073
_cell_angle_beta   90.00546467
_cell_angle_gamma   90.00183770
_symmetry_Int_Tables_number   1
_chemical_formula_structural   Fe45Co19
_chemical_formula_sum   'Fe90 Co38'
_cell_volume   1487.54792746
_cell_formula_units_Z   2
loop_
 _symmetry_equiv_pos_site_id
 _symmetry_equiv_pos_as_xyz
  1  'x, y, z'
loop_
 _atom_site_type_symbol
 _atom_site_label
 _atom_site_symmetry_multiplicity
 _atom_site_fract_x
 _atom_site_fract_y
 _atom_site_fract_z
 _atom_site_occupancy
  Fe  Fe0  1  0.75121491  0.25337609  -0.00084669  1
  Fe  Fe1  1  0.50003481  0.24981326  0.24932825  1
  Fe  Fe2  1  0.50013409  0.25194276  0.49813946  1
  Fe  Fe3  1  0.00123866  0.50176140  0.74807883  1
  Fe  Fe4  1  0.37441706  0.87389292  0.62689064  1
  Fe  Fe5  1  0.12152592  0.62465919  0.87766806  1
  Fe  Fe6  1  0.12346543  0.12310060  0.12329096  1
  Fe  Fe7  1  0.75258128  -0.00163833  0.50020040  1
  Fe  Fe8  1  0.37104413  0.37599937  0.37103795  1
  Fe  Fe9  1  0.24702588  0.74727368  0.74983750  1
  Fe  Fe10  1  0.62561713  0.87255925  0.62394066  1
  Fe  Fe11  1  0.50110822  0.00095976  0.74969774  1
  Fe  Fe12  1  0.87624285  0.37670593  0.87203215  1
  Fe  Fe13  1  0.75014550  0.49871973  0.00300219  1
  Fe  Fe14  1  0.75105527  0.24939298  0.25024645  1
  Fe  Fe15  1  0.12373552  0.12371106  0.61969053  1
  Fe  Fe16  1  0.49839939  -0.00096437  0.49972671  1
  Fe  Fe17  1  0.24960135  0.24933045  0.49608321  1
  Fe  Fe18  1  0.37360858  0.62499616  0.12524215  1
  Fe  Fe19  1  0.24817900  0.49838163  -0.00008283  1
  Fe  Fe20  1  0.62891805  0.37609224  0.37472760  1
  Fe  Fe21  1  0.87646095  0.12469793  0.12410047  1
  Fe  Fe22  1  0.24889872  -0.00257406  -0.00155044  1
  Fe  Fe23  1  0.87318824  0.37828579  0.37494615  1
  Fe  Fe24  1  0.00470179  0.74816398  0.25044751  1
  Fe  Fe25  1  0.00270063  0.24924887  0.25333422  1
  Fe  Fe26  1  0.87849468  0.62605001  0.12451832  1
  Fe  Fe27  1  0.37276892  0.62543083  0.62297818  1
  Fe  Fe28  1  0.24636056  0.74587693  0.25086890  1
  Fe  Fe29  1  0.74966887  0.24909335  0.75137542  1
  Fe  Fe30  1  0.49838498  -0.00177752  -0.00027793  1
  Fe  Fe31  1  0.87398795  0.37453794  0.62450893  1
  Fe  Fe32  1  0.37443603  0.12650493  0.12438967  1
  Fe  Fe33  1  0.49963548  0.74979339  -0.00077614  1
  Fe  Fe34  1  0.74912112  0.74887761  0.25145221  1
  Fe  Fe35  1  0.87448153  0.62455691  0.62246888  1
  Fe  Fe36  1  0.62627980  0.87456462  0.12549457  1
  Fe  Fe37  1  0.87405377  0.62369313  0.37764984  1
  Fe  Fe38  1  0.62599040  0.12484913  0.37664077  1
  Fe  Fe39  1  0.62559011  0.62595549  0.12437017  1
  Fe  Fe40  1  0.25119564  0.00450771  0.25270902  1
  Fe  Fe41  1  0.62593620  0.12746623  0.62349483  1
  Fe  Fe42  1  0.62762793  0.62515757  0.37950214  1
  Fe  Fe43  1  0.75259688  0.75200722  -0.00087051  1
  Fe  Fe44  1  0.87622549  0.37674884  0.12843106  1
  Fe  Fe45  1  0.87565777  0.87404868  0.37294913  1
  Fe  Fe46  1  0.49834271  0.25216441  -0.00172169  1
  Fe  Fe47  1  0.12380903  0.37546315  0.62276975  1
  Fe  Fe48  1  0.00085470  0.24875208  0.75011385  1
  Fe  Fe49  1  0.74961655  -0.00000182  0.25069877  1
  Fe  Fe50  1  0.00035975  0.75837718  0.00063611  1
  Fe  Fe51  1  0.00436012  0.50301590  0.25178720  1
  Fe  Fe52  1  0.37513518  0.12648714  0.62385795  1
  Fe  Fe53  1  0.12339680  0.87631513  0.62675554  1
  Fe  Fe54  1  0.24936168  0.24972824  0.75285419  1
  Fe  Fe55  1  0.74874414  0.74732213  0.75040654  1
  Fe  Fe56  1  0.62115096  0.38023078  0.87335542  1
  Fe  Fe57  1  0.74553307  0.50211087  0.74574282  1
  Fe  Fe58  1  0.50128006  0.74978674  0.25152536  1
  Fe  Fe59  1  0.37730366  0.62081986  0.87546273  1
  Fe  Fe60  1  0.37533161  0.37360875  0.62797344  1
  Fe  Fe61  1  0.62608242  0.12385033  0.87650138  1
  Fe  Fe62  1  0.37111256  0.62281097  0.37710463  1
  Fe  Fe63  1  0.24784868  0.75208853  -0.00057109  1
  Fe  Fe64  1  0.12508145  0.37559005  0.12635923  1
  Fe  Fe65  1  0.49781048  0.75147899  0.49807523  1
  Fe  Fe66  1  0.75642697  -0.00238773  -0.00292007  1
  Fe  Fe67  1  0.50035554  0.00008901  0.25046139  1
  Fe  Fe68  1  0.62656732  0.87465699  0.87414527  1
  Fe  Fe69  1  0.62644119  0.12555468  0.12272283  1
  Fe  Fe70  1  0.87658251  0.62480066  0.87633148  1
  Fe  Fe71  1  0.00159099  0.74971398  0.50205519  1
  Fe  Fe72  1  0.87430370  0.12491391  0.62569305  1
  Fe  Fe73  1  0.37346127  0.87349149  0.12709249  1
  Fe  Fe74  1  -0.00159582  0.25304538  -0.00095523  1
  Fe  Fe75  1  0.50153521  0.49765906  0.50341797  1
  Fe  Fe76  1  0.24797167  0.49921060  0.74986396  1
  Fe  Fe77  1  0.37332594  0.87473676  0.37435404  1
  Fe  Fe78  1  0.49803602  0.24865707  0.75368591  1
  Fe  Fe79  1  0.37384444  0.87529527  0.87242081  1
  Fe  Fe80  1  0.12587031  0.87720343  0.37710428  1
  Fe  Fe81  1  -0.00003562  0.00022835  0.24989869  1
  Fe  Fe82  1  0.24889315  0.00256349  0.74904906  1
  Fe  Fe83  1  0.25072408  0.25237770  -0.00257672  1
  Fe  Fe84  1  0.50173593  0.50046572  0.24875657  1
  Fe  Fe85  1  0.37327082  0.37563310  0.12691170  1
  Fe  Fe86  1  0.12235266  0.12424889  0.87773195  1
  Fe  Fe87  1  0.87716756  0.87548412  0.63086298  1
  Fe  Fe88  1  -0.00247091  0.25026139  0.49635690  1
  Fe  Fe89  1  0.50169228  0.74642657  0.75188584  1
  Co  Co90  1  0.87696900  0.12664658  0.87551146  1
  Co  Co91  1  0.50070984  0.50011178  0.00520591  1
  Co  Co92  1  0.75309682  0.24973155  0.49855072  1
  Co  Co93  1  0.24546662  0.50365016  0.24739767  1
  Co  Co94  1  0.12742036  0.62193987  0.62059752  1
  Co  Co95  1  0.12768774  0.87721017  0.12890187  1
  Co  Co96  1  0.62529821  0.62213940  0.87765447  1
  Co  Co97  1  0.00211333  0.74382274  0.74718879  1
  Co  Co98  1  0.62594593  0.87485645  0.37596803  1
  Co  Co99  1  0.75012907  0.50248661  0.24768711  1
  Co  Co100  1  0.12786259  0.62288025  0.38245917  1
  Co  Co101  1  0.62515272  0.37334989  0.12653513  1
  Co  Co102  1  0.37771869  0.37988932  0.87278845  1
  Co  Co103  1  0.74908858  0.00159748  0.74961787  1
  Co  Co104  1  0.12235429  0.37535209  0.87318818  1
  Co  Co105  1  0.62507877  0.63130159  0.61882996  1
  Co  Co106  1  0.50267766  0.50421627  0.74305543  1
  Co  Co107  1  -0.00159178  0.49913352  0.50010989  1
  Co  Co108  1  0.12197731  0.62559165  0.11947086  1
  Co  Co109  1  -0.00114910  0.49633665  0.00026198  1
  Co  Co110  1  0.37682679  0.12661750  0.37613309  1
  Co  Co111  1  0.75485538  0.75348075  0.50032105  1
  Co  Co112  1  0.74779829  0.49793591  0.50429707  1
  Co  Co113  1  0.12353216  0.87497885  0.86968113  1
  Co  Co114  1  0.87755633  0.87321603  0.86704122  1
  Co  Co115  1  0.00080749  0.00492630  0.75147938  1
  Co  Co116  1  0.62449347  0.36932090  0.62644310  1
  Co  Co117  1  -0.00272250  -0.00559203  -0.00071515  1
  Co  Co118  1  0.87488704  0.12367967  0.37310136  1
  Co  Co119  1  0.12305374  0.12194950  0.37818775  1
  Co  Co120  1  0.24705779  0.24683432  0.25125112  1
  Co  Co121  1  0.87405040  0.87393880  0.13052532  1
  Co  Co122  1  -0.00429769  -0.00170352  0.50063227  1
  Co  Co123  1  0.12650402  0.37696352  0.37579341  1
  Co  Co124  1  0.25312558  -0.00067579  0.50088594  1
  Co  Co125  1  0.37339397  0.12263267  0.87533842  1
  Co  Co126  1  0.25224593  0.49555701  0.50207560  1
  Co  Co127  1  0.24852490  0.75353499  0.50142242  1
