# generated using pymatgen
data_Fe45Co19
_symmetry_space_group_name_H-M   'P 1'
_cell_length_a   11.41606184
_cell_length_b   11.41420991
_cell_length_c   11.41437186
_cell_angle_alpha   90.00347176
_cell_angle_beta   90.00372315
_cell_angle_gamma   90.00255913
_symmetry_Int_Tables_number   1
_chemical_formula_structural   Fe45Co19
_chemical_formula_sum   'Fe90 Co38'
_cell_volume   1487.35344139
_cell_formula_units_Z   2
loop_
 _symmetry_equiv_pos_site_id
 _symmetry_equiv_pos_as_xyz
  1  'x, y, z'
loop_
 _atom_site_type_symbol
 _atom_site_label
 _atom_site_symmetry_multiplicity
 _atom_site_fract_x
 _atom_site_fract_y
 _atom_site_fract_z
 _atom_site_occupancy
  Fe  Fe0  1  -0.00195607  0.25242958  0.50262515  1
  Fe  Fe1  1  0.87329084  0.12409381  0.37851720  1
  Fe  Fe2  1  0.75087252  0.00145837  0.75080818  1
  Fe  Fe3  1  0.75103257  0.74897143  0.49920090  1
  Fe  Fe4  1  0.12433853  0.37431347  0.37395779  1
  Fe  Fe5  1  0.50094687  0.25103735  0.25085812  1
  Fe  Fe6  1  0.24791409  0.74703489  -0.00100940  1
  Fe  Fe7  1  0.00185648  0.49827431  0.24744649  1
  Fe  Fe8  1  0.37438311  0.87464179  0.62550437  1
  Fe  Fe9  1  0.62848604  0.87410199  0.12721430  1
  Fe  Fe10  1  0.62335009  0.62337283  0.37544533  1
  Fe  Fe11  1  0.00120571  -0.00174434  0.00277605  1
  Fe  Fe12  1  0.12329106  0.61745488  0.87611922  1
  Fe  Fe13  1  0.87282215  0.87435403  0.37101380  1
  Fe  Fe14  1  0.87440757  0.87441715  0.62764535  1
  Fe  Fe15  1  0.75306606  0.24853969  0.75636576  1
  Fe  Fe16  1  0.75047859  0.74766584  -0.00171733  1
  Fe  Fe17  1  0.74992209  0.00054108  -0.00068435  1
  Fe  Fe18  1  0.37797158  0.62232889  0.62342066  1
  Fe  Fe19  1  0.12476427  0.87460797  0.87436399  1
  Fe  Fe20  1  0.12226830  0.12551442  0.37641742  1
  Fe  Fe21  1  0.37461050  0.62364896  0.12362020  1
  Fe  Fe22  1  -0.00097048  -0.00222119  0.24668515  1
  Fe  Fe23  1  0.49915935  0.75125307  0.49963547  1
  Fe  Fe24  1  0.74731593  0.50548512  0.75277855  1
  Fe  Fe25  1  0.87899346  0.62160226  0.87818836  1
  Fe  Fe26  1  0.12570823  0.13138557  0.12462956  1
  Fe  Fe27  1  0.62620856  0.86985350  0.62820957  1
  Fe  Fe28  1  0.37637544  0.12423990  0.87414992  1
  Fe  Fe29  1  0.24923075  0.25180040  0.50041711  1
  Fe  Fe30  1  0.12519666  0.87174518  0.62480867  1
  Fe  Fe31  1  0.12492089  0.87344708  0.37627025  1
  Fe  Fe32  1  0.87754536  0.62384955  0.37505631  1
  Fe  Fe33  1  -0.00090613  0.74683028  0.74979677  1
  Fe  Fe34  1  0.37666531  0.37571400  0.37567539  1
  Fe  Fe35  1  0.37639490  0.62134683  0.87653712  1
  Fe  Fe36  1  0.50010073  0.74984051  0.24966967  1
  Fe  Fe37  1  0.87654953  0.87570284  0.87534450  1
  Fe  Fe38  1  -0.00398204  0.25283571  0.75105446  1
  Fe  Fe39  1  0.49946635  0.75104583  -0.00048623  1
  Fe  Fe40  1  0.50636491  0.49556228  0.50351608  1
  Fe  Fe41  1  0.25084677  0.74540492  0.74953092  1
  Fe  Fe42  1  -0.00193901  0.25605415  -0.00554151  1
  Fe  Fe43  1  0.50436025  0.25416147  0.50185704  1
  Fe  Fe44  1  0.62650097  0.12319424  0.37762077  1
  Fe  Fe45  1  0.62338685  0.62434837  0.12255722  1
  Fe  Fe46  1  0.87204564  0.37544153  0.12293698  1
  Fe  Fe47  1  0.24887062  0.00121437  0.50176130  1
  Fe  Fe48  1  0.24862026  0.49665084  0.24623186  1
  Fe  Fe49  1  0.00223864  0.75116666  0.00369232  1
  Fe  Fe50  1  0.62390974  0.12699587  0.87533972  1
  Fe  Fe51  1  0.50023035  0.00068015  0.24902102  1
  Fe  Fe52  1  0.24855032  0.00135385  0.74888739  1
  Fe  Fe53  1  0.37462884  0.87615109  0.37574020  1
  Fe  Fe54  1  0.24843692  0.00296994  -0.00019354  1
  Fe  Fe55  1  -0.00186793  -0.00032526  0.50302734  1
  Fe  Fe56  1  0.00023196  0.00286178  0.74775426  1
  Fe  Fe57  1  0.74984304  0.24873379  0.25054373  1
  Fe  Fe58  1  0.62534110  0.12671410  0.12288288  1
  Fe  Fe59  1  0.24887571  0.74911143  0.25036987  1
  Fe  Fe60  1  0.87729483  0.62621984  0.12575913  1
  Fe  Fe61  1  0.24813529  0.49945741  0.50131250  1
  Fe  Fe62  1  0.87215787  0.37777797  0.37658364  1
  Fe  Fe63  1  0.25165208  0.25117664  0.75074035  1
  Fe  Fe64  1  0.50505832  0.49801471  0.74993838  1
  Fe  Fe65  1  0.37750237  0.12590542  0.37820545  1
  Fe  Fe66  1  0.62709753  0.37510791  0.12168899  1
  Fe  Fe67  1  0.37575884  0.62180486  0.37565485  1
  Fe  Fe68  1  0.62569317  0.87020095  0.87143165  1
  Fe  Fe69  1  0.12266778  0.62621555  0.37543702  1
  Fe  Fe70  1  0.74958531  0.50185807  0.24946097  1
  Fe  Fe71  1  0.12208741  0.62457861  0.62308014  1
  Fe  Fe72  1  0.50104811  -0.00157701  -0.00004361  1
  Fe  Fe73  1  0.37363400  0.87561456  0.87450777  1
  Fe  Fe74  1  0.87507022  0.62197658  0.62082316  1
  Fe  Fe75  1  0.50114545  0.00043325  0.74866518  1
  Fe  Fe76  1  0.62803821  0.12797210  0.62441515  1
  Fe  Fe77  1  0.37650946  0.12705047  0.62424192  1
  Fe  Fe78  1  -0.00233064  0.25073703  0.25139283  1
  Fe  Fe79  1  0.49878903  0.25319058  -0.00265999  1
  Fe  Fe80  1  0.86957641  0.37701578  0.62412174  1
  Fe  Fe81  1  0.24968477  0.00335137  0.25016117  1
  Fe  Fe82  1  0.37372811  0.37869608  0.87325984  1
  Fe  Fe83  1  0.37335037  0.12906697  0.12410988  1
  Fe  Fe84  1  0.49975915  0.49788063  0.24664987  1
  Fe  Fe85  1  0.12531046  0.37612891  0.62839725  1
  Fe  Fe86  1  0.62699429  0.87676044  0.37328956  1
  Fe  Fe87  1  0.12307633  0.12741921  0.87333177  1
  Fe  Fe88  1  0.37264348  0.87495090  0.12463029  1
  Fe  Fe89  1  0.87510011  0.12583975  0.12226621  1
  Co  Co90  1  0.25112923  0.50284616  0.74679034  1
  Co  Co91  1  0.12578451  0.38035057  0.87034998  1
  Co  Co92  1  0.12422467  0.62435258  0.12551289  1
  Co  Co93  1  0.00160776  0.49679632  0.50013117  1
  Co  Co94  1  0.25003761  0.25362953  -0.00603942  1
  Co  Co95  1  0.87788685  0.12101367  0.87618980  1
  Co  Co96  1  0.87223426  0.12736670  0.62349179  1
  Co  Co97  1  0.74491639  0.50059788  0.49978778  1
  Co  Co98  1  0.50219493  -0.00146206  0.50304206  1
  Co  Co99  1  0.00207053  0.49542941  0.00457345  1
  Co  Co100  1  0.24847527  0.49633934  0.00422363  1
  Co  Co101  1  0.75061031  -0.00328902  0.50244929  1
  Co  Co102  1  0.49992222  0.49735566  -0.00074243  1
  Co  Co103  1  0.74855417  0.74497259  0.25147959  1
  Co  Co104  1  0.62116551  0.62813657  0.87459456  1
  Co  Co105  1  0.00185232  0.75286663  0.24761534  1
  Co  Co106  1  0.75087393  0.00466429  0.24849130  1
  Co  Co107  1  0.87025401  0.87296820  0.12548160  1
  Co  Co108  1  -0.00371698  0.49885699  0.74761955  1
  Co  Co109  1  0.62876612  0.37472681  0.87734802  1
  Co  Co110  1  0.74909582  0.50443537  -0.00106581  1
  Co  Co111  1  0.75275429  0.24829558  -0.00226651  1
  Co  Co112  1  0.37446732  0.37146632  0.12601029  1
  Co  Co113  1  0.49934580  0.25257231  0.75098871  1
  Co  Co114  1  0.12554168  0.36821027  0.12598695  1
  Co  Co115  1  0.25210199  0.74778732  0.50062808  1
  Co  Co116  1  0.25106485  0.24985858  0.25464530  1
  Co  Co117  1  0.12418125  0.12847829  0.62586081  1
  Co  Co118  1  0.87127473  0.38132129  0.87568155  1
  Co  Co119  1  0.63138356  0.37140064  0.63013988  1
  Co  Co120  1  0.37527632  0.37583155  0.62461755  1
  Co  Co121  1  0.74918739  0.25304345  0.49585985  1
  Co  Co122  1  -0.00331319  0.75114605  0.50018715  1
  Co  Co123  1  0.49414580  0.74912785  0.75073591  1
  Co  Co124  1  0.12938647  0.87494431  0.12458954  1
  Co  Co125  1  0.62419335  0.62976831  0.62639848  1
  Co  Co126  1  0.62596373  0.37674280  0.37060101  1
  Co  Co127  1  0.75651537  0.74496485  0.75129223  1
