# generated using pymatgen
data_Fe45Co19
_symmetry_space_group_name_H-M   'P 1'
_cell_length_a   11.41531645
_cell_length_b   11.41572035
_cell_length_c   11.41513601
_cell_angle_alpha   90.00146707
_cell_angle_beta   90.00019324
_cell_angle_gamma   89.99873972
_symmetry_Int_Tables_number   1
_chemical_formula_structural   Fe45Co19
_chemical_formula_sum   'Fe90 Co38'
_cell_volume   1487.55272107
_cell_formula_units_Z   2
loop_
 _symmetry_equiv_pos_site_id
 _symmetry_equiv_pos_as_xyz
  1  'x, y, z'
loop_
 _atom_site_type_symbol
 _atom_site_label
 _atom_site_symmetry_multiplicity
 _atom_site_fract_x
 _atom_site_fract_y
 _atom_site_fract_z
 _atom_site_occupancy
  Fe  Fe0  1  0.62562896  0.87609010  0.87594206  1
  Fe  Fe1  1  0.25066173  -0.00096879  0.00164963  1
  Fe  Fe2  1  0.25294723  0.74940710  0.00095491  1
  Fe  Fe3  1  0.25168955  -0.00010400  0.74965033  1
  Fe  Fe4  1  0.12547536  0.37708794  0.87520751  1
  Fe  Fe5  1  -0.00258356  -0.00003877  0.00123781  1
  Fe  Fe6  1  0.24951095  0.25003883  0.00073373  1
  Fe  Fe7  1  0.62507342  0.62649918  0.62319189  1
  Fe  Fe8  1  0.12374194  0.87330001  0.87489103  1
  Fe  Fe9  1  0.12264764  0.62465315  0.12369677  1
  Fe  Fe10  1  0.24890844  0.50279637  0.50249778  1
  Fe  Fe11  1  0.50341823  0.24902893  0.00009478  1
  Fe  Fe12  1  0.62544126  0.87530988  0.62718044  1
  Fe  Fe13  1  0.50047133  0.50250751  0.74992493  1
  Fe  Fe14  1  -0.00035755  0.24965337  0.74966283  1
  Fe  Fe15  1  0.87260951  0.12510115  0.37375950  1
  Fe  Fe16  1  0.37471561  0.37582456  0.37519451  1
  Fe  Fe17  1  0.00083211  0.24898566  0.50077061  1
  Fe  Fe18  1  -0.00315399  -0.00171263  0.75057144  1
  Fe  Fe19  1  0.37619681  0.87430855  0.62322715  1
  Fe  Fe20  1  -0.00311971  0.74728732  -0.00301768  1
  Fe  Fe21  1  0.75028484  0.24959871  0.74976616  1
  Fe  Fe22  1  0.75265822  0.49850500  0.25229732  1
  Fe  Fe23  1  0.25050622  0.74862881  0.49834488  1
  Fe  Fe24  1  -0.00335534  0.49760338  0.25074775  1
  Fe  Fe25  1  0.87190325  0.12349576  0.62562249  1
  Fe  Fe26  1  0.62528188  0.37592013  0.87450561  1
  Fe  Fe27  1  0.24994734  0.24847503  0.25168911  1
  Fe  Fe28  1  0.25130370  0.50094041  0.00032080  1
  Fe  Fe29  1  0.37718173  0.37501667  0.12448534  1
  Fe  Fe30  1  -0.00251970  0.25285956  0.25010219  1
  Fe  Fe31  1  0.62463265  0.37594772  0.62385499  1
  Fe  Fe32  1  -0.00014294  0.00018580  0.49901889  1
  Fe  Fe33  1  0.87559039  0.62693865  0.62445053  1
  Fe  Fe34  1  0.74610999  0.24823133  0.49941376  1
  Fe  Fe35  1  0.12529398  0.12420223  0.62586031  1
  Fe  Fe36  1  0.24911915  0.74928993  0.24948823  1
  Fe  Fe37  1  0.25043257  0.24916186  0.74928013  1
  Fe  Fe38  1  0.12306153  0.62402377  0.37495989  1
  Fe  Fe39  1  0.12334269  0.37539146  0.37674656  1
  Fe  Fe40  1  0.12452044  0.87378110  0.12426929  1
  Fe  Fe41  1  0.24872904  0.24837729  0.49856957  1
  Fe  Fe42  1  0.24846079  0.50405414  0.74779380  1
  Fe  Fe43  1  0.12440560  0.12570006  0.12601129  1
  Fe  Fe44  1  0.74850456  0.75082455  0.49351126  1
  Fe  Fe45  1  0.87601367  0.37556345  0.62335836  1
  Fe  Fe46  1  0.75297466  0.50238407  0.49844981  1
  Fe  Fe47  1  0.75255649  0.75084873  0.75255679  1
  Fe  Fe48  1  0.37714638  0.12348251  0.87664227  1
  Fe  Fe49  1  0.50126808  0.25029780  0.25304184  1
  Fe  Fe50  1  0.24899269  0.00092483  0.49796587  1
  Fe  Fe51  1  -0.00244563  -0.00083890  0.24870310  1
  Fe  Fe52  1  0.25173312  0.74727915  0.75076877  1
  Fe  Fe53  1  0.74615173  -0.00124550  0.49746101  1
  Fe  Fe54  1  0.25077551  0.50082543  0.24914594  1
  Fe  Fe55  1  0.62501978  0.62591319  0.87723828  1
  Fe  Fe56  1  0.37691186  0.87618154  0.37306329  1
  Fe  Fe57  1  0.87319576  0.87015280  0.12717099  1
  Fe  Fe58  1  0.74914878  0.50088263  0.74815206  1
  Fe  Fe59  1  0.62443936  0.62416643  0.12609317  1
  Fe  Fe60  1  0.37931019  0.12401085  0.62091309  1
  Fe  Fe61  1  0.25040872  0.00137227  0.25066289  1
  Fe  Fe62  1  0.37878046  0.62402031  0.12482141  1
  Fe  Fe63  1  0.75031101  0.50045173  0.00107237  1
  Fe  Fe64  1  0.62626485  0.12148480  0.87191106  1
  Fe  Fe65  1  0.12421335  0.37587999  0.12454572  1
  Fe  Fe66  1  0.62545743  0.87517296  0.12678262  1
  Fe  Fe67  1  0.50155376  0.74876396  0.25082601  1
  Fe  Fe68  1  0.12360861  0.12374997  0.87598613  1
  Fe  Fe69  1  0.75105126  -0.00005583  0.00070326  1
  Fe  Fe70  1  0.62655701  0.37488347  0.12586329  1
  Fe  Fe71  1  0.87416365  0.62674497  0.12767332  1
  Fe  Fe72  1  0.37800043  0.87582122  0.87764781  1
  Fe  Fe73  1  0.62591090  0.37786476  0.37578304  1
  Fe  Fe74  1  0.00276052  0.50332449  0.74804493  1
  Fe  Fe75  1  0.62813789  0.12474677  0.12920170  1
  Fe  Fe76  1  0.37526372  0.37560583  0.62442950  1
  Fe  Fe77  1  0.50054433  0.24930770  0.74806071  1
  Fe  Fe78  1  0.12423991  0.87279488  0.62639987  1
  Fe  Fe79  1  0.87401332  0.87435733  0.62387335  1
  Fe  Fe80  1  0.12331746  0.87670630  0.37327950  1
  Fe  Fe81  1  0.50144964  0.74964261  0.49636386  1
  Fe  Fe82  1  0.87440502  0.37714518  0.87593527  1
  Fe  Fe83  1  0.37563340  0.12459690  0.12509741  1
  Fe  Fe84  1  -0.00062824  0.75013733  0.49776159  1
  Fe  Fe85  1  0.87116044  0.12973390  0.12507123  1
  Fe  Fe86  1  0.49954592  0.74924025  0.75136034  1
  Fe  Fe87  1  -0.00083832  0.25179221  0.00004492  1
  Fe  Fe88  1  0.49842361  0.50173285  0.49907121  1
  Fe  Fe89  1  0.37607934  0.37637700  0.87542679  1
  Co  Co90  1  0.49983208  0.49853427  0.25095465  1
  Co  Co91  1  0.74999109  0.74910984  0.00031315  1
  Co  Co92  1  0.37760208  0.62634176  0.62423064  1
  Co  Co93  1  0.12194962  0.12491431  0.37276564  1
  Co  Co94  1  0.50362899  0.25177653  0.49860079  1
  Co  Co95  1  0.50155328  0.00040661  0.00264603  1
  Co  Co96  1  0.12532834  0.37382740  0.62416979  1
  Co  Co97  1  0.87138695  0.37274970  0.12189608  1
  Co  Co98  1  0.50449251  -0.00278248  0.50106742  1
  Co  Co99  1  0.37887421  0.12378748  0.37732639  1
  Co  Co100  1  -0.00059365  0.50190803  0.50087333  1
  Co  Co101  1  0.50052291  0.75118514  0.00163319  1
  Co  Co102  1  0.49810399  0.00104394  0.24833779  1
  Co  Co103  1  0.87449567  0.12539531  0.87600286  1
  Co  Co104  1  0.87599056  0.87418684  0.37366482  1
  Co  Co105  1  0.49858166  -0.00147594  0.74822379  1
  Co  Co106  1  0.62459782  0.12337057  0.62737304  1
  Co  Co107  1  0.87367446  0.87563619  0.87734252  1
  Co  Co108  1  0.62336326  0.87815268  0.36994373  1
  Co  Co109  1  0.62517094  0.62167760  0.37463808  1
  Co  Co110  1  0.50191233  0.49835545  0.00027258  1
  Co  Co111  1  0.00282923  0.75048625  0.25051923  1
  Co  Co112  1  0.87212909  0.62182588  0.87409007  1
  Co  Co113  1  0.37544351  0.87479103  0.12755747  1
  Co  Co114  1  0.87484796  0.37339816  0.37972342  1
  Co  Co115  1  0.74671285  0.74966967  0.25316951  1
  Co  Co116  1  -0.00390474  0.75006456  0.75227013  1
  Co  Co117  1  -0.00204890  0.50089966  0.00154229  1
  Co  Co118  1  0.37726365  0.62373957  0.87683818  1
  Co  Co119  1  0.74718483  0.24990673  -0.00324751  1
  Co  Co120  1  0.12579190  0.62633056  0.87654252  1
  Co  Co121  1  0.12352567  0.63023929  0.62432008  1
  Co  Co122  1  0.74929056  0.25359896  0.25397480  1
  Co  Co123  1  0.75244889  -0.00180311  0.74999745  1
  Co  Co124  1  0.62448718  0.12221071  0.37177574  1
  Co  Co125  1  0.75337098  -0.00253800  0.25021927  1
  Co  Co126  1  0.87589803  0.62796257  0.37243468  1
  Co  Co127  1  0.37528056  0.62468238  0.37343853  1
