# generated using pymatgen
data_Fe45Co19
_symmetry_space_group_name_H-M   'P 1'
_cell_length_a   11.41564458
_cell_length_b   11.41598983
_cell_length_c   11.41462915
_cell_angle_alpha   89.99742268
_cell_angle_beta   90.00106624
_cell_angle_gamma   89.99463710
_symmetry_Int_Tables_number   1
_chemical_formula_structural   Fe45Co19
_chemical_formula_sum   'Fe90 Co38'
_cell_volume   1487.56453565
_cell_formula_units_Z   2
loop_
 _symmetry_equiv_pos_site_id
 _symmetry_equiv_pos_as_xyz
  1  'x, y, z'
loop_
 _atom_site_type_symbol
 _atom_site_label
 _atom_site_symmetry_multiplicity
 _atom_site_fract_x
 _atom_site_fract_y
 _atom_site_fract_z
 _atom_site_occupancy
  Fe  Fe0  1  0.62748970  0.62596753  0.87380445  1
  Fe  Fe1  1  0.37571851  0.87454859  0.37521346  1
  Fe  Fe2  1  0.87658859  0.62606846  0.12749939  1
  Fe  Fe3  1  0.37272608  0.62439771  0.62706943  1
  Fe  Fe4  1  0.75088955  -0.00209500  -0.00011398  1
  Fe  Fe5  1  0.37610471  0.12693800  0.12186190  1
  Fe  Fe6  1  0.62646388  0.37910444  0.87385161  1
  Fe  Fe7  1  0.75013252  0.74859139  0.49877029  1
  Fe  Fe8  1  0.49817523  0.50348724  0.25089909  1
  Fe  Fe9  1  0.49932097  -0.00305151  -0.00027117  1
  Fe  Fe10  1  -0.00522373  0.00045085  0.74662732  1
  Fe  Fe11  1  0.49913363  0.00114927  0.50180198  1
  Fe  Fe12  1  0.50281477  0.25196615  0.74932291  1
  Fe  Fe13  1  0.00002125  0.75107575  -0.00044574  1
  Fe  Fe14  1  0.49865539  0.74803995  0.49882727  1
  Fe  Fe15  1  0.25098657  0.50000763  0.00054868  1
  Fe  Fe16  1  0.49851279  0.50317330  0.00101203  1
  Fe  Fe17  1  0.12513280  0.37432368  0.12180844  1
  Fe  Fe18  1  0.74828213  -0.00037454  0.24841164  1
  Fe  Fe19  1  0.62668960  0.62715260  0.12730170  1
  Fe  Fe20  1  0.24997633  0.25092325  0.24766960  1
  Fe  Fe21  1  0.87339267  0.12529275  0.12514967  1
  Fe  Fe22  1  0.12625376  0.12439519  0.37547640  1
  Fe  Fe23  1  -0.00274299  0.50050062  0.49822019  1
  Fe  Fe24  1  0.87322154  0.37342794  0.62634356  1
  Fe  Fe25  1  0.87477609  0.62786003  0.87419883  1
  Fe  Fe26  1  0.87549459  0.62649883  0.62453663  1
  Fe  Fe27  1  0.87941635  0.87588901  0.37749826  1
  Fe  Fe28  1  0.87572210  0.87459477  0.12492344  1
  Fe  Fe29  1  0.12339970  0.87937396  0.87695171  1
  Fe  Fe30  1  0.37552813  0.37627231  0.87475463  1
  Fe  Fe31  1  0.62842622  0.37872771  0.62596137  1
  Fe  Fe32  1  0.37453960  0.12547275  0.62693522  1
  Fe  Fe33  1  0.74910790  0.25078551  0.49875320  1
  Fe  Fe34  1  0.24843789  0.24780143  0.75457753  1
  Fe  Fe35  1  0.62537832  0.37597593  0.37444238  1
  Fe  Fe36  1  0.12369056  0.87860362  0.62371102  1
  Fe  Fe37  1  0.62456460  0.12408448  0.37433141  1
  Fe  Fe38  1  0.74985507  0.25126446  -0.00083105  1
  Fe  Fe39  1  0.75317296  0.49953493  0.25513660  1
  Fe  Fe40  1  -0.00051302  0.49841675  0.25205594  1
  Fe  Fe41  1  0.62691913  0.62190772  0.62411319  1
  Fe  Fe42  1  0.25123495  0.00160248  0.50121337  1
  Fe  Fe43  1  0.12425941  0.37293424  0.37619351  1
  Fe  Fe44  1  0.00084739  0.24507470  0.50305619  1
  Fe  Fe45  1  0.37303775  0.62637295  0.87304270  1
  Fe  Fe46  1  0.37069974  0.62868377  0.12866063  1
  Fe  Fe47  1  0.74884337  0.75213924  0.25102403  1
  Fe  Fe48  1  0.37422262  0.86995001  0.12163475  1
  Fe  Fe49  1  0.12390599  0.62399889  0.87440953  1
  Fe  Fe50  1  0.24958604  -0.00159945  0.24719983  1
  Fe  Fe51  1  0.50135185  -0.00130117  0.24646918  1
  Fe  Fe52  1  0.12175433  0.87913163  0.37822817  1
  Fe  Fe53  1  0.12490757  0.12351721  0.11863786  1
  Fe  Fe54  1  0.49820784  0.50153971  0.49887766  1
  Fe  Fe55  1  0.37485038  0.12479925  0.37405007  1
  Fe  Fe56  1  0.00073307  0.24794037  0.75054360  1
  Fe  Fe57  1  0.12529744  0.87780250  0.12040683  1
  Fe  Fe58  1  0.24871340  0.75090471  0.49999937  1
  Fe  Fe59  1  0.50115124  0.25265824  0.00055874  1
  Fe  Fe60  1  0.25027507  0.49877084  0.49959126  1
  Fe  Fe61  1  0.37345424  0.37519362  0.62741912  1
  Fe  Fe62  1  0.37457305  0.37458480  0.37311012  1
  Fe  Fe63  1  0.87416809  0.37385140  0.12645592  1
  Fe  Fe64  1  -0.00293042  0.49946651  -0.00031916  1
  Fe  Fe65  1  0.49973540  0.24998226  0.50129329  1
  Fe  Fe66  1  0.25316342  0.00074856  0.75440352  1
  Fe  Fe67  1  0.12286900  0.37428321  0.87793339  1
  Fe  Fe68  1  0.62664431  0.87525515  0.62467973  1
  Fe  Fe69  1  0.75262829  0.50155744  -0.00087393  1
  Fe  Fe70  1  0.75231558  0.00047845  0.50090326  1
  Fe  Fe71  1  0.62787794  0.87098224  0.87670451  1
  Fe  Fe72  1  0.12639802  0.62417144  0.37359110  1
  Fe  Fe73  1  0.49983969  -0.00337651  0.75073256  1
  Fe  Fe74  1  0.12592028  0.62479293  0.12612378  1
  Fe  Fe75  1  -0.00108434  0.75336123  0.74904756  1
  Fe  Fe76  1  0.00308566  0.75243889  0.25072353  1
  Fe  Fe77  1  0.00084886  0.24786931  0.24748441  1
  Fe  Fe78  1  0.50259835  0.24861013  0.24852506  1
  Fe  Fe79  1  0.62601598  0.37643614  0.12647304  1
  Fe  Fe80  1  0.87481166  0.12574389  0.87395423  1
  Fe  Fe81  1  0.62305789  0.87538138  0.37501242  1
  Fe  Fe82  1  0.87537251  0.12549303  0.37343124  1
  Fe  Fe83  1  0.24875688  0.75283282  0.75057787  1
  Fe  Fe84  1  -0.00164278  0.49856916  0.75081691  1
  Fe  Fe85  1  0.50030828  0.75047722  0.74918709  1
  Fe  Fe86  1  0.12564544  0.37374410  0.62511969  1
  Fe  Fe87  1  0.62768396  0.12393029  0.62705297  1
  Fe  Fe88  1  0.12499188  0.62391859  0.62653579  1
  Fe  Fe89  1  0.62419162  0.12358661  0.87517611  1
  Co  Co90  1  0.87529467  0.87261846  0.62098088  1
  Co  Co91  1  0.62636375  0.62461288  0.37499593  1
  Co  Co92  1  0.87303906  0.87184497  0.87531866  1
  Co  Co93  1  0.75124345  -0.00249412  0.75077649  1
  Co  Co94  1  0.12962704  0.12336100  0.62755281  1
  Co  Co95  1  0.50066953  0.50091317  0.75009835  1
  Co  Co96  1  0.24865911  0.49647918  0.24935630  1
  Co  Co97  1  0.86926078  0.12760500  0.62734545  1
  Co  Co98  1  0.87670062  0.62905288  0.37337756  1
  Co  Co99  1  0.74793875  0.24828112  0.24974492  1
  Co  Co100  1  0.37477209  0.87509612  0.62440975  1
  Co  Co101  1  0.75196830  0.74844872  0.00247661  1
  Co  Co102  1  0.12055158  0.12148262  0.87783313  1
  Co  Co103  1  0.62426949  0.87258010  0.12269727  1
  Co  Co104  1  0.25161176  0.24990469  0.50002884  1
  Co  Co105  1  0.37063422  0.62634347  0.37293027  1
  Co  Co106  1  0.75287470  0.50166024  0.75102770  1
  Co  Co107  1  0.25144762  0.24903276  -0.00277061  1
  Co  Co108  1  -0.00213463  0.00636262  0.50453922  1
  Co  Co109  1  0.50077793  0.74585578  -0.00009304  1
  Co  Co110  1  0.24612152  0.74874336  -0.00249696  1
  Co  Co111  1  0.00117149  0.00135016  0.24825201  1
  Co  Co112  1  0.75464050  0.49975110  0.49705320  1
  Co  Co113  1  0.87498927  0.37406977  0.87355061  1
  Co  Co114  1  0.74727228  0.25066332  0.75335982  1
  Co  Co115  1  0.75030905  0.75001545  0.74727191  1
  Co  Co116  1  0.24782434  0.49806480  0.75152361  1
  Co  Co117  1  0.24581950  0.75516647  0.25153837  1
  Co  Co118  1  0.25414500  0.00190908  -0.00297581  1
  Co  Co119  1  0.37641931  0.37467392  0.12535390  1
  Co  Co120  1  0.38079972  0.12635193  0.87489557  1
  Co  Co121  1  0.50089809  0.75018190  0.25156224  1
  Co  Co122  1  0.62495659  0.12461362  0.12186162  1
  Co  Co123  1  -0.00545209  -0.00082013  -0.00002326  1
  Co  Co124  1  0.87729418  0.36952412  0.37455488  1
  Co  Co125  1  0.00291490  0.74787030  0.50035147  1
  Co  Co126  1  0.37546584  0.87086558  0.87728304  1
  Co  Co127  1  -0.00296998  0.25015375  0.00067453  1
