# generated using pymatgen
data_Fe45Co19
_symmetry_space_group_name_H-M   'P 1'
_cell_length_a   11.41566972
_cell_length_b   11.41421527
_cell_length_c   11.41480270
_cell_angle_alpha   90.00533098
_cell_angle_beta   89.99955217
_cell_angle_gamma   90.00583694
_symmetry_Int_Tables_number   1
_chemical_formula_structural   Fe45Co19
_chemical_formula_sum   'Fe90 Co38'
_cell_volume   1487.35918457
_cell_formula_units_Z   2
loop_
 _symmetry_equiv_pos_site_id
 _symmetry_equiv_pos_as_xyz
  1  'x, y, z'
loop_
 _atom_site_type_symbol
 _atom_site_label
 _atom_site_symmetry_multiplicity
 _atom_site_fract_x
 _atom_site_fract_y
 _atom_site_fract_z
 _atom_site_occupancy
  Fe  Fe0  1  0.24890353  0.75298618  0.00166070  1
  Fe  Fe1  1  0.11979286  0.87666125  0.12630475  1
  Fe  Fe2  1  0.00028425  0.00201302  0.49989718  1
  Fe  Fe3  1  0.62761967  0.12428209  0.12595374  1
  Fe  Fe4  1  0.87766431  0.87828704  0.87242351  1
  Fe  Fe5  1  0.12384144  0.37240495  0.62153030  1
  Fe  Fe6  1  0.24987075  0.24863927  0.74900504  1
  Fe  Fe7  1  0.87347651  0.12561781  0.37340567  1
  Fe  Fe8  1  0.12643512  0.13073620  0.38035541  1
  Fe  Fe9  1  0.24785417  0.75149194  0.25017924  1
  Fe  Fe10  1  0.12341515  0.37024543  0.12294552  1
  Fe  Fe11  1  0.87869682  0.87424788  0.62674670  1
  Fe  Fe12  1  0.37090136  0.62352296  0.87423256  1
  Fe  Fe13  1  0.37402687  0.87440992  0.62582072  1
  Fe  Fe14  1  0.49806179  0.00088951  0.00038083  1
  Fe  Fe15  1  0.74987442  0.49844522  0.49926442  1
  Fe  Fe16  1  0.00419109  0.50371440  0.74982247  1
  Fe  Fe17  1  0.49815543  0.00072828  0.49747479  1
  Fe  Fe18  1  0.49840476  0.74971277  0.50030743  1
  Fe  Fe19  1  0.74981988  0.75231353  0.74812903  1
  Fe  Fe20  1  0.50115359  0.00056380  0.74937970  1
  Fe  Fe21  1  0.12426502  0.62512429  0.12393858  1
  Fe  Fe22  1  0.37584205  0.87619373  0.12795888  1
  Fe  Fe23  1  0.37199831  0.62320677  0.62662797  1
  Fe  Fe24  1  0.75344282  -0.00533527  0.24823493  1
  Fe  Fe25  1  0.37826179  0.37586959  0.62765288  1
  Fe  Fe26  1  0.00089884  0.24538091  0.74827675  1
  Fe  Fe27  1  0.75138707  -0.00422293  0.50153904  1
  Fe  Fe28  1  0.37217183  0.12643907  0.12635900  1
  Fe  Fe29  1  0.24871724  0.49767409  0.24977022  1
  Fe  Fe30  1  0.12551093  0.12667891  0.87745706  1
  Fe  Fe31  1  0.24994032  0.25221507  0.25166611  1
  Fe  Fe32  1  0.25041350  0.00076617  0.00058813  1
  Fe  Fe33  1  0.24636290  0.00001929  0.25222472  1
  Fe  Fe34  1  0.87661110  0.62557418  0.62427288  1
  Fe  Fe35  1  0.24363676  0.74681133  0.74961213  1
  Fe  Fe36  1  0.62629350  0.62515654  0.37587311  1
  Fe  Fe37  1  0.75318351  0.75422947  0.24871543  1
  Fe  Fe38  1  0.87660155  0.37222525  0.12860901  1
  Fe  Fe39  1  0.87484879  0.62595768  0.12514177  1
  Fe  Fe40  1  0.62730774  0.12341770  0.87535538  1
  Fe  Fe41  1  0.37424882  0.37611189  0.87298405  1
  Fe  Fe42  1  0.50102393  0.24700070  0.49511700  1
  Fe  Fe43  1  0.74909641  0.24984681  0.74917072  1
  Fe  Fe44  1  0.62827497  0.62414495  0.87558591  1
  Fe  Fe45  1  0.50043139  0.74929963  0.75039317  1
  Fe  Fe46  1  0.49945137  0.75088325  -0.00072161  1
  Fe  Fe47  1  0.37331852  0.62561215  0.37424141  1
  Fe  Fe48  1  0.12295206  0.87291117  0.62393007  1
  Fe  Fe49  1  0.38198540  0.37657986  0.37045562  1
  Fe  Fe50  1  -0.00105093  0.74860689  -0.00104984  1
  Fe  Fe51  1  0.87585027  0.37592582  0.62638979  1
  Fe  Fe52  1  0.62506664  0.62369239  0.62541582  1
  Fe  Fe53  1  0.50114098  0.24804136  0.75093911  1
  Fe  Fe54  1  0.75126078  0.49754221  0.00069806  1
  Fe  Fe55  1  0.87661490  0.37412539  0.87252904  1
  Fe  Fe56  1  0.62604751  0.12348910  0.62307115  1
  Fe  Fe57  1  -0.00096112  0.49767262  0.49746520  1
  Fe  Fe58  1  0.12205195  0.87635868  0.87611370  1
  Fe  Fe59  1  0.50032602  0.74932300  0.24945349  1
  Fe  Fe60  1  -0.00253159  0.00831076  0.00414823  1
  Fe  Fe61  1  0.75025286  0.25274790  0.49859886  1
  Fe  Fe62  1  0.75342300  0.24958303  -0.00087161  1
  Fe  Fe63  1  0.74831449  0.49875542  0.25039726  1
  Fe  Fe64  1  0.74607071  0.25273132  0.25396950  1
  Fe  Fe65  1  0.12348744  0.37313708  0.87671750  1
  Fe  Fe66  1  0.62302837  0.37703209  0.62405645  1
  Fe  Fe67  1  0.62793526  0.62808893  0.12238714  1
  Fe  Fe68  1  0.37305002  0.87558285  0.87270262  1
  Fe  Fe69  1  0.87429425  0.12313531  0.62747852  1
  Fe  Fe70  1  0.62485710  0.87476536  0.37595376  1
  Fe  Fe71  1  0.25036521  -0.00322632  0.49875014  1
  Fe  Fe72  1  0.37315717  0.12424215  0.62349739  1
  Fe  Fe73  1  0.12071867  0.87259436  0.37472485  1
  Fe  Fe74  1  0.49734430  0.24840281  -0.00013443  1
  Fe  Fe75  1  0.62587943  0.87612140  0.87610741  1
  Fe  Fe76  1  -0.00135397  0.49854611  0.00082330  1
  Fe  Fe77  1  0.25047426  0.49660915  0.00161462  1
  Fe  Fe78  1  0.00197172  0.49868034  0.25147817  1
  Fe  Fe79  1  0.24631958  0.00217017  0.74856592  1
  Fe  Fe80  1  0.12590332  0.62568090  0.37805992  1
  Fe  Fe81  1  0.75376123  -0.00100619  0.00324240  1
  Fe  Fe82  1  0.49928745  0.50018826  0.00104638  1
  Fe  Fe83  1  0.62571638  0.37634955  0.87358608  1
  Fe  Fe84  1  0.87370801  0.62432527  0.87433526  1
  Fe  Fe85  1  0.87449017  0.62612941  0.37552785  1
  Fe  Fe86  1  0.25216934  0.49603055  0.49945290  1
  Fe  Fe87  1  0.62090618  0.37415343  0.12731285  1
  Fe  Fe88  1  0.37310910  0.62537321  0.12461256  1
  Fe  Fe89  1  0.49990107  0.00320025  0.25238530  1
  Co  Co90  1  0.87274884  0.12295543  0.87035652  1
  Co  Co91  1  0.50077988  0.50101870  0.75187094  1
  Co  Co92  1  0.75278296  0.75440019  0.00030708  1
  Co  Co93  1  0.00292125  0.74663736  0.75087972  1
  Co  Co94  1  0.87187545  0.12986668  0.13169880  1
  Co  Co95  1  0.12779451  0.12877160  0.61840130  1
  Co  Co96  1  0.62193476  0.87558633  0.62248031  1
  Co  Co97  1  0.50210712  0.24339086  0.25279226  1
  Co  Co98  1  0.62083823  0.37856682  0.37526752  1
  Co  Co99  1  0.87852756  0.87485600  0.37560002  1
  Co  Co100  1  0.37424118  0.12312539  0.87283431  1
  Co  Co101  1  0.25130520  0.75189803  0.49946029  1
  Co  Co102  1  0.75014216  0.49971371  0.74857030  1
  Co  Co103  1  0.87502338  0.37515909  0.37241156  1
  Co  Co104  1  0.12516679  0.62392581  0.61786716  1
  Co  Co105  1  0.75035550  0.75161135  0.50170259  1
  Co  Co106  1  0.50166290  0.50546305  0.24685361  1
  Co  Co107  1  0.12346769  0.37184133  0.37834059  1
  Co  Co108  1  0.36975623  0.12486291  0.37565596  1
  Co  Co109  1  0.62240368  0.87552314  0.12510310  1
  Co  Co110  1  0.25386090  0.25052226  -0.00169843  1
  Co  Co111  1  -0.00631913  0.24946226  0.49992237  1
  Co  Co112  1  0.24513484  0.49911522  0.74809846  1
  Co  Co113  1  0.49855818  0.50253200  0.50037380  1
  Co  Co114  1  0.00479232  0.00383093  0.74757620  1
  Co  Co115  1  0.12651427  0.62314962  0.88006506  1
  Co  Co116  1  -0.00120333  0.74995194  0.49987225  1
  Co  Co117  1  -0.00505419  0.24587166  0.00034139  1
  Co  Co118  1  0.37782498  0.37303799  0.12875067  1
  Co  Co119  1  0.88260253  0.87422933  0.12560626  1
  Co  Co120  1  0.00178187  0.00600602  0.25121224  1
  Co  Co121  1  0.00263625  0.24838838  0.25210624  1
  Co  Co122  1  0.37636863  0.87417540  0.37311708  1
  Co  Co123  1  0.63126601  0.12035294  0.37547780  1
  Co  Co124  1  0.12853304  0.12938769  0.12456676  1
  Co  Co125  1  0.74712703  -0.00268911  0.74776453  1
  Co  Co126  1  0.25674568  0.25575400  0.49970793  1
  Co  Co127  1  -0.00028490  0.74684968  0.25088282  1
