# generated using pymatgen
data_Fe45Co19
_symmetry_space_group_name_H-M   'P 1'
_cell_length_a   11.41406892
_cell_length_b   11.41572718
_cell_length_c   11.41640376
_cell_angle_alpha   89.98885591
_cell_angle_beta   89.99700701
_cell_angle_gamma   90.00524296
_symmetry_Int_Tables_number   1
_chemical_formula_structural   Fe45Co19
_chemical_formula_sum   'Fe90 Co38'
_cell_volume   1487.55619595
_cell_formula_units_Z   2
loop_
 _symmetry_equiv_pos_site_id
 _symmetry_equiv_pos_as_xyz
  1  'x, y, z'
loop_
 _atom_site_type_symbol
 _atom_site_label
 _atom_site_symmetry_multiplicity
 _atom_site_fract_x
 _atom_site_fract_y
 _atom_site_fract_z
 _atom_site_occupancy
  Fe  Fe0  1  0.25212047  0.00107968  0.25139790  1
  Fe  Fe1  1  -0.00727989  -0.00194241  -0.00353315  1
  Fe  Fe2  1  0.75125195  0.00074873  0.75250121  1
  Fe  Fe3  1  -0.00229762  0.75214633  0.25109380  1
  Fe  Fe4  1  -0.00038075  0.24957254  0.24960418  1
  Fe  Fe5  1  0.62677606  0.37884671  0.12400409  1
  Fe  Fe6  1  0.37676428  0.12707919  0.87260423  1
  Fe  Fe7  1  0.87256314  0.12688818  0.62544178  1
  Fe  Fe8  1  -0.00172728  0.49843067  0.25352706  1
  Fe  Fe9  1  0.25185847  0.50083854  -0.00168855  1
  Fe  Fe10  1  0.87569825  0.12510930  0.37737653  1
  Fe  Fe11  1  -0.00081172  0.25210110  0.50189321  1
  Fe  Fe12  1  0.37724477  0.62579078  0.87417122  1
  Fe  Fe13  1  0.24808755  0.74930443  0.25088995  1
  Fe  Fe14  1  -0.00325053  0.49859714  0.74698395  1
  Fe  Fe15  1  0.12268189  0.62574022  0.87370080  1
  Fe  Fe16  1  0.75143177  0.74647647  0.24885956  1
  Fe  Fe17  1  0.87189666  0.62498870  0.62499916  1
  Fe  Fe18  1  0.62992557  0.87192643  0.87779160  1
  Fe  Fe19  1  0.74386006  0.24708139  0.49712316  1
  Fe  Fe20  1  0.87346663  0.12437083  0.12404031  1
  Fe  Fe21  1  0.12321049  0.12431964  0.87458583  1
  Fe  Fe22  1  0.37412217  0.37300786  0.63102241  1
  Fe  Fe23  1  0.12410874  0.62381226  0.37688351  1
  Fe  Fe24  1  0.37416851  0.37646068  0.12558831  1
  Fe  Fe25  1  0.25274709  0.24822774  0.50092662  1
  Fe  Fe26  1  0.12581261  0.37646099  0.12600791  1
  Fe  Fe27  1  0.62612783  0.37661956  0.62383615  1
  Fe  Fe28  1  0.75065437  0.49978134  0.49708862  1
  Fe  Fe29  1  0.12358878  0.87384007  0.87354083  1
  Fe  Fe30  1  0.38525318  0.12549565  0.37358266  1
  Fe  Fe31  1  -0.00409089  0.49543045  0.50090164  1
  Fe  Fe32  1  0.75063652  0.50260928  0.25354401  1
  Fe  Fe33  1  0.37912193  0.12472109  0.12603002  1
  Fe  Fe34  1  0.37742755  0.62640769  0.62546284  1
  Fe  Fe35  1  0.62581685  0.37968088  0.87805593  1
  Fe  Fe36  1  0.62646628  0.87883793  0.62381349  1
  Fe  Fe37  1  -0.00082276  0.25200812  0.00032207  1
  Fe  Fe38  1  0.50198131  0.75140310  0.50120022  1
  Fe  Fe39  1  0.50166379  -0.00115368  0.75040961  1
  Fe  Fe40  1  0.50284508  0.75148908  0.24902498  1
  Fe  Fe41  1  0.74606778  0.25073266  0.75035607  1
  Fe  Fe42  1  0.37928899  0.12671447  0.62858506  1
  Fe  Fe43  1  0.12587604  0.37394092  0.37603093  1
  Fe  Fe44  1  0.12673445  0.87746756  0.37885656  1
  Fe  Fe45  1  0.12381474  0.87692289  0.12386300  1
  Fe  Fe46  1  0.12489851  0.62287558  0.62371449  1
  Fe  Fe47  1  -0.00081180  0.75253002  0.50074703  1
  Fe  Fe48  1  0.50430525  0.74657853  0.00132075  1
  Fe  Fe49  1  0.12866222  0.87774317  0.62333506  1
  Fe  Fe50  1  0.37724436  0.37245388  0.37350102  1
  Fe  Fe51  1  0.37268431  0.87451629  0.62545906  1
  Fe  Fe52  1  0.12275935  0.62329526  0.12519564  1
  Fe  Fe53  1  -0.00594034  0.75093724  0.00155757  1
  Fe  Fe54  1  0.87320325  0.87525299  0.62497273  1
  Fe  Fe55  1  0.50186818  -0.00099372  0.00048925  1
  Fe  Fe56  1  0.62500016  0.12469773  0.87636226  1
  Fe  Fe57  1  0.75040821  0.24957878  0.00031865  1
  Fe  Fe58  1  0.50089849  0.49985236  0.25041988  1
  Fe  Fe59  1  -0.00179460  -0.00080578  0.25257826  1
  Fe  Fe60  1  0.24862163  0.74840349  0.74941100  1
  Fe  Fe61  1  0.25087777  0.24849873  0.25010656  1
  Fe  Fe62  1  0.62590093  0.87682306  0.37682750  1
  Fe  Fe63  1  0.00146316  0.25247323  0.74664616  1
  Fe  Fe64  1  0.37669959  0.62686025  0.37460290  1
  Fe  Fe65  1  0.49950658  0.49839531  0.49950285  1
  Fe  Fe66  1  0.74684260  0.00356602  0.25249189  1
  Fe  Fe67  1  0.25047282  0.25042592  -0.00132480  1
  Fe  Fe68  1  0.37633651  0.87275897  0.87453513  1
  Fe  Fe69  1  0.25120390  0.00000881  -0.00259837  1
  Fe  Fe70  1  0.12417221  0.12284035  0.12335327  1
  Fe  Fe71  1  0.25271604  0.49977192  0.50011255  1
  Fe  Fe72  1  0.49976214  0.25331905  -0.00041331  1
  Fe  Fe73  1  0.24903285  0.74900229  -0.00013595  1
  Fe  Fe74  1  0.87321729  0.37505942  0.12791514  1
  Fe  Fe75  1  0.86989198  0.62890366  0.86969133  1
  Fe  Fe76  1  0.37542336  0.87572450  0.37671491  1
  Fe  Fe77  1  0.74407947  0.24650958  0.25278022  1
  Fe  Fe78  1  0.74895944  0.74941737  0.50067518  1
  Fe  Fe79  1  0.37439543  0.87414331  0.12340251  1
  Fe  Fe80  1  0.37552227  0.62545237  0.12636229  1
  Fe  Fe81  1  0.12754478  0.37646903  0.87157442  1
  Fe  Fe82  1  0.50331853  0.50086436  0.75233937  1
  Fe  Fe83  1  0.50637005  0.74828549  0.74910717  1
  Fe  Fe84  1  -0.00297829  -0.00170691  0.75051002  1
  Fe  Fe85  1  -0.00471201  0.49934546  -0.00193304  1
  Fe  Fe86  1  0.87288304  0.37342509  0.87180276  1
  Fe  Fe87  1  0.12443995  0.12454454  0.37709145  1
  Fe  Fe88  1  0.63019078  0.87651315  0.12230698  1
  Fe  Fe89  1  0.12605847  0.12233102  0.62409117  1
  Co  Co90  1  0.75007304  0.00319168  0.49904545  1
  Co  Co91  1  0.87586992  0.13027464  0.87259663  1
  Co  Co92  1  0.75399061  0.00202542  -0.00429377  1
  Co  Co93  1  0.50469705  0.25375593  0.24662031  1
  Co  Co94  1  0.25114541  -0.00035813  0.75170334  1
  Co  Co95  1  0.49885270  -0.00220454  0.50384331  1
  Co  Co96  1  0.12851196  0.37704183  0.62448979  1
  Co  Co97  1  0.87820442  0.62191120  0.12817437  1
  Co  Co98  1  0.25504634  0.00481532  0.49886667  1
  Co  Co99  1  0.86931614  0.37169477  0.62421266  1
  Co  Co100  1  0.37348299  0.37446861  0.87051508  1
  Co  Co101  1  0.24676750  0.24760349  0.75009891  1
  Co  Co102  1  0.50253453  0.25265535  0.50379294  1
  Co  Co103  1  0.62482340  0.62108425  0.62113869  1
  Co  Co104  1  0.74360468  0.74884692  0.74469524  1
  Co  Co105  1  0.50257436  -0.00479079  0.24656462  1
  Co  Co106  1  0.25006581  0.50087325  0.25153938  1
  Co  Co107  1  0.87585528  0.62659638  0.37756593  1
  Co  Co108  1  0.62422813  0.62150046  0.12519724  1
  Co  Co109  1  0.62296467  0.62593558  0.37634325  1
  Co  Co110  1  0.62926948  0.62457276  0.87730988  1
  Co  Co111  1  0.62445719  0.12332242  0.62607153  1
  Co  Co112  1  0.50603582  0.25230623  0.75146870  1
  Co  Co113  1  0.62394765  0.37690784  0.37505623  1
  Co  Co114  1  0.25045003  0.50459950  0.74980502  1
  Co  Co115  1  0.75499049  0.50278421  0.00023143  1
  Co  Co116  1  -0.00303721  -0.00104224  0.50086500  1
  Co  Co117  1  0.61525127  0.12200574  0.37686107  1
  Co  Co118  1  0.74840756  0.49959581  0.74904244  1
  Co  Co119  1  0.87196574  0.87889779  0.12738216  1
  Co  Co120  1  0.75334238  0.74564040  0.00548339  1
  Co  Co121  1  0.62359358  0.12430847  0.12160640  1
  Co  Co122  1  0.87075206  0.86745501  0.87156542  1
  Co  Co123  1  0.00126649  0.75020957  0.74567462  1
  Co  Co124  1  0.87326970  0.37100493  0.37442574  1
  Co  Co125  1  0.87169965  0.87505365  0.37539549  1
  Co  Co126  1  0.25009725  0.74771835  0.50022537  1
  Co  Co127  1  0.49753194  0.50038365  -0.00100206  1
