# generated using pymatgen
data_Fe45Co19
_symmetry_space_group_name_H-M   'P 1'
_cell_length_a   11.41542779
_cell_length_b   11.41484545
_cell_length_c   11.41639844
_cell_angle_alpha   89.99768639
_cell_angle_beta   90.00474400
_cell_angle_gamma   89.99606243
_symmetry_Int_Tables_number   1
_chemical_formula_structural   Fe45Co19
_chemical_formula_sum   'Fe90 Co38'
_cell_volume   1487.61771606
_cell_formula_units_Z   2
loop_
 _symmetry_equiv_pos_site_id
 _symmetry_equiv_pos_as_xyz
  1  'x, y, z'
loop_
 _atom_site_type_symbol
 _atom_site_label
 _atom_site_symmetry_multiplicity
 _atom_site_fract_x
 _atom_site_fract_y
 _atom_site_fract_z
 _atom_site_occupancy
  Fe  Fe0  1  0.37466237  0.62381417  0.12650778  1
  Fe  Fe1  1  0.49770632  0.74683546  0.50044890  1
  Fe  Fe2  1  0.62584918  0.62400849  0.87563328  1
  Fe  Fe3  1  0.62498505  0.87539867  0.37776923  1
  Fe  Fe4  1  0.24815446  0.00331485  0.24797980  1
  Fe  Fe5  1  0.75294893  0.74759283  0.49849545  1
  Fe  Fe6  1  0.62480346  0.37699175  0.87445996  1
  Fe  Fe7  1  0.49854067  0.50374775  0.74730603  1
  Fe  Fe8  1  0.12543298  0.12719290  0.62359527  1
  Fe  Fe9  1  -0.00084173  0.49913503  0.49766705  1
  Fe  Fe10  1  0.37497698  0.87382720  0.87521798  1
  Fe  Fe11  1  0.74927748  0.00163186  0.25374556  1
  Fe  Fe12  1  0.63007672  0.62871170  0.12582725  1
  Fe  Fe13  1  -0.00184509  -0.00232655  0.00322905  1
  Fe  Fe14  1  0.37508858  0.37583743  0.37079076  1
  Fe  Fe15  1  0.62571513  0.87241266  0.62433417  1
  Fe  Fe16  1  0.87531861  0.12634278  0.87559978  1
  Fe  Fe17  1  0.49768396  0.24968681  0.49924681  1
  Fe  Fe18  1  0.12299286  0.12692368  0.87801639  1
  Fe  Fe19  1  0.50036176  0.50013025  0.00231801  1
  Fe  Fe20  1  0.62480596  0.37578930  0.37645939  1
  Fe  Fe21  1  0.50175973  0.75100256  0.25101951  1
  Fe  Fe22  1  0.49854703  0.24613891  0.24922519  1
  Fe  Fe23  1  0.62274618  0.37291540  0.12568585  1
  Fe  Fe24  1  0.25428455  0.25141018  0.00307064  1
  Fe  Fe25  1  0.74932804  -0.00125826  -0.00254265  1
  Fe  Fe26  1  0.50114563  0.50118215  0.25011047  1
  Fe  Fe27  1  0.87538788  0.12692933  0.62401905  1
  Fe  Fe28  1  0.50105366  0.00129498  0.75066691  1
  Fe  Fe29  1  0.12551298  0.87351962  0.62543297  1
  Fe  Fe30  1  -0.00371100  0.75041203  0.24895738  1
  Fe  Fe31  1  0.24791621  0.25062833  0.75018291  1
  Fe  Fe32  1  0.25138337  0.24849392  0.49946687  1
  Fe  Fe33  1  0.50157279  0.24936551  0.75097818  1
  Fe  Fe34  1  0.25148668  0.24596688  0.24684420  1
  Fe  Fe35  1  0.24950096  0.00181405  0.74979325  1
  Fe  Fe36  1  0.12335159  0.87757848  0.37284819  1
  Fe  Fe37  1  0.62928167  0.87317057  0.12562490  1
  Fe  Fe38  1  0.00234176  0.49798281  0.74863997  1
  Fe  Fe39  1  0.37472324  0.87807655  0.37449199  1
  Fe  Fe40  1  0.25134003  0.49956958  0.49637947  1
  Fe  Fe41  1  0.87522886  0.37661119  0.62560619  1
  Fe  Fe42  1  0.75085867  0.24843410  0.25148672  1
  Fe  Fe43  1  0.00141228  -0.00004772  0.50060951  1
  Fe  Fe44  1  0.25024907  0.75153517  0.49763569  1
  Fe  Fe45  1  0.87565035  0.37494547  0.13064052  1
  Fe  Fe46  1  0.12392909  0.62459353  0.87765755  1
  Fe  Fe47  1  0.62558553  0.37910529  0.62376186  1
  Fe  Fe48  1  0.12637516  0.62498814  0.37233672  1
  Fe  Fe49  1  0.25103845  0.75069848  0.25003886  1
  Fe  Fe50  1  0.37648120  0.37736015  0.87526952  1
  Fe  Fe51  1  0.74859379  0.25155574  -0.00025635  1
  Fe  Fe52  1  0.75063462  0.00115444  0.49962270  1
  Fe  Fe53  1  0.12342929  0.37303680  0.37079673  1
  Fe  Fe54  1  0.00029967  0.00152157  0.74943606  1
  Fe  Fe55  1  0.37275119  0.37655568  0.62619668  1
  Fe  Fe56  1  0.12373674  0.87413745  0.87576680  1
  Fe  Fe57  1  0.62237906  0.12382969  0.12241100  1
  Fe  Fe58  1  0.75150975  0.25222103  0.49799477  1
  Fe  Fe59  1  -0.00590501  0.75188533  0.00224328  1
  Fe  Fe60  1  0.37726028  0.87825379  0.12616603  1
  Fe  Fe61  1  0.49795318  0.74588961  0.74858365  1
  Fe  Fe62  1  0.62697869  0.87262687  0.87217621  1
  Fe  Fe63  1  0.12673009  0.62343397  0.62390567  1
  Fe  Fe64  1  -0.00149746  0.74900070  0.75117128  1
  Fe  Fe65  1  0.25046489  0.75127566  0.00160257  1
  Fe  Fe66  1  -0.00206567  0.25035965  0.00298083  1
  Fe  Fe67  1  0.62455579  0.12657922  0.62359449  1
  Fe  Fe68  1  0.25098457  0.74695218  0.75138402  1
  Fe  Fe69  1  0.75324544  0.74560066  0.75061560  1
  Fe  Fe70  1  0.87554779  0.87301047  0.62411432  1
  Fe  Fe71  1  0.62499924  0.62152436  0.37751552  1
  Fe  Fe72  1  0.25038155  0.49873733  0.00195395  1
  Fe  Fe73  1  0.12360892  0.37401190  0.87625918  1
  Fe  Fe74  1  -0.00154635  0.00445663  0.24693711  1
  Fe  Fe75  1  0.74998762  0.00156837  0.74899494  1
  Fe  Fe76  1  0.12445360  0.37326455  0.12803806  1
  Fe  Fe77  1  0.75124089  0.49998864  0.00211454  1
  Fe  Fe78  1  0.12497873  0.62685234  0.12573005  1
  Fe  Fe79  1  -0.00148885  0.74866499  0.49756240  1
  Fe  Fe80  1  0.50082783  0.75133969  0.00079133  1
  Fe  Fe81  1  0.87277302  0.61993330  0.37048151  1
  Fe  Fe82  1  0.87534041  0.37589562  0.87395027  1
  Fe  Fe83  1  0.37796924  0.12526387  0.87791816  1
  Fe  Fe84  1  0.37456734  0.87579694  0.62484089  1
  Fe  Fe85  1  0.74952240  0.25068293  0.75059421  1
  Fe  Fe86  1  -0.00074208  0.25173291  0.49839570  1
  Fe  Fe87  1  0.24864329  -0.00105298  0.00159754  1
  Fe  Fe88  1  0.49884797  0.00248992  0.49924968  1
  Fe  Fe89  1  -0.00188668  0.50066531  0.00525735  1
  Co  Co90  1  0.37477199  0.62398660  0.87852022  1
  Co  Co91  1  0.37582985  0.12611687  0.62531095  1
  Co  Co92  1  0.87128297  0.12511359  0.12314853  1
  Co  Co93  1  0.75058476  0.50107608  0.74993572  1
  Co  Co94  1  0.37650861  0.37681958  0.12767930  1
  Co  Co95  1  -0.00055270  0.24563858  0.24952888  1
  Co  Co96  1  0.62526126  0.12651061  0.87660114  1
  Co  Co97  1  0.86981013  0.62669987  0.12846336  1
  Co  Co98  1  0.12635809  0.37596393  0.62232483  1
  Co  Co99  1  0.87593890  0.37570136  0.36989432  1
  Co  Co100  1  0.37387910  0.12304563  0.37415880  1
  Co  Co101  1  0.87687937  0.62356627  0.62552772  1
  Co  Co102  1  0.49981853  0.25237193  -0.00021226  1
  Co  Co103  1  0.87535098  0.87739437  0.87303705  1
  Co  Co104  1  0.37982683  0.12084062  0.12219233  1
  Co  Co105  1  0.75314521  0.49889762  0.49920132  1
  Co  Co106  1  0.50403662  -0.00064576  0.25249757  1
  Co  Co107  1  0.50383535  -0.00505787  -0.00259495  1
  Co  Co108  1  0.75380589  0.74916949  -0.00476268  1
  Co  Co109  1  0.87699106  0.87841315  0.37479085  1
  Co  Co110  1  0.37079335  0.62366073  0.62295638  1
  Co  Co111  1  0.12480095  0.12723426  0.12147003  1
  Co  Co112  1  0.87590419  0.12535426  0.37662695  1
  Co  Co113  1  0.12332659  0.87370839  0.12674149  1
  Co  Co114  1  0.00103418  0.25079723  0.74861076  1
  Co  Co115  1  0.12489848  0.12524701  0.37612025  1
  Co  Co116  1  0.74611711  0.49684415  0.24868759  1
  Co  Co117  1  0.74937548  0.75136304  0.25723054  1
  Co  Co118  1  0.24818315  0.50039144  0.24938213  1
  Co  Co119  1  0.49654007  0.49947223  0.49984100  1
  Co  Co120  1  0.37512188  0.62460163  0.37237541  1
  Co  Co121  1  0.87784165  0.62036882  0.87562549  1
  Co  Co122  1  0.86963686  0.87433899  0.12765467  1
  Co  Co123  1  0.24899347  -0.00029682  0.50162693  1
  Co  Co124  1  0.62515876  0.12779276  0.37706495  1
  Co  Co125  1  0.00198214  0.50173031  0.24831621  1
  Co  Co126  1  0.62653910  0.62392205  0.62237782  1
  Co  Co127  1  0.24786873  0.49973344  0.75277338  1
