# generated using pymatgen
data_Fe45Co19
_symmetry_space_group_name_H-M   'P 1'
_cell_length_a   11.41598789
_cell_length_b   11.41596451
_cell_length_c   11.41589287
_cell_angle_alpha   90.00485756
_cell_angle_beta   90.00415342
_cell_angle_gamma   90.00184429
_symmetry_Int_Tables_number   1
_chemical_formula_structural   Fe45Co19
_chemical_formula_sum   'Fe90 Co38'
_cell_volume   1487.77066392
_cell_formula_units_Z   2
loop_
 _symmetry_equiv_pos_site_id
 _symmetry_equiv_pos_as_xyz
  1  'x, y, z'
loop_
 _atom_site_type_symbol
 _atom_site_label
 _atom_site_symmetry_multiplicity
 _atom_site_fract_x
 _atom_site_fract_y
 _atom_site_fract_z
 _atom_site_occupancy
  Fe  Fe0  1  0.74988240  0.00146536  0.24973633  1
  Fe  Fe1  1  0.37854793  0.62887713  0.12716266  1
  Fe  Fe2  1  0.75136689  0.50097300  0.00327543  1
  Fe  Fe3  1  0.75109232  0.50302409  0.24902933  1
  Fe  Fe4  1  0.25092074  -0.00186887  0.00111328  1
  Fe  Fe5  1  0.50354031  -0.00039962  0.74805404  1
  Fe  Fe6  1  0.24982902  0.50280329  0.25026548  1
  Fe  Fe7  1  0.12237384  0.12547075  0.62277779  1
  Fe  Fe8  1  0.50028916  0.25002804  0.00043014  1
  Fe  Fe9  1  0.00023553  0.49769579  0.75319743  1
  Fe  Fe10  1  0.49884863  0.24981429  0.49924224  1
  Fe  Fe11  1  -0.00095167  0.75077343  0.49918889  1
  Fe  Fe12  1  0.74948822  0.25060074  0.00149382  1
  Fe  Fe13  1  0.74933144  0.24848951  0.24842056  1
  Fe  Fe14  1  0.62449891  0.37491354  0.12683132  1
  Fe  Fe15  1  0.37563844  0.12663424  0.12739051  1
  Fe  Fe16  1  0.24776988  -0.00110579  0.74737927  1
  Fe  Fe17  1  0.24939970  0.25200808  0.00169786  1
  Fe  Fe18  1  0.12439875  0.62542832  0.12471690  1
  Fe  Fe19  1  0.87333271  0.87327594  0.87425534  1
  Fe  Fe20  1  0.37316894  0.62491984  0.62644130  1
  Fe  Fe21  1  0.12506374  0.87392786  0.12418344  1
  Fe  Fe22  1  0.87529002  0.62262830  0.62283310  1
  Fe  Fe23  1  0.24764613  0.25108168  0.75024214  1
  Fe  Fe24  1  0.74935794  0.74830486  0.00265777  1
  Fe  Fe25  1  0.37137197  0.12443291  0.37327447  1
  Fe  Fe26  1  0.87208364  0.87834154  0.62429032  1
  Fe  Fe27  1  0.00306643  0.00264018  0.24873456  1
  Fe  Fe28  1  -0.00162498  -0.00130557  -0.00150649  1
  Fe  Fe29  1  0.75088100  0.49693928  0.74879301  1
  Fe  Fe30  1  0.37389034  0.37358911  0.37351318  1
  Fe  Fe31  1  0.00276943  0.74846458  0.25262258  1
  Fe  Fe32  1  0.75065904  -0.00018762  -0.00035937  1
  Fe  Fe33  1  0.62326418  0.37638722  0.62173870  1
  Fe  Fe34  1  0.50036226  0.00083438  0.00114178  1
  Fe  Fe35  1  0.87612718  0.87301082  0.12605372  1
  Fe  Fe36  1  0.37517505  0.37327814  0.12882062  1
  Fe  Fe37  1  0.37291034  0.62722161  0.37595972  1
  Fe  Fe38  1  -0.00072013  0.00038614  0.49978175  1
  Fe  Fe39  1  0.49914021  0.49989226  0.74870560  1
  Fe  Fe40  1  0.12376742  0.37387869  0.37233795  1
  Fe  Fe41  1  0.12554310  0.87300735  0.87210981  1
  Fe  Fe42  1  0.12851646  0.87845290  0.37591118  1
  Fe  Fe43  1  0.37468552  0.37471851  0.62470813  1
  Fe  Fe44  1  0.62571571  0.37505484  0.37760595  1
  Fe  Fe45  1  0.12494610  0.12628556  0.87686654  1
  Fe  Fe46  1  0.75406855  0.24866554  0.50585581  1
  Fe  Fe47  1  0.62818025  0.87543213  0.37859225  1
  Fe  Fe48  1  0.74952634  0.74703128  0.24957111  1
  Fe  Fe49  1  0.62334634  0.62503940  0.87523055  1
  Fe  Fe50  1  0.62349908  0.87364798  0.12513978  1
  Fe  Fe51  1  0.49923500  0.50035733  0.00055335  1
  Fe  Fe52  1  0.87394253  0.62484114  0.87531739  1
  Fe  Fe53  1  0.62805987  0.62332770  0.37914582  1
  Fe  Fe54  1  0.25433146  0.75028961  -0.00428438  1
  Fe  Fe55  1  -0.00147148  0.49758707  -0.00059817  1
  Fe  Fe56  1  0.37695847  0.87160213  0.12814955  1
  Fe  Fe57  1  0.87591569  0.37309147  0.37361001  1
  Fe  Fe58  1  0.37533040  0.12598968  0.62574825  1
  Fe  Fe59  1  0.00002318  -0.00123773  0.75165667  1
  Fe  Fe60  1  0.87333418  0.12878521  0.87099310  1
  Fe  Fe61  1  0.50125435  0.00092029  0.25072645  1
  Fe  Fe62  1  0.74929894  0.75052393  0.74689557  1
  Fe  Fe63  1  0.50123097  0.74982304  0.50021781  1
  Fe  Fe64  1  -0.00016617  0.74954300  -0.00235856  1
  Fe  Fe65  1  0.87744739  0.12646888  0.37504085  1
  Fe  Fe66  1  0.62666481  0.12637263  0.87302711  1
  Fe  Fe67  1  0.24735861  0.75151958  0.50093419  1
  Fe  Fe68  1  0.62658584  0.37492887  0.87504281  1
  Fe  Fe69  1  0.49941116  0.00056382  0.50029213  1
  Fe  Fe70  1  0.62356798  0.87340057  0.87457694  1
  Fe  Fe71  1  0.12427262  0.62731202  0.62677963  1
  Fe  Fe72  1  -0.00124513  0.49947163  0.49781219  1
  Fe  Fe73  1  0.37200215  0.87517991  0.37350537  1
  Fe  Fe74  1  0.37592851  0.87388053  0.62642863  1
  Fe  Fe75  1  0.62482586  0.12594487  0.37703704  1
  Fe  Fe76  1  0.37413663  0.12376768  0.87374799  1
  Fe  Fe77  1  0.12274792  0.37421327  0.62489534  1
  Fe  Fe78  1  0.25097085  0.50055353  0.00046419  1
  Fe  Fe79  1  0.87340192  0.87455917  0.37461183  1
  Fe  Fe80  1  0.24845481  0.24971470  0.49843637  1
  Fe  Fe81  1  0.62563762  0.62353295  0.62213633  1
  Fe  Fe82  1  0.37322821  0.37650779  0.87371323  1
  Fe  Fe83  1  -0.00195337  0.50184979  0.24975007  1
  Fe  Fe84  1  0.87560995  0.12532424  0.12416376  1
  Fe  Fe85  1  0.12690657  0.62558118  0.87180447  1
  Fe  Fe86  1  0.24925913  0.49943537  0.50044164  1
  Fe  Fe87  1  0.50100536  0.50101653  0.25322243  1
  Fe  Fe88  1  0.00052422  0.25438529  0.00130936  1
  Fe  Fe89  1  0.50121024  0.25109350  0.75012734  1
  Co  Co90  1  0.24521403  0.24720590  0.24989074  1
  Co  Co91  1  0.12725804  0.37579488  0.87625140  1
  Co  Co92  1  0.50115887  0.74886898  0.74930093  1
  Co  Co93  1  0.12538138  0.37784582  0.12772916  1
  Co  Co94  1  0.87453282  0.62581502  0.37635656  1
  Co  Co95  1  0.25122343  -0.00042976  0.50456587  1
  Co  Co96  1  0.24660947  0.74946767  0.25080156  1
  Co  Co97  1  0.50191769  0.24974603  0.25133214  1
  Co  Co98  1  -0.00472011  0.75008867  0.74897324  1
  Co  Co99  1  0.75180629  0.00484158  0.49895892  1
  Co  Co100  1  0.87929000  0.37613620  0.62658721  1
  Co  Co101  1  0.00318193  0.24691172  0.24809740  1
  Co  Co102  1  0.49700174  0.74948690  -0.00448974  1
  Co  Co103  1  0.75384581  0.49622958  0.50013761  1
  Co  Co104  1  0.62673803  0.87637841  0.62125182  1
  Co  Co105  1  0.00158047  0.25175139  0.75093941  1
  Co  Co106  1  0.62088173  0.62584079  0.12444834  1
  Co  Co107  1  0.12396738  0.12468675  0.12048637  1
  Co  Co108  1  0.49636152  0.50042479  0.49846972  1
  Co  Co109  1  0.74840329  -0.00100585  0.75128370  1
  Co  Co110  1  0.37481898  0.62072368  0.87167831  1
  Co  Co111  1  -0.00175209  0.24918160  0.49981498  1
  Co  Co112  1  0.12661668  0.12249868  0.37835492  1
  Co  Co113  1  0.87814486  0.62699312  0.12490165  1
  Co  Co114  1  0.12514629  0.62360154  0.37718293  1
  Co  Co115  1  0.12273598  0.87299592  0.62571534  1
  Co  Co116  1  0.87772628  0.12208671  0.62939227  1
  Co  Co117  1  0.87221673  0.37306336  0.87479113  1
  Co  Co118  1  0.74926717  0.25293738  0.74377184  1
  Co  Co119  1  0.25257002  0.75190578  0.75197797  1
  Co  Co120  1  0.24854685  0.49790955  0.74759943  1
  Co  Co121  1  0.37737483  0.87994010  0.87174384  1
  Co  Co122  1  0.62466992  0.12385196  0.62467710  1
  Co  Co123  1  0.62515442  0.12438705  0.12441727  1
  Co  Co124  1  0.50339416  0.74956958  0.25537350  1
  Co  Co125  1  0.75228405  0.74948507  0.50158021  1
  Co  Co126  1  0.87420358  0.37475546  0.12708603  1
  Co  Co127  1  0.24849954  0.00110286  0.24598522  1
