# generated using pymatgen
data_Fe45Co19
_symmetry_space_group_name_H-M   'P 1'
_cell_length_a   11.41524517
_cell_length_b   11.41661265
_cell_length_c   11.41581928
_cell_angle_alpha   89.99480082
_cell_angle_beta   89.98499931
_cell_angle_gamma   89.99693396
_symmetry_Int_Tables_number   1
_chemical_formula_structural   Fe45Co19
_chemical_formula_sum   'Fe90 Co38'
_cell_volume   1487.74869387
_cell_formula_units_Z   2
loop_
 _symmetry_equiv_pos_site_id
 _symmetry_equiv_pos_as_xyz
  1  'x, y, z'
loop_
 _atom_site_type_symbol
 _atom_site_label
 _atom_site_symmetry_multiplicity
 _atom_site_fract_x
 _atom_site_fract_y
 _atom_site_fract_z
 _atom_site_occupancy
  Fe  Fe0  1  0.12360347  0.37322951  0.62605428  1
  Fe  Fe1  1  0.12224571  0.62779323  0.87401190  1
  Fe  Fe2  1  0.37352738  0.62237023  0.12512905  1
  Fe  Fe3  1  0.37400269  0.12501140  0.37751982  1
  Fe  Fe4  1  0.37326864  0.37714230  0.62521861  1
  Fe  Fe5  1  0.24803612  0.49817050  0.49831669  1
  Fe  Fe6  1  0.37558519  0.62345716  0.62325115  1
  Fe  Fe7  1  0.74907252  0.49814864  0.49991726  1
  Fe  Fe8  1  0.00148692  0.50071830  0.00163675  1
  Fe  Fe9  1  0.12911262  0.12573986  0.62311614  1
  Fe  Fe10  1  0.24958350  0.49917270  -0.00149888  1
  Fe  Fe11  1  0.87428923  0.87457948  0.37656516  1
  Fe  Fe12  1  0.37588522  0.87467465  0.37454133  1
  Fe  Fe13  1  0.50053841  0.24986983  0.24545866  1
  Fe  Fe14  1  0.74842427  0.00448810  0.75168872  1
  Fe  Fe15  1  0.74661234  0.00210308  -0.00168659  1
  Fe  Fe16  1  0.75033148  0.00158160  0.25090694  1
  Fe  Fe17  1  0.00004180  0.50065126  0.24858663  1
  Fe  Fe18  1  0.62691599  0.62551256  0.12448858  1
  Fe  Fe19  1  0.62540064  0.12569226  0.37630031  1
  Fe  Fe20  1  0.62406626  0.87327646  0.87325328  1
  Fe  Fe21  1  0.37802278  0.12249601  0.12172574  1
  Fe  Fe22  1  0.12374998  0.37341700  0.87398438  1
  Fe  Fe23  1  0.12430209  0.12645091  0.87480916  1
  Fe  Fe24  1  0.37758219  0.62422111  0.37652855  1
  Fe  Fe25  1  0.75280614  0.49529318  0.75192628  1
  Fe  Fe26  1  0.75035125  0.24859654  -0.00189828  1
  Fe  Fe27  1  0.49737611  0.00123703  0.75185722  1
  Fe  Fe28  1  0.75414820  0.75056968  0.74729014  1
  Fe  Fe29  1  0.37264284  0.12248385  0.62239748  1
  Fe  Fe30  1  0.50102895  0.49792214  0.74989685  1
  Fe  Fe31  1  0.49842984  0.74971895  0.74819735  1
  Fe  Fe32  1  0.37692573  0.87685615  0.12414063  1
  Fe  Fe33  1  -0.00224169  0.49783264  0.74988219  1
  Fe  Fe34  1  0.87369641  0.62775050  0.12174460  1
  Fe  Fe35  1  0.86954567  0.12535535  0.62062164  1
  Fe  Fe36  1  0.37730291  0.62357683  0.87540605  1
  Fe  Fe37  1  0.50243641  0.00074899  0.25010076  1
  Fe  Fe38  1  0.87574372  0.87637233  0.87406322  1
  Fe  Fe39  1  0.24856408  0.00040943  0.25311955  1
  Fe  Fe40  1  0.62635884  0.87618657  0.62472872  1
  Fe  Fe41  1  0.12335300  0.62784414  0.37511884  1
  Fe  Fe42  1  0.12503248  0.87540645  0.12645401  1
  Fe  Fe43  1  0.12657233  0.37564880  0.12703945  1
  Fe  Fe44  1  0.50205705  0.74848806  0.25016112  1
  Fe  Fe45  1  0.37636388  0.37483942  0.37371299  1
  Fe  Fe46  1  -0.00136818  0.24969223  0.00147071  1
  Fe  Fe47  1  0.50128804  0.75035886  -0.00012954  1
  Fe  Fe48  1  -0.00024814  0.49884695  0.50007456  1
  Fe  Fe49  1  0.87268125  0.87578096  0.12312476  1
  Fe  Fe50  1  -0.00143240  0.74944280  0.24651696  1
  Fe  Fe51  1  0.62671775  0.62558000  0.62382434  1
  Fe  Fe52  1  0.24940065  0.74977845  0.25020449  1
  Fe  Fe53  1  0.24871704  0.50048702  0.75071058  1
  Fe  Fe54  1  0.12490369  0.37246159  0.37298856  1
  Fe  Fe55  1  0.87376777  0.37421529  0.12410628  1
  Fe  Fe56  1  0.75215390  0.24653721  0.24932320  1
  Fe  Fe57  1  0.61810902  0.13148467  0.87445421  1
  Fe  Fe58  1  0.12387887  0.12441254  0.12557474  1
  Fe  Fe59  1  0.50138642  -0.00063343  0.50048307  1
  Fe  Fe60  1  0.87473921  0.37332252  0.37497339  1
  Fe  Fe61  1  0.62872258  0.36967616  0.62989854  1
  Fe  Fe62  1  0.62610298  0.87069306  0.37703748  1
  Fe  Fe63  1  0.12322420  0.62548028  0.62580321  1
  Fe  Fe64  1  0.62461702  0.62458003  0.87350128  1
  Fe  Fe65  1  0.62577071  0.87539173  0.12509314  1
  Fe  Fe66  1  0.50150989  0.49992238  0.24735041  1
  Fe  Fe67  1  0.12567849  0.87298260  0.87051968  1
  Fe  Fe68  1  0.25146935  -0.00026739  -0.00424324  1
  Fe  Fe69  1  0.87323651  0.62672516  0.37697445  1
  Fe  Fe70  1  0.87674566  0.62650143  0.87530794  1
  Fe  Fe71  1  0.25079144  0.24888702  0.24972831  1
  Fe  Fe72  1  0.74703039  0.49910749  -0.00275237  1
  Fe  Fe73  1  0.62499335  0.37477517  0.37138660  1
  Fe  Fe74  1  0.25228154  0.25081036  -0.00095778  1
  Fe  Fe75  1  0.00270037  0.00112356  0.49826316  1
  Fe  Fe76  1  -0.00011591  0.00348677  0.25275058  1
  Fe  Fe77  1  -0.00010680  0.24905453  0.49839971  1
  Fe  Fe78  1  -0.00439521  0.75128676  0.50560509  1
  Fe  Fe79  1  0.00132106  -0.00126056  -0.00050948  1
  Fe  Fe80  1  0.25356222  0.24903762  0.75137167  1
  Fe  Fe81  1  0.37224902  0.87633460  0.62735446  1
  Fe  Fe82  1  0.50129601  0.25032268  0.50258517  1
  Fe  Fe83  1  0.00039861  0.00258758  0.74844142  1
  Fe  Fe84  1  0.12729216  0.87549478  0.62772536  1
  Fe  Fe85  1  0.50340264  0.49767261  0.50077098  1
  Fe  Fe86  1  0.25084485  0.75165140  0.50046284  1
  Fe  Fe87  1  -0.00526339  0.24891756  0.75037935  1
  Fe  Fe88  1  0.24884088  0.75043047  -0.00016209  1
  Fe  Fe89  1  0.75041260  0.50273842  0.25074237  1
  Co  Co90  1  0.62168209  0.37101165  0.87256968  1
  Co  Co91  1  0.87728711  0.12155418  0.87765529  1
  Co  Co92  1  0.62637172  0.12639462  0.62722008  1
  Co  Co93  1  0.00071809  0.75218743  0.00035481  1
  Co  Co94  1  0.37455133  0.87215632  0.87465748  1
  Co  Co95  1  0.87564853  0.12301701  0.12341428  1
  Co  Co96  1  0.87311732  0.88262451  0.62537379  1
  Co  Co97  1  0.38066285  0.12840630  0.87946609  1
  Co  Co98  1  -0.00121827  0.24885067  0.24912247  1
  Co  Co99  1  0.62401648  0.12439750  0.12314769  1
  Co  Co100  1  0.87724165  0.37621105  0.87851045  1
  Co  Co101  1  0.62474597  0.62603809  0.37783440  1
  Co  Co102  1  0.37785237  0.37640127  0.87459533  1
  Co  Co103  1  0.74657708  -0.00042662  0.49731103  1
  Co  Co104  1  0.12180260  0.87143862  0.37451051  1
  Co  Co105  1  0.12661468  0.62462720  0.12570825  1
  Co  Co106  1  0.25142073  0.74648015  0.74926025  1
  Co  Co107  1  0.37097087  0.37807624  0.12690765  1
  Co  Co108  1  0.49961379  0.75156034  0.50221707  1
  Co  Co109  1  -0.00445223  0.75126824  0.74717915  1
  Co  Co110  1  0.49421161  0.25031335  0.74494943  1
  Co  Co111  1  0.87387292  0.12564509  0.37749977  1
  Co  Co112  1  0.24778993  -0.00318672  0.49636059  1
  Co  Co113  1  0.87393059  0.61935751  0.62620244  1
  Co  Co114  1  0.74621099  0.25191695  0.49786571  1
  Co  Co115  1  0.50216985  -0.00332729  -0.00280063  1
  Co  Co116  1  0.50264546  0.49722581  0.00300408  1
  Co  Co117  1  0.75612739  0.24895415  0.75504303  1
  Co  Co118  1  0.49908956  0.25782745  0.00678456  1
  Co  Co119  1  0.63060510  0.37479153  0.12660418  1
  Co  Co120  1  0.75235962  0.74996069  0.50409992  1
  Co  Co121  1  0.25175760  0.00396325  0.75448371  1
  Co  Co122  1  0.25159178  0.25343091  0.50027704  1
  Co  Co123  1  0.74974531  0.74945042  0.25018928  1
  Co  Co124  1  0.24827457  0.50089010  0.25454537  1
  Co  Co125  1  0.87455189  0.37251697  0.62224262  1
  Co  Co126  1  0.74885141  0.75097705  -0.00218980  1
  Co  Co127  1  0.12749996  0.12800090  0.37551000  1
