# generated using pymatgen
data_Fe45Co19
_symmetry_space_group_name_H-M   'P 1'
_cell_length_a   11.41515965
_cell_length_b   11.41405816
_cell_length_c   11.41532738
_cell_angle_alpha   89.99647100
_cell_angle_beta   90.00286079
_cell_angle_gamma   90.00288895
_symmetry_Int_Tables_number   1
_chemical_formula_structural   Fe45Co19
_chemical_formula_sum   'Fe90 Co38'
_cell_volume   1487.34062443
_cell_formula_units_Z   2
loop_
 _symmetry_equiv_pos_site_id
 _symmetry_equiv_pos_as_xyz
  1  'x, y, z'
loop_
 _atom_site_type_symbol
 _atom_site_label
 _atom_site_symmetry_multiplicity
 _atom_site_fract_x
 _atom_site_fract_y
 _atom_site_fract_z
 _atom_site_occupancy
  Fe  Fe0  1  0.12573313  0.87509260  0.87550932  1
  Fe  Fe1  1  0.00028983  0.25173016  0.74994125  1
  Fe  Fe2  1  0.74759611  0.75095996  0.75191516  1
  Fe  Fe3  1  0.87027427  0.37375732  0.12329820  1
  Fe  Fe4  1  0.25080789  0.00069454  0.49857662  1
  Fe  Fe5  1  0.49900472  0.75140290  0.00108893  1
  Fe  Fe6  1  0.74350827  0.50099134  0.24965655  1
  Fe  Fe7  1  0.12449046  0.37690521  0.37594390  1
  Fe  Fe8  1  0.37810507  0.38118852  0.37070421  1
  Fe  Fe9  1  0.74747765  0.25020518  0.25296385  1
  Fe  Fe10  1  0.25318293  0.49892129  0.00204156  1
  Fe  Fe11  1  0.75008372  0.74885105  -0.00157730  1
  Fe  Fe12  1  0.49990272  0.49919709  0.74753501  1
  Fe  Fe13  1  0.37546205  0.87245720  0.62513653  1
  Fe  Fe14  1  0.25037980  0.00093822  0.74920842  1
  Fe  Fe15  1  0.87668269  0.62507551  0.87401551  1
  Fe  Fe16  1  0.25046446  0.00228241  0.00323380  1
  Fe  Fe17  1  0.74919132  0.00256735  0.50080172  1
  Fe  Fe18  1  -0.00114037  0.00104861  0.00401353  1
  Fe  Fe19  1  0.37553533  0.12793271  0.12574452  1
  Fe  Fe20  1  0.37403215  0.37498058  0.62483230  1
  Fe  Fe21  1  0.37824853  0.62311029  0.13243715  1
  Fe  Fe22  1  0.50008815  -0.00038545  0.74841955  1
  Fe  Fe23  1  0.49936954  -0.00161790  0.24821610  1
  Fe  Fe24  1  0.75276203  -0.00067477  0.24888131  1
  Fe  Fe25  1  0.62331179  0.62618922  0.62500414  1
  Fe  Fe26  1  0.12533242  0.12642558  0.62404515  1
  Fe  Fe27  1  0.62773515  0.37259639  0.62368504  1
  Fe  Fe28  1  0.87452976  0.62513541  0.37254244  1
  Fe  Fe29  1  0.12508242  0.12659594  0.87818823  1
  Fe  Fe30  1  0.74806073  0.75065416  0.24942600  1
  Fe  Fe31  1  -0.00299208  0.49818412  0.00061096  1
  Fe  Fe32  1  0.62310076  0.12365716  0.37524311  1
  Fe  Fe33  1  0.87462598  0.87630205  0.87569459  1
  Fe  Fe34  1  0.37692835  0.12553080  0.62338352  1
  Fe  Fe35  1  0.25311596  0.50499718  0.49930835  1
  Fe  Fe36  1  0.87296833  0.37432301  0.37624215  1
  Fe  Fe37  1  0.24849066  0.25087976  0.24989276  1
  Fe  Fe38  1  0.87491878  0.12865948  0.12628822  1
  Fe  Fe39  1  0.25153681  0.24989439  0.75201075  1
  Fe  Fe40  1  0.12591347  0.37347396  0.87796053  1
  Fe  Fe41  1  0.62725838  0.87802494  0.12169637  1
  Fe  Fe42  1  0.50418192  0.25310130  0.24835209  1
  Fe  Fe43  1  0.87188533  0.37058163  0.62444377  1
  Fe  Fe44  1  0.12255699  0.62404778  0.12735225  1
  Fe  Fe45  1  0.74821274  0.24869165  -0.00637428  1
  Fe  Fe46  1  0.12410283  0.62454554  0.87526781  1
  Fe  Fe47  1  0.12616758  0.37117869  0.12152534  1
  Fe  Fe48  1  0.75096366  0.49886144  0.75165958  1
  Fe  Fe49  1  0.37381396  0.87490313  0.87520313  1
  Fe  Fe50  1  0.25055027  0.74445060  0.49557975  1
  Fe  Fe51  1  0.00072443  0.75071851  0.00115462  1
  Fe  Fe52  1  0.00072934  -0.00058511  0.74936776  1
  Fe  Fe53  1  0.50107441  0.25220085  0.00033411  1
  Fe  Fe54  1  0.00166607  0.74987079  0.49541982  1
  Fe  Fe55  1  0.74760113  0.50125217  0.49874563  1
  Fe  Fe56  1  0.62483018  0.88045122  0.87897936  1
  Fe  Fe57  1  0.74784669  0.00249996  0.74800689  1
  Fe  Fe58  1  0.12422127  0.87804798  0.13065891  1
  Fe  Fe59  1  0.12510510  0.87237370  0.62410907  1
  Fe  Fe60  1  0.37276993  0.87362677  0.12742130  1
  Fe  Fe61  1  0.00020600  0.49864874  0.74932118  1
  Fe  Fe62  1  0.12723085  0.37484319  0.62312700  1
  Fe  Fe63  1  0.62263172  0.87481726  0.62333789  1
  Fe  Fe64  1  0.37705563  0.62402988  0.87458945  1
  Fe  Fe65  1  0.87685271  0.62683658  0.62655895  1
  Fe  Fe66  1  0.74932933  0.74816552  0.50000938  1
  Fe  Fe67  1  0.37382297  0.87437056  0.37374660  1
  Fe  Fe68  1  0.24772070  0.74601198  0.25316613  1
  Fe  Fe69  1  0.87588349  0.12514642  0.87303256  1
  Fe  Fe70  1  0.87566374  0.87390609  0.62413111  1
  Fe  Fe71  1  0.37664931  0.12483168  0.87624080  1
  Fe  Fe72  1  0.49964299  0.49688381  0.00622173  1
  Fe  Fe73  1  -0.00066682  0.49645059  0.24819297  1
  Fe  Fe74  1  0.87691020  0.12722283  0.37571169  1
  Fe  Fe75  1  0.62602102  0.87583531  0.37629061  1
  Fe  Fe76  1  -0.00147137  0.49931492  0.50107196  1
  Fe  Fe77  1  0.50109919  0.25213304  0.49866351  1
  Fe  Fe78  1  0.24959194  0.74722906  0.74966453  1
  Fe  Fe79  1  0.24993273  0.74812264  0.00262645  1
  Fe  Fe80  1  0.87405054  0.12871948  0.62431255  1
  Fe  Fe81  1  0.62323167  0.62182159  0.87762132  1
  Fe  Fe82  1  0.12210135  0.12245963  0.37005200  1
  Fe  Fe83  1  0.00016368  -0.00066542  0.49796558  1
  Fe  Fe84  1  0.37740325  0.12513410  0.37453003  1
  Fe  Fe85  1  0.87402556  0.62640195  0.12636622  1
  Fe  Fe86  1  0.49766566  0.74674559  0.49740257  1
  Fe  Fe87  1  0.25022996  0.50105181  0.75002960  1
  Fe  Fe88  1  0.50320150  0.24988382  0.75178386  1
  Fe  Fe89  1  0.25009214  0.24961322  0.49668135  1
  Co  Co90  1  0.75511582  0.00343865  0.00237588  1
  Co  Co91  1  0.74828377  0.24779266  0.49743477  1
  Co  Co92  1  0.12308531  0.62578458  0.62425576  1
  Co  Co93  1  0.87217172  0.87301670  0.37730269  1
  Co  Co94  1  0.50305957  0.75114114  0.75354791  1
  Co  Co95  1  0.24571844  0.49833893  0.24771262  1
  Co  Co96  1  0.50111859  0.50038844  0.50165912  1
  Co  Co97  1  0.51098144  0.49628986  0.24529346  1
  Co  Co98  1  -0.00037548  0.75167083  0.25238294  1
  Co  Co99  1  0.12687639  0.87838371  0.37165611  1
  Co  Co100  1  0.12178743  0.62101645  0.37365165  1
  Co  Co101  1  0.00164333  0.25071676  0.49861863  1
  Co  Co102  1  0.49863369  -0.00136632  0.49885624  1
  Co  Co103  1  0.62559875  0.12437263  0.12458108  1
  Co  Co104  1  0.50336227  0.75452000  0.24873199  1
  Co  Co105  1  0.49484844  -0.00082182  0.00405680  1
  Co  Co106  1  0.37718873  0.62632133  0.62724066  1
  Co  Co107  1  0.37473048  0.37533071  0.12953709  1
  Co  Co108  1  0.63099087  0.37174109  0.12105136  1
  Co  Co109  1  0.62379403  0.37922263  0.87683633  1
  Co  Co110  1  -0.00025568  0.75136154  0.75162328  1
  Co  Co111  1  0.62239885  0.11992952  0.87875237  1
  Co  Co112  1  0.12383582  0.12475663  0.12817565  1
  Co  Co113  1  0.62307437  0.12665609  0.62242622  1
  Co  Co114  1  0.87504677  0.37475793  0.87501847  1
  Co  Co115  1  0.87401056  0.87099278  0.12355563  1
  Co  Co116  1  -0.00244140  0.24954760  0.00092434  1
  Co  Co117  1  0.38064217  0.61896553  0.36704249  1
  Co  Co118  1  0.62513376  0.37469235  0.37755062  1
  Co  Co119  1  0.62156010  0.62631947  0.37435106  1
  Co  Co120  1  0.25506212  0.00329657  0.24963002  1
  Co  Co121  1  0.37657452  0.37613132  0.87434827  1
  Co  Co122  1  0.62514980  0.62770309  0.12248545  1
  Co  Co123  1  0.25383920  0.24968238  0.00062703  1
  Co  Co124  1  0.74640945  0.24835953  0.75438264  1
  Co  Co125  1  -0.00762688  -0.00229332  0.24936744  1
  Co  Co126  1  0.75211688  0.50181363  -0.00036661  1
  Co  Co127  1  0.00013042  0.25410847  0.24990594  1
