# generated using pymatgen
data_Fe45Co19
_symmetry_space_group_name_H-M   'P 1'
_cell_length_a   11.41576242
_cell_length_b   11.41535916
_cell_length_c   11.41539962
_cell_angle_alpha   90.00907236
_cell_angle_beta   89.99435953
_cell_angle_gamma   90.00018093
_symmetry_Int_Tables_number   1
_chemical_formula_structural   Fe45Co19
_chemical_formula_sum   'Fe90 Co38'
_cell_volume   1487.59809638
_cell_formula_units_Z   2
loop_
 _symmetry_equiv_pos_site_id
 _symmetry_equiv_pos_as_xyz
  1  'x, y, z'
loop_
 _atom_site_type_symbol
 _atom_site_label
 _atom_site_symmetry_multiplicity
 _atom_site_fract_x
 _atom_site_fract_y
 _atom_site_fract_z
 _atom_site_occupancy
  Fe  Fe0  1  0.25062032  0.25162110  0.74940421  1
  Fe  Fe1  1  0.25163975  0.00019555  0.24999046  1
  Fe  Fe2  1  0.62353037  0.12185423  0.37531962  1
  Fe  Fe3  1  0.37786655  0.12326385  0.37865511  1
  Fe  Fe4  1  0.75186437  0.74960588  0.75201034  1
  Fe  Fe5  1  0.12554801  0.87564858  0.37495357  1
  Fe  Fe6  1  -0.00096605  0.00004043  0.24960015  1
  Fe  Fe7  1  0.37496574  0.12509549  0.87495913  1
  Fe  Fe8  1  0.37385989  0.87520863  0.87365858  1
  Fe  Fe9  1  0.87353493  0.62579719  0.12132401  1
  Fe  Fe10  1  0.37356881  0.62086627  0.87529622  1
  Fe  Fe11  1  0.74992137  0.25024925  0.49998329  1
  Fe  Fe12  1  0.24933257  0.00045305  0.75030158  1
  Fe  Fe13  1  0.87344223  0.37601825  0.37476293  1
  Fe  Fe14  1  0.50197995  0.75091865  0.25476471  1
  Fe  Fe15  1  0.74848499  0.50094807  0.24499025  1
  Fe  Fe16  1  0.50176158  0.49733886  0.50065755  1
  Fe  Fe17  1  0.62405992  0.12957685  0.12554603  1
  Fe  Fe18  1  -0.00132970  0.24900413  -0.00462471  1
  Fe  Fe19  1  0.49855207  0.25011049  0.25314644  1
  Fe  Fe20  1  0.87497390  0.87648966  0.12193977  1
  Fe  Fe21  1  0.12461031  0.62430600  0.37470969  1
  Fe  Fe22  1  0.24980540  0.50123567  0.50376160  1
  Fe  Fe23  1  0.49976560  0.49992019  0.74822977  1
  Fe  Fe24  1  0.24839032  0.75063207  0.00044680  1
  Fe  Fe25  1  0.25066417  0.25015644  0.25055827  1
  Fe  Fe26  1  0.24756687  0.49692774  0.00303477  1
  Fe  Fe27  1  0.74972476  0.00243278  0.24607602  1
  Fe  Fe28  1  0.50267311  0.00100299  -0.00067774  1
  Fe  Fe29  1  -0.00076124  0.24921008  0.49980966  1
  Fe  Fe30  1  0.87495968  0.37317749  0.12323686  1
  Fe  Fe31  1  0.49954410  0.25216774  0.75242821  1
  Fe  Fe32  1  0.50059571  0.74962662  -0.00313717  1
  Fe  Fe33  1  0.87445338  0.12351432  0.37725022  1
  Fe  Fe34  1  0.50319530  0.75240863  0.49576133  1
  Fe  Fe35  1  0.25024435  -0.00023166  0.50151066  1
  Fe  Fe36  1  -0.00247114  0.50065147  0.50104265  1
  Fe  Fe37  1  0.00052644  0.00257426  0.75346643  1
  Fe  Fe38  1  0.37575410  0.62407276  0.37619259  1
  Fe  Fe39  1  0.74833057  0.25220143  -0.00445581  1
  Fe  Fe40  1  0.62635562  0.62659717  0.62472021  1
  Fe  Fe41  1  0.37359966  0.37449517  0.37636916  1
  Fe  Fe42  1  0.62445456  0.87231150  0.12510579  1
  Fe  Fe43  1  0.74979221  -0.00033837  0.50369725  1
  Fe  Fe44  1  0.50303282  0.49988168  0.24820585  1
  Fe  Fe45  1  0.50072733  0.74795789  0.75316401  1
  Fe  Fe46  1  0.37605385  0.87252391  0.62504971  1
  Fe  Fe47  1  0.12255078  0.37510046  0.62544382  1
  Fe  Fe48  1  0.50043513  0.00013359  0.74969903  1
  Fe  Fe49  1  -0.00446040  0.50050652  0.74861293  1
  Fe  Fe50  1  0.62782772  0.37522589  0.37337887  1
  Fe  Fe51  1  0.75105681  0.49937580  0.50503808  1
  Fe  Fe52  1  0.12555324  0.62317033  0.87392969  1
  Fe  Fe53  1  0.37700707  0.12730047  0.62340917  1
  Fe  Fe54  1  0.25078057  0.25345929  -0.00071403  1
  Fe  Fe55  1  0.37585399  0.87510554  0.12487552  1
  Fe  Fe56  1  0.12452270  0.37483353  0.37519926  1
  Fe  Fe57  1  -0.00011737  0.74925933  0.24899091  1
  Fe  Fe58  1  0.24946895  0.74613833  0.74705244  1
  Fe  Fe59  1  0.00168596  0.75093369  -0.00035262  1
  Fe  Fe60  1  0.12405696  0.12485248  0.37595164  1
  Fe  Fe61  1  0.50388835  0.49644274  0.00297534  1
  Fe  Fe62  1  0.62714328  0.87790537  0.87497640  1
  Fe  Fe63  1  -0.00225214  0.24948164  0.25130214  1
  Fe  Fe64  1  0.37572800  0.37369352  0.62432779  1
  Fe  Fe65  1  0.87146354  0.62011046  0.87870768  1
  Fe  Fe66  1  0.00047449  0.75046349  0.50062610  1
  Fe  Fe67  1  0.87679219  0.87599280  0.62514921  1
  Fe  Fe68  1  0.12291077  0.12431314  0.62469704  1
  Fe  Fe69  1  0.87551166  0.12476966  0.12031225  1
  Fe  Fe70  1  0.74776228  0.74852294  0.25144327  1
  Fe  Fe71  1  0.87224064  0.87510689  0.37556125  1
  Fe  Fe72  1  0.24605896  -0.00158743  -0.00169560  1
  Fe  Fe73  1  0.24827877  0.49853988  0.24699245  1
  Fe  Fe74  1  0.62527956  0.87297491  0.62650198  1
  Fe  Fe75  1  0.25060224  0.75016328  0.24977307  1
  Fe  Fe76  1  -0.00143395  0.74927572  0.75129875  1
  Fe  Fe77  1  0.12421834  0.12580326  0.12425969  1
  Fe  Fe78  1  0.87214685  0.62522269  0.37672135  1
  Fe  Fe79  1  0.00022850  0.50029858  0.24671580  1
  Fe  Fe80  1  0.62525988  0.12764561  0.62703377  1
  Fe  Fe81  1  -0.00450319  0.24769649  0.75309541  1
  Fe  Fe82  1  0.37670933  0.62482310  0.12529955  1
  Fe  Fe83  1  0.24842362  0.74856550  0.50280428  1
  Fe  Fe84  1  0.75355685  0.25167989  0.75223360  1
  Fe  Fe85  1  0.50111771  0.25339835  -0.00429751  1
  Fe  Fe86  1  0.87277020  0.88098575  0.87815286  1
  Fe  Fe87  1  0.12401899  0.37625106  0.87312962  1
  Fe  Fe88  1  0.62948914  0.62078365  0.87607774  1
  Fe  Fe89  1  0.37571640  0.12574395  0.12294489  1
  Co  Co90  1  0.24863800  0.24974471  0.50068888  1
  Co  Co91  1  0.50214138  0.25198609  0.49877982  1
  Co  Co92  1  0.62363297  0.62985247  0.12306372  1
  Co  Co93  1  0.62565930  0.36839933  0.12864770  1
  Co  Co94  1  0.74885824  0.75194718  0.49980602  1
  Co  Co95  1  0.62596045  0.37287308  0.62740918  1
  Co  Co96  1  0.37692125  0.37405770  0.12619923  1
  Co  Co97  1  0.74431004  0.00094236  0.00350487  1
  Co  Co98  1  0.50128048  -0.00172271  0.50399630  1
  Co  Co99  1  0.12546356  0.62697740  0.12526763  1
  Co  Co100  1  0.75336985  0.50042757  0.74455461  1
  Co  Co101  1  0.87432921  0.62901531  0.62358296  1
  Co  Co102  1  0.12448116  0.87530491  0.12720057  1
  Co  Co103  1  0.12062727  0.62364059  0.62590763  1
  Co  Co104  1  0.00505999  0.00007550  -0.00233809  1
  Co  Co105  1  0.75291574  0.24741246  0.25238864  1
  Co  Co106  1  0.49993003  0.00005414  0.24735529  1
  Co  Co107  1  0.87624940  0.37168075  0.62416491  1
  Co  Co108  1  0.37418802  0.87624860  0.37635597  1
  Co  Co109  1  0.12597882  0.87231455  0.87171189  1
  Co  Co110  1  0.87399574  0.38013798  0.87717220  1
  Co  Co111  1  0.62710681  0.37878990  0.87106496  1
  Co  Co112  1  0.38046792  0.62701285  0.62316071  1
  Co  Co113  1  0.00263560  0.50064082  0.00218234  1
  Co  Co114  1  0.87547884  0.12476207  0.62520264  1
  Co  Co115  1  0.86995362  0.11958031  0.87662028  1
  Co  Co116  1  0.74913708  -0.00099255  0.74677798  1
  Co  Co117  1  0.37491147  0.37806804  0.87399978  1
  Co  Co118  1  0.75035572  0.75121240  -0.00281334  1
  Co  Co119  1  0.62752488  0.62159538  0.37750485  1
  Co  Co120  1  0.62632414  0.12475768  0.87180814  1
  Co  Co121  1  0.12190879  0.37081522  0.12556371  1
  Co  Co122  1  -0.00062536  -0.00065564  0.49825122  1
  Co  Co123  1  0.25155842  0.50078986  0.74542818  1
  Co  Co124  1  0.62799096  0.88062078  0.37341106  1
  Co  Co125  1  0.12766118  0.12811513  0.87444309  1
  Co  Co126  1  0.74573019  0.49672924  0.00560417  1
  Co  Co127  1  0.12326606  0.87660598  0.62653943  1
