# generated using pymatgen
data_Fe45Co19
_symmetry_space_group_name_H-M   'P 1'
_cell_length_a   11.40913129
_cell_length_b   11.40687651
_cell_length_c   11.40887521
_cell_angle_alpha   90.00031716
_cell_angle_beta   89.99691191
_cell_angle_gamma   90.01075702
_symmetry_Int_Tables_number   1
_chemical_formula_structural   Fe45Co19
_chemical_formula_sum   'Fe90 Co38'
_cell_volume   1484.78010350
_cell_formula_units_Z   2
loop_
 _symmetry_equiv_pos_site_id
 _symmetry_equiv_pos_as_xyz
  1  'x, y, z'
loop_
 _atom_site_type_symbol
 _atom_site_label
 _atom_site_symmetry_multiplicity
 _atom_site_fract_x
 _atom_site_fract_y
 _atom_site_fract_z
 _atom_site_occupancy
  Fe  Fe0  1  0.00027806  0.24851644  0.75181418  1
  Fe  Fe1  1  0.49684496  0.00301728  0.00344677  1
  Fe  Fe2  1  0.12744667  0.12535700  0.62546854  1
  Fe  Fe3  1  0.25160258  0.50184011  0.50368181  1
  Fe  Fe4  1  0.74992955  -0.00138933  0.50343796  1
  Fe  Fe5  1  0.37795854  0.37337355  0.62575819  1
  Fe  Fe6  1  0.62580837  0.37490580  0.87454507  1
  Fe  Fe7  1  0.12578356  0.12214258  0.37573748  1
  Fe  Fe8  1  0.75230530  0.74860654  0.00034074  1
  Fe  Fe9  1  0.49868050  0.00018453  0.24613812  1
  Fe  Fe10  1  0.12550893  0.62635251  0.12210273  1
  Fe  Fe11  1  0.75260144  0.00341975  0.00326802  1
  Fe  Fe12  1  0.25501478  0.75236778  0.49775398  1
  Fe  Fe13  1  0.37504312  0.37855698  0.87520159  1
  Fe  Fe14  1  0.12579848  0.87699238  0.37768934  1
  Fe  Fe15  1  0.62279757  0.37262962  0.12334637  1
  Fe  Fe16  1  0.00385747  0.25308724  0.25351760  1
  Fe  Fe17  1  0.62344291  0.87247015  0.12317832  1
  Fe  Fe18  1  0.87243906  0.12161970  0.63181699  1
  Fe  Fe19  1  0.49973321  0.24903711  0.49834550  1
  Fe  Fe20  1  -0.00158917  0.00448741  0.00225064  1
  Fe  Fe21  1  -0.00061438  -0.00189434  0.50523851  1
  Fe  Fe22  1  -0.00003670  0.74598725  -0.00660837  1
  Fe  Fe23  1  0.49855435  0.49890230  0.24666993  1
  Fe  Fe24  1  0.37218296  0.13361901  0.12850716  1
  Fe  Fe25  1  0.74850878  0.24923017  0.24911632  1
  Fe  Fe26  1  0.37204591  0.12111613  0.87297369  1
  Fe  Fe27  1  0.25063955  0.25017220  0.49803839  1
  Fe  Fe28  1  0.75203674  0.74969565  0.49680305  1
  Fe  Fe29  1  0.49792572  0.24955941  -0.00280411  1
  Fe  Fe30  1  0.87497889  0.37658153  0.87450127  1
  Fe  Fe31  1  0.12367921  0.37345414  0.62260981  1
  Fe  Fe32  1  0.24857496  -0.00216195  0.24629486  1
  Fe  Fe33  1  0.25021992  0.25214915  0.75213772  1
  Fe  Fe34  1  0.24854324  0.50006417  0.74668265  1
  Fe  Fe35  1  0.87269657  0.62206782  0.87306866  1
  Fe  Fe36  1  0.87740044  0.88134765  0.87155337  1
  Fe  Fe37  1  0.00027956  0.50200050  0.74833935  1
  Fe  Fe38  1  0.12638668  0.87117936  0.11875210  1
  Fe  Fe39  1  0.62344237  0.87648080  0.37437432  1
  Fe  Fe40  1  0.50324036  0.50119288  0.74954629  1
  Fe  Fe41  1  0.62419976  0.12876863  0.62831745  1
  Fe  Fe42  1  0.24723940  0.49409471  0.24618647  1
  Fe  Fe43  1  0.87473845  0.37844249  0.37755769  1
  Fe  Fe44  1  0.25248000  0.50158722  0.00336035  1
  Fe  Fe45  1  0.87611200  0.37457439  0.62368568  1
  Fe  Fe46  1  0.87644857  0.12207280  0.37229113  1
  Fe  Fe47  1  0.25364233  -0.00453282  0.50371870  1
  Fe  Fe48  1  0.75011399  0.25000629  0.50169205  1
  Fe  Fe49  1  0.62063247  0.87025590  0.62249087  1
  Fe  Fe50  1  0.37568323  0.63371865  0.63158636  1
  Fe  Fe51  1  0.49589889  0.74281291  -0.00405744  1
  Fe  Fe52  1  0.75079471  0.50137567  0.00414936  1
  Fe  Fe53  1  0.37172796  0.86869542  0.12267163  1
  Fe  Fe54  1  0.62695571  0.37794914  0.37769770  1
  Fe  Fe55  1  0.49717469  -0.00167754  0.50057157  1
  Fe  Fe56  1  -0.00092503  0.24752264  -0.00444142  1
  Fe  Fe57  1  0.49929853  0.50298958  0.50137168  1
  Fe  Fe58  1  0.62344567  0.87594054  0.88046010  1
  Fe  Fe59  1  -0.00080934  0.24701627  0.49974221  1
  Fe  Fe60  1  0.12463068  0.37907857  0.87719554  1
  Fe  Fe61  1  0.37320923  0.12512375  0.37135623  1
  Fe  Fe62  1  0.62317824  0.62926948  0.62458343  1
  Fe  Fe63  1  0.62718669  0.62318961  0.37385082  1
  Fe  Fe64  1  0.75175082  0.50135002  0.24608767  1
  Fe  Fe65  1  0.37523491  0.12492310  0.62764844  1
  Fe  Fe66  1  0.24798702  -0.00995267  0.74731256  1
  Fe  Fe67  1  0.75166464  0.74926911  0.24923933  1
  Fe  Fe68  1  0.74834273  0.75348955  0.75245451  1
  Fe  Fe69  1  0.87581980  0.87776043  0.37409212  1
  Fe  Fe70  1  0.74812285  0.49786678  0.74496860  1
  Fe  Fe71  1  0.62427691  0.12282961  0.37364111  1
  Fe  Fe72  1  -0.00067624  0.50501888  0.50192533  1
  Fe  Fe73  1  0.87879974  0.37294880  0.12399453  1
  Fe  Fe74  1  0.49955321  0.74921319  0.25142907  1
  Fe  Fe75  1  0.50167554  -0.00264678  0.75039259  1
  Fe  Fe76  1  0.49780368  0.50450374  0.00193453  1
  Fe  Fe77  1  0.87847488  0.87428776  0.12508867  1
  Fe  Fe78  1  0.75350810  0.24698904  -0.00034811  1
  Fe  Fe79  1  0.87639712  0.63144245  0.62583300  1
  Fe  Fe80  1  0.37413032  0.37473613  0.37382265  1
  Fe  Fe81  1  0.62785794  0.12547809  0.87380223  1
  Fe  Fe82  1  0.37239511  0.62421885  0.37031255  1
  Fe  Fe83  1  0.12636118  0.62346872  0.37631324  1
  Fe  Fe84  1  0.74981090  0.00087481  0.24546685  1
  Fe  Fe85  1  0.12504489  0.63430863  0.62755291  1
  Fe  Fe86  1  0.00197440  0.49936270  0.24819797  1
  Fe  Fe87  1  0.12588140  0.12975392  0.12528450  1
  Fe  Fe88  1  0.00176191  0.74976718  0.25304400  1
  Fe  Fe89  1  0.12738083  0.12055139  0.87387997  1
  Co  Co90  1  0.75104274  0.25384571  0.74974921  1
  Co  Co91  1  0.37206194  0.62080767  0.86841521  1
  Co  Co92  1  0.87831107  0.62713113  0.12554755  1
  Co  Co93  1  0.12363571  0.88155016  0.88262734  1
  Co  Co94  1  0.49754697  0.24973677  0.75400508  1
  Co  Co95  1  -0.00294578  0.75028443  0.49415042  1
  Co  Co96  1  0.37667092  0.87812764  0.87801757  1
  Co  Co97  1  -0.00217515  0.50226993  0.00026820  1
  Co  Co98  1  0.49707314  0.74802473  0.49275511  1
  Co  Co99  1  0.62964357  0.62253196  0.87608753  1
  Co  Co100  1  0.62124845  0.37231754  0.62405543  1
  Co  Co101  1  0.62375385  0.12647719  0.12370196  1
  Co  Co102  1  0.87415419  0.62149344  0.37375212  1
  Co  Co103  1  0.24385135  0.25517299  0.25371138  1
  Co  Co104  1  0.12296535  0.86653134  0.62197831  1
  Co  Co105  1  0.37941079  0.86867536  0.62840576  1
  Co  Co106  1  0.37490776  0.87738587  0.37103309  1
  Co  Co107  1  0.25037292  0.25060143  -0.00465136  1
  Co  Co108  1  0.37546944  0.37005142  0.12484964  1
  Co  Co109  1  0.50308405  0.75034690  0.75900040  1
  Co  Co110  1  0.25195228  0.00242150  0.00524470  1
  Co  Co111  1  0.24540389  0.75209656  0.25219690  1
  Co  Co112  1  0.50380213  0.25169378  0.25263748  1
  Co  Co113  1  0.12385791  0.37907561  0.38233818  1
  Co  Co114  1  0.87886947  0.12746152  0.12940902  1
  Co  Co115  1  0.12341398  0.37319827  0.11831627  1
  Co  Co116  1  0.00587802  -0.00279473  0.74528477  1
  Co  Co117  1  0.87659862  0.87235678  0.62716400  1
  Co  Co118  1  0.12675173  0.61859400  0.87376266  1
  Co  Co119  1  0.00255420  0.75149144  0.75816613  1
  Co  Co120  1  0.62458717  0.62732026  0.12552697  1
  Co  Co121  1  0.24620403  0.75718309  0.75962778  1
  Co  Co122  1  0.87322532  0.12018140  0.86800691  1
  Co  Co123  1  0.25125625  0.74599552  -0.00867694  1
  Co  Co124  1  0.74985552  0.50203452  0.50518851  1
  Co  Co125  1  0.00425793  -0.00296039  0.24724531  1
  Co  Co126  1  0.37145441  0.62836896  0.12875909  1
  Co  Co127  1  0.74363148  -0.00548844  0.74829842  1
