# generated using pymatgen
data_Fe45Co19
_symmetry_space_group_name_H-M   'P 1'
_cell_length_a   11.41614304
_cell_length_b   11.41526054
_cell_length_c   11.41573949
_cell_angle_alpha   90.01052330
_cell_angle_beta   89.99356753
_cell_angle_gamma   90.00296912
_symmetry_Int_Tables_number   1
_chemical_formula_structural   Fe45Co19
_chemical_formula_sum   'Fe90 Co38'
_cell_volume   1487.67912412
_cell_formula_units_Z   2
loop_
 _symmetry_equiv_pos_site_id
 _symmetry_equiv_pos_as_xyz
  1  'x, y, z'
loop_
 _atom_site_type_symbol
 _atom_site_label
 _atom_site_symmetry_multiplicity
 _atom_site_fract_x
 _atom_site_fract_y
 _atom_site_fract_z
 _atom_site_occupancy
  Fe  Fe0  1  0.37487474  0.62522429  0.87626119  1
  Fe  Fe1  1  0.62596375  0.37461383  0.87395271  1
  Fe  Fe2  1  0.87583514  0.87639003  0.12160909  1
  Fe  Fe3  1  0.37401736  0.87494473  0.87664945  1
  Fe  Fe4  1  0.49970054  0.74890523  0.49793516  1
  Fe  Fe5  1  0.25045783  0.00089485  0.74865278  1
  Fe  Fe6  1  0.37585506  0.12618863  0.87699072  1
  Fe  Fe7  1  0.62641903  0.12483570  0.12487811  1
  Fe  Fe8  1  0.25219311  0.49885166  0.50062963  1
  Fe  Fe9  1  0.37987608  0.37518326  0.37316630  1
  Fe  Fe10  1  0.25054172  0.00014335  0.49992684  1
  Fe  Fe11  1  0.37584623  0.62695774  0.12604763  1
  Fe  Fe12  1  0.12519449  0.12660132  0.37565044  1
  Fe  Fe13  1  0.12440094  0.12639217  0.87337753  1
  Fe  Fe14  1  -0.00178797  0.25114449  0.25050704  1
  Fe  Fe15  1  0.12458177  0.62657831  0.62418052  1
  Fe  Fe16  1  0.62408085  0.62442012  0.62566791  1
  Fe  Fe17  1  0.37578533  0.87411931  0.62518921  1
  Fe  Fe18  1  0.25076110  0.25141195  0.49858669  1
  Fe  Fe19  1  0.50156461  0.75013719  0.00028523  1
  Fe  Fe20  1  0.50326805  0.00248490  -0.00061069  1
  Fe  Fe21  1  0.24910964  0.00194942  0.00063551  1
  Fe  Fe22  1  0.37398621  0.12957245  0.12544340  1
  Fe  Fe23  1  0.74922298  0.50132088  0.75162533  1
  Fe  Fe24  1  0.24751837  0.74938067  0.00264669  1
  Fe  Fe25  1  0.50180562  0.24885410  0.74952200  1
  Fe  Fe26  1  0.87633150  0.87658259  0.37753594  1
  Fe  Fe27  1  0.37380108  0.87248024  0.37241956  1
  Fe  Fe28  1  0.37647654  0.87468961  0.12598837  1
  Fe  Fe29  1  0.25182512  0.25016660  0.74982815  1
  Fe  Fe30  1  -0.00073002  0.00136638  0.25129912  1
  Fe  Fe31  1  0.37491052  0.62618451  0.62516933  1
  Fe  Fe32  1  0.37696433  0.12664385  0.62114341  1
  Fe  Fe33  1  0.62576096  0.62524154  0.12544653  1
  Fe  Fe34  1  0.12470645  0.87180455  0.37582971  1
  Fe  Fe35  1  0.74895773  0.25037469  0.00020432  1
  Fe  Fe36  1  0.75001542  0.75016311  0.49993205  1
  Fe  Fe37  1  0.74824331  0.00043497  0.75026710  1
  Fe  Fe38  1  0.75024838  -0.00137280  0.24851599  1
  Fe  Fe39  1  0.87438064  0.12475604  0.12446864  1
  Fe  Fe40  1  0.37479854  0.62520065  0.37213920  1
  Fe  Fe41  1  0.87551420  0.62439271  0.62614832  1
  Fe  Fe42  1  0.50053035  0.75012708  0.75198174  1
  Fe  Fe43  1  0.37493545  0.36951575  0.12598577  1
  Fe  Fe44  1  0.00069448  0.25030833  -0.00043194  1
  Fe  Fe45  1  0.75139495  0.24925777  0.74299538  1
  Fe  Fe46  1  -0.00009216  0.49913619  0.75060224  1
  Fe  Fe47  1  0.87672669  0.37812613  0.12357435  1
  Fe  Fe48  1  0.62357060  0.87570063  0.62395963  1
  Fe  Fe49  1  0.50187654  0.49780869  0.00109705  1
  Fe  Fe50  1  0.62351961  0.62131378  0.37370801  1
  Fe  Fe51  1  0.87418873  0.37580573  0.87459815  1
  Fe  Fe52  1  0.49802398  0.49919862  0.74916179  1
  Fe  Fe53  1  0.24738245  0.49911244  0.00235311  1
  Fe  Fe54  1  0.12312706  0.62664437  0.87384156  1
  Fe  Fe55  1  0.87754584  0.87637395  0.62286988  1
  Fe  Fe56  1  0.12212279  0.87595283  0.12507534  1
  Fe  Fe57  1  0.25203470  0.49809327  0.74786885  1
  Fe  Fe58  1  0.75148761  0.74942607  0.75181020  1
  Fe  Fe59  1  0.75292895  0.74585987  -0.00078430  1
  Fe  Fe60  1  0.87475174  0.62537791  0.37245276  1
  Fe  Fe61  1  0.74874877  0.49778515  0.50117796  1
  Fe  Fe62  1  0.00154605  0.00259758  0.74681463  1
  Fe  Fe63  1  0.12254726  0.37338658  0.37575262  1
  Fe  Fe64  1  0.87778751  0.87690524  0.87707757  1
  Fe  Fe65  1  0.62463142  0.87694783  0.37439756  1
  Fe  Fe66  1  0.50783426  0.25102877  0.49625762  1
  Fe  Fe67  1  0.24927572  0.75085291  0.74957923  1
  Fe  Fe68  1  0.87349361  0.37355752  0.37831121  1
  Fe  Fe69  1  0.87434547  0.12483410  0.87480915  1
  Fe  Fe70  1  0.50152822  0.00159186  0.75073230  1
  Fe  Fe71  1  -0.00064452  0.50207892  0.49860947  1
  Fe  Fe72  1  0.24898813  0.49641806  0.24987164  1
  Fe  Fe73  1  0.62413430  0.37378660  0.12755593  1
  Fe  Fe74  1  0.12389320  0.37307345  0.62510780  1
  Fe  Fe75  1  0.62643258  0.87468415  0.87791815  1
  Fe  Fe76  1  0.12514537  0.37345039  0.87412257  1
  Fe  Fe77  1  0.74782106  0.25065244  0.25313180  1
  Fe  Fe78  1  -0.00385213  0.24687434  0.50542698  1
  Fe  Fe79  1  0.87013772  0.12443119  0.37941837  1
  Fe  Fe80  1  0.37459549  0.37412277  0.87723162  1
  Fe  Fe81  1  0.11785065  0.62272659  0.12885424  1
  Fe  Fe82  1  0.12358529  0.87315390  0.62207748  1
  Fe  Fe83  1  0.25058337  0.00196835  0.25125622  1
  Fe  Fe84  1  0.50048252  0.00274226  0.25147511  1
  Fe  Fe85  1  0.75036319  0.75111815  0.24849236  1
  Fe  Fe86  1  0.12505768  0.62774922  0.37293225  1
  Fe  Fe87  1  0.12631667  0.12888825  0.12696070  1
  Fe  Fe88  1  0.75163351  0.49844970  0.24890204  1
  Fe  Fe89  1  0.12302050  0.87466257  0.87660001  1
  Co  Co90  1  0.49743665  -0.00225404  0.49782413  1
  Co  Co91  1  0.37680654  0.37095242  0.62303606  1
  Co  Co92  1  0.62527241  0.12182534  0.62128896  1
  Co  Co93  1  0.24774862  0.24985099  -0.00190774  1
  Co  Co94  1  0.87747732  0.62090775  0.12720851  1
  Co  Co95  1  0.00102174  0.00449506  0.00063273  1
  Co  Co96  1  0.37425830  0.12692649  0.37729041  1
  Co  Co97  1  0.62560769  0.87548907  0.12334742  1
  Co  Co98  1  0.49836761  0.50077991  0.50193982  1
  Co  Co99  1  0.49814200  0.50056985  0.24602000  1
  Co  Co100  1  0.74966758  -0.00431239  0.50198496  1
  Co  Co101  1  0.00068320  0.49899041  -0.00290241  1
  Co  Co102  1  -0.00246176  0.74753787  0.49923012  1
  Co  Co103  1  0.25005043  0.25207327  0.25350768  1
  Co  Co104  1  0.62806647  0.12744996  0.87368154  1
  Co  Co105  1  0.50272390  0.75007165  0.25106969  1
  Co  Co106  1  -0.00164316  0.75066603  0.74892057  1
  Co  Co107  1  0.62424472  0.38070314  0.37202944  1
  Co  Co108  1  0.25182749  0.74928210  0.50036473  1
  Co  Co109  1  0.87634025  0.37899437  0.62450949  1
  Co  Co110  1  0.50344470  0.24974090  -0.00034839  1
  Co  Co111  1  0.63121018  0.12038146  0.37807563  1
  Co  Co112  1  0.00279483  0.00236404  0.49935804  1
  Co  Co113  1  0.24837090  0.74979186  0.24642800  1
  Co  Co114  1  0.87179530  0.12075610  0.62213563  1
  Co  Co115  1  0.62407538  0.37784384  0.62672116  1
  Co  Co116  1  0.74912216  0.00238265  -0.00078300  1
  Co  Co117  1  0.62293718  0.62448684  0.87477147  1
  Co  Co118  1  0.74644245  0.25451907  0.50258645  1
  Co  Co119  1  0.50405831  0.24539909  0.25423418  1
  Co  Co120  1  -0.00201167  0.74786991  0.00099919  1
  Co  Co121  1  -0.00110685  0.49588449  0.25471005  1
  Co  Co122  1  0.74816323  0.50114267  0.00001034  1
  Co  Co123  1  0.87710483  0.62306764  0.87383296  1
  Co  Co124  1  -0.00318303  0.75270235  0.25037689  1
  Co  Co125  1  0.12826704  0.12795998  0.62448522  1
  Co  Co126  1  0.12331083  0.37359175  0.12624909  1
  Co  Co127  1  -0.00374422  0.24884808  0.74776463  1
