# generated using pymatgen
data_Fe45Co19
_symmetry_space_group_name_H-M   'P 1'
_cell_length_a   11.41503001
_cell_length_b   11.41503605
_cell_length_c   11.41411611
_cell_angle_alpha   89.99876071
_cell_angle_beta   89.98909285
_cell_angle_gamma   89.99133912
_symmetry_Int_Tables_number   1
_chemical_formula_structural   Fe45Co19
_chemical_formula_sum   'Fe90 Co38'
_cell_volume   1487.29328916
_cell_formula_units_Z   2
loop_
 _symmetry_equiv_pos_site_id
 _symmetry_equiv_pos_as_xyz
  1  'x, y, z'
loop_
 _atom_site_type_symbol
 _atom_site_label
 _atom_site_symmetry_multiplicity
 _atom_site_fract_x
 _atom_site_fract_y
 _atom_site_fract_z
 _atom_site_occupancy
  Fe  Fe0  1  0.50033460  0.00088142  0.25329054  1
  Fe  Fe1  1  0.87878059  0.12405930  0.62441386  1
  Fe  Fe2  1  0.24874261  0.49676444  0.24966162  1
  Fe  Fe3  1  0.62616733  0.12583154  0.37651904  1
  Fe  Fe4  1  0.49913014  0.00127581  0.75037008  1
  Fe  Fe5  1  0.74997686  0.25120089  0.25062889  1
  Fe  Fe6  1  0.49839232  0.24812579  0.74939314  1
  Fe  Fe7  1  0.12875253  0.12778080  0.37349554  1
  Fe  Fe8  1  0.75385454  0.75092750  0.50493523  1
  Fe  Fe9  1  0.49874760  0.74875986  0.49861968  1
  Fe  Fe10  1  0.24777432  0.49849278  0.49970258  1
  Fe  Fe11  1  0.75058089  0.74986959  0.00045008  1
  Fe  Fe12  1  0.37813680  0.37793115  0.12363581  1
  Fe  Fe13  1  0.24864398  -0.00327310  0.00224682  1
  Fe  Fe14  1  0.49869565  0.24903999  -0.00124324  1
  Fe  Fe15  1  0.50196145  0.50317019  0.75198237  1
  Fe  Fe16  1  0.87405836  0.37806498  0.87621819  1
  Fe  Fe17  1  0.87906402  0.37553396  0.62537212  1
  Fe  Fe18  1  0.37273076  0.12587110  0.62422923  1
  Fe  Fe19  1  0.62499563  0.12524322  0.62484574  1
  Fe  Fe20  1  0.24931142  0.49848140  0.75012173  1
  Fe  Fe21  1  0.25188126  0.74871431  0.50274344  1
  Fe  Fe22  1  0.12847922  0.12784234  0.87472931  1
  Fe  Fe23  1  0.74913791  0.50068359  0.50289506  1
  Fe  Fe24  1  0.87501312  0.62491192  0.37628767  1
  Fe  Fe25  1  0.49565912  0.74682637  0.00209617  1
  Fe  Fe26  1  0.62292179  0.37390344  0.87581486  1
  Fe  Fe27  1  0.00367547  -0.00329452  0.25419939  1
  Fe  Fe28  1  0.37553223  0.62328073  0.62451822  1
  Fe  Fe29  1  0.49866811  0.25182017  0.25452922  1
  Fe  Fe30  1  0.37290036  0.12311206  0.12796097  1
  Fe  Fe31  1  0.87542817  0.62308112  0.12208924  1
  Fe  Fe32  1  0.87801921  0.87741491  0.12514363  1
  Fe  Fe33  1  0.12394300  0.13017483  0.62568243  1
  Fe  Fe34  1  0.12834646  0.87111807  0.87438796  1
  Fe  Fe35  1  0.12449071  0.62478498  0.62600237  1
  Fe  Fe36  1  -0.00007851  0.74704065  -0.00282749  1
  Fe  Fe37  1  -0.00106919  0.24942480  -0.00121473  1
  Fe  Fe38  1  0.62434923  0.87179306  0.87422940  1
  Fe  Fe39  1  0.87575568  0.37684272  0.37507090  1
  Fe  Fe40  1  0.25138253  0.75424341  0.24251506  1
  Fe  Fe41  1  0.12658123  0.62758088  0.37427533  1
  Fe  Fe42  1  -0.00235822  0.74639917  0.75099684  1
  Fe  Fe43  1  -0.00135695  0.25030655  0.25147099  1
  Fe  Fe44  1  0.24778896  -0.00084389  0.50036447  1
  Fe  Fe45  1  -0.00300372  0.75214131  0.50088683  1
  Fe  Fe46  1  0.12497709  0.37378433  0.87335394  1
  Fe  Fe47  1  0.50299073  0.49897116  0.25295490  1
  Fe  Fe48  1  0.36928813  0.62314679  0.87906653  1
  Fe  Fe49  1  0.74972890  0.24860106  0.00121574  1
  Fe  Fe50  1  0.50085365  0.00194059  -0.00232575  1
  Fe  Fe51  1  0.62736972  0.87378825  0.37448992  1
  Fe  Fe52  1  0.87436775  0.87505744  0.87404340  1
  Fe  Fe53  1  0.12523880  0.12461672  0.12526173  1
  Fe  Fe54  1  0.00344942  0.49850538  0.49864451  1
  Fe  Fe55  1  0.87737719  0.12160605  0.12510272  1
  Fe  Fe56  1  0.74807949  0.49867145  0.24928378  1
  Fe  Fe57  1  0.12247595  0.37413455  0.12558409  1
  Fe  Fe58  1  0.37301986  0.62505378  0.37157352  1
  Fe  Fe59  1  0.62195144  0.87502229  0.12540053  1
  Fe  Fe60  1  0.62388137  0.87241201  0.62709731  1
  Fe  Fe61  1  0.49715499  0.74742523  0.75100176  1
  Fe  Fe62  1  0.75173763  0.25058847  0.50015932  1
  Fe  Fe63  1  0.87562504  0.12203036  0.37588429  1
  Fe  Fe64  1  0.75182842  -0.00211501  0.50104348  1
  Fe  Fe65  1  0.00350464  0.00212931  0.75163552  1
  Fe  Fe66  1  0.12458672  0.87365764  0.62626827  1
  Fe  Fe67  1  0.62391899  0.12681124  0.12590699  1
  Fe  Fe68  1  0.74824316  0.00064286  0.00137801  1
  Fe  Fe69  1  0.37419250  0.87563336  0.62661160  1
  Fe  Fe70  1  0.62691304  0.62616653  0.37702955  1
  Fe  Fe71  1  0.74801481  -0.00089721  0.75056315  1
  Fe  Fe72  1  0.75096594  0.75017402  0.24857739  1
  Fe  Fe73  1  0.74569154  0.50038815  0.00027871  1
  Fe  Fe74  1  0.49865160  0.00081500  0.49895147  1
  Fe  Fe75  1  0.87314468  0.12468440  0.87470840  1
  Fe  Fe76  1  0.37737248  0.37638770  0.62316992  1
  Fe  Fe77  1  0.37242971  0.87527900  0.37365221  1
  Fe  Fe78  1  0.37204247  0.12502032  0.87369567  1
  Fe  Fe79  1  0.24919517  0.25517801  0.49913369  1
  Fe  Fe80  1  0.00067968  0.50178764  0.75325401  1
  Fe  Fe81  1  0.37227555  0.87516029  0.87395234  1
  Fe  Fe82  1  0.62243349  0.62564108  0.12535505  1
  Fe  Fe83  1  0.75038807  0.25224516  0.74898208  1
  Fe  Fe84  1  0.87541727  0.37641066  0.12337544  1
  Fe  Fe85  1  0.62092673  0.37557687  0.62188702  1
  Fe  Fe86  1  0.00022388  0.50176442  0.24895108  1
  Fe  Fe87  1  -0.00030224  0.74941610  0.24981376  1
  Fe  Fe88  1  0.12747795  0.62433204  0.12071617  1
  Fe  Fe89  1  0.25163294  0.25354846  0.00044918  1
  Co  Co90  1  0.62570396  0.12683400  0.87377546  1
  Co  Co91  1  0.24687788  -0.00416731  0.24778473  1
  Co  Co92  1  0.74854284  0.00001429  0.24766014  1
  Co  Co93  1  0.24821968  0.49502091  -0.00051643  1
  Co  Co94  1  0.12997998  0.62683545  0.87664603  1
  Co  Co95  1  0.62416572  0.62753636  0.62516131  1
  Co  Co96  1  -0.00247027  0.24957042  0.75329203  1
  Co  Co97  1  0.12839644  0.86895347  0.37692673  1
  Co  Co98  1  0.00087504  0.25143167  0.49687744  1
  Co  Co99  1  0.37583651  0.37659070  0.37736905  1
  Co  Co100  1  0.75420494  0.74817113  0.74711680  1
  Co  Co101  1  0.62525596  0.37463898  0.37961440  1
  Co  Co102  1  0.50247795  0.50304939  -0.00153667  1
  Co  Co103  1  0.38041867  0.87948288  0.12591845  1
  Co  Co104  1  0.74685056  0.49933843  0.74835961  1
  Co  Co105  1  0.00284832  0.50030714  -0.00132341  1
  Co  Co106  1  0.25274240  0.25301406  0.75008500  1
  Co  Co107  1  0.12267037  0.37357869  0.62822105  1
  Co  Co108  1  0.87375282  0.87521175  0.37320438  1
  Co  Co109  1  0.49963864  0.74909393  0.25081575  1
  Co  Co110  1  0.37841653  0.37611303  0.87461943  1
  Co  Co111  1  0.87788555  0.87955033  0.62814330  1
  Co  Co112  1  0.12389029  0.37522234  0.37166622  1
  Co  Co113  1  0.36965655  0.12436529  0.37385603  1
  Co  Co114  1  0.87695112  0.62101559  0.62552704  1
  Co  Co115  1  0.62344266  0.37277466  0.12365029  1
  Co  Co116  1  0.25332360  0.75308225  0.00594561  1
  Co  Co117  1  0.87132580  0.62182050  0.87579590  1
  Co  Co118  1  0.25236608  0.25407169  0.24809748  1
  Co  Co119  1  0.24811106  0.00076410  0.74842283  1
  Co  Co120  1  0.62745146  0.62868756  0.87434437  1
  Co  Co121  1  0.00390641  -0.00096799  0.49760765  1
  Co  Co122  1  0.00148202  0.00086945  -0.00506936  1
  Co  Co123  1  0.49933288  0.50504198  0.49747371  1
  Co  Co124  1  0.25162544  0.74748452  0.74738713  1
  Co  Co125  1  0.11909548  0.87545713  0.12174865  1
  Co  Co126  1  0.37438140  0.61903806  0.12623113  1
  Co  Co127  1  0.49803133  0.24657364  0.49823179  1
