# generated using pymatgen
data_Fe45Co19
_symmetry_space_group_name_H-M   'P 1'
_cell_length_a   11.41469545
_cell_length_b   11.41536574
_cell_length_c   11.41464911
_cell_angle_alpha   89.99444311
_cell_angle_beta   89.99433086
_cell_angle_gamma   90.00666039
_symmetry_Int_Tables_number   1
_chemical_formula_structural   Fe45Co19
_chemical_formula_sum   'Fe90 Co38'
_cell_volume   1487.36212511
_cell_formula_units_Z   2
loop_
 _symmetry_equiv_pos_site_id
 _symmetry_equiv_pos_as_xyz
  1  'x, y, z'
loop_
 _atom_site_type_symbol
 _atom_site_label
 _atom_site_symmetry_multiplicity
 _atom_site_fract_x
 _atom_site_fract_y
 _atom_site_fract_z
 _atom_site_occupancy
  Fe  Fe0  1  0.49571931  0.25281451  0.49732528  1
  Fe  Fe1  1  0.87455060  0.62402216  0.12552418  1
  Fe  Fe2  1  0.37381292  0.12661641  0.62417818  1
  Fe  Fe3  1  0.87154534  0.87347366  0.13195854  1
  Fe  Fe4  1  0.87458076  0.12634954  0.12421037  1
  Fe  Fe5  1  0.37552339  0.12640367  0.87494021  1
  Fe  Fe6  1  0.25090973  0.49794865  0.49896551  1
  Fe  Fe7  1  0.12345253  0.62454712  0.87872601  1
  Fe  Fe8  1  0.37498326  0.62364497  0.87612237  1
  Fe  Fe9  1  0.00145633  0.00166967  0.24972342  1
  Fe  Fe10  1  0.62685759  0.62717745  0.12381104  1
  Fe  Fe11  1  0.74786866  -0.00074472  0.74748449  1
  Fe  Fe12  1  0.75115272  -0.00123649  0.49765485  1
  Fe  Fe13  1  0.50158823  0.75152376  0.49760053  1
  Fe  Fe14  1  0.62685795  0.62496817  0.62468614  1
  Fe  Fe15  1  0.37366730  0.12347634  0.12623815  1
  Fe  Fe16  1  -0.00293491  0.25110546  0.00207026  1
  Fe  Fe17  1  0.87473914  0.87480801  0.62426748  1
  Fe  Fe18  1  0.49868327  0.49826426  0.50174204  1
  Fe  Fe19  1  0.62534418  0.12654154  0.87747093  1
  Fe  Fe20  1  0.87448451  0.62350174  0.62583796  1
  Fe  Fe21  1  -0.00279713  0.75188709  0.00111404  1
  Fe  Fe22  1  0.87341399  0.37727980  0.87467894  1
  Fe  Fe23  1  0.37340217  0.37642584  0.12531725  1
  Fe  Fe24  1  0.00002603  0.74842582  0.74971794  1
  Fe  Fe25  1  0.12268525  0.37374494  0.37365408  1
  Fe  Fe26  1  0.50130983  0.75192930  0.00172484  1
  Fe  Fe27  1  0.49870210  0.25095863  0.24982603  1
  Fe  Fe28  1  0.24630644  0.50355648  0.24969670  1
  Fe  Fe29  1  0.00221653  0.25154976  0.74798176  1
  Fe  Fe30  1  0.37315337  0.62437702  0.12341980  1
  Fe  Fe31  1  0.62341111  0.12583201  0.37563253  1
  Fe  Fe32  1  0.37509887  0.87435483  0.87320597  1
  Fe  Fe33  1  0.49967233  0.49949671  -0.00059482  1
  Fe  Fe34  1  0.12325851  0.37575812  0.12684691  1
  Fe  Fe35  1  0.24737242  0.75002178  0.75076484  1
  Fe  Fe36  1  0.25015786  0.75050485  0.50067069  1
  Fe  Fe37  1  0.74955420  0.75138153  0.49499082  1
  Fe  Fe38  1  0.50225509  -0.00083280  0.74840063  1
  Fe  Fe39  1  0.74982752  0.49770339  0.49980308  1
  Fe  Fe40  1  0.49993097  -0.00161937  0.25106256  1
  Fe  Fe41  1  0.12276113  0.12698549  0.37896352  1
  Fe  Fe42  1  0.62723069  0.87390297  0.87565027  1
  Fe  Fe43  1  0.12221333  0.12295800  0.87855443  1
  Fe  Fe44  1  -0.00198147  0.49958509  0.00116156  1
  Fe  Fe45  1  0.62477558  0.12703798  0.62196498  1
  Fe  Fe46  1  0.12539573  0.12830738  0.62097965  1
  Fe  Fe47  1  0.74909183  0.25137886  0.74923884  1
  Fe  Fe48  1  0.24647375  0.74807277  0.24881896  1
  Fe  Fe49  1  0.25217736  0.25111686  -0.00109262  1
  Fe  Fe50  1  0.00192910  0.74494654  0.25177442  1
  Fe  Fe51  1  0.00122588  0.49884802  0.49949583  1
  Fe  Fe52  1  -0.00063356  0.75025045  0.49929385  1
  Fe  Fe53  1  0.50252355  0.74931258  0.74932522  1
  Fe  Fe54  1  0.75123930  0.24853105  0.25006531  1
  Fe  Fe55  1  0.62411704  0.37574808  0.37469755  1
  Fe  Fe56  1  0.37464406  0.87442170  0.62661077  1
  Fe  Fe57  1  0.49951112  -0.00342061  0.49810856  1
  Fe  Fe58  1  0.24791860  0.00132340  0.75027293  1
  Fe  Fe59  1  0.37301284  0.37411281  0.62936646  1
  Fe  Fe60  1  0.87367787  0.87451137  0.87286227  1
  Fe  Fe61  1  0.24991733  0.24778625  0.25270636  1
  Fe  Fe62  1  0.74941638  0.50201353  0.25017263  1
  Fe  Fe63  1  0.62584546  0.37444307  0.87745896  1
  Fe  Fe64  1  0.50140105  0.50059787  0.24800728  1
  Fe  Fe65  1  0.75268628  0.25208820  0.49878796  1
  Fe  Fe66  1  0.12321817  0.87759130  0.87772723  1
  Fe  Fe67  1  0.24855439  0.50030221  0.75215953  1
  Fe  Fe68  1  0.62977042  0.62568527  0.87488696  1
  Fe  Fe69  1  0.87856282  0.12545065  0.37663574  1
  Fe  Fe70  1  0.49931482  -0.00172339  0.00136809  1
  Fe  Fe71  1  0.87902553  0.37591487  0.36940785  1
  Fe  Fe72  1  0.12657165  0.12100933  0.12084832  1
  Fe  Fe73  1  0.37180998  0.87632407  0.12749475  1
  Fe  Fe74  1  0.12347926  0.87424624  0.37484196  1
  Fe  Fe75  1  0.50106222  0.25146714  0.75072113  1
  Fe  Fe76  1  0.87588352  0.12446541  0.87365333  1
  Fe  Fe77  1  0.87660032  0.37648523  0.62752830  1
  Fe  Fe78  1  0.62534477  0.12547568  0.12323241  1
  Fe  Fe79  1  0.12462244  0.62359880  0.62441964  1
  Fe  Fe80  1  0.37515876  0.62507569  0.62680397  1
  Fe  Fe81  1  0.37572253  0.62459959  0.37410634  1
  Fe  Fe82  1  0.00186051  -0.00078728  0.74671240  1
  Fe  Fe83  1  0.75145058  -0.00125232  0.00148884  1
  Fe  Fe84  1  0.50232744  0.75038363  0.25098435  1
  Fe  Fe85  1  0.12498773  0.37525854  0.87517501  1
  Fe  Fe86  1  0.62803110  0.37259582  0.12229629  1
  Fe  Fe87  1  0.24908675  0.75201530  0.00092475  1
  Fe  Fe88  1  0.25068796  -0.00159593  0.49772960  1
  Fe  Fe89  1  0.87606284  0.12543475  0.62443545  1
  Co  Co90  1  0.37687014  0.12373625  0.37446716  1
  Co  Co91  1  0.37526445  0.37580935  0.87339586  1
  Co  Co92  1  0.62395062  0.37274794  0.62332278  1
  Co  Co93  1  0.25350796  -0.00143889  -0.00203865  1
  Co  Co94  1  -0.00201038  0.25385375  0.50166736  1
  Co  Co95  1  0.49691861  0.25092247  0.00136940  1
  Co  Co96  1  0.74822507  0.49892019  0.74879986  1
  Co  Co97  1  0.74799922  0.74405730  0.25480514  1
  Co  Co98  1  0.24700604  0.24831762  0.75243389  1
  Co  Co99  1  0.87608470  0.37670546  0.12928694  1
  Co  Co100  1  0.62272102  0.62113779  0.37679632  1
  Co  Co101  1  0.87342929  0.62400506  0.87432858  1
  Co  Co102  1  0.12705719  0.37492745  0.62480688  1
  Co  Co103  1  0.25332328  0.25289574  0.49598600  1
  Co  Co104  1  0.62610028  0.87400389  0.62341254  1
  Co  Co105  1  0.37504316  0.37916447  0.37026417  1
  Co  Co106  1  0.24707656  0.00130501  0.25424542  1
  Co  Co107  1  0.87483433  0.62256275  0.37703965  1
  Co  Co108  1  0.00110557  0.50113290  0.75080005  1
  Co  Co109  1  0.12593716  0.87434163  0.62440151  1
  Co  Co110  1  0.50280540  0.50070748  0.75055446  1
  Co  Co111  1  0.75114469  0.00536082  0.25139068  1
  Co  Co112  1  0.62876408  0.87533362  0.12810127  1
  Co  Co113  1  -0.00037054  -0.00229678  0.50087218  1
  Co  Co114  1  0.12407464  0.62502763  0.11958569  1
  Co  Co115  1  0.12624400  0.62513974  0.37957942  1
  Co  Co116  1  0.75065254  0.50085277  0.00199238  1
  Co  Co117  1  0.24983320  0.49833570  0.00016290  1
  Co  Co118  1  0.87626781  0.87517795  0.37098802  1
  Co  Co119  1  0.37341421  0.87222442  0.37303910  1
  Co  Co120  1  -0.00615749  -0.00258626  0.00265064  1
  Co  Co121  1  0.75115085  0.74986986  0.74832110  1
  Co  Co122  1  0.75200656  0.75107723  0.00151433  1
  Co  Co123  1  0.12456097  0.87692437  0.12529021  1
  Co  Co124  1  0.00299787  0.50569636  0.25024160  1
  Co  Co125  1  0.75389671  0.24933148  0.00030452  1
  Co  Co126  1  0.62769751  0.87688977  0.37155988  1
  Co  Co127  1  0.00100569  0.24533380  0.24698005  1
