# generated using pymatgen
data_Fe45Co19
_symmetry_space_group_name_H-M   'P 1'
_cell_length_a   11.41582753
_cell_length_b   11.41478532
_cell_length_c   11.41482540
_cell_angle_alpha   90.00960168
_cell_angle_beta   90.00106383
_cell_angle_gamma   90.00035249
_symmetry_Int_Tables_number   1
_chemical_formula_structural   Fe45Co19
_chemical_formula_sum   'Fe90 Co38'
_cell_volume   1487.45697890
_cell_formula_units_Z   2
loop_
 _symmetry_equiv_pos_site_id
 _symmetry_equiv_pos_as_xyz
  1  'x, y, z'
loop_
 _atom_site_type_symbol
 _atom_site_label
 _atom_site_symmetry_multiplicity
 _atom_site_fract_x
 _atom_site_fract_y
 _atom_site_fract_z
 _atom_site_occupancy
  Fe  Fe0  1  0.62729257  0.62546441  0.62515095  1
  Fe  Fe1  1  0.49752585  -0.00238840  0.50132392  1
  Fe  Fe2  1  0.74680754  0.24970312  0.75175431  1
  Fe  Fe3  1  0.87609753  0.12696290  0.12338097  1
  Fe  Fe4  1  -0.00115800  0.74978069  0.25301756  1
  Fe  Fe5  1  0.24942048  -0.00149621  0.24963717  1
  Fe  Fe6  1  0.37537425  0.37666751  0.37241727  1
  Fe  Fe7  1  -0.00324869  0.50351889  0.74808796  1
  Fe  Fe8  1  0.62503687  0.87455434  0.12564303  1
  Fe  Fe9  1  0.75223285  0.49987873  0.50262734  1
  Fe  Fe10  1  0.24765136  0.75170176  0.25135237  1
  Fe  Fe11  1  0.49896591  0.00199697  0.74996851  1
  Fe  Fe12  1  0.62587016  0.87520948  0.37404334  1
  Fe  Fe13  1  0.62154277  0.37671928  0.12598566  1
  Fe  Fe14  1  0.25014050  -0.00119349  0.74984818  1
  Fe  Fe15  1  0.87856351  0.37390906  0.12543617  1
  Fe  Fe16  1  0.75207489  0.49562430  -0.00268871  1
  Fe  Fe17  1  0.49865723  0.50060784  0.75021157  1
  Fe  Fe18  1  0.00042590  0.00167655  0.74607675  1
  Fe  Fe19  1  0.74924012  0.25050928  0.24982445  1
  Fe  Fe20  1  0.37265267  0.12592664  0.62350256  1
  Fe  Fe21  1  0.37650593  0.12734875  0.12649661  1
  Fe  Fe22  1  0.37492762  0.62738084  0.62516688  1
  Fe  Fe23  1  0.75243510  0.00042311  -0.00038330  1
  Fe  Fe24  1  0.75195853  -0.00030244  0.50340159  1
  Fe  Fe25  1  0.50155527  0.74866411  0.25096158  1
  Fe  Fe26  1  0.50134783  0.25243615  -0.00321531  1
  Fe  Fe27  1  0.00172225  0.74839946  -0.00358285  1
  Fe  Fe28  1  0.37289632  0.12554791  0.87533873  1
  Fe  Fe29  1  0.12622950  0.12303554  0.87517131  1
  Fe  Fe30  1  0.62551060  0.62309653  0.12498550  1
  Fe  Fe31  1  0.62551374  0.37619180  0.37466993  1
  Fe  Fe32  1  0.50008207  0.24926655  0.75165654  1
  Fe  Fe33  1  0.50099303  0.74842514  0.75177562  1
  Fe  Fe34  1  0.00028849  0.00017273  0.25167929  1
  Fe  Fe35  1  0.12340630  0.12480870  0.12436000  1
  Fe  Fe36  1  0.87336352  0.62566771  0.37713000  1
  Fe  Fe37  1  0.87496268  0.12706837  0.37965602  1
  Fe  Fe38  1  0.12279302  0.37737155  0.37705902  1
  Fe  Fe39  1  0.62459642  0.37461482  0.62540589  1
  Fe  Fe40  1  0.37280856  0.62460905  0.37330041  1
  Fe  Fe41  1  0.87457137  0.87360302  0.37663916  1
  Fe  Fe42  1  0.24779679  0.25214505  0.74733366  1
  Fe  Fe43  1  0.49994505  0.50099039  0.49930089  1
  Fe  Fe44  1  0.37558607  0.87298752  0.12682060  1
  Fe  Fe45  1  0.12539516  0.12275946  0.38040674  1
  Fe  Fe46  1  0.62514497  0.12388689  0.37724458  1
  Fe  Fe47  1  0.00193241  0.50088592  -0.00044552  1
  Fe  Fe48  1  0.12279193  0.87478516  0.12461229  1
  Fe  Fe49  1  0.75024062  0.75032445  -0.00115046  1
  Fe  Fe50  1  0.12462319  0.87371826  0.62162006  1
  Fe  Fe51  1  0.24933412  0.25184977  0.24932061  1
  Fe  Fe52  1  0.24803639  0.74818560  0.74998385  1
  Fe  Fe53  1  0.62497247  0.12616616  0.12313508  1
  Fe  Fe54  1  0.12455003  0.87573189  0.87567979  1
  Fe  Fe55  1  0.25027964  -0.00051600  0.00132637  1
  Fe  Fe56  1  0.12501747  0.62294332  0.37428633  1
  Fe  Fe57  1  0.37504005  0.37468131  0.62445741  1
  Fe  Fe58  1  0.25012172  0.49937611  0.50246851  1
  Fe  Fe59  1  0.87702414  0.87471981  0.12497163  1
  Fe  Fe60  1  0.24946699  0.74441112  -0.00019521  1
  Fe  Fe61  1  0.00518406  0.24725644  0.74590538  1
  Fe  Fe62  1  0.87624994  0.37115784  0.62434784  1
  Fe  Fe63  1  0.49840180  0.74587288  -0.00195933  1
  Fe  Fe64  1  0.62784380  0.62524307  0.37577167  1
  Fe  Fe65  1  0.62706711  0.62175403  0.87482732  1
  Fe  Fe66  1  0.24876927  0.25375690  0.00207220  1
  Fe  Fe67  1  0.00133581  0.24926376  0.25286219  1
  Fe  Fe68  1  0.87444177  0.12682342  0.87442106  1
  Fe  Fe69  1  0.87672914  0.37368017  0.37805956  1
  Fe  Fe70  1  0.62484603  0.87682961  0.87506301  1
  Fe  Fe71  1  0.24859099  0.49765387  0.24247140  1
  Fe  Fe72  1  0.75049976  0.00044593  0.24918569  1
  Fe  Fe73  1  0.87625898  0.62450762  0.12428554  1
  Fe  Fe74  1  0.75392785  0.50065254  0.74984801  1
  Fe  Fe75  1  0.37422719  0.87283838  0.87396463  1
  Fe  Fe76  1  0.00148806  0.24991469  -0.00259725  1
  Fe  Fe77  1  0.87559275  0.86769556  0.62596617  1
  Fe  Fe78  1  0.75176000  0.50000123  0.25029443  1
  Fe  Fe79  1  0.25383148  -0.00594918  0.49841129  1
  Fe  Fe80  1  0.37162128  0.38107466  0.87667911  1
  Fe  Fe81  1  0.49972732  0.25106695  0.49860543  1
  Fe  Fe82  1  0.87574531  0.87343290  0.87267183  1
  Fe  Fe83  1  0.37493761  0.12445799  0.37391889  1
  Fe  Fe84  1  0.49840834  0.75057780  0.49935597  1
  Fe  Fe85  1  0.12348572  0.62472233  0.62380456  1
  Fe  Fe86  1  0.74985128  0.00161845  0.74834511  1
  Fe  Fe87  1  0.49795617  -0.00005925  0.00013278  1
  Fe  Fe88  1  0.12690437  0.38068321  0.87384709  1
  Fe  Fe89  1  0.62472970  0.87418580  0.62603355  1
  Co  Co90  1  0.75098700  0.74963807  0.24853287  1
  Co  Co91  1  0.00182334  0.74732203  0.49757286  1
  Co  Co92  1  0.74731402  0.25179903  0.49988380  1
  Co  Co93  1  0.37470451  0.87206302  0.62802896  1
  Co  Co94  1  0.25128268  0.50060541  0.74465278  1
  Co  Co95  1  0.62364664  0.12582437  0.62359778  1
  Co  Co96  1  0.62406031  0.37792170  0.87287349  1
  Co  Co97  1  0.74786246  0.75061612  0.50029474  1
  Co  Co98  1  0.74945167  0.25386484  -0.00031473  1
  Co  Co99  1  0.24986906  0.25443766  0.49918821  1
  Co  Co100  1  0.12733789  0.61951808  0.87317446  1
  Co  Co101  1  0.37672517  0.62515516  0.12881556  1
  Co  Co102  1  0.37679724  0.87327428  0.37118905  1
  Co  Co103  1  0.13110902  0.12105752  0.61948576  1
  Co  Co104  1  0.12125292  0.62756044  0.12812769  1
  Co  Co105  1  0.62637472  0.12383711  0.87629769  1
  Co  Co106  1  0.50142859  0.24939207  0.25280706  1
  Co  Co107  1  0.74747320  0.74892092  0.75283966  1
  Co  Co108  1  0.87431597  0.62596810  0.87632993  1
  Co  Co109  1  0.87354893  0.63128368  0.62463777  1
  Co  Co110  1  -0.00287672  0.50221956  0.50185016  1
  Co  Co111  1  0.87262909  0.12977312  0.62426452  1
  Co  Co112  1  0.37138655  0.62214253  0.87284054  1
  Co  Co113  1  0.25008506  0.74963196  0.49904758  1
  Co  Co114  1  0.49776748  0.50263974  -0.00158114  1
  Co  Co115  1  0.50118044  0.00027078  0.24859049  1
  Co  Co116  1  0.87882506  0.37250893  0.87255969  1
  Co  Co117  1  0.50123171  0.50237019  0.25262029  1
  Co  Co118  1  0.12286273  0.87664374  0.37755312  1
  Co  Co119  1  0.00298926  0.74804905  0.75237689  1
  Co  Co120  1  0.24863615  0.50213890  0.00771589  1
  Co  Co121  1  0.38000173  0.37507949  0.12552026  1
  Co  Co122  1  0.12304277  0.37883463  0.62483752  1
  Co  Co123  1  0.00453517  0.24943630  0.50328976  1
  Co  Co124  1  -0.00078701  0.00032062  -0.00206860  1
  Co  Co125  1  0.12004008  0.37345333  0.12522031  1
  Co  Co126  1  -0.00453194  -0.00038576  0.50391537  1
  Co  Co127  1  -0.00172948  0.50045847  0.25138563  1
