# generated using pymatgen
data_Fe45Co19
_symmetry_space_group_name_H-M   'P 1'
_cell_length_a   11.41505137
_cell_length_b   11.41490966
_cell_length_c   11.41619849
_cell_angle_alpha   90.00154917
_cell_angle_beta   90.00432296
_cell_angle_gamma   89.99664713
_symmetry_Int_Tables_number   1
_chemical_formula_structural   Fe45Co19
_chemical_formula_sum   'Fe90 Co38'
_cell_volume   1487.55097904
_cell_formula_units_Z   2
loop_
 _symmetry_equiv_pos_site_id
 _symmetry_equiv_pos_as_xyz
  1  'x, y, z'
loop_
 _atom_site_type_symbol
 _atom_site_label
 _atom_site_symmetry_multiplicity
 _atom_site_fract_x
 _atom_site_fract_y
 _atom_site_fract_z
 _atom_site_occupancy
  Fe  Fe0  1  0.24995689  0.74885534  0.25226693  1
  Fe  Fe1  1  0.37686650  0.87310848  0.87312063  1
  Fe  Fe2  1  0.37492817  0.12439445  0.62271731  1
  Fe  Fe3  1  0.74772458  0.49912137  0.74862146  1
  Fe  Fe4  1  0.87396620  0.87534250  0.87650835  1
  Fe  Fe5  1  0.12505650  0.12547899  0.87545212  1
  Fe  Fe6  1  0.75074485  -0.00275238  0.24886770  1
  Fe  Fe7  1  0.25201832  -0.00025691  0.00072298  1
  Fe  Fe8  1  0.50033721  -0.00033333  0.00151288  1
  Fe  Fe9  1  0.74804532  0.49997596  0.24974800  1
  Fe  Fe10  1  0.37935279  0.37681524  0.37641589  1
  Fe  Fe11  1  0.87531616  0.62417487  0.62615001  1
  Fe  Fe12  1  0.25099504  -0.00206952  0.49815713  1
  Fe  Fe13  1  0.50092226  0.24792434  0.25257401  1
  Fe  Fe14  1  0.50103107  0.24858651  0.74803307  1
  Fe  Fe15  1  0.12466204  0.62426096  0.12469671  1
  Fe  Fe16  1  0.12562764  0.87389341  0.87557853  1
  Fe  Fe17  1  0.50170391  0.00129940  0.25121521  1
  Fe  Fe18  1  0.25144736  0.49891659  0.25308157  1
  Fe  Fe19  1  0.24935897  0.25091787  0.74891244  1
  Fe  Fe20  1  0.12620458  0.62231326  0.37926908  1
  Fe  Fe21  1  0.37705294  0.62498462  0.87501803  1
  Fe  Fe22  1  0.62148801  0.37540224  0.87287727  1
  Fe  Fe23  1  0.37929502  0.37652355  0.62336984  1
  Fe  Fe24  1  0.50139089  0.74969554  0.50073747  1
  Fe  Fe25  1  0.37622341  0.87466626  0.37437236  1
  Fe  Fe26  1  0.24874095  0.50120484  0.74716247  1
  Fe  Fe27  1  -0.00231953  0.74934474  0.50015618  1
  Fe  Fe28  1  0.62081332  0.62670595  0.87751688  1
  Fe  Fe29  1  0.62762021  0.12696785  0.12413920  1
  Fe  Fe30  1  0.12225306  0.87626190  0.37400938  1
  Fe  Fe31  1  0.37843865  0.62243614  0.12696377  1
  Fe  Fe32  1  0.24966175  0.25220309  0.49760805  1
  Fe  Fe33  1  0.75177783  0.49577082  0.50300523  1
  Fe  Fe34  1  0.87272580  0.87516510  0.62434572  1
  Fe  Fe35  1  0.25190805  0.74934262  0.00100633  1
  Fe  Fe36  1  0.11936479  0.37624414  0.37366593  1
  Fe  Fe37  1  0.74985967  0.00153790  0.50121520  1
  Fe  Fe38  1  0.87595388  0.62357188  0.87395295  1
  Fe  Fe39  1  0.62465038  0.37559071  0.37622722  1
  Fe  Fe40  1  0.12394321  0.87486400  0.12637481  1
  Fe  Fe41  1  -0.00365245  0.00143683  0.24897160  1
  Fe  Fe42  1  0.74804826  0.49911132  -0.00128227  1
  Fe  Fe43  1  0.25086128  -0.00010192  0.74956053  1
  Fe  Fe44  1  0.00288119  0.50131695  0.74774478  1
  Fe  Fe45  1  0.75049696  0.75008756  0.24982901  1
  Fe  Fe46  1  0.24956295  0.74839825  0.74748204  1
  Fe  Fe47  1  -0.00166487  0.00123080  0.00145991  1
  Fe  Fe48  1  0.37612249  0.37541349  0.12681686  1
  Fe  Fe49  1  0.74798873  0.74948168  0.74976786  1
  Fe  Fe50  1  0.37545812  0.37580194  0.87326875  1
  Fe  Fe51  1  0.12567574  0.37579525  0.87556925  1
  Fe  Fe52  1  0.62891048  0.87387135  0.37805767  1
  Fe  Fe53  1  0.62309382  0.37649507  0.12592828  1
  Fe  Fe54  1  0.87292273  0.62474330  0.12422689  1
  Fe  Fe55  1  0.50471957  0.24635879  0.49949486  1
  Fe  Fe56  1  0.87707463  0.37302919  0.37427457  1
  Fe  Fe57  1  0.87223877  0.62429933  0.37621507  1
  Fe  Fe58  1  0.86995738  0.12828575  0.37378406  1
  Fe  Fe59  1  0.12499258  0.87482698  0.62408287  1
  Fe  Fe60  1  0.00006666  0.50038052  0.00052713  1
  Fe  Fe61  1  -0.00011917  0.25005404  0.00042015  1
  Fe  Fe62  1  0.50198166  -0.00013784  0.50015731  1
  Fe  Fe63  1  0.37596209  0.12573135  0.87454964  1
  Fe  Fe64  1  0.62488666  0.62355218  0.62284105  1
  Fe  Fe65  1  0.87655676  0.37431684  0.87232619  1
  Fe  Fe66  1  0.50312115  0.74506889  0.25261598  1
  Fe  Fe67  1  -0.00138903  0.00148242  0.75006214  1
  Fe  Fe68  1  0.87443844  0.13006140  0.62626390  1
  Fe  Fe69  1  0.49940300  0.25055778  0.00003778  1
  Fe  Fe70  1  0.74892439  0.00205817  0.75281541  1
  Fe  Fe71  1  0.37304394  0.62336458  0.61990717  1
  Fe  Fe72  1  -0.00209641  0.00303689  0.49918200  1
  Fe  Fe73  1  0.37222453  0.12686482  0.12841770  1
  Fe  Fe74  1  0.74774794  0.25007627  0.75015323  1
  Fe  Fe75  1  0.37533803  0.87427764  0.12810772  1
  Fe  Fe76  1  0.62285124  0.87238384  0.87520543  1
  Fe  Fe77  1  0.00172221  0.74923736  0.74928650  1
  Fe  Fe78  1  -0.00255076  0.74887468  0.25171296  1
  Fe  Fe79  1  0.13008646  0.12729201  0.12784903  1
  Fe  Fe80  1  0.86941456  0.12740126  0.12228617  1
  Fe  Fe81  1  0.62699147  0.87193286  0.12258466  1
  Fe  Fe82  1  0.50139377  -0.00124961  0.74737183  1
  Fe  Fe83  1  0.87548672  0.37477163  0.12649934  1
  Fe  Fe84  1  0.12770756  0.12592864  0.37226689  1
  Fe  Fe85  1  0.12532973  0.12588060  0.62434694  1
  Fe  Fe86  1  0.12509801  0.37406851  0.12766019  1
  Fe  Fe87  1  0.12062739  0.37495523  0.62229795  1
  Fe  Fe88  1  -0.00155702  0.74901615  -0.00086218  1
  Fe  Fe89  1  0.25114683  0.49982580  0.00013238  1
  Co  Co90  1  0.75089170  0.74860235  -0.00165926  1
  Co  Co91  1  0.37284639  0.62426746  0.37793131  1
  Co  Co92  1  0.49950419  0.50303209  0.74885103  1
  Co  Co93  1  0.24953283  0.49458860  0.49922387  1
  Co  Co94  1  -0.00179653  0.24635629  0.24882394  1
  Co  Co95  1  -0.00452396  0.50070702  0.50113495  1
  Co  Co96  1  0.62160480  0.37587718  0.62549478  1
  Co  Co97  1  0.87474309  0.12760714  0.87622678  1
  Co  Co98  1  0.75123089  0.74853937  0.50258504  1
  Co  Co99  1  0.12600899  0.62543736  0.62016744  1
  Co  Co100  1  0.37401786  0.87604004  0.62448048  1
  Co  Co101  1  0.74832231  0.25325066  0.50170276  1
  Co  Co102  1  -0.00126581  0.50326925  0.25007924  1
  Co  Co103  1  0.49993653  0.49844400  -0.00068650  1
  Co  Co104  1  0.37489683  0.12406438  0.37572304  1
  Co  Co105  1  0.50282386  0.50312867  0.49843161  1
  Co  Co106  1  0.62618784  0.12440999  0.62546897  1
  Co  Co107  1  0.74842357  0.25340838  0.25013492  1
  Co  Co108  1  0.87497554  0.87353706  0.12333311  1
  Co  Co109  1  0.62991239  0.62485389  0.37755103  1
  Co  Co110  1  0.24997403  0.75426113  0.49821617  1
  Co  Co111  1  0.25125492  -0.00232766  0.25136912  1
  Co  Co112  1  0.00273783  0.24905868  0.75147767  1
  Co  Co113  1  0.49815038  0.75044261  0.00271680  1
  Co  Co114  1  0.74806318  -0.00117451  -0.00235718  1
  Co  Co115  1  0.87734320  0.37141115  0.62773937  1
  Co  Co116  1  0.62269986  0.12606656  0.87621507  1
  Co  Co117  1  0.12558836  0.62503212  0.87623018  1
  Co  Co118  1  0.87372689  0.87555218  0.37708669  1
  Co  Co119  1  0.62886244  0.12400461  0.37373529  1
  Co  Co120  1  0.62533774  0.62432080  0.12304363  1
  Co  Co121  1  0.25109043  0.25060313  -0.00141722  1
  Co  Co122  1  0.62822571  0.87543995  0.62420111  1
  Co  Co123  1  0.49980653  0.74872667  0.74422439  1
  Co  Co124  1  0.25225302  0.25445380  0.25478572  1
  Co  Co125  1  0.74833438  0.25416727  -0.00250464  1
  Co  Co126  1  0.50219671  0.50340427  0.25311017  1
  Co  Co127  1  -0.00055476  0.24773796  0.49750770  1
