# generated using pymatgen
data_Fe45Co19
_symmetry_space_group_name_H-M   'P 1'
_cell_length_a   11.41481470
_cell_length_b   11.41558040
_cell_length_c   11.41735900
_cell_angle_alpha   89.99658312
_cell_angle_beta   89.99708396
_cell_angle_gamma   90.02110247
_symmetry_Int_Tables_number   1
_chemical_formula_structural   Fe45Co19
_chemical_formula_sum   'Fe90 Co38'
_cell_volume   1487.75866805
_cell_formula_units_Z   2
loop_
 _symmetry_equiv_pos_site_id
 _symmetry_equiv_pos_as_xyz
  1  'x, y, z'
loop_
 _atom_site_type_symbol
 _atom_site_label
 _atom_site_symmetry_multiplicity
 _atom_site_fract_x
 _atom_site_fract_y
 _atom_site_fract_z
 _atom_site_occupancy
  Fe  Fe0  1  0.12655242  0.37740868  0.62811662  1
  Fe  Fe1  1  0.74798479  0.49586609  0.00129962  1
  Fe  Fe2  1  0.36977274  0.37798048  0.37385064  1
  Fe  Fe3  1  0.87245921  0.12646453  0.12423892  1
  Fe  Fe4  1  0.37582253  0.62564664  0.62446178  1
  Fe  Fe5  1  0.75155801  0.50144115  0.25061978  1
  Fe  Fe6  1  0.87274977  0.37179142  0.12715237  1
  Fe  Fe7  1  0.62565438  0.37524842  0.37150516  1
  Fe  Fe8  1  0.37519437  0.87480832  0.37427989  1
  Fe  Fe9  1  0.37385579  0.62523749  0.37510224  1
  Fe  Fe10  1  0.62599994  0.12467511  0.87491007  1
  Fe  Fe11  1  0.75042121  0.25077252  0.49729600  1
  Fe  Fe12  1  0.50465283  0.25098774  0.00271566  1
  Fe  Fe13  1  0.62389452  0.62647506  0.37667118  1
  Fe  Fe14  1  0.37818951  0.12131510  0.88007677  1
  Fe  Fe15  1  0.00046425  0.00059006  0.00095939  1
  Fe  Fe16  1  0.24907913  -0.00169269  0.50020449  1
  Fe  Fe17  1  0.50564873  0.75574215  0.00028139  1
  Fe  Fe18  1  0.12348100  0.87649594  0.37235327  1
  Fe  Fe19  1  0.87417660  0.62539928  0.62368498  1
  Fe  Fe20  1  0.87145165  0.37187043  0.87493465  1
  Fe  Fe21  1  0.50392522  0.74803580  0.75185165  1
  Fe  Fe22  1  0.24946519  0.25222844  0.50046515  1
  Fe  Fe23  1  0.12369612  0.12387101  0.87404357  1
  Fe  Fe24  1  0.24733090  0.75142454  -0.00148810  1
  Fe  Fe25  1  0.62537869  0.37326203  0.62673498  1
  Fe  Fe26  1  0.12306161  0.12260898  0.62589457  1
  Fe  Fe27  1  0.12562630  0.62184853  0.37372503  1
  Fe  Fe28  1  0.87326866  0.37415975  0.62497147  1
  Fe  Fe29  1  0.62532241  0.12602075  0.62271055  1
  Fe  Fe30  1  0.24737133  0.49946375  0.00180938  1
  Fe  Fe31  1  0.49811186  0.25205195  0.49862014  1
  Fe  Fe32  1  0.87859231  0.62696044  0.12286112  1
  Fe  Fe33  1  0.50014714  -0.00174198  0.50024333  1
  Fe  Fe34  1  -0.00202484  0.74887329  0.75217966  1
  Fe  Fe35  1  0.75247037  0.74795729  0.25155977  1
  Fe  Fe36  1  -0.00468324  0.24681816  0.74994897  1
  Fe  Fe37  1  0.87626021  0.12546108  0.37549336  1
  Fe  Fe38  1  0.12324483  0.87791151  0.87318346  1
  Fe  Fe39  1  0.62390262  0.12276650  0.37256875  1
  Fe  Fe40  1  0.87357998  0.87721960  0.87370091  1
  Fe  Fe41  1  0.37283135  0.37310362  0.12530030  1
  Fe  Fe42  1  0.37450393  0.62730089  0.12247927  1
  Fe  Fe43  1  0.37833408  0.87902439  0.87733129  1
  Fe  Fe44  1  0.12873118  0.12600860  0.12594717  1
  Fe  Fe45  1  0.12058210  0.62168739  0.87726127  1
  Fe  Fe46  1  0.37613547  0.37532936  0.87508604  1
  Fe  Fe47  1  0.49911769  0.49918587  0.50058313  1
  Fe  Fe48  1  0.87849192  0.87516393  0.37333532  1
  Fe  Fe49  1  0.62402690  0.87542751  0.37181245  1
  Fe  Fe50  1  0.49732807  0.24930373  0.25002418  1
  Fe  Fe51  1  0.37593999  0.87409637  0.62673418  1
  Fe  Fe52  1  0.24891840  0.74938225  0.50042492  1
  Fe  Fe53  1  0.37454711  0.12495397  0.62306705  1
  Fe  Fe54  1  0.25190195  0.24959461  0.75090084  1
  Fe  Fe55  1  -0.00036712  0.49865234  0.49962065  1
  Fe  Fe56  1  0.75001999  0.49943965  0.49763093  1
  Fe  Fe57  1  0.74820178  0.50259134  0.75043058  1
  Fe  Fe58  1  0.62560315  0.87447744  0.62751062  1
  Fe  Fe59  1  0.87741970  0.87629225  0.62505991  1
  Fe  Fe60  1  0.37333691  0.12228310  0.37339687  1
  Fe  Fe61  1  0.87641040  0.87400256  0.12691793  1
  Fe  Fe62  1  0.12280590  0.87666209  0.62723130  1
  Fe  Fe63  1  0.74704062  -0.00120228  0.00235221  1
  Fe  Fe64  1  0.74826987  0.75227981  -0.00194188  1
  Fe  Fe65  1  0.25207009  0.00112300  0.75091214  1
  Fe  Fe66  1  0.00130784  0.25177495  0.49918396  1
  Fe  Fe67  1  0.49835383  0.50132642  0.24860885  1
  Fe  Fe68  1  0.75115736  -0.00079196  0.49787498  1
  Fe  Fe69  1  0.00224248  0.49906402  0.24692818  1
  Fe  Fe70  1  0.12484490  0.62296373  0.62813910  1
  Fe  Fe71  1  0.24900760  0.74890568  0.24768545  1
  Fe  Fe72  1  0.62639589  0.12484462  0.12993505  1
  Fe  Fe73  1  -0.00059424  0.25045527  -0.00018137  1
  Fe  Fe74  1  0.49921729  0.75173128  0.24789388  1
  Fe  Fe75  1  0.12364641  0.87379170  0.12610342  1
  Fe  Fe76  1  0.37701792  0.62479653  0.87857926  1
  Fe  Fe77  1  0.50114636  0.50127329  0.75042552  1
  Fe  Fe78  1  0.00098331  0.74881054  0.49859759  1
  Fe  Fe79  1  0.12325188  0.37632509  0.87368825  1
  Fe  Fe80  1  0.12654932  0.12380227  0.37347552  1
  Fe  Fe81  1  0.50375479  0.49668020  0.00138933  1
  Fe  Fe82  1  0.00174872  0.25082580  0.25112612  1
  Fe  Fe83  1  0.49907115  0.24868744  0.74955011  1
  Fe  Fe84  1  0.87526108  0.62411126  0.87794559  1
  Fe  Fe85  1  0.75035314  0.75044688  0.49912912  1
  Fe  Fe86  1  0.25015834  0.74841108  0.75318518  1
  Fe  Fe87  1  0.62574771  0.62555861  0.12415918  1
  Fe  Fe88  1  0.24980158  0.24954784  -0.00155205  1
  Fe  Fe89  1  0.75333208  0.00478449  0.74786934  1
  Co  Co90  1  0.87695375  0.62387832  0.37537885  1
  Co  Co91  1  -0.00195650  0.49434017  0.00252345  1
  Co  Co92  1  0.74469049  0.25231711  0.00203155  1
  Co  Co93  1  -0.00074912  0.75404812  -0.00366564  1
  Co  Co94  1  0.49963052  0.00301612  0.74794087  1
  Co  Co95  1  -0.00072647  0.00277965  0.24792501  1
  Co  Co96  1  0.75266663  0.24521230  0.74844112  1
  Co  Co97  1  0.25219685  0.50160470  0.75290788  1
  Co  Co98  1  0.62528272  0.62553514  0.62156237  1
  Co  Co99  1  0.62577621  0.62422598  0.87900699  1
  Co  Co100  1  0.37316441  0.12562407  0.12207508  1
  Co  Co101  1  0.75334201  0.00024128  0.25163345  1
  Co  Co102  1  0.75042110  0.24893973  0.25280276  1
  Co  Co103  1  0.25082585  0.25015406  0.25151224  1
  Co  Co104  1  -0.00403711  0.49952910  0.75087957  1
  Co  Co105  1  0.00058170  0.74803159  0.25177346  1
  Co  Co106  1  0.24799166  0.50252275  0.24377202  1
  Co  Co107  1  0.12666785  0.37101923  0.12428642  1
  Co  Co108  1  0.62570419  0.37535906  0.13139674  1
  Co  Co109  1  -0.00361098  0.00337706  0.75192702  1
  Co  Co110  1  0.87229588  0.12535554  0.88123864  1
  Co  Co111  1  0.62933785  0.87388493  0.13069322  1
  Co  Co112  1  0.25165137  -0.00154767  0.24814568  1
  Co  Co113  1  0.62580627  0.37343506  0.87066627  1
  Co  Co114  1  0.75072556  0.74730861  0.75073933  1
  Co  Co115  1  0.37428537  0.37558675  0.62685961  1
  Co  Co116  1  0.87674788  0.12445291  0.61897332  1
  Co  Co117  1  0.87636910  0.37487139  0.37307616  1
  Co  Co118  1  0.12081796  0.62822288  0.12066576  1
  Co  Co119  1  0.37237435  0.87484028  0.12053505  1
  Co  Co120  1  0.25116385  0.50117826  0.50294007  1
  Co  Co121  1  0.62600312  0.87856359  0.86966710  1
  Co  Co122  1  0.50600384  -0.00207193  0.00558604  1
  Co  Co123  1  0.50029295  0.75207918  0.50039053  1
  Co  Co124  1  0.49665514  -0.00162476  0.24603949  1
  Co  Co125  1  0.12756145  0.37800730  0.37498997  1
  Co  Co126  1  0.00121545  0.00003358  0.49736526  1
  Co  Co127  1  0.24680764  -0.00034757  0.00037641  1
