# generated using pymatgen
data_Fe45Co19
_symmetry_space_group_name_H-M   'P 1'
_cell_length_a   11.41374403
_cell_length_b   11.41462455
_cell_length_c   11.41568684
_cell_angle_alpha   89.99132963
_cell_angle_beta   89.99510651
_cell_angle_gamma   89.97530183
_symmetry_Int_Tables_number   1
_chemical_formula_structural   Fe45Co19
_chemical_formula_sum   'Fe90 Co38'
_cell_volume   1487.27664901
_cell_formula_units_Z   2
loop_
 _symmetry_equiv_pos_site_id
 _symmetry_equiv_pos_as_xyz
  1  'x, y, z'
loop_
 _atom_site_type_symbol
 _atom_site_label
 _atom_site_symmetry_multiplicity
 _atom_site_fract_x
 _atom_site_fract_y
 _atom_site_fract_z
 _atom_site_occupancy
  Fe  Fe0  1  0.00489257  0.24647071  -0.00352348  1
  Fe  Fe1  1  0.74844800  0.74927883  0.25138507  1
  Fe  Fe2  1  0.12411500  0.87674692  0.37529764  1
  Fe  Fe3  1  0.25027401  0.24936345  0.24757836  1
  Fe  Fe4  1  0.12784418  0.62373480  0.87483065  1
  Fe  Fe5  1  0.62300765  0.62369858  0.87646832  1
  Fe  Fe6  1  0.12842015  0.62624837  0.12432693  1
  Fe  Fe7  1  0.25129704  0.25255447  0.49860331  1
  Fe  Fe8  1  0.87722433  0.37591695  0.37410339  1
  Fe  Fe9  1  0.62252998  0.37444256  0.62526782  1
  Fe  Fe10  1  0.12494922  0.12562400  0.62759411  1
  Fe  Fe11  1  0.25132555  0.25189400  0.75364213  1
  Fe  Fe12  1  0.74659454  0.24930377  -0.00077507  1
  Fe  Fe13  1  0.62398222  0.87590886  0.62360554  1
  Fe  Fe14  1  0.37551494  0.37568830  0.12353638  1
  Fe  Fe15  1  0.62333325  0.37340187  0.12339024  1
  Fe  Fe16  1  0.87617456  0.87488529  0.12501409  1
  Fe  Fe17  1  0.49948519  0.00065022  0.74934206  1
  Fe  Fe18  1  0.87501992  0.62333387  0.62651453  1
  Fe  Fe19  1  0.87573468  0.87621649  0.62503677  1
  Fe  Fe20  1  0.50135811  0.50355603  0.24661481  1
  Fe  Fe21  1  0.00185933  0.74719534  0.50081558  1
  Fe  Fe22  1  0.49576207  0.75086697  0.00290972  1
  Fe  Fe23  1  0.24796331  0.50040917  0.24804459  1
  Fe  Fe24  1  0.74980406  0.49743855  0.50008143  1
  Fe  Fe25  1  0.74917406  0.00229464  0.25034592  1
  Fe  Fe26  1  0.12507919  0.37587511  0.37352769  1
  Fe  Fe27  1  0.37626376  0.12310159  0.12322078  1
  Fe  Fe28  1  0.74907584  0.49967253  0.24787853  1
  Fe  Fe29  1  0.12532446  0.37449736  0.62790756  1
  Fe  Fe30  1  0.49969620  0.25203048  0.75259864  1
  Fe  Fe31  1  0.00004419  0.74987276  0.74965280  1
  Fe  Fe32  1  0.25173162  -0.00215183  -0.00040868  1
  Fe  Fe33  1  0.12588850  0.87654397  0.87272207  1
  Fe  Fe34  1  0.37647342  0.87397350  0.62299571  1
  Fe  Fe35  1  0.62207611  0.87401512  0.87489372  1
  Fe  Fe36  1  0.74904496  0.74839240  0.49919034  1
  Fe  Fe37  1  0.49607802  0.25330371  0.49604395  1
  Fe  Fe38  1  0.74901368  0.00136565  0.75039343  1
  Fe  Fe39  1  0.25131249  0.74994631  0.74987657  1
  Fe  Fe40  1  0.62394500  0.12883316  0.62191300  1
  Fe  Fe41  1  0.87561591  0.12575225  0.37436138  1
  Fe  Fe42  1  0.12646116  0.87486880  0.12636408  1
  Fe  Fe43  1  0.74711712  -0.00010703  0.00123071  1
  Fe  Fe44  1  0.87674725  0.87615871  0.37534075  1
  Fe  Fe45  1  0.74959061  0.75124262  0.00000302  1
  Fe  Fe46  1  0.12486088  0.12458520  0.37304585  1
  Fe  Fe47  1  0.74913921  0.75017732  0.74993606  1
  Fe  Fe48  1  0.00197592  0.50039084  0.50113676  1
  Fe  Fe49  1  0.25155210  0.00144265  0.50008801  1
  Fe  Fe50  1  0.62380931  0.37566255  0.37415152  1
  Fe  Fe51  1  0.74836406  0.00162283  0.49854031  1
  Fe  Fe52  1  0.87585116  0.62235789  0.37319098  1
  Fe  Fe53  1  0.37562639  0.12768346  0.62321277  1
  Fe  Fe54  1  0.00137303  0.24975419  0.24786069  1
  Fe  Fe55  1  0.62485441  0.12691515  0.87618190  1
  Fe  Fe56  1  0.37412869  0.62352559  0.37386862  1
  Fe  Fe57  1  0.49996881  0.24795976  0.24989627  1
  Fe  Fe58  1  0.49984972  0.00091413  0.25513453  1
  Fe  Fe59  1  0.25131119  -0.00068316  0.25142039  1
  Fe  Fe60  1  0.87553600  0.87701277  0.87514600  1
  Fe  Fe61  1  0.00228697  0.74846717  0.25121383  1
  Fe  Fe62  1  0.12450539  0.37521440  0.12110538  1
  Fe  Fe63  1  0.37726964  0.37611091  0.87981680  1
  Fe  Fe64  1  -0.00260204  0.24911930  0.75480754  1
  Fe  Fe65  1  0.37605963  0.62359658  0.62360382  1
  Fe  Fe66  1  0.74780847  0.50009111  0.00098383  1
  Fe  Fe67  1  0.62246730  0.87571661  0.12660745  1
  Fe  Fe68  1  0.49879833  0.74886433  0.25072040  1
  Fe  Fe69  1  0.24731427  0.74750358  0.49886105  1
  Fe  Fe70  1  -0.00104950  0.49777974  0.75278717  1
  Fe  Fe71  1  0.87371278  0.62390329  0.87540225  1
  Fe  Fe72  1  0.87397181  0.12668512  0.62550116  1
  Fe  Fe73  1  0.87532009  0.12571199  0.12356233  1
  Fe  Fe74  1  0.25281587  -0.00073007  0.74848668  1
  Fe  Fe75  1  0.12342984  0.87642486  0.62552635  1
  Fe  Fe76  1  0.74918147  0.49531847  0.75107720  1
  Fe  Fe77  1  0.49938278  0.74837408  0.74975303  1
  Fe  Fe78  1  0.62333405  0.62141107  0.62421231  1
  Fe  Fe79  1  0.74931136  0.24944788  0.24990942  1
  Fe  Fe80  1  0.87505363  0.62475813  0.12504480  1
  Fe  Fe81  1  0.00171566  0.74850797  -0.00088716  1
  Fe  Fe82  1  0.00206879  0.00210537  -0.00007904  1
  Fe  Fe83  1  0.37491687  0.12437547  0.87732514  1
  Fe  Fe84  1  0.50208691  0.74975078  0.49751241  1
  Fe  Fe85  1  0.25354570  0.49823329  0.75009485  1
  Fe  Fe86  1  0.37475062  0.62448706  0.87810125  1
  Fe  Fe87  1  0.00030868  0.24955590  0.49988908  1
  Fe  Fe88  1  0.87735570  0.37467014  0.12125472  1
  Fe  Fe89  1  0.25202373  0.49737310  0.50069658  1
  Co  Co90  1  0.62465119  0.62284401  0.37562647  1
  Co  Co91  1  0.49888930  0.00049382  0.49831177  1
  Co  Co92  1  0.00027377  0.00227367  0.50040517  1
  Co  Co93  1  0.37564580  0.87670651  0.12780716  1
  Co  Co94  1  0.37405757  0.37644145  0.36866645  1
  Co  Co95  1  0.75162950  0.25294818  0.49920712  1
  Co  Co96  1  -0.00080215  0.00092011  0.24865900  1
  Co  Co97  1  0.62293916  0.37553512  0.87675770  1
  Co  Co98  1  0.37600380  0.87500010  0.87282817  1
  Co  Co99  1  0.12593061  0.37633691  0.87539614  1
  Co  Co100  1  0.12593580  0.62199660  0.62820244  1
  Co  Co101  1  0.37416584  0.87303816  0.37703303  1
  Co  Co102  1  0.37321478  0.12708642  0.37501524  1
  Co  Co103  1  0.50006410  -0.00107988  -0.00182158  1
  Co  Co104  1  0.37021794  0.62580680  0.12532869  1
  Co  Co105  1  0.49801687  0.49942000  0.75096688  1
  Co  Co106  1  0.62482871  0.12802405  0.37718701  1
  Co  Co107  1  0.00121926  0.49959372  0.24619351  1
  Co  Co108  1  0.87476334  0.37430083  0.87978574  1
  Co  Co109  1  0.24992181  0.24959656  0.00037193  1
  Co  Co110  1  0.00145920  0.50288264  -0.00004403  1
  Co  Co111  1  0.62580650  0.87526937  0.37462218  1
  Co  Co112  1  0.87210154  0.12425480  0.87724501  1
  Co  Co113  1  0.12902598  0.12250264  0.87287167  1
  Co  Co114  1  0.50063929  0.50212175  0.00407824  1
  Co  Co115  1  0.62667495  0.62887255  0.12375815  1
  Co  Co116  1  0.49654363  0.49666572  0.49891164  1
  Co  Co117  1  0.62269171  0.12399192  0.12546425  1
  Co  Co118  1  0.24954988  0.75100670  0.25185089  1
  Co  Co119  1  -0.00191533  0.00203502  0.75014731  1
  Co  Co120  1  0.75071625  0.25249854  0.75068219  1
  Co  Co121  1  0.25135178  0.75321394  -0.00055718  1
  Co  Co122  1  0.49927375  0.24985518  0.00078454  1
  Co  Co123  1  0.12762821  0.12333178  0.12570140  1
  Co  Co124  1  0.37518224  0.37296552  0.62682305  1
  Co  Co125  1  0.12596612  0.62147914  0.37394235  1
  Co  Co126  1  0.25023060  0.49890235  0.00098049  1
  Co  Co127  1  0.87749359  0.37440834  0.62535163  1
