# generated using pymatgen
data_Fe45Co19
_symmetry_space_group_name_H-M   'P 1'
_cell_length_a   11.41436681
_cell_length_b   11.41572997
_cell_length_c   11.41583351
_cell_angle_alpha   89.99786377
_cell_angle_beta   90.00501595
_cell_angle_gamma   90.00154857
_symmetry_Int_Tables_number   1
_chemical_formula_structural   Fe45Co19
_chemical_formula_sum   'Fe90 Co38'
_cell_volume   1487.52110670
_cell_formula_units_Z   2
loop_
 _symmetry_equiv_pos_site_id
 _symmetry_equiv_pos_as_xyz
  1  'x, y, z'
loop_
 _atom_site_type_symbol
 _atom_site_label
 _atom_site_symmetry_multiplicity
 _atom_site_fract_x
 _atom_site_fract_y
 _atom_site_fract_z
 _atom_site_occupancy
  Fe  Fe0  1  0.87697354  0.12533647  0.62722356  1
  Fe  Fe1  1  0.00563421  0.75074049  -0.00534973  1
  Fe  Fe2  1  0.62484515  0.62702386  0.62749284  1
  Fe  Fe3  1  0.49972697  0.50031108  0.50034890  1
  Fe  Fe4  1  -0.00177261  -0.00225171  0.24915902  1
  Fe  Fe5  1  0.00204852  0.50356295  0.75134569  1
  Fe  Fe6  1  0.49883742  0.50260112  0.00219118  1
  Fe  Fe7  1  0.49830761  0.25081226  0.24983591  1
  Fe  Fe8  1  0.37262665  0.87054805  0.12190971  1
  Fe  Fe9  1  0.74947424  -0.00117640  0.00052230  1
  Fe  Fe10  1  0.37288340  0.37537953  0.37592434  1
  Fe  Fe11  1  0.62656649  0.87479251  0.37284511  1
  Fe  Fe12  1  0.62373478  0.12553093  0.12307096  1
  Fe  Fe13  1  0.49418912  0.74870761  0.75365060  1
  Fe  Fe14  1  0.25114411  0.50101866  0.24829977  1
  Fe  Fe15  1  0.00320213  -0.00199743  -0.00219050  1
  Fe  Fe16  1  0.24863906  0.50212634  0.00392820  1
  Fe  Fe17  1  0.87920803  0.87076258  0.62731449  1
  Fe  Fe18  1  0.75080278  -0.00210308  0.74997641  1
  Fe  Fe19  1  0.49932367  0.74689852  -0.00200419  1
  Fe  Fe20  1  0.87596828  0.12398472  0.87556395  1
  Fe  Fe21  1  0.37424642  0.37353473  0.62505603  1
  Fe  Fe22  1  0.37258813  0.62842257  0.62151547  1
  Fe  Fe23  1  0.49729727  0.50102373  0.24971059  1
  Fe  Fe24  1  0.37195060  0.62548304  0.37504992  1
  Fe  Fe25  1  0.74988485  0.25148580  0.75142336  1
  Fe  Fe26  1  0.49079273  -0.00080424  0.75015269  1
  Fe  Fe27  1  0.00266336  0.25053910  0.49896068  1
  Fe  Fe28  1  0.00088622  -0.00349526  0.50123603  1
  Fe  Fe29  1  0.62733205  0.62397359  0.37280674  1
  Fe  Fe30  1  0.75097304  0.00014744  0.24664248  1
  Fe  Fe31  1  0.74949015  0.50044749  0.50209709  1
  Fe  Fe32  1  0.49655822  0.25279115  -0.00321232  1
  Fe  Fe33  1  0.62742552  0.37725958  0.37255415  1
  Fe  Fe34  1  0.62201638  0.37992241  0.87255888  1
  Fe  Fe35  1  0.49734480  0.74994303  0.25125788  1
  Fe  Fe36  1  0.75404628  0.24965354  0.24619631  1
  Fe  Fe37  1  0.62346263  0.87371034  0.87292410  1
  Fe  Fe38  1  0.87708407  0.87198475  0.12265899  1
  Fe  Fe39  1  0.62416813  0.37679007  0.12547102  1
  Fe  Fe40  1  0.49910172  -0.00196610  0.50070839  1
  Fe  Fe41  1  0.00187602  0.25004689  0.75167022  1
  Fe  Fe42  1  0.62286783  0.87280385  0.62820059  1
  Fe  Fe43  1  0.75078033  0.25098415  0.50089320  1
  Fe  Fe44  1  0.24470884  0.75074735  0.49589755  1
  Fe  Fe45  1  0.37437128  0.12662138  0.12268098  1
  Fe  Fe46  1  0.12213592  0.62869662  0.12945856  1
  Fe  Fe47  1  0.12761330  0.37752120  0.87397873  1
  Fe  Fe48  1  0.87786743  0.37619858  0.62605673  1
  Fe  Fe49  1  0.12495504  0.87072819  0.12831862  1
  Fe  Fe50  1  0.75516110  0.74688856  0.24820440  1
  Fe  Fe51  1  0.12347697  0.86989797  0.63026279  1
  Fe  Fe52  1  0.87538467  0.62329261  0.87900359  1
  Fe  Fe53  1  0.24910977  0.25005938  0.25077564  1
  Fe  Fe54  1  0.25069862  -0.00406228  0.50403969  1
  Fe  Fe55  1  0.87462541  0.87380642  0.87401455  1
  Fe  Fe56  1  0.12452920  0.37840909  0.37360662  1
  Fe  Fe57  1  0.75579606  0.50355172  0.24406314  1
  Fe  Fe58  1  0.12101015  0.37513441  0.12810502  1
  Fe  Fe59  1  0.74930100  -0.00157019  0.50286230  1
  Fe  Fe60  1  0.62534133  0.12461868  0.37393818  1
  Fe  Fe61  1  0.12948711  0.12141132  0.87384313  1
  Fe  Fe62  1  0.87593896  0.37863249  0.87778043  1
  Fe  Fe63  1  0.62246599  0.12600257  0.62787545  1
  Fe  Fe64  1  0.25344766  0.24838339  0.75114045  1
  Fe  Fe65  1  0.75030417  0.50297765  0.74977474  1
  Fe  Fe66  1  0.12308102  0.12502836  0.12563472  1
  Fe  Fe67  1  0.62292082  0.37499726  0.62793109  1
  Fe  Fe68  1  0.37331407  0.12397176  0.37752124  1
  Fe  Fe69  1  0.00091875  0.25021840  -0.00051103  1
  Fe  Fe70  1  0.87670335  0.37685322  0.37389923  1
  Fe  Fe71  1  0.12603507  0.12467344  0.62657540  1
  Fe  Fe72  1  0.50205715  0.74965148  0.49654717  1
  Fe  Fe73  1  0.12607918  0.12186737  0.37548575  1
  Fe  Fe74  1  0.25049285  0.50491391  0.74669384  1
  Fe  Fe75  1  0.74580529  0.74639571  -0.00123311  1
  Fe  Fe76  1  0.25064436  0.25219597  0.00019416  1
  Fe  Fe77  1  0.62251609  0.12389744  0.87431366  1
  Fe  Fe78  1  0.87916800  0.62833553  0.62381932  1
  Fe  Fe79  1  0.62459709  0.87201029  0.12587410  1
  Fe  Fe80  1  0.49823752  -0.00226720  0.00031416  1
  Fe  Fe81  1  0.12604729  0.37609364  0.62527136  1
  Fe  Fe82  1  0.25245141  -0.00264805  0.24761956  1
  Fe  Fe83  1  0.50096586  0.25189556  0.49901127  1
  Fe  Fe84  1  0.75036203  0.75126174  0.50032239  1
  Fe  Fe85  1  0.13340644  0.87649307  0.87090057  1
  Fe  Fe86  1  0.75071646  0.25188725  0.00047160  1
  Fe  Fe87  1  0.87613779  0.12323228  0.37509989  1
  Fe  Fe88  1  0.49785103  -0.00181359  0.24892731  1
  Fe  Fe89  1  0.00399868  0.50373941  0.49911121  1
  Co  Co90  1  0.00024083  0.24894042  0.25157366  1
  Co  Co91  1  0.00586206  0.50014415  -0.00065149  1
  Co  Co92  1  0.25644118  -0.00064052  0.74450067  1
  Co  Co93  1  0.37434784  0.37521415  0.12475556  1
  Co  Co94  1  0.87334519  0.62362495  0.37965779  1
  Co  Co95  1  0.87928475  0.37695822  0.12209711  1
  Co  Co96  1  0.62230263  0.62567805  0.12778774  1
  Co  Co97  1  0.37162657  0.12169108  0.87970801  1
  Co  Co98  1  0.24664305  0.25197446  0.49846288  1
  Co  Co99  1  0.24735526  0.74610310  -0.00009245  1
  Co  Co100  1  0.00150618  0.74634905  0.75622913  1
  Co  Co101  1  0.75194961  0.74833876  0.75166385  1
  Co  Co102  1  0.12878030  0.62261887  0.87426344  1
  Co  Co103  1  0.37500365  0.86809548  0.62199176  1
  Co  Co104  1  0.37461324  0.87499835  0.37727998  1
  Co  Co105  1  0.24987944  0.50085180  0.50150975  1
  Co  Co106  1  0.12826305  0.62295556  0.37145570  1
  Co  Co107  1  0.36868084  0.87466526  0.87975083  1
  Co  Co108  1  0.62292628  0.62322380  0.87181912  1
  Co  Co109  1  0.25120186  0.75189804  0.25216533  1
  Co  Co110  1  -0.00352407  0.74821571  0.25723666  1
  Co  Co111  1  0.37376208  0.62738305  0.12582059  1
  Co  Co112  1  0.37299287  0.38151552  0.87414549  1
  Co  Co113  1  0.00053829  -0.00060345  0.75214889  1
  Co  Co114  1  0.88125469  0.62777134  0.11711105  1
  Co  Co115  1  0.24750222  -0.00130099  0.00554430  1
  Co  Co116  1  0.25240483  0.74694809  0.75180202  1
  Co  Co117  1  0.49559493  0.24873647  0.75365786  1
  Co  Co118  1  0.00334093  0.75092372  0.49343714  1
  Co  Co119  1  -0.00339630  0.50505762  0.24991143  1
  Co  Co120  1  0.12594055  0.87782423  0.37198352  1
  Co  Co121  1  0.37489649  0.12876821  0.62053472  1
  Co  Co122  1  0.49639975  0.50395806  0.74518882  1
  Co  Co123  1  0.74657511  0.50199601  0.00260997  1
  Co  Co124  1  0.87774742  0.12329992  0.12217351  1
  Co  Co125  1  0.12347072  0.62910261  0.62437507  1
  Co  Co126  1  0.37236034  0.62151990  0.87755232  1
  Co  Co127  1  0.87244745  0.87707887  0.37577103  1
