# generated using pymatgen
data_Fe45Co19
_symmetry_space_group_name_H-M   'P 1'
_cell_length_a   11.41391859
_cell_length_b   11.41500460
_cell_length_c   11.41430202
_cell_angle_alpha   89.99817921
_cell_angle_beta   90.00292982
_cell_angle_gamma   90.00255468
_symmetry_Int_Tables_number   1
_chemical_formula_structural   Fe45Co19
_chemical_formula_sum   'Fe90 Co38'
_cell_volume   1487.16864366
_cell_formula_units_Z   2
loop_
 _symmetry_equiv_pos_site_id
 _symmetry_equiv_pos_as_xyz
  1  'x, y, z'
loop_
 _atom_site_type_symbol
 _atom_site_label
 _atom_site_symmetry_multiplicity
 _atom_site_fract_x
 _atom_site_fract_y
 _atom_site_fract_z
 _atom_site_occupancy
  Fe  Fe0  1  0.87490274  0.62260623  0.87740130  1
  Fe  Fe1  1  0.25177728  0.24881340  0.00078636  1
  Fe  Fe2  1  0.12576870  0.37352708  0.12401238  1
  Fe  Fe3  1  0.49708270  0.00013594  0.25358842  1
  Fe  Fe4  1  0.00012485  0.49910711  0.75184571  1
  Fe  Fe5  1  0.74714476  0.50244007  0.24703335  1
  Fe  Fe6  1  0.87297657  0.87365458  0.37454159  1
  Fe  Fe7  1  0.87597195  0.37286411  0.62590651  1
  Fe  Fe8  1  -0.00026937  -0.00083461  0.49841251  1
  Fe  Fe9  1  0.00109818  0.75045891  0.75204409  1
  Fe  Fe10  1  0.00291186  0.49848423  0.49949470  1
  Fe  Fe11  1  0.37625854  0.87483259  0.12514813  1
  Fe  Fe12  1  0.25295509  -0.00011149  0.00062204  1
  Fe  Fe13  1  0.75053993  0.00285336  0.24893009  1
  Fe  Fe14  1  0.49864681  0.75232649  0.49367566  1
  Fe  Fe15  1  0.87209527  0.12520129  0.87261669  1
  Fe  Fe16  1  0.87599545  0.12679734  0.37500417  1
  Fe  Fe17  1  0.37617725  0.12223333  0.87605607  1
  Fe  Fe18  1  0.00265579  0.25085816  0.49872139  1
  Fe  Fe19  1  0.12479315  0.62414817  0.87659598  1
  Fe  Fe20  1  0.12838671  0.87636063  0.87565750  1
  Fe  Fe21  1  -0.00221202  -0.00144000  -0.00051686  1
  Fe  Fe22  1  0.74835960  0.25042131  0.50132218  1
  Fe  Fe23  1  0.00158824  0.25034251  0.75314986  1
  Fe  Fe24  1  0.00083218  -0.00014377  0.25080458  1
  Fe  Fe25  1  0.37520722  0.87416363  0.62489024  1
  Fe  Fe26  1  0.61931539  0.62223601  0.62259608  1
  Fe  Fe27  1  0.62859827  0.37708325  0.87410375  1
  Fe  Fe28  1  0.87197140  0.87537576  0.87400024  1
  Fe  Fe29  1  0.37575706  0.62439359  0.87662151  1
  Fe  Fe30  1  0.62818217  0.37185944  0.12489242  1
  Fe  Fe31  1  0.25132159  0.74911877  0.75058493  1
  Fe  Fe32  1  0.00290176  0.49920420  0.24913894  1
  Fe  Fe33  1  0.74812571  0.74722035  0.74775123  1
  Fe  Fe34  1  0.00091125  0.75011935  0.25111088  1
  Fe  Fe35  1  -0.00210215  0.25344654  -0.00211857  1
  Fe  Fe36  1  0.37397229  0.13080228  0.37732511  1
  Fe  Fe37  1  0.49871286  0.25238601  0.25206309  1
  Fe  Fe38  1  0.87921767  0.62603735  0.62375610  1
  Fe  Fe39  1  0.87571137  0.62373509  0.37611596  1
  Fe  Fe40  1  0.62342420  0.12453769  0.62440560  1
  Fe  Fe41  1  0.25139712  0.74508238  0.50121823  1
  Fe  Fe42  1  0.49987499  0.75057458  0.75273341  1
  Fe  Fe43  1  0.12242447  0.62745781  0.11990776  1
  Fe  Fe44  1  0.12833158  0.87440971  0.37506041  1
  Fe  Fe45  1  0.62232463  0.12643717  0.12524546  1
  Fe  Fe46  1  0.24861860  0.24589245  0.75162241  1
  Fe  Fe47  1  0.00017342  0.00045159  0.75049410  1
  Fe  Fe48  1  0.75057349  0.74903330  0.00093020  1
  Fe  Fe49  1  0.50038106  0.74723556  0.25453874  1
  Fe  Fe50  1  0.00160948  0.25016175  0.25008552  1
  Fe  Fe51  1  0.87371002  0.37508165  0.37256971  1
  Fe  Fe52  1  0.75113152  0.00077370  0.50157776  1
  Fe  Fe53  1  0.12785041  0.37598235  0.62740296  1
  Fe  Fe54  1  0.37785491  0.12760914  0.62371914  1
  Fe  Fe55  1  0.87573698  0.87367058  0.62502643  1
  Fe  Fe56  1  0.74864767  0.00216947  0.00205252  1
  Fe  Fe57  1  0.62591266  0.87648516  0.87492839  1
  Fe  Fe58  1  0.25160261  0.00237580  0.50000399  1
  Fe  Fe59  1  0.12304708  0.12493799  0.12189030  1
  Fe  Fe60  1  0.12308804  0.12462576  0.62487298  1
  Fe  Fe61  1  0.87805462  0.62327479  0.12270476  1
  Fe  Fe62  1  0.75171495  0.49988653  0.50282513  1
  Fe  Fe63  1  0.37351062  0.37738294  0.12966717  1
  Fe  Fe64  1  0.12559602  0.87390979  0.62430678  1
  Fe  Fe65  1  0.62570291  0.62189670  0.87555858  1
  Fe  Fe66  1  0.62307057  0.37784303  0.62763740  1
  Fe  Fe67  1  0.49749362  0.75140719  -0.00117241  1
  Fe  Fe68  1  0.62330042  0.87601135  0.62268503  1
  Fe  Fe69  1  0.74700892  0.74607035  0.25242571  1
  Fe  Fe70  1  0.62329250  0.87393348  0.12735719  1
  Fe  Fe71  1  0.25148399  0.74624014  0.24739077  1
  Fe  Fe72  1  0.62334765  0.12442912  0.37708663  1
  Fe  Fe73  1  0.12692666  0.62438390  0.37827453  1
  Fe  Fe74  1  0.49045169  0.49401478  0.49848661  1
  Fe  Fe75  1  0.50130240  0.49856140  0.00173211  1
  Fe  Fe76  1  0.62603438  0.37719628  0.37482769  1
  Fe  Fe77  1  0.62595083  0.12477611  0.87404823  1
  Fe  Fe78  1  0.12593397  0.87404278  0.12343795  1
  Fe  Fe79  1  0.24940862  0.50115177  0.00225610  1
  Fe  Fe80  1  0.50130677  0.25186388  0.75137640  1
  Fe  Fe81  1  0.49913835  -0.00138802  0.74991941  1
  Fe  Fe82  1  0.25113905  0.00419782  0.24973845  1
  Fe  Fe83  1  0.86975574  0.37721845  0.87538911  1
  Fe  Fe84  1  0.87431928  0.87403401  0.12607524  1
  Fe  Fe85  1  0.37268854  0.37605318  0.87350564  1
  Fe  Fe86  1  0.13327053  0.37482126  0.37469549  1
  Fe  Fe87  1  0.49896245  0.25097724  -0.00033941  1
  Fe  Fe88  1  0.25331996  0.50341479  0.74561417  1
  Fe  Fe89  1  0.74813793  0.74903633  0.49910733  1
  Co  Co90  1  0.24551264  0.50447983  0.24617495  1
  Co  Co91  1  0.37441667  0.87810466  0.87461610  1
  Co  Co92  1  0.24919384  0.24511476  0.24601976  1
  Co  Co93  1  0.37447710  0.61985196  0.37200473  1
  Co  Co94  1  0.74937311  -0.00071775  0.74749428  1
  Co  Co95  1  0.49746987  0.49912672  0.75149108  1
  Co  Co96  1  0.24857163  0.25053056  0.50209132  1
  Co  Co97  1  0.87308686  0.37496879  0.12787319  1
  Co  Co98  1  0.49667406  -0.00137595  0.49779104  1
  Co  Co99  1  0.87732823  0.12725839  0.12569856  1
  Co  Co100  1  0.62158145  0.62853910  0.12292869  1
  Co  Co101  1  0.25266891  0.75045631  -0.00030340  1
  Co  Co102  1  0.87675968  0.12741983  0.62569349  1
  Co  Co103  1  0.37818361  0.12446522  0.12350545  1
  Co  Co104  1  0.50117805  0.25556136  0.49903713  1
  Co  Co105  1  0.74820479  0.25158011  0.74731543  1
  Co  Co106  1  0.00075129  0.75161515  0.49744355  1
  Co  Co107  1  0.37789726  0.62360891  0.12528165  1
  Co  Co108  1  0.74817206  0.50079574  0.00451712  1
  Co  Co109  1  0.12556821  0.12384087  0.87817221  1
  Co  Co110  1  -0.00057047  0.75298413  -0.00202332  1
  Co  Co111  1  0.74884191  0.24807755  0.25231406  1
  Co  Co112  1  0.25371369  0.50116610  0.50542675  1
  Co  Co113  1  0.62727935  0.87795699  0.37347041  1
  Co  Co114  1  0.12112669  0.62495878  0.62528267  1
  Co  Co115  1  0.75090281  0.50286777  0.74616050  1
  Co  Co116  1  0.37262052  0.36973009  0.62894339  1
  Co  Co117  1  0.38143192  0.62873855  0.62487470  1
  Co  Co118  1  0.36762497  0.37487174  0.36937826  1
  Co  Co119  1  0.37052894  0.87368865  0.37407369  1
  Co  Co120  1  0.62244653  0.62002095  0.38012587  1
  Co  Co121  1  0.13015427  0.37647679  0.87372259  1
  Co  Co122  1  0.00087671  0.49519674  -0.00043322  1
  Co  Co123  1  0.50364799  0.49922308  0.24833465  1
  Co  Co124  1  0.12525968  0.12515992  0.37492277  1
  Co  Co125  1  0.25081409  0.00163339  0.74793225  1
  Co  Co126  1  0.75070350  0.24806485  0.00014057  1
  Co  Co127  1  0.50182259  -0.00078625  -0.00008306  1
