# generated using pymatgen
data_Fe45Co19
_symmetry_space_group_name_H-M   'P 1'
_cell_length_a   11.41522237
_cell_length_b   11.41502348
_cell_length_c   11.41419151
_cell_angle_alpha   90.00848878
_cell_angle_beta   90.00028621
_cell_angle_gamma   89.99260330
_symmetry_Int_Tables_number   1
_chemical_formula_structural   Fe45Co19
_chemical_formula_sum   'Fe90 Co38'
_cell_volume   1487.32655405
_cell_formula_units_Z   2
loop_
 _symmetry_equiv_pos_site_id
 _symmetry_equiv_pos_as_xyz
  1  'x, y, z'
loop_
 _atom_site_type_symbol
 _atom_site_label
 _atom_site_symmetry_multiplicity
 _atom_site_fract_x
 _atom_site_fract_y
 _atom_site_fract_z
 _atom_site_occupancy
  Fe  Fe0  1  0.87333005  0.37094999  0.62550183  1
  Fe  Fe1  1  0.62546977  0.62473491  0.12436204  1
  Fe  Fe2  1  0.37744685  0.12282265  0.87742558  1
  Fe  Fe3  1  0.24948220  0.74737049  0.24956063  1
  Fe  Fe4  1  0.49886992  0.00107675  0.24695380  1
  Fe  Fe5  1  0.75197666  0.00045227  0.75193141  1
  Fe  Fe6  1  0.12399155  0.37796581  0.37295367  1
  Fe  Fe7  1  0.37542555  0.12831939  0.12296594  1
  Fe  Fe8  1  0.87647175  0.12839996  0.12137723  1
  Fe  Fe9  1  0.25028170  -0.00191809  0.00262840  1
  Fe  Fe10  1  -0.00000230  0.49968334  0.50315229  1
  Fe  Fe11  1  0.49995726  0.75188211  0.75347137  1
  Fe  Fe12  1  0.25190715  0.00024613  0.75054341  1
  Fe  Fe13  1  0.62487876  0.12538982  0.37520234  1
  Fe  Fe14  1  0.12582657  0.62339512  0.37681303  1
  Fe  Fe15  1  0.12557640  0.87769514  0.37136152  1
  Fe  Fe16  1  0.87553265  0.87374862  0.62728372  1
  Fe  Fe17  1  0.00050837  0.74501386  0.24798273  1
  Fe  Fe18  1  0.62366914  0.62060131  0.87419215  1
  Fe  Fe19  1  0.12396898  0.61882664  0.87580978  1
  Fe  Fe20  1  0.62578467  0.87512633  0.62795429  1
  Fe  Fe21  1  0.37091790  0.12994019  0.62447450  1
  Fe  Fe22  1  0.24818215  0.25409814  -0.00322504  1
  Fe  Fe23  1  0.49782412  0.49882800  0.74106322  1
  Fe  Fe24  1  0.75249694  0.00161075  0.50178045  1
  Fe  Fe25  1  0.37308832  0.87091320  0.62474111  1
  Fe  Fe26  1  0.12406412  0.12159746  0.87683305  1
  Fe  Fe27  1  0.00017346  0.74809750  0.00045018  1
  Fe  Fe28  1  0.50149911  0.74860154  0.25130515  1
  Fe  Fe29  1  0.12979294  0.37443275  0.62881082  1
  Fe  Fe30  1  0.12535998  0.87510537  0.87671008  1
  Fe  Fe31  1  0.25243587  0.50148711  0.50570137  1
  Fe  Fe32  1  0.74741581  0.25483406  -0.00255385  1
  Fe  Fe33  1  0.88047545  0.37354702  0.12566986  1
  Fe  Fe34  1  0.87479879  0.87471987  0.37244781  1
  Fe  Fe35  1  0.24928502  0.50233024  0.24675869  1
  Fe  Fe36  1  0.75103900  -0.00226064  -0.00129037  1
  Fe  Fe37  1  0.00015856  0.00130273  0.24566815  1
  Fe  Fe38  1  0.49991352  0.24987146  0.75087037  1
  Fe  Fe39  1  0.75093489  0.49626604  0.00022289  1
  Fe  Fe40  1  0.75193385  0.50023021  0.24834684  1
  Fe  Fe41  1  0.50053376  0.25098426  0.24983119  1
  Fe  Fe42  1  0.24940954  0.00004319  0.49977473  1
  Fe  Fe43  1  0.87662861  0.12484510  0.37471063  1
  Fe  Fe44  1  0.75064708  0.49884023  0.74803908  1
  Fe  Fe45  1  0.87680980  0.37565538  0.37438545  1
  Fe  Fe46  1  -0.00075637  0.00071442  0.50219339  1
  Fe  Fe47  1  0.74815455  0.75072726  0.49949870  1
  Fe  Fe48  1  0.37394839  0.87528241  0.37485383  1
  Fe  Fe49  1  0.24654172  0.24892858  0.25249678  1
  Fe  Fe50  1  0.74768059  0.49998760  0.50330316  1
  Fe  Fe51  1  0.74905303  0.25073636  0.75399168  1
  Fe  Fe52  1  0.37545428  0.37734453  0.87208597  1
  Fe  Fe53  1  0.37334895  0.37391229  0.12644511  1
  Fe  Fe54  1  0.74959335  0.00092597  0.24694403  1
  Fe  Fe55  1  -0.00098640  -0.00038724  0.75058677  1
  Fe  Fe56  1  0.37377317  0.12477042  0.37539561  1
  Fe  Fe57  1  0.12674348  0.12687213  0.62600369  1
  Fe  Fe58  1  0.37531695  0.87126430  0.12429069  1
  Fe  Fe59  1  0.49955252  0.25347729  0.50012150  1
  Fe  Fe60  1  0.00210121  0.24929116  0.49913540  1
  Fe  Fe61  1  0.87677259  0.62125685  0.87521810  1
  Fe  Fe62  1  0.87543969  0.87175970  0.12454611  1
  Fe  Fe63  1  0.87733069  0.12550705  0.87687725  1
  Fe  Fe64  1  0.12570825  0.87353588  0.62627831  1
  Fe  Fe65  1  0.87361989  0.62541737  0.37513940  1
  Fe  Fe66  1  0.00155487  0.25136065  0.75287849  1
  Fe  Fe67  1  0.00131057  0.74773958  0.75120805  1
  Fe  Fe68  1  0.37364388  0.37647661  0.37634688  1
  Fe  Fe69  1  0.12438961  0.12695185  0.12385950  1
  Fe  Fe70  1  0.62445246  0.62306309  0.37697240  1
  Fe  Fe71  1  0.37710167  0.62515850  0.37987071  1
  Fe  Fe72  1  0.87528037  0.62684585  0.62467482  1
  Fe  Fe73  1  0.12498332  0.38282103  0.87350237  1
  Fe  Fe74  1  0.75064550  0.25040665  0.24985843  1
  Fe  Fe75  1  0.75009852  0.75011606  0.75353776  1
  Fe  Fe76  1  0.62629589  0.12699679  0.62463098  1
  Fe  Fe77  1  0.62618351  0.37549768  0.37553093  1
  Fe  Fe78  1  0.25114477  0.74663175  0.00018419  1
  Fe  Fe79  1  0.62361958  0.87267405  0.12305454  1
  Fe  Fe80  1  0.24921092  0.74535335  0.75062733  1
  Fe  Fe81  1  0.00209487  0.75035781  0.49956091  1
  Fe  Fe82  1  0.62069969  0.12214917  0.87741178  1
  Fe  Fe83  1  0.49951105  0.49995609  0.24971448  1
  Fe  Fe84  1  0.62269547  0.12772554  0.12157948  1
  Fe  Fe85  1  0.74857017  0.75082528  -0.00382426  1
  Fe  Fe86  1  0.37617359  0.62262978  0.87620715  1
  Fe  Fe87  1  0.62601984  0.87826597  0.37433013  1
  Fe  Fe88  1  0.49901428  0.49767049  0.00298665  1
  Fe  Fe89  1  0.49879747  -0.00038556  0.50320351  1
  Co  Co90  1  0.50083371  0.74888807  -0.00364042  1
  Co  Co91  1  0.12462970  0.11989313  0.37463035  1
  Co  Co92  1  0.12369521  0.37549466  0.12712806  1
  Co  Co93  1  0.87836011  0.87493163  0.87484790  1
  Co  Co94  1  0.62398666  0.62827460  0.62618441  1
  Co  Co95  1  0.00216831  0.24844396  0.25242894  1
  Co  Co96  1  0.24603739  0.25042498  0.49489617  1
  Co  Co97  1  0.12378598  0.62490466  0.62483894  1
  Co  Co98  1  0.00404832  0.25293207  -0.00409986  1
  Co  Co99  1  0.62253086  0.87930263  0.87403438  1
  Co  Co100  1  0.25172777  0.00129631  0.24662457  1
  Co  Co101  1  0.50416155  0.75331829  0.49764500  1
  Co  Co102  1  0.24593295  0.75051068  0.49838658  1
  Co  Co103  1  0.49623672  0.00039855  0.74673342  1
  Co  Co104  1  0.24889551  0.24833365  0.75808872  1
  Co  Co105  1  0.75203239  0.24846045  0.49678440  1
  Co  Co106  1  0.74795054  0.74976370  0.25086332  1
  Co  Co107  1  0.49939841  0.49607558  0.50528664  1
  Co  Co108  1  0.87105988  0.62637842  0.12322074  1
  Co  Co109  1  0.37793403  0.63220893  0.62028635  1
  Co  Co110  1  0.37715149  0.62586160  0.12519099  1
  Co  Co111  1  0.62445191  0.37536832  0.12707841  1
  Co  Co112  1  0.49769973  -0.00323962  0.00222883  1
  Co  Co113  1  0.62131844  0.37858505  0.87243030  1
  Co  Co114  1  0.12537487  0.87257657  0.12562960  1
  Co  Co115  1  -0.00163557  0.50007998  0.00362476  1
  Co  Co116  1  0.25415846  0.50553657  0.74587784  1
  Co  Co117  1  0.49947410  0.25528097  -0.00113624  1
  Co  Co118  1  -0.00104520  0.50519493  0.24836544  1
  Co  Co119  1  0.25248616  0.49835064  0.00181059  1
  Co  Co120  1  0.37262195  0.87536381  0.87570011  1
  Co  Co121  1  0.36940269  0.36869271  0.62670764  1
  Co  Co122  1  0.62805635  0.37091178  0.62496294  1
  Co  Co123  1  -0.00024512  -0.00168446  0.00179353  1
  Co  Co124  1  0.12688582  0.62264889  0.12200256  1
  Co  Co125  1  -0.00220865  0.49945524  0.74605194  1
  Co  Co126  1  0.87578173  0.12786633  0.62769020  1
  Co  Co127  1  0.87681011  0.37659965  0.87455573  1
