# generated using pymatgen
data_Fe45Co19
_symmetry_space_group_name_H-M   'P 1'
_cell_length_a   11.41532452
_cell_length_b   11.41413514
_cell_length_c   11.41654352
_cell_angle_alpha   89.99903322
_cell_angle_beta   89.99719112
_cell_angle_gamma   90.00831783
_symmetry_Int_Tables_number   1
_chemical_formula_structural   Fe45Co19
_chemical_formula_sum   'Fe90 Co38'
_cell_volume   1487.53058427
_cell_formula_units_Z   2
loop_
 _symmetry_equiv_pos_site_id
 _symmetry_equiv_pos_as_xyz
  1  'x, y, z'
loop_
 _atom_site_type_symbol
 _atom_site_label
 _atom_site_symmetry_multiplicity
 _atom_site_fract_x
 _atom_site_fract_y
 _atom_site_fract_z
 _atom_site_occupancy
  Fe  Fe0  1  -0.00057152  0.75135879  0.00037844  1
  Fe  Fe1  1  0.12745681  0.62999560  0.87351102  1
  Fe  Fe2  1  0.87208612  0.12435217  0.62828960  1
  Fe  Fe3  1  0.62695311  0.62308273  0.12657303  1
  Fe  Fe4  1  0.00042294  0.49732334  0.25246212  1
  Fe  Fe5  1  0.74966626  0.24970476  -0.00271723  1
  Fe  Fe6  1  0.00279035  -0.00452763  0.74807182  1
  Fe  Fe7  1  0.75144130  0.49848715  0.00050270  1
  Fe  Fe8  1  0.49728752  0.74626594  0.49681285  1
  Fe  Fe9  1  0.49827016  0.74876313  0.75187947  1
  Fe  Fe10  1  0.25091768  -0.00380302  0.75125339  1
  Fe  Fe11  1  0.87465958  0.37304859  0.87135012  1
  Fe  Fe12  1  0.37372984  0.37210394  0.37474634  1
  Fe  Fe13  1  0.87453555  0.12536046  0.87170955  1
  Fe  Fe14  1  0.12528126  0.62616228  0.37562300  1
  Fe  Fe15  1  0.25058841  0.50206476  0.50058854  1
  Fe  Fe16  1  0.74905206  0.49807040  0.74889296  1
  Fe  Fe17  1  0.62313273  0.87447767  0.37514067  1
  Fe  Fe18  1  0.12429868  0.37099264  0.12098389  1
  Fe  Fe19  1  0.12527100  0.87715104  0.12408350  1
  Fe  Fe20  1  0.00030964  0.49852825  -0.00292338  1
  Fe  Fe21  1  0.37712733  0.37586178  0.62486041  1
  Fe  Fe22  1  0.24885692  0.00402870  0.25016861  1
  Fe  Fe23  1  0.00227481  0.24753277  0.25174812  1
  Fe  Fe24  1  0.74913222  0.75178828  0.74859166  1
  Fe  Fe25  1  0.75005542  0.75103639  0.24958805  1
  Fe  Fe26  1  0.74906382  -0.00126672  -0.00021106  1
  Fe  Fe27  1  0.87402848  0.62406834  0.37262262  1
  Fe  Fe28  1  0.37344158  0.62440475  0.12412552  1
  Fe  Fe29  1  0.74725076  0.24984853  0.25071539  1
  Fe  Fe30  1  0.12208747  0.37443764  0.62234197  1
  Fe  Fe31  1  0.25221497  0.00149494  -0.00068343  1
  Fe  Fe32  1  0.62647539  0.37631636  0.37678124  1
  Fe  Fe33  1  0.50068170  0.74595601  0.25051499  1
  Fe  Fe34  1  0.62420800  0.37278206  0.12379574  1
  Fe  Fe35  1  0.37580416  0.37377546  0.87438700  1
  Fe  Fe36  1  0.87574213  0.37379167  0.12660612  1
  Fe  Fe37  1  0.50007977  0.50026654  -0.00087876  1
  Fe  Fe38  1  0.12339357  0.37010718  0.38081032  1
  Fe  Fe39  1  0.37756712  0.12686852  0.87369406  1
  Fe  Fe40  1  0.87589009  0.62493068  0.62686595  1
  Fe  Fe41  1  0.50653982  0.25178503  0.74780815  1
  Fe  Fe42  1  -0.00049203  0.75270140  0.24874321  1
  Fe  Fe43  1  0.12529367  0.87734117  0.37640578  1
  Fe  Fe44  1  0.24943641  0.25077292  0.74870379  1
  Fe  Fe45  1  0.74881008  -0.00162704  0.50057670  1
  Fe  Fe46  1  0.25269061  0.00116766  0.49961673  1
  Fe  Fe47  1  0.75513790  0.49823340  0.49997119  1
  Fe  Fe48  1  0.87546549  0.62369448  0.12628157  1
  Fe  Fe49  1  0.62412328  0.87717429  0.12533437  1
  Fe  Fe50  1  0.12633480  0.12426234  0.62340128  1
  Fe  Fe51  1  0.37482943  0.12976615  0.37514659  1
  Fe  Fe52  1  0.62446268  0.12599571  0.37935865  1
  Fe  Fe53  1  -0.00184715  0.75146341  0.50235850  1
  Fe  Fe54  1  0.87409975  0.12398783  0.37358076  1
  Fe  Fe55  1  0.75087387  0.25226841  0.50606656  1
  Fe  Fe56  1  0.74646089  -0.00195085  0.74961292  1
  Fe  Fe57  1  0.12828191  0.63090726  0.62529979  1
  Fe  Fe58  1  0.25014263  0.50031296  0.75074860  1
  Fe  Fe59  1  0.74884406  0.75149808  0.00013999  1
  Fe  Fe60  1  0.37760892  0.87239524  0.88063010  1
  Fe  Fe61  1  0.87289695  0.12316644  0.12743230  1
  Fe  Fe62  1  0.50144984  0.50009663  0.25155859  1
  Fe  Fe63  1  0.12494202  0.12571283  0.87643168  1
  Fe  Fe64  1  -0.00208397  -0.00031452  0.00104087  1
  Fe  Fe65  1  0.12433405  0.62378932  0.12500204  1
  Fe  Fe66  1  0.37713012  0.12976385  0.12515163  1
  Fe  Fe67  1  0.24751655  0.49672609  0.25036946  1
  Fe  Fe68  1  0.37565442  0.37128300  0.12530830  1
  Fe  Fe69  1  0.75052047  0.75132582  0.50109797  1
  Fe  Fe70  1  0.00117176  0.24960117  0.74938235  1
  Fe  Fe71  1  0.50230782  0.00457811  0.25019767  1
  Fe  Fe72  1  -0.00023035  0.00078741  0.50164633  1
  Fe  Fe73  1  0.62120572  0.87657129  0.62437839  1
  Fe  Fe74  1  0.62274255  0.12276176  0.87485236  1
  Fe  Fe75  1  0.24895750  0.74974097  0.24903859  1
  Fe  Fe76  1  0.87534267  0.87469192  0.87355645  1
  Fe  Fe77  1  0.12540837  0.12713805  0.12224421  1
  Fe  Fe78  1  0.37517654  0.87475671  0.37201479  1
  Fe  Fe79  1  0.24894587  0.49799815  -0.00218554  1
  Fe  Fe80  1  0.87568765  0.87811499  0.37265576  1
  Fe  Fe81  1  0.49936888  0.50195071  0.75125216  1
  Fe  Fe82  1  0.00265442  0.50145947  0.75063807  1
  Fe  Fe83  1  0.62547309  0.62479580  0.87531684  1
  Fe  Fe84  1  0.37957871  0.12487913  0.62544771  1
  Fe  Fe85  1  0.37650256  0.87425752  0.12463528  1
  Fe  Fe86  1  0.37504531  0.87346364  0.62279691  1
  Fe  Fe87  1  0.62390591  0.62345325  0.62300425  1
  Fe  Fe88  1  0.49766432  0.50269503  0.49740814  1
  Fe  Fe89  1  0.87465883  0.62651306  0.87362285  1
  Co  Co90  1  0.74537734  0.00022087  0.25138377  1
  Co  Co91  1  0.62561350  0.12551447  0.12237445  1
  Co  Co92  1  0.25356024  0.74924553  0.49600230  1
  Co  Co93  1  0.49746906  -0.00303001  0.75131654  1
  Co  Co94  1  -0.00406597  0.24912036  -0.00105507  1
  Co  Co95  1  0.50341188  0.24949973  0.25181523  1
  Co  Co96  1  0.12562100  0.12586113  0.37911599  1
  Co  Co97  1  0.37339612  0.62570943  0.62591961  1
  Co  Co98  1  0.74403129  0.25072133  0.74742097  1
  Co  Co99  1  0.62541405  0.37718093  0.87605396  1
  Co  Co100  1  0.37176559  0.62300897  0.37044133  1
  Co  Co101  1  0.12499396  0.37145516  0.87499186  1
  Co  Co102  1  -0.00495171  0.24619242  0.50231312  1
  Co  Co103  1  0.87598234  0.37281525  0.37442488  1
  Co  Co104  1  0.00245526  0.00215102  0.24916487  1
  Co  Co105  1  0.87869020  0.37554580  0.62912201  1
  Co  Co106  1  0.62929745  0.62354019  0.37589109  1
  Co  Co107  1  0.87320767  0.87804357  0.62605683  1
  Co  Co108  1  0.62315541  0.87545031  0.87453198  1
  Co  Co109  1  0.24803800  0.74984228  0.00216315  1
  Co  Co110  1  0.24657139  0.24999868  0.25004857  1
  Co  Co111  1  0.62352394  0.38059470  0.62266563  1
  Co  Co112  1  -0.00057647  0.75337994  0.74760088  1
  Co  Co113  1  0.49736401  -0.00025069  0.49707150  1
  Co  Co114  1  0.87310161  0.87721498  0.12660859  1
  Co  Co115  1  0.50116994  0.25007778  -0.00247377  1
  Co  Co116  1  0.62247996  0.12011158  0.62385714  1
  Co  Co117  1  0.75029982  0.49781798  0.24938439  1
  Co  Co118  1  0.25293125  0.24936490  0.50407950  1
  Co  Co119  1  0.50368829  0.74806172  0.00163244  1
  Co  Co120  1  0.25388846  0.75430186  0.75285880  1
  Co  Co121  1  0.37356477  0.62576530  0.87843774  1
  Co  Co122  1  0.25220469  0.24986068  -0.00253215  1
  Co  Co123  1  0.49934975  0.00121154  0.00192346  1
  Co  Co124  1  0.12425592  0.87522455  0.87682925  1
  Co  Co125  1  0.50114293  0.25164490  0.50187229  1
  Co  Co126  1  -0.00097957  0.50340778  0.49995151  1
  Co  Co127  1  0.12957585  0.87322276  0.62199688  1
