# generated using pymatgen
data_Fe45Co19
_symmetry_space_group_name_H-M   'P 1'
_cell_length_a   11.41519557
_cell_length_b   11.41531650
_cell_length_c   11.41686888
_cell_angle_alpha   89.99695110
_cell_angle_beta   89.99848233
_cell_angle_gamma   89.98692560
_symmetry_Int_Tables_number   1
_chemical_formula_structural   Fe45Co19
_chemical_formula_sum   'Fe90 Co38'
_cell_volume   1487.71011162
_cell_formula_units_Z   2
loop_
 _symmetry_equiv_pos_site_id
 _symmetry_equiv_pos_as_xyz
  1  'x, y, z'
loop_
 _atom_site_type_symbol
 _atom_site_label
 _atom_site_symmetry_multiplicity
 _atom_site_fract_x
 _atom_site_fract_y
 _atom_site_fract_z
 _atom_site_occupancy
  Fe  Fe0  1  0.37191025  0.87817622  0.62920179  1
  Fe  Fe1  1  -0.00147832  0.75220315  0.00120044  1
  Fe  Fe2  1  0.74852671  0.50005920  -0.00058837  1
  Fe  Fe3  1  0.37166226  0.87847458  0.12871053  1
  Fe  Fe4  1  0.49759998  0.75209072  0.50207493  1
  Fe  Fe5  1  0.00332420  -0.00038695  0.74844959  1
  Fe  Fe6  1  0.74982834  0.75098073  0.50010405  1
  Fe  Fe7  1  0.37468047  0.62438920  0.12484781  1
  Fe  Fe8  1  0.00033456  -0.00122041  0.24942629  1
  Fe  Fe9  1  0.75123711  0.25018373  -0.00119701  1
  Fe  Fe10  1  0.25275265  0.74530365  0.75117312  1
  Fe  Fe11  1  0.75209163  -0.00275849  -0.00341255  1
  Fe  Fe12  1  0.74936790  0.00359333  0.25263243  1
  Fe  Fe13  1  -0.00056410  0.25442671  0.50478519  1
  Fe  Fe14  1  0.25146119  0.49789781  -0.00276107  1
  Fe  Fe15  1  0.12291339  0.37240709  0.87444226  1
  Fe  Fe16  1  0.87486064  0.87514166  0.62627759  1
  Fe  Fe17  1  0.37309763  0.12264524  0.62574275  1
  Fe  Fe18  1  0.49854216  0.24897851  0.74658893  1
  Fe  Fe19  1  0.49886098  0.49786556  0.49949257  1
  Fe  Fe20  1  0.62282848  0.62502929  0.62446743  1
  Fe  Fe21  1  0.62395697  0.87741327  0.37513237  1
  Fe  Fe22  1  0.49941524  0.75055311  0.24912013  1
  Fe  Fe23  1  0.37410311  0.88060431  0.37277408  1
  Fe  Fe24  1  0.36925617  0.37861754  0.62481411  1
  Fe  Fe25  1  0.12719967  0.87580762  0.37363758  1
  Fe  Fe26  1  0.87413100  0.12391619  0.12288991  1
  Fe  Fe27  1  0.24863806  0.24376097  0.25315752  1
  Fe  Fe28  1  0.49865142  0.24833781  0.00340969  1
  Fe  Fe29  1  0.00133645  0.75184211  0.50129516  1
  Fe  Fe30  1  0.74813772  0.00067081  0.75099164  1
  Fe  Fe31  1  0.75008981  0.24981475  0.74992438  1
  Fe  Fe32  1  0.12626790  0.12449522  0.12303050  1
  Fe  Fe33  1  0.62570869  0.37292767  0.62352481  1
  Fe  Fe34  1  0.87853531  0.12560866  0.37649161  1
  Fe  Fe35  1  0.24817215  0.50159506  0.25397951  1
  Fe  Fe36  1  0.49795936  0.75520730  -0.00038160  1
  Fe  Fe37  1  0.62085115  0.12304140  0.87646499  1
  Fe  Fe38  1  0.37597484  0.62561969  0.37575314  1
  Fe  Fe39  1  0.87323912  0.62385341  0.12604264  1
  Fe  Fe40  1  0.37645776  0.37240461  0.37291648  1
  Fe  Fe41  1  0.13065919  0.62107690  0.62250214  1
  Fe  Fe42  1  0.87661346  0.62430596  0.37588054  1
  Fe  Fe43  1  0.62324597  0.62652213  0.37648302  1
  Fe  Fe44  1  0.50346729  0.50105874  0.24897325  1
  Fe  Fe45  1  0.87363245  0.37425400  0.37243525  1
  Fe  Fe46  1  0.12673558  0.62529511  0.12597650  1
  Fe  Fe47  1  0.50180379  0.00533856  0.24682758  1
  Fe  Fe48  1  0.00077213  0.49612288  0.00369000  1
  Fe  Fe49  1  -0.00067210  0.75243637  0.24987521  1
  Fe  Fe50  1  0.62902288  0.37309526  0.12737925  1
  Fe  Fe51  1  0.74907346  0.49819996  0.49846625  1
  Fe  Fe52  1  0.87476854  0.12482727  0.62601257  1
  Fe  Fe53  1  0.87947214  0.12685103  0.87395133  1
  Fe  Fe54  1  0.87839685  0.37329732  0.87448072  1
  Fe  Fe55  1  0.12614575  0.87443980  0.87270417  1
  Fe  Fe56  1  0.12748880  0.87636558  0.12660761  1
  Fe  Fe57  1  0.25137635  0.24793148  0.49562872  1
  Fe  Fe58  1  0.62366246  0.87506441  0.62773799  1
  Fe  Fe59  1  0.75028257  0.74987456  0.25130514  1
  Fe  Fe60  1  0.50023020  0.00230840  0.50318769  1
  Fe  Fe61  1  0.00275169  0.49687763  0.74698116  1
  Fe  Fe62  1  0.25118582  0.75158600  0.49781689  1
  Fe  Fe63  1  0.25131130  0.75160609  0.00017578  1
  Fe  Fe64  1  0.62089596  0.37372835  0.87419339  1
  Fe  Fe65  1  0.12627578  0.12653826  0.62293453  1
  Fe  Fe66  1  0.74941174  0.75027317  0.75126216  1
  Fe  Fe67  1  0.74883851  0.49907968  0.75143040  1
  Fe  Fe68  1  0.50228643  0.24438753  0.24767036  1
  Fe  Fe69  1  0.49562323  0.50241446  0.74967398  1
  Fe  Fe70  1  0.62670770  0.87689424  0.12394358  1
  Fe  Fe71  1  0.00400327  0.49636916  0.50057047  1
  Fe  Fe72  1  0.37221614  0.37323664  0.12731968  1
  Fe  Fe73  1  0.00128954  0.74933478  0.74772781  1
  Fe  Fe74  1  0.74895149  0.00212153  0.49981002  1
  Fe  Fe75  1  0.12171951  0.12710228  0.87612837  1
  Fe  Fe76  1  -0.00016684  0.25165606  0.24421556  1
  Fe  Fe77  1  0.00248688  0.49750993  0.24846992  1
  Fe  Fe78  1  0.50029660  0.49813289  0.00272611  1
  Fe  Fe79  1  0.87702026  0.62389388  0.87411788  1
  Fe  Fe80  1  0.00281021  -0.00332661  0.50211846  1
  Fe  Fe81  1  0.62126588  0.62712748  0.87577585  1
  Fe  Fe82  1  0.25007804  0.24887770  0.75265264  1
  Fe  Fe83  1  0.75211391  0.75229176  -0.00238674  1
  Fe  Fe84  1  0.25133196  0.24956981  -0.00203806  1
  Fe  Fe85  1  -0.00068815  -0.00251457  -0.00077503  1
  Fe  Fe86  1  0.62551918  0.36902537  0.37584936  1
  Fe  Fe87  1  0.25316189  0.00075074  -0.00355604  1
  Fe  Fe88  1  0.12429748  0.62455650  0.87665324  1
  Fe  Fe89  1  0.87470900  0.62255117  0.62424613  1
  Co  Co90  1  0.62259343  0.12796800  0.38016091  1
  Co  Co91  1  -0.00047021  0.25247232  0.00557919  1
  Co  Co92  1  0.12905255  0.87346891  0.62679213  1
  Co  Co93  1  0.87425412  0.87606882  0.37652894  1
  Co  Co94  1  0.74622254  0.50232015  0.25197864  1
  Co  Co95  1  0.62819356  0.12265165  0.11966344  1
  Co  Co96  1  0.13166759  0.37414935  0.12595241  1
  Co  Co97  1  0.37876337  0.12196662  0.37560646  1
  Co  Co98  1  0.87820366  0.87490335  0.87067086  1
  Co  Co99  1  0.37423320  0.87709066  0.86921747  1
  Co  Co100  1  0.37148568  0.62106577  0.62078635  1
  Co  Co101  1  0.00106869  0.25122638  0.74477320  1
  Co  Co102  1  0.62504957  0.62863323  0.12268329  1
  Co  Co103  1  0.37810469  0.62590478  0.87994567  1
  Co  Co104  1  0.62565991  0.12762167  0.62355103  1
  Co  Co105  1  0.62201002  0.87652625  0.87412373  1
  Co  Co106  1  0.25135069  0.74878988  0.25108176  1
  Co  Co107  1  0.75005095  0.24440143  0.25058550  1
  Co  Co108  1  0.24839223  0.49861460  0.49124405  1
  Co  Co109  1  0.24656995  0.00435702  0.75202553  1
  Co  Co110  1  0.11890814  0.12600407  0.37692177  1
  Co  Co111  1  0.75367540  0.24936692  0.50070655  1
  Co  Co112  1  0.86901336  0.37632785  0.12603709  1
  Co  Co113  1  0.25204037  0.50127981  0.75744476  1
  Co  Co114  1  0.13347998  0.37598794  0.62537747  1
  Co  Co115  1  0.37838248  0.37221303  0.87547375  1
  Co  Co116  1  0.12287297  0.62853040  0.37494583  1
  Co  Co117  1  0.49494561  -0.00137074  0.00141843  1
  Co  Co118  1  0.87320102  0.87617016  0.12622664  1
  Co  Co119  1  0.37173802  0.12580318  0.12430648  1
  Co  Co120  1  0.49516453  0.25001283  0.50343863  1
  Co  Co121  1  0.24767838  0.00541529  0.25293327  1
  Co  Co122  1  0.12379577  0.36999860  0.37359701  1
  Co  Co123  1  0.50130092  0.00205101  0.74883137  1
  Co  Co124  1  0.37896951  0.12470118  0.87397252  1
  Co  Co125  1  0.24781877  0.00098645  0.49845956  1
  Co  Co126  1  0.87193758  0.37668717  0.62649652  1
  Co  Co127  1  0.49681888  0.74774432  0.74802161  1
