# generated using pymatgen
data_Fe45Co19
_symmetry_space_group_name_H-M   'P 1'
_cell_length_a   11.41621333
_cell_length_b   11.41511150
_cell_length_c   11.41572928
_cell_angle_alpha   89.99408418
_cell_angle_beta   89.99949742
_cell_angle_gamma   90.00168193
_symmetry_Int_Tables_number   1
_chemical_formula_structural   Fe45Co19
_chemical_formula_sum   'Fe90 Co38'
_cell_volume   1487.66755790
_cell_formula_units_Z   2
loop_
 _symmetry_equiv_pos_site_id
 _symmetry_equiv_pos_as_xyz
  1  'x, y, z'
loop_
 _atom_site_type_symbol
 _atom_site_label
 _atom_site_symmetry_multiplicity
 _atom_site_fract_x
 _atom_site_fract_y
 _atom_site_fract_z
 _atom_site_occupancy
  Fe  Fe0  1  -0.00120783  0.75182753  0.49992081  1
  Fe  Fe1  1  0.12714409  0.62437988  0.37581084  1
  Fe  Fe2  1  0.49976412  0.74998221  0.00181975  1
  Fe  Fe3  1  0.25596454  0.74861542  0.50145085  1
  Fe  Fe4  1  0.25094238  0.74753245  -0.00081748  1
  Fe  Fe5  1  0.62802307  0.37606865  0.12528181  1
  Fe  Fe6  1  0.62405644  0.62513178  0.12762470  1
  Fe  Fe7  1  0.75341562  0.75089834  0.75063977  1
  Fe  Fe8  1  0.50097206  -0.00356649  0.25291982  1
  Fe  Fe9  1  0.87699423  0.62401824  0.37372790  1
  Fe  Fe10  1  0.50210803  -0.00050528  0.74926439  1
  Fe  Fe11  1  0.62089558  0.62692460  0.37263917  1
  Fe  Fe12  1  0.37683606  0.62222442  0.87567450  1
  Fe  Fe13  1  0.00185447  0.49896567  0.24982963  1
  Fe  Fe14  1  0.75216620  0.24693048  0.25355832  1
  Fe  Fe15  1  0.87252039  0.87296735  0.37719143  1
  Fe  Fe16  1  0.75035772  0.74854513  0.25131945  1
  Fe  Fe17  1  0.50101152  -0.00320672  0.49777571  1
  Fe  Fe18  1  0.87441485  0.37612876  0.37622758  1
  Fe  Fe19  1  0.25088629  0.24845082  0.74993198  1
  Fe  Fe20  1  0.62505028  0.62557025  0.87418053  1
  Fe  Fe21  1  0.00343962  0.49938260  0.50080727  1
  Fe  Fe22  1  0.74811229  0.00324168  0.49639811  1
  Fe  Fe23  1  0.24946073  0.50232887  0.74833594  1
  Fe  Fe24  1  -0.00331937  0.75418468  0.74956199  1
  Fe  Fe25  1  0.49497944  0.75146085  0.49658906  1
  Fe  Fe26  1  -0.00111343  0.25195144  0.00040011  1
  Fe  Fe27  1  0.37544231  0.12363692  0.62453247  1
  Fe  Fe28  1  0.37224244  0.87665073  0.87304364  1
  Fe  Fe29  1  0.50122597  0.25031192  -0.00031926  1
  Fe  Fe30  1  0.12447027  0.37791010  0.87650350  1
  Fe  Fe31  1  0.87561718  0.62355803  0.62637374  1
  Fe  Fe32  1  0.12115480  0.12463592  0.37040696  1
  Fe  Fe33  1  0.37787491  0.62162809  0.12735886  1
  Fe  Fe34  1  0.75060809  0.00183120  0.25323077  1
  Fe  Fe35  1  0.00064920  -0.00203062  0.00282790  1
  Fe  Fe36  1  0.12499634  0.62926709  0.62604621  1
  Fe  Fe37  1  0.37380725  0.37829595  0.12327409  1
  Fe  Fe38  1  0.00071590  0.25132605  0.49823818  1
  Fe  Fe39  1  0.62627095  0.37675658  0.87589389  1
  Fe  Fe40  1  0.87619759  0.12227829  0.87410447  1
  Fe  Fe41  1  0.24906345  0.00312808  0.00379193  1
  Fe  Fe42  1  0.49829290  0.25179874  0.49789423  1
  Fe  Fe43  1  0.49763371  0.25368162  0.25128685  1
  Fe  Fe44  1  0.62173225  0.62567793  0.62533509  1
  Fe  Fe45  1  0.75011642  0.25014899  0.75017289  1
  Fe  Fe46  1  0.62716333  0.87204117  0.62123981  1
  Fe  Fe47  1  0.62443299  0.12769681  0.62296960  1
  Fe  Fe48  1  0.12712273  0.87438581  0.87325564  1
  Fe  Fe49  1  0.74920547  -0.00099461  0.74953162  1
  Fe  Fe50  1  0.24940988  0.24651785  0.00271030  1
  Fe  Fe51  1  0.87385197  0.37664757  0.62398933  1
  Fe  Fe52  1  0.37410156  0.87568887  0.12652061  1
  Fe  Fe53  1  0.62454427  0.37514184  0.62372041  1
  Fe  Fe54  1  -0.00042883  0.25048594  0.74976689  1
  Fe  Fe55  1  0.37502189  0.37921504  0.62343928  1
  Fe  Fe56  1  0.37444510  0.37761936  0.87719772  1
  Fe  Fe57  1  0.12575459  0.37533222  0.12433738  1
  Fe  Fe58  1  0.62685959  0.87339235  0.87709050  1
  Fe  Fe59  1  0.00188175  -0.00277721  0.74557984  1
  Fe  Fe60  1  0.24924192  0.24848229  0.49787065  1
  Fe  Fe61  1  0.12186302  0.62595553  0.12455411  1
  Fe  Fe62  1  0.62726093  0.37386817  0.37518280  1
  Fe  Fe63  1  0.12538071  0.87263547  0.12681562  1
  Fe  Fe64  1  0.36940757  0.38278385  0.37586333  1
  Fe  Fe65  1  0.50066425  0.00006878  0.00001366  1
  Fe  Fe66  1  0.12857604  0.87411818  0.37381662  1
  Fe  Fe67  1  0.87629903  0.38085517  0.87262486  1
  Fe  Fe68  1  0.37524394  0.12219226  0.37343111  1
  Fe  Fe69  1  -0.00499483  0.74861635  -0.00156124  1
  Fe  Fe70  1  0.24784974  0.00034421  0.50273452  1
  Fe  Fe71  1  0.62643888  0.87270887  0.12592980  1
  Fe  Fe72  1  0.62272829  0.12600833  0.12706925  1
  Fe  Fe73  1  0.12381233  0.12473145  0.87514795  1
  Fe  Fe74  1  0.74988197  0.00067172  0.00050683  1
  Fe  Fe75  1  0.24979998  0.24811406  0.24866842  1
  Fe  Fe76  1  0.87522630  0.12492162  0.62268464  1
  Fe  Fe77  1  0.75173704  0.24800364  -0.00162046  1
  Fe  Fe78  1  0.87396140  0.87094731  0.12557077  1
  Fe  Fe79  1  0.74746586  0.50250333  0.49947109  1
  Fe  Fe80  1  0.37559158  0.12365562  0.87510177  1
  Fe  Fe81  1  0.87876330  0.12525616  0.12771055  1
  Fe  Fe82  1  0.25252903  0.74753790  0.25054260  1
  Fe  Fe83  1  0.50029697  0.25088278  0.75118985  1
  Fe  Fe84  1  0.87278553  0.37710461  0.12705985  1
  Fe  Fe85  1  0.49661405  0.75111389  0.74906722  1
  Fe  Fe86  1  0.12116109  0.62338662  0.87476003  1
  Fe  Fe87  1  0.00224082  -0.00293366  0.50086911  1
  Fe  Fe88  1  0.12669406  0.37267587  0.62396650  1
  Fe  Fe89  1  0.75280024  0.50525062  0.00037574  1
  Co  Co90  1  0.75232882  0.74634427  -0.00113752  1
  Co  Co91  1  0.88029634  0.12560864  0.37588918  1
  Co  Co92  1  0.74710385  0.50045171  0.74779707  1
  Co  Co93  1  0.62525618  0.12502783  0.87552742  1
  Co  Co94  1  0.50141316  0.49605051  0.25068904  1
  Co  Co95  1  0.24841026  0.00228701  0.24601742  1
  Co  Co96  1  0.00134173  0.75107428  0.25345439  1
  Co  Co97  1  0.00414151  0.49867620  0.74505194  1
  Co  Co98  1  0.24657665  0.50223574  0.24643996  1
  Co  Co99  1  -0.00203689  -0.00612472  0.25088542  1
  Co  Co100  1  0.87783463  0.62129896  0.87070704  1
  Co  Co101  1  0.74955267  0.50181660  0.25290199  1
  Co  Co102  1  0.87140857  0.87529659  0.62051167  1
  Co  Co103  1  0.75035791  0.24944420  0.49890637  1
  Co  Co104  1  0.25350985  0.74562090  0.75121368  1
  Co  Co105  1  -0.00300141  0.50038179  0.00421354  1
  Co  Co106  1  0.49655128  0.75215670  0.25163631  1
  Co  Co107  1  0.24562539  0.50233700  0.50467908  1
  Co  Co108  1  0.37056257  0.87746820  0.37337634  1
  Co  Co109  1  0.37439813  0.61920702  0.37417369  1
  Co  Co110  1  0.38015639  0.12485635  0.12632890  1
  Co  Co111  1  0.75064174  0.74375657  0.49918545  1
  Co  Co112  1  0.87435414  0.87754738  0.87632976  1
  Co  Co113  1  0.24889385  0.50318619  0.00024088  1
  Co  Co114  1  0.12895733  0.86955954  0.62586602  1
  Co  Co115  1  0.11892096  0.12629801  0.12829986  1
  Co  Co116  1  0.24653836  0.00247525  0.74755404  1
  Co  Co117  1  0.50392048  0.49944619  0.49696267  1
  Co  Co118  1  0.87636513  0.62686489  0.12966519  1
  Co  Co119  1  0.62115082  0.12788764  0.37416023  1
  Co  Co120  1  0.12397086  0.12865839  0.62385008  1
  Co  Co121  1  0.37336470  0.87675722  0.62716226  1
  Co  Co122  1  0.50270323  0.50049347  0.00096001  1
  Co  Co123  1  0.37852927  0.62133278  0.62315023  1
  Co  Co124  1  -0.00089242  0.25533545  0.25033616  1
  Co  Co125  1  0.12793451  0.37586172  0.37482194  1
  Co  Co126  1  0.50017622  0.49845548  0.75136757  1
  Co  Co127  1  0.62815452  0.87078888  0.37599794  1
