# generated using pymatgen
data_Fe45Co19
_symmetry_space_group_name_H-M   'P 1'
_cell_length_a   11.41460161
_cell_length_b   11.41571589
_cell_length_c   11.41586364
_cell_angle_alpha   90.00217718
_cell_angle_beta   89.99948976
_cell_angle_gamma   89.99472248
_symmetry_Int_Tables_number   1
_chemical_formula_structural   Fe45Co19
_chemical_formula_sum   'Fe90 Co38'
_cell_volume   1487.55379647
_cell_formula_units_Z   2
loop_
 _symmetry_equiv_pos_site_id
 _symmetry_equiv_pos_as_xyz
  1  'x, y, z'
loop_
 _atom_site_type_symbol
 _atom_site_label
 _atom_site_symmetry_multiplicity
 _atom_site_fract_x
 _atom_site_fract_y
 _atom_site_fract_z
 _atom_site_occupancy
  Fe  Fe0  1  0.75117143  0.49979239  0.49913561  1
  Fe  Fe1  1  0.49976144  0.25004076  0.24841052  1
  Fe  Fe2  1  0.74720157  0.75313026  0.00160316  1
  Fe  Fe3  1  0.12376030  0.12272163  0.12550340  1
  Fe  Fe4  1  0.24941434  0.24872472  0.00215541  1
  Fe  Fe5  1  0.75053951  0.75012633  0.50269551  1
  Fe  Fe6  1  0.37369853  0.37430001  0.37458441  1
  Fe  Fe7  1  0.24817244  0.74911894  0.74974124  1
  Fe  Fe8  1  -0.00019404  0.75134402  0.75184753  1
  Fe  Fe9  1  0.24857075  0.50242844  0.50089986  1
  Fe  Fe10  1  0.12245598  0.37342068  0.37521188  1
  Fe  Fe11  1  0.12673818  0.12687662  0.37588081  1
  Fe  Fe12  1  0.37643810  0.87522205  0.12539449  1
  Fe  Fe13  1  0.24979012  0.49858328  0.24976868  1
  Fe  Fe14  1  0.50108737  -0.00136001  0.74995904  1
  Fe  Fe15  1  0.50057092  0.00128579  -0.00009977  1
  Fe  Fe16  1  0.37625484  0.87040034  0.37475909  1
  Fe  Fe17  1  0.49952804  0.50512492  0.49454266  1
  Fe  Fe18  1  0.00086648  0.74849864  0.49940396  1
  Fe  Fe19  1  0.24480636  0.75269329  0.24670111  1
  Fe  Fe20  1  0.24542309  0.75084229  0.00228395  1
  Fe  Fe21  1  0.62280705  0.87036169  0.37659594  1
  Fe  Fe22  1  0.88059321  0.87653628  0.12741072  1
  Fe  Fe23  1  0.50041809  0.25098985  0.74982246  1
  Fe  Fe24  1  0.62636214  0.62462176  0.62503769  1
  Fe  Fe25  1  0.24835634  -0.00197956  0.25065254  1
  Fe  Fe26  1  0.37623800  0.37536649  0.12542833  1
  Fe  Fe27  1  0.37535567  0.62573447  0.87458811  1
  Fe  Fe28  1  0.87765332  0.62264153  0.62553041  1
  Fe  Fe29  1  0.37414036  0.37439643  0.87589455  1
  Fe  Fe30  1  0.75197933  0.49973689  0.75208588  1
  Fe  Fe31  1  0.12220055  0.37475308  0.87590945  1
  Fe  Fe32  1  0.87306534  0.62714944  0.37331292  1
  Fe  Fe33  1  0.62744127  0.12625808  0.87372891  1
  Fe  Fe34  1  0.37472507  0.12576952  0.62520281  1
  Fe  Fe35  1  0.87816973  0.87375039  0.37329890  1
  Fe  Fe36  1  0.62943023  0.12232706  0.12865326  1
  Fe  Fe37  1  0.24919420  0.50098673  -0.00075911  1
  Fe  Fe38  1  0.24956516  -0.00083757  -0.00003621  1
  Fe  Fe39  1  0.24931370  0.74848053  0.50213689  1
  Fe  Fe40  1  0.50085313  0.00091033  0.50005710  1
  Fe  Fe41  1  0.87627639  0.37136902  0.87544710  1
  Fe  Fe42  1  0.25055247  -0.00088004  0.49987577  1
  Fe  Fe43  1  0.50377735  0.75000748  0.00220348  1
  Fe  Fe44  1  -0.00208252  0.00014846  -0.00433010  1
  Fe  Fe45  1  0.50206655  0.49903961  0.75399912  1
  Fe  Fe46  1  0.62830343  0.12765909  0.37281172  1
  Fe  Fe47  1  0.62637959  0.37479719  0.37441892  1
  Fe  Fe48  1  0.12413312  0.12590381  0.87296122  1
  Fe  Fe49  1  0.74984897  -0.00172476  0.75011941  1
  Fe  Fe50  1  0.25152599  -0.00132427  0.75005064  1
  Fe  Fe51  1  0.87445646  0.62950965  0.87734535  1
  Fe  Fe52  1  0.37488072  0.62317842  0.62745618  1
  Fe  Fe53  1  0.37506434  0.87350891  0.87676232  1
  Fe  Fe54  1  0.87187376  0.12781806  0.37518426  1
  Fe  Fe55  1  0.37389564  0.12625749  0.87470277  1
  Fe  Fe56  1  0.62479325  0.37729087  0.12479278  1
  Fe  Fe57  1  0.74818511  0.75264613  0.24697938  1
  Fe  Fe58  1  0.75078126  0.49889219  0.24958277  1
  Fe  Fe59  1  0.87762504  0.62757399  0.12339158  1
  Fe  Fe60  1  0.37273507  0.12734897  0.37319424  1
  Fe  Fe61  1  0.50402804  0.75142061  0.74955258  1
  Fe  Fe62  1  0.00083894  0.00181215  0.49848669  1
  Fe  Fe63  1  0.50175329  0.24883069  0.50035669  1
  Fe  Fe64  1  0.12355620  0.62398732  0.87536742  1
  Fe  Fe65  1  0.12590340  0.62588985  0.37362135  1
  Fe  Fe66  1  0.37579771  0.37799295  0.62398026  1
  Fe  Fe67  1  -0.00172013  -0.00044568  0.75137286  1
  Fe  Fe68  1  0.24898619  0.25317079  0.74746615  1
  Fe  Fe69  1  0.50066811  -0.00109002  0.25068916  1
  Fe  Fe70  1  0.50046088  0.24761572  0.00153710  1
  Fe  Fe71  1  0.75264073  -0.00130777  -0.00075079  1
  Fe  Fe72  1  -0.00157151  0.24741142  0.24817359  1
  Fe  Fe73  1  0.50214305  0.50060126  -0.00236846  1
  Fe  Fe74  1  0.74765944  -0.00041549  0.49849150  1
  Fe  Fe75  1  0.75040164  0.49976271  -0.00237645  1
  Fe  Fe76  1  0.11908233  0.38108659  0.62453101  1
  Fe  Fe77  1  0.37676245  0.87379544  0.62376300  1
  Fe  Fe78  1  0.12235770  0.37669060  0.12418516  1
  Fe  Fe79  1  0.37611694  0.62429895  0.12793514  1
  Fe  Fe80  1  0.12424565  0.87562484  0.62457478  1
  Fe  Fe81  1  -0.00186156  0.50218368  0.25063169  1
  Fe  Fe82  1  0.87647208  0.37169790  0.37911011  1
  Fe  Fe83  1  0.75263951  0.24806415  0.00273847  1
  Fe  Fe84  1  -0.00254297  0.24782419  0.74495691  1
  Fe  Fe85  1  0.62491435  0.37635873  0.62393393  1
  Fe  Fe86  1  0.24741828  0.25129678  0.50311569  1
  Fe  Fe87  1  0.87735349  0.37487413  0.12326919  1
  Fe  Fe88  1  0.87440718  0.87622810  0.62502297  1
  Fe  Fe89  1  0.75241630  0.25055419  0.74403308  1
  Co  Co90  1  0.62649174  0.62097648  0.12535158  1
  Co  Co91  1  0.87274796  0.12037476  0.62222487  1
  Co  Co92  1  0.12624753  0.12152229  0.62609881  1
  Co  Co93  1  0.12204093  0.62175574  0.12476788  1
  Co  Co94  1  0.00036402  0.00312537  0.25506832  1
  Co  Co95  1  0.62785999  0.37138072  0.87562891  1
  Co  Co96  1  0.00020911  0.24621657  0.50353856  1
  Co  Co97  1  0.75077068  -0.00488458  0.25345969  1
  Co  Co98  1  0.00244013  0.74826449  0.25070120  1
  Co  Co99  1  0.37054417  0.62848773  0.37074616  1
  Co  Co100  1  0.00382605  0.75277548  -0.00122227  1
  Co  Co101  1  0.12106325  0.62368033  0.62663943  1
  Co  Co102  1  0.62670732  0.62696130  0.87565400  1
  Co  Co103  1  0.50324010  0.74830055  0.24819071  1
  Co  Co104  1  -0.00331164  0.50132661  0.75547497  1
  Co  Co105  1  -0.00205458  0.50019097  -0.00192004  1
  Co  Co106  1  0.62611006  0.87529364  0.87489500  1
  Co  Co107  1  0.74984689  0.25082137  0.50388688  1
  Co  Co108  1  0.24869650  0.25068082  0.24728797  1
  Co  Co109  1  0.87378283  0.12059014  0.12804691  1
  Co  Co110  1  0.62528499  0.87448185  0.62309625  1
  Co  Co111  1  0.62442856  0.87850733  0.12504334  1
  Co  Co112  1  0.50027898  0.50123960  0.25378137  1
  Co  Co113  1  0.11891395  0.87921184  0.12583556  1
  Co  Co114  1  -0.00096899  0.24720359  0.00239852  1
  Co  Co115  1  0.24889837  0.49963027  0.75103746  1
  Co  Co116  1  0.12405333  0.87408992  0.37708070  1
  Co  Co117  1  -0.00024976  0.50410244  0.49468969  1
  Co  Co118  1  0.75210413  0.25361307  0.24808756  1
  Co  Co119  1  0.62977889  0.62723632  0.37324265  1
  Co  Co120  1  0.87265609  0.87193440  0.87461195  1
  Co  Co121  1  0.12656750  0.87602075  0.87355105  1
  Co  Co122  1  0.62524630  0.12433364  0.62582951  1
  Co  Co123  1  0.74984321  0.74951273  0.74760249  1
  Co  Co124  1  0.87841363  0.37946433  0.62155252  1
  Co  Co125  1  0.37352435  0.12317591  0.12696072  1
  Co  Co126  1  0.49910465  0.74493065  0.50051889  1
  Co  Co127  1  0.87418145  0.12736666  0.87327641  1
