# generated using pymatgen
data_Fe45Co19
_symmetry_space_group_name_H-M   'P 1'
_cell_length_a   11.41529256
_cell_length_b   11.41565107
_cell_length_c   11.41624465
_cell_angle_alpha   90.00210123
_cell_angle_beta   90.00596629
_cell_angle_gamma   89.99860907
_symmetry_Int_Tables_number   1
_chemical_formula_structural   Fe45Co19
_chemical_formula_sum   'Fe90 Co38'
_cell_volume   1487.68504207
_cell_formula_units_Z   2
loop_
 _symmetry_equiv_pos_site_id
 _symmetry_equiv_pos_as_xyz
  1  'x, y, z'
loop_
 _atom_site_type_symbol
 _atom_site_label
 _atom_site_symmetry_multiplicity
 _atom_site_fract_x
 _atom_site_fract_y
 _atom_site_fract_z
 _atom_site_occupancy
  Fe  Fe0  1  0.87599999  0.37439581  0.87767811  1
  Fe  Fe1  1  0.12295279  0.87643085  0.37285300  1
  Fe  Fe2  1  0.62499886  0.37349923  0.87359487  1
  Fe  Fe3  1  0.12892265  0.12376225  0.87342665  1
  Fe  Fe4  1  0.75057981  0.49634463  0.24795581  1
  Fe  Fe5  1  0.62628480  0.37323779  0.62698660  1
  Fe  Fe6  1  0.62368696  0.87560952  0.37257924  1
  Fe  Fe7  1  0.00235067  0.74742582  0.49874374  1
  Fe  Fe8  1  0.12361456  0.37504871  0.37486904  1
  Fe  Fe9  1  0.12455333  0.62301817  0.12644045  1
  Fe  Fe10  1  -0.00382639  0.75236185  0.24893776  1
  Fe  Fe11  1  0.49706198  0.00035587  0.24858087  1
  Fe  Fe12  1  0.25259157  0.00170672  0.25008120  1
  Fe  Fe13  1  0.62256222  0.62609080  0.87597367  1
  Fe  Fe14  1  0.87346970  0.62495599  0.87820333  1
  Fe  Fe15  1  -0.00044125  0.75126595  0.75034259  1
  Fe  Fe16  1  -0.00157805  -0.00034974  0.75080729  1
  Fe  Fe17  1  0.37725543  0.37641532  0.12607046  1
  Fe  Fe18  1  0.50135294  0.24992595  0.00078231  1
  Fe  Fe19  1  0.37171241  0.12460302  0.87610859  1
  Fe  Fe20  1  0.62346843  0.87614191  0.62642591  1
  Fe  Fe21  1  0.25027014  0.25125941  0.00172722  1
  Fe  Fe22  1  0.24506047  0.74974276  0.50008836  1
  Fe  Fe23  1  0.74581858  0.00202173  0.49815053  1
  Fe  Fe24  1  0.37491038  0.62564147  0.37545952  1
  Fe  Fe25  1  0.37379215  0.37354660  0.87279114  1
  Fe  Fe26  1  0.87336291  0.12572409  0.12271768  1
  Fe  Fe27  1  0.25087262  0.49988218  -0.00004791  1
  Fe  Fe28  1  0.12470599  0.87762051  0.12658163  1
  Fe  Fe29  1  0.62233277  0.87514584  0.87519945  1
  Fe  Fe30  1  0.62462642  0.37245916  0.37285920  1
  Fe  Fe31  1  0.87477084  0.87450539  0.87896756  1
  Fe  Fe32  1  0.37532252  0.62642472  0.62532365  1
  Fe  Fe33  1  0.74868311  0.49676680  0.00310193  1
  Fe  Fe34  1  0.00229290  0.25102945  0.00064923  1
  Fe  Fe35  1  0.00033353  0.74858470  0.00135320  1
  Fe  Fe36  1  0.87325098  0.12679638  0.87731977  1
  Fe  Fe37  1  0.75219524  -0.00124994  0.75205774  1
  Fe  Fe38  1  0.74836057  0.74970130  0.50002679  1
  Fe  Fe39  1  0.12636688  0.37565898  0.87415344  1
  Fe  Fe40  1  0.50244484  0.74937851  0.50081892  1
  Fe  Fe41  1  0.87341627  0.12793558  0.37588677  1
  Fe  Fe42  1  0.25161578  0.49874838  0.25124498  1
  Fe  Fe43  1  0.37655228  0.87580975  0.37741663  1
  Fe  Fe44  1  0.62069907  0.62123308  0.12521817  1
  Fe  Fe45  1  -0.00126128  0.49819370  0.24845818  1
  Fe  Fe46  1  0.75236877  0.75223302  0.24724479  1
  Fe  Fe47  1  0.37593311  0.37337141  0.37747293  1
  Fe  Fe48  1  0.87655907  0.37163460  0.37844267  1
  Fe  Fe49  1  0.25191447  0.75024278  0.00394759  1
  Fe  Fe50  1  0.49421063  0.00037918  0.74604795  1
  Fe  Fe51  1  0.75024836  0.50004184  0.74933519  1
  Fe  Fe52  1  0.87542255  0.37216704  0.62174574  1
  Fe  Fe53  1  0.37398051  0.37342912  0.62389434  1
  Fe  Fe54  1  0.62653254  0.12520564  0.87302978  1
  Fe  Fe55  1  0.87594357  0.87540291  0.62195807  1
  Fe  Fe56  1  0.12686010  0.62476145  0.87344939  1
  Fe  Fe57  1  0.25026839  0.75447437  0.74714178  1
  Fe  Fe58  1  0.74716475  0.75226532  0.00362085  1
  Fe  Fe59  1  0.74859075  0.74988507  0.74950263  1
  Fe  Fe60  1  0.87542886  0.62460277  0.62424117  1
  Fe  Fe61  1  0.87181407  0.12743410  0.62414047  1
  Fe  Fe62  1  0.62556697  0.62546013  0.37316560  1
  Fe  Fe63  1  0.49907813  0.50165063  0.75018245  1
  Fe  Fe64  1  0.12598473  0.12524741  0.37215339  1
  Fe  Fe65  1  0.49734822  0.24703777  0.74786142  1
  Fe  Fe66  1  0.00139665  0.00140582  0.00061502  1
  Fe  Fe67  1  0.50549266  0.24449019  0.50183912  1
  Fe  Fe68  1  0.75455218  -0.00280089  0.24991159  1
  Fe  Fe69  1  0.12580982  0.87655223  0.87567137  1
  Fe  Fe70  1  0.49988721  0.00014226  0.00304206  1
  Fe  Fe71  1  -0.00022492  0.25015798  0.24876721  1
  Fe  Fe72  1  0.49755583  0.74929669  0.24637882  1
  Fe  Fe73  1  0.37577869  0.12462540  0.37876486  1
  Fe  Fe74  1  0.12530309  0.37772094  0.62585717  1
  Fe  Fe75  1  0.12959495  0.12084265  0.62743942  1
  Fe  Fe76  1  0.00097271  0.00239762  0.49830771  1
  Fe  Fe77  1  0.24707233  0.24913404  0.49972295  1
  Fe  Fe78  1  0.24708308  0.50308239  0.49978277  1
  Fe  Fe79  1  0.37602855  0.87434108  0.87884237  1
  Fe  Fe80  1  0.62752962  0.12545711  0.12654417  1
  Fe  Fe81  1  0.37650103  0.62770467  0.87575592  1
  Fe  Fe82  1  -0.00065709  0.50074686  0.75128866  1
  Fe  Fe83  1  0.87489598  0.62457713  0.37402221  1
  Fe  Fe84  1  0.50214784  0.50098176  0.49930167  1
  Fe  Fe85  1  0.49838007  0.24900311  0.24991784  1
  Fe  Fe86  1  0.00115038  0.24923412  0.74879839  1
  Fe  Fe87  1  0.25230999  0.74925556  0.24829821  1
  Fe  Fe88  1  0.12813177  0.12586790  0.12667024  1
  Fe  Fe89  1  0.74913359  0.49935436  0.49925126  1
  Co  Co90  1  0.12224806  0.87775060  0.62454758  1
  Co  Co91  1  0.00220834  0.50111207  -0.00067634  1
  Co  Co92  1  0.24951013  -0.00009390  0.00130204  1
  Co  Co93  1  0.87777712  0.37418960  0.12185953  1
  Co  Co94  1  0.62469868  0.87773751  0.12754836  1
  Co  Co95  1  0.74492881  0.24807347  0.49846770  1
  Co  Co96  1  0.12641365  0.37494974  0.12566866  1
  Co  Co97  1  0.37043553  0.12468618  0.62108298  1
  Co  Co98  1  0.50442000  0.00359006  0.50185557  1
  Co  Co99  1  0.25275086  0.50042397  0.75015882  1
  Co  Co100  1  0.24823774  -0.00174969  0.49679055  1
  Co  Co101  1  0.12355430  0.62488498  0.36967747  1
  Co  Co102  1  0.00442602  0.24682866  0.50132469  1
  Co  Co103  1  0.25380777  -0.00448415  0.75097682  1
  Co  Co104  1  0.37357632  0.87786408  0.12465748  1
  Co  Co105  1  0.00131631  0.50253037  0.49907101  1
  Co  Co106  1  0.62458746  0.62373093  0.62536634  1
  Co  Co107  1  0.74739820  0.25244335  0.00082011  1
  Co  Co108  1  0.74803400  -0.00053954  -0.00108557  1
  Co  Co109  1  0.87669687  0.87687068  0.12069309  1
  Co  Co110  1  0.62589168  0.12354292  0.36784419  1
  Co  Co111  1  0.87565463  0.62361103  0.12404111  1
  Co  Co112  1  0.49980478  0.75175061  0.00520442  1
  Co  Co113  1  0.50002623  0.75071042  0.74869908  1
  Co  Co114  1  0.62822548  0.12442712  0.63149160  1
  Co  Co115  1  0.12416949  0.62446601  0.62919285  1
  Co  Co116  1  0.24977319  0.24958414  0.74918373  1
  Co  Co117  1  0.49885572  0.49983724  0.25514652  1
  Co  Co118  1  0.75188906  0.25322649  0.24843346  1
  Co  Co119  1  0.37543926  0.87460241  0.61863458  1
  Co  Co120  1  -0.00316645  0.00163225  0.25023457  1
  Co  Co121  1  0.62024635  0.37485903  0.12690004  1
  Co  Co122  1  0.25264818  0.25109337  0.25145235  1
  Co  Co123  1  0.37403070  0.12651535  0.12355574  1
  Co  Co124  1  0.87564480  0.87505590  0.37885702  1
  Co  Co125  1  0.75251497  0.25144094  0.75220340  1
  Co  Co126  1  0.37715780  0.62000694  0.12462358  1
  Co  Co127  1  0.49875408  0.49753435  -0.00413959  1
