# generated using pymatgen
data_Fe45Co19
_symmetry_space_group_name_H-M   'P 1'
_cell_length_a   11.41431075
_cell_length_b   11.41632835
_cell_length_c   11.41511887
_cell_angle_alpha   90.00236148
_cell_angle_beta   90.00172764
_cell_angle_gamma   89.99807682
_symmetry_Int_Tables_number   1
_chemical_formula_structural   Fe45Co19
_chemical_formula_sum   'Fe90 Co38'
_cell_volume   1487.49865199
_cell_formula_units_Z   2
loop_
 _symmetry_equiv_pos_site_id
 _symmetry_equiv_pos_as_xyz
  1  'x, y, z'
loop_
 _atom_site_type_symbol
 _atom_site_label
 _atom_site_symmetry_multiplicity
 _atom_site_fract_x
 _atom_site_fract_y
 _atom_site_fract_z
 _atom_site_occupancy
  Fe  Fe0  1  0.37429905  0.37448855  0.87425543  1
  Fe  Fe1  1  0.12388582  0.87569878  0.62535187  1
  Fe  Fe2  1  0.37410831  0.62321200  0.87690282  1
  Fe  Fe3  1  0.86825096  0.12408272  0.87882645  1
  Fe  Fe4  1  0.00155115  0.49944047  -0.00166820  1
  Fe  Fe5  1  0.74721158  0.49932180  0.00081661  1
  Fe  Fe6  1  0.62395039  0.37329518  0.37217201  1
  Fe  Fe7  1  0.62256042  0.87121842  0.62953536  1
  Fe  Fe8  1  0.75162916  -0.00144336  0.24664745  1
  Fe  Fe9  1  0.37656133  0.62576844  0.62597106  1
  Fe  Fe10  1  0.37465764  0.87841819  0.37786868  1
  Fe  Fe11  1  0.24985027  0.49911609  0.74923176  1
  Fe  Fe12  1  0.50181440  0.75008508  -0.00294576  1
  Fe  Fe13  1  0.62243898  0.87511726  0.12610531  1
  Fe  Fe14  1  0.88029752  0.87207952  0.12281928  1
  Fe  Fe15  1  0.25108239  0.49981185  0.49943511  1
  Fe  Fe16  1  0.12346008  0.37598928  0.12377674  1
  Fe  Fe17  1  0.37685353  0.62427190  0.12500537  1
  Fe  Fe18  1  0.50106692  0.50119161  0.75334014  1
  Fe  Fe19  1  0.75025485  0.75141787  0.50139934  1
  Fe  Fe20  1  0.74979185  0.50048242  0.75005545  1
  Fe  Fe21  1  -0.00023903  0.24982758  0.24816404  1
  Fe  Fe22  1  0.49737066  0.00182203  0.25013507  1
  Fe  Fe23  1  0.24943160  0.00047797  0.74986379  1
  Fe  Fe24  1  0.62238943  0.37691504  0.12697432  1
  Fe  Fe25  1  0.62522369  0.12337259  0.12360871  1
  Fe  Fe26  1  0.37314982  0.87614093  0.12263322  1
  Fe  Fe27  1  0.12399115  0.62459825  0.62542665  1
  Fe  Fe28  1  0.00432020  -0.00246854  0.24686847  1
  Fe  Fe29  1  0.87424765  0.12370329  0.37328103  1
  Fe  Fe30  1  0.24731798  0.25077317  -0.00166912  1
  Fe  Fe31  1  0.37229006  0.12483259  0.12500297  1
  Fe  Fe32  1  0.87254005  0.62475099  0.87617102  1
  Fe  Fe33  1  0.37617655  0.12348274  0.62453948  1
  Fe  Fe34  1  0.62375811  0.62723784  0.62742406  1
  Fe  Fe35  1  -0.00277511  0.50091900  0.25321360  1
  Fe  Fe36  1  0.25103266  0.50013157  0.24881146  1
  Fe  Fe37  1  -0.00050147  0.24911470  0.49899600  1
  Fe  Fe38  1  0.74824019  0.75139510  0.00008023  1
  Fe  Fe39  1  0.75227156  0.50019765  0.25140001  1
  Fe  Fe40  1  -0.00303370  -0.00000427  0.75242219  1
  Fe  Fe41  1  0.87362285  0.12451261  0.62532404  1
  Fe  Fe42  1  0.75029144  0.49975283  0.49783239  1
  Fe  Fe43  1  0.12549818  0.87664174  0.87858595  1
  Fe  Fe44  1  -0.00036798  0.25023756  0.75399260  1
  Fe  Fe45  1  0.37603589  0.37296717  0.62740628  1
  Fe  Fe46  1  -0.00245294  0.75092678  0.75252417  1
  Fe  Fe47  1  0.37622696  0.12594995  0.87392252  1
  Fe  Fe48  1  0.62343083  0.87451106  0.37276319  1
  Fe  Fe49  1  0.62509936  0.12425704  0.37389737  1
  Fe  Fe50  1  0.87263626  0.37310237  0.87823705  1
  Fe  Fe51  1  0.25031911  0.24791296  0.50082129  1
  Fe  Fe52  1  0.50053342  -0.00084851  -0.00141264  1
  Fe  Fe53  1  0.62180179  0.62515420  0.12597612  1
  Fe  Fe54  1  0.24795361  0.74778827  0.00090594  1
  Fe  Fe55  1  0.12657407  0.62311553  0.87472373  1
  Fe  Fe56  1  0.50464708  0.00296554  0.75042351  1
  Fe  Fe57  1  0.49962725  0.24823007  0.49916648  1
  Fe  Fe58  1  0.37750180  0.37519907  0.12461065  1
  Fe  Fe59  1  0.37589827  0.62800899  0.37330287  1
  Fe  Fe60  1  0.12785787  0.12273634  0.37273838  1
  Fe  Fe61  1  0.50353331  0.25058207  -0.00191445  1
  Fe  Fe62  1  0.87801868  0.62649495  0.12494323  1
  Fe  Fe63  1  0.87549691  0.37397562  0.62366995  1
  Fe  Fe64  1  0.12486580  0.37435404  0.62580544  1
  Fe  Fe65  1  0.75126036  0.25083598  0.24737055  1
  Fe  Fe66  1  0.62335890  0.37417558  0.62656976  1
  Fe  Fe67  1  -0.00053765  0.75003431  0.49928661  1
  Fe  Fe68  1  0.12405395  0.12526090  0.62736915  1
  Fe  Fe69  1  -0.00050961  0.49846761  0.75035246  1
  Fe  Fe70  1  0.87580842  0.12654604  0.12187990  1
  Fe  Fe71  1  0.62310815  0.62842254  0.37302848  1
  Fe  Fe72  1  0.50006838  0.50129109  0.49804518  1
  Fe  Fe73  1  0.74828068  -0.00158553  0.50244604  1
  Fe  Fe74  1  0.12517345  0.62609463  0.37464920  1
  Fe  Fe75  1  0.12405260  0.37497949  0.37604704  1
  Fe  Fe76  1  0.74619513  0.24801772  0.75135680  1
  Fe  Fe77  1  0.37706932  0.37317169  0.37320399  1
  Fe  Fe78  1  0.25094711  0.24891002  0.24975711  1
  Fe  Fe79  1  0.00051303  0.00115449  0.50025156  1
  Fe  Fe80  1  0.75188020  0.75055582  0.24886313  1
  Fe  Fe81  1  0.24604784  0.75443638  0.24722726  1
  Fe  Fe82  1  0.87570769  0.62478681  0.62348518  1
  Fe  Fe83  1  0.37564447  0.87576154  0.87341073  1
  Fe  Fe84  1  0.87612320  0.87519232  0.37498429  1
  Fe  Fe85  1  0.25218152  0.75237051  0.50325046  1
  Fe  Fe86  1  0.25120925  0.75134927  0.74941373  1
  Fe  Fe87  1  0.75086912  0.24991960  0.49857242  1
  Fe  Fe88  1  0.12500826  0.12434230  0.87718562  1
  Fe  Fe89  1  0.87070801  0.87708051  0.87552741  1
  Co  Co90  1  0.62705750  0.62718729  0.87382133  1
  Co  Co91  1  0.62763721  0.87562921  0.87230890  1
  Co  Co92  1  0.49968273  0.24588938  0.24886875  1
  Co  Co93  1  0.49896019  0.50093772  0.25184568  1
  Co  Co94  1  0.75004332  -0.00435186  0.00530589  1
  Co  Co95  1  0.24814430  0.00103225  0.50298981  1
  Co  Co96  1  0.49716324  0.74781598  0.75367297  1
  Co  Co97  1  0.87715177  0.87603775  0.62420678  1
  Co  Co98  1  0.50416942  -0.00127285  0.50079737  1
  Co  Co99  1  0.87485333  0.62828442  0.37600519  1
  Co  Co100  1  0.12531564  0.87550595  0.37915253  1
  Co  Co101  1  0.12163937  0.62439543  0.12578659  1
  Co  Co102  1  0.74809449  0.00110372  0.74506187  1
  Co  Co103  1  0.49730857  0.75286153  0.24942718  1
  Co  Co104  1  0.37423073  0.12229135  0.37630895  1
  Co  Co105  1  0.12694873  0.37647733  0.87436689  1
  Co  Co106  1  0.25224564  0.00166221  -0.00227579  1
  Co  Co107  1  0.75427566  0.74941155  0.74957031  1
  Co  Co108  1  0.12795804  0.12321007  0.12363168  1
  Co  Co109  1  -0.00275343  0.00257896  -0.00092648  1
  Co  Co110  1  0.00057926  0.74813263  -0.00452453  1
  Co  Co111  1  0.00340556  0.75262265  0.25086467  1
  Co  Co112  1  0.24925623  0.24784388  0.75044910  1
  Co  Co113  1  0.50103798  0.49991317  -0.00220141  1
  Co  Co114  1  0.37716580  0.87815483  0.62739158  1
  Co  Co115  1  0.49873106  0.75071629  0.50098670  1
  Co  Co116  1  -0.00008059  0.49956835  0.49928560  1
  Co  Co117  1  0.87498962  0.37322582  0.37544628  1
  Co  Co118  1  0.12431879  0.87652862  0.11706897  1
  Co  Co119  1  0.00200487  0.24929758  -0.00133340  1
  Co  Co120  1  0.87683679  0.37618711  0.12324681  1
  Co  Co121  1  0.24885374  -0.00360421  0.24893819  1
  Co  Co122  1  0.50330420  0.24695458  0.75222160  1
  Co  Co123  1  0.74684834  0.25304569  0.00336637  1
  Co  Co124  1  0.62567428  0.37549601  0.87368772  1
  Co  Co125  1  0.62987752  0.12124001  0.87992450  1
  Co  Co126  1  0.62567361  0.12784199  0.62248200  1
  Co  Co127  1  0.24974617  0.49976354  0.00274329  1
