# generated using pymatgen
data_Fe45Co19
_symmetry_space_group_name_H-M   'P 1'
_cell_length_a   11.41653443
_cell_length_b   11.41649507
_cell_length_c   11.41529059
_cell_angle_alpha   90.00250384
_cell_angle_beta   90.00274431
_cell_angle_gamma   90.00205425
_symmetry_Int_Tables_number   1
_chemical_formula_structural   Fe45Co19
_chemical_formula_sum   'Fe90 Co38'
_cell_volume   1487.83254597
_cell_formula_units_Z   2
loop_
 _symmetry_equiv_pos_site_id
 _symmetry_equiv_pos_as_xyz
  1  'x, y, z'
loop_
 _atom_site_type_symbol
 _atom_site_label
 _atom_site_symmetry_multiplicity
 _atom_site_fract_x
 _atom_site_fract_y
 _atom_site_fract_z
 _atom_site_occupancy
  Fe  Fe0  1  0.87223372  0.87443710  0.87340478  1
  Fe  Fe1  1  0.74772144  0.24942665  0.75087405  1
  Fe  Fe2  1  0.25267884  0.25089595  0.50040679  1
  Fe  Fe3  1  0.87561505  0.12172662  0.12469923  1
  Fe  Fe4  1  0.87455319  0.87487674  0.37537316  1
  Fe  Fe5  1  0.25207054  0.75022894  0.74907111  1
  Fe  Fe6  1  0.12659944  0.12594337  0.62538938  1
  Fe  Fe7  1  0.62567900  0.62421369  0.62469040  1
  Fe  Fe8  1  0.49544975  0.50398324  0.00369411  1
  Fe  Fe9  1  0.75221710  0.75037538  0.50278006  1
  Fe  Fe10  1  0.62445968  0.62536538  0.87485471  1
  Fe  Fe11  1  0.87556083  0.37697478  0.62655450  1
  Fe  Fe12  1  0.24928776  0.50208510  0.75225600  1
  Fe  Fe13  1  0.24799163  0.49857351  0.24885645  1
  Fe  Fe14  1  0.25217104  -0.00065546  0.49936981  1
  Fe  Fe15  1  0.00026425  0.24928108  0.00054277  1
  Fe  Fe16  1  0.49843238  0.74930776  0.00248341  1
  Fe  Fe17  1  0.62391103  0.87438404  0.37680851  1
  Fe  Fe18  1  0.49881598  0.25025980  0.00370375  1
  Fe  Fe19  1  0.87549292  0.37601834  0.12497642  1
  Fe  Fe20  1  0.50187341  0.74860640  0.24954336  1
  Fe  Fe21  1  0.00203645  0.49963058  0.49604767  1
  Fe  Fe22  1  0.00137202  0.50177217  0.75182220  1
  Fe  Fe23  1  0.50033715  0.49861332  0.49696397  1
  Fe  Fe24  1  0.74839099  0.49669104  0.49759851  1
  Fe  Fe25  1  0.62455636  0.87662709  0.62530018  1
  Fe  Fe26  1  0.37487728  0.12431906  0.87449519  1
  Fe  Fe27  1  -0.00414944  0.74929827  0.74571827  1
  Fe  Fe28  1  0.37410644  0.62609023  0.37418831  1
  Fe  Fe29  1  0.24862397  0.25100304  0.24543059  1
  Fe  Fe30  1  0.12567744  0.12179736  0.12258441  1
  Fe  Fe31  1  0.87186096  0.62798953  0.12699784  1
  Fe  Fe32  1  0.62806917  0.62520158  0.12685724  1
  Fe  Fe33  1  0.25146711  0.25298741  0.00127944  1
  Fe  Fe34  1  0.49752364  -0.00295524  0.00095134  1
  Fe  Fe35  1  0.37699693  0.37735323  0.87332488  1
  Fe  Fe36  1  0.00159093  -0.00213399  0.24916768  1
  Fe  Fe37  1  0.37653240  0.62404347  0.62447945  1
  Fe  Fe38  1  0.87195424  0.37156247  0.37336867  1
  Fe  Fe39  1  0.37580267  0.37501351  0.62902008  1
  Fe  Fe40  1  0.00035917  0.00022729  0.49900033  1
  Fe  Fe41  1  -0.00060611  0.25008017  0.49984355  1
  Fe  Fe42  1  0.87399344  0.12467931  0.87614091  1
  Fe  Fe43  1  0.12626184  0.12701335  0.37587256  1
  Fe  Fe44  1  0.00118124  0.75065890  0.25010850  1
  Fe  Fe45  1  0.00203473  0.25030687  0.24794658  1
  Fe  Fe46  1  0.12644541  0.62302305  0.12257459  1
  Fe  Fe47  1  0.87536815  0.12398343  0.62649700  1
  Fe  Fe48  1  0.37646323  0.12733287  0.37315280  1
  Fe  Fe49  1  0.62747356  0.62446567  0.37429073  1
  Fe  Fe50  1  0.50032839  0.00104900  0.25023390  1
  Fe  Fe51  1  0.00140511  0.49986288  0.25046230  1
  Fe  Fe52  1  0.62478962  0.12238485  0.12408841  1
  Fe  Fe53  1  0.24970341  -0.00152063  0.25058053  1
  Fe  Fe54  1  0.62272539  0.37706280  0.87786496  1
  Fe  Fe55  1  0.74835721  0.25163519  0.00322265  1
  Fe  Fe56  1  0.12637456  0.37483099  0.62419923  1
  Fe  Fe57  1  0.25311794  0.75147558  0.00006515  1
  Fe  Fe58  1  0.87292374  0.62667103  0.87417993  1
  Fe  Fe59  1  0.37685207  0.12608062  0.62793584  1
  Fe  Fe60  1  0.50047138  0.74909370  0.74961254  1
  Fe  Fe61  1  0.12488073  0.87217261  0.37815547  1
  Fe  Fe62  1  0.24854726  0.75139664  0.25009786  1
  Fe  Fe63  1  0.12453097  0.37838143  0.87927496  1
  Fe  Fe64  1  0.74832653  -0.00219906  0.24941181  1
  Fe  Fe65  1  -0.00117827  0.75261741  0.00157829  1
  Fe  Fe66  1  0.12571700  0.62648384  0.87769813  1
  Fe  Fe67  1  0.37832119  0.37363281  0.36981526  1
  Fe  Fe68  1  0.62543812  0.13190157  0.37566535  1
  Fe  Fe69  1  0.74825847  0.50027314  0.75136993  1
  Fe  Fe70  1  0.75173436  0.50145227  0.00116775  1
  Fe  Fe71  1  0.25127628  -0.00271557  0.75064705  1
  Fe  Fe72  1  0.37726630  0.87338027  0.37602740  1
  Fe  Fe73  1  0.74842522  0.00230277  0.50034643  1
  Fe  Fe74  1  0.25035498  0.49990808  0.49729304  1
  Fe  Fe75  1  0.37932912  0.87510781  0.62245673  1
  Fe  Fe76  1  0.12372100  0.87357929  0.62351598  1
  Fe  Fe77  1  0.62569985  0.87394927  0.87360065  1
  Fe  Fe78  1  0.62284641  0.37310240  0.62427592  1
  Fe  Fe79  1  0.00249797  0.25043898  0.75169041  1
  Fe  Fe80  1  0.12625316  0.12332245  0.87647574  1
  Fe  Fe81  1  0.75107339  -0.00410282  0.00120348  1
  Fe  Fe82  1  0.87270771  0.12682420  0.37311421  1
  Fe  Fe83  1  0.87475648  0.37515732  0.87483818  1
  Fe  Fe84  1  0.62456527  0.12388520  0.87630729  1
  Fe  Fe85  1  0.62151852  0.12584434  0.62511999  1
  Fe  Fe86  1  0.12435372  0.62593892  0.62075052  1
  Fe  Fe87  1  0.25008990  -0.00576059  -0.00083132  1
  Fe  Fe88  1  0.87392615  0.62612191  0.37514050  1
  Fe  Fe89  1  0.00040687  -0.00073245  0.75242448  1
  Co  Co90  1  -0.00067895  -0.00391899  -0.00109217  1
  Co  Co91  1  0.87371885  0.87409591  0.12649275  1
  Co  Co92  1  0.74829779  0.25062109  0.24343057  1
  Co  Co93  1  0.62323415  0.87455013  0.12534317  1
  Co  Co94  1  0.37579585  0.62579191  0.87282988  1
  Co  Co95  1  0.12601024  0.87533198  0.12467218  1
  Co  Co96  1  0.12599265  0.62705764  0.37586002  1
  Co  Co97  1  0.50143873  0.74743800  0.49924842  1
  Co  Co98  1  0.50134675  0.24943230  0.75292352  1
  Co  Co99  1  0.62272708  0.37997160  0.12520013  1
  Co  Co100  1  0.87423114  0.61874802  0.62278824  1
  Co  Co101  1  0.62464524  0.36987116  0.37267333  1
  Co  Co102  1  0.37234603  0.62647783  0.12870866  1
  Co  Co103  1  0.75159058  0.24958230  0.50363833  1
  Co  Co104  1  0.50211025  0.50350919  0.25090372  1
  Co  Co105  1  0.75049020  0.74831055  0.74680211  1
  Co  Co106  1  0.50128616  0.50095542  0.74890655  1
  Co  Co107  1  0.25207213  0.75007099  0.50047121  1
  Co  Co108  1  -0.00431172  0.50334840  0.00017293  1
  Co  Co109  1  0.25490640  0.50056153  -0.00026460  1
  Co  Co110  1  0.12425921  0.87134550  0.87261826  1
  Co  Co111  1  0.75046174  0.49851875  0.25055805  1
  Co  Co112  1  0.50176371  0.24750464  0.24384635  1
  Co  Co113  1  0.74826419  0.75073302  0.00027391  1
  Co  Co114  1  0.12355867  0.37831442  0.12130706  1
  Co  Co115  1  0.12616936  0.37221315  0.37480479  1
  Co  Co116  1  0.74830726  0.75259582  0.25136863  1
  Co  Co117  1  0.87369061  0.87947271  0.62473330  1
  Co  Co118  1  0.37735379  0.87323509  0.87437586  1
  Co  Co119  1  -0.00355927  0.74954145  0.50104599  1
  Co  Co120  1  0.24904008  0.25130167  0.75281883  1
  Co  Co121  1  0.74799979  0.00227104  0.75036117  1
  Co  Co122  1  0.37628643  0.87498068  0.12782820  1
  Co  Co123  1  0.37730980  0.37630484  0.12777703  1
  Co  Co124  1  0.49962528  0.00022916  0.75187760  1
  Co  Co125  1  0.37302557  0.12211154  0.12385005  1
  Co  Co126  1  0.49996926  0.00289579  0.49784769  1
  Co  Co127  1  0.49685112  0.25134991  0.50056512  1
