# generated using pymatgen
data_Fe45Co19
_symmetry_space_group_name_H-M   'P 1'
_cell_length_a   11.41405844
_cell_length_b   11.41443988
_cell_length_c   11.41539167
_cell_angle_alpha   90.00521370
_cell_angle_beta   89.99192324
_cell_angle_gamma   90.00687616
_symmetry_Int_Tables_number   1
_chemical_formula_structural   Fe45Co19
_chemical_formula_sum   'Fe90 Co38'
_cell_volume   1487.25522966
_cell_formula_units_Z   2
loop_
 _symmetry_equiv_pos_site_id
 _symmetry_equiv_pos_as_xyz
  1  'x, y, z'
loop_
 _atom_site_type_symbol
 _atom_site_label
 _atom_site_symmetry_multiplicity
 _atom_site_fract_x
 _atom_site_fract_y
 _atom_site_fract_z
 _atom_site_occupancy
  Fe  Fe0  1  0.49879758  0.75304655  0.00128993  1
  Fe  Fe1  1  0.87159516  0.87573940  0.62518573  1
  Fe  Fe2  1  0.62476942  0.87794396  0.62204360  1
  Fe  Fe3  1  0.37441738  0.87464441  0.37614541  1
  Fe  Fe4  1  0.62632460  0.87902668  0.37838220  1
  Fe  Fe5  1  0.00116449  0.75120706  0.24963347  1
  Fe  Fe6  1  0.37592838  0.12826030  0.37541440  1
  Fe  Fe7  1  0.12473414  0.12386374  0.62676418  1
  Fe  Fe8  1  0.75008905  0.24703308  0.75033306  1
  Fe  Fe9  1  0.12441329  0.87653485  0.37636594  1
  Fe  Fe10  1  0.24683025  0.24996383  0.49973313  1
  Fe  Fe11  1  0.12597396  0.62545821  0.12405410  1
  Fe  Fe12  1  0.87437594  0.87618225  0.37590918  1
  Fe  Fe13  1  0.87402320  0.62615775  0.12342156  1
  Fe  Fe14  1  0.12814117  0.87819506  0.12307085  1
  Fe  Fe15  1  -0.00093005  0.49937298  0.00002595  1
  Fe  Fe16  1  0.62698034  0.62301875  0.37729476  1
  Fe  Fe17  1  0.75076893  0.50219919  -0.00403106  1
  Fe  Fe18  1  0.87496500  0.87975320  0.87637455  1
  Fe  Fe19  1  0.50295651  0.50027917  0.74968433  1
  Fe  Fe20  1  0.24662048  0.24976664  0.75378485  1
  Fe  Fe21  1  0.62921041  0.37849996  0.62592078  1
  Fe  Fe22  1  0.00028678  0.24711087  0.75162090  1
  Fe  Fe23  1  0.25376368  0.00166975  0.50246208  1
  Fe  Fe24  1  0.75153522  0.24818835  0.50284740  1
  Fe  Fe25  1  0.00006623  0.50060316  0.50192005  1
  Fe  Fe26  1  0.12613921  0.88127325  0.87501344  1
  Fe  Fe27  1  0.12781680  0.12474819  0.12151205  1
  Fe  Fe28  1  0.49912025  0.49769031  0.00049305  1
  Fe  Fe29  1  0.75192560  0.49785088  0.25027079  1
  Fe  Fe30  1  0.00051316  0.75181717  0.74982531  1
  Fe  Fe31  1  0.00028607  0.74839517  0.50158594  1
  Fe  Fe32  1  0.49961318  0.49955592  0.50159947  1
  Fe  Fe33  1  0.87641834  0.12521002  0.37657481  1
  Fe  Fe34  1  0.37179864  0.36956029  0.12575724  1
  Fe  Fe35  1  -0.00030612  0.75388736  -0.00022119  1
  Fe  Fe36  1  0.62452948  0.37262235  0.37472460  1
  Fe  Fe37  1  0.37377082  0.12841634  0.12457211  1
  Fe  Fe38  1  0.37472974  0.62629164  0.12500741  1
  Fe  Fe39  1  0.38031382  0.12872531  0.87182562  1
  Fe  Fe40  1  0.37178913  0.62176379  0.37474037  1
  Fe  Fe41  1  -0.00199531  -0.00068641  0.24579305  1
  Fe  Fe42  1  0.86949909  0.62268560  0.62581822  1
  Fe  Fe43  1  0.50016724  0.00228038  0.25259948  1
  Fe  Fe44  1  0.75084480  0.24969374  0.24921159  1
  Fe  Fe45  1  0.49941435  0.49809826  0.24889939  1
  Fe  Fe46  1  0.62369677  0.87875131  0.87507518  1
  Fe  Fe47  1  0.37362286  0.37221325  0.62610899  1
  Fe  Fe48  1  0.12661612  0.37211996  0.12298911  1
  Fe  Fe49  1  0.24637629  0.74601419  0.49945967  1
  Fe  Fe50  1  -0.00083904  0.49883449  0.24710819  1
  Fe  Fe51  1  0.75009490  0.00336871  0.75047890  1
  Fe  Fe52  1  0.37242348  0.37475298  0.37430287  1
  Fe  Fe53  1  0.00206147  0.24670391  -0.00386451  1
  Fe  Fe54  1  0.25186765  0.75354700  -0.00158710  1
  Fe  Fe55  1  0.50213640  0.75162108  0.74814014  1
  Fe  Fe56  1  0.24849196  0.74968971  0.25062681  1
  Fe  Fe57  1  0.12285474  0.37485513  0.62647530  1
  Fe  Fe58  1  0.50110868  0.24932004  0.50113966  1
  Fe  Fe59  1  0.50243623  0.74940523  0.50019586  1
  Fe  Fe60  1  0.62546895  0.62426270  0.12375764  1
  Fe  Fe61  1  0.25034616  0.49756175  -0.00148247  1
  Fe  Fe62  1  0.62721872  0.37428633  0.12370963  1
  Fe  Fe63  1  0.87495958  0.62561333  0.37578188  1
  Fe  Fe64  1  0.62551316  0.87624808  0.12539817  1
  Fe  Fe65  1  0.12661885  0.37837578  0.37499403  1
  Fe  Fe66  1  0.62122509  0.12208382  0.62501335  1
  Fe  Fe67  1  0.87487504  0.37373227  0.87426763  1
  Fe  Fe68  1  0.37681592  0.37254707  0.87303479  1
  Fe  Fe69  1  -0.00205451  -0.00023276  0.50400633  1
  Fe  Fe70  1  0.75166362  0.00172819  0.24888843  1
  Fe  Fe71  1  0.74777037  0.74742126  0.75236019  1
  Fe  Fe72  1  0.24922945  0.50070684  0.74997613  1
  Fe  Fe73  1  0.37643018  0.62667673  0.87409891  1
  Fe  Fe74  1  0.62402582  0.12592776  0.12468628  1
  Fe  Fe75  1  0.00088872  0.24999667  0.24941759  1
  Fe  Fe76  1  -0.00242342  0.50066512  0.75034598  1
  Fe  Fe77  1  0.12284789  0.12287468  0.37596334  1
  Fe  Fe78  1  0.12819316  0.87488928  0.62569143  1
  Fe  Fe79  1  0.12410320  0.62488741  0.87455982  1
  Fe  Fe80  1  0.37394876  0.62704811  0.62650362  1
  Fe  Fe81  1  0.62449444  0.37287031  0.87553885  1
  Fe  Fe82  1  0.74951967  0.75067193  0.25137055  1
  Fe  Fe83  1  0.49774673  -0.00037728  -0.00046983  1
  Fe  Fe84  1  0.50102500  0.74954728  0.25151431  1
  Fe  Fe85  1  0.87655060  0.37243841  0.37735606  1
  Fe  Fe86  1  0.25117630  0.00116327  0.24986295  1
  Fe  Fe87  1  0.75034314  0.24474992  -0.00313081  1
  Fe  Fe88  1  0.25640547  -0.00093129  0.74914084  1
  Fe  Fe89  1  0.74977107  0.75022898  -0.00223104  1
  Co  Co90  1  0.87770949  0.12103580  0.87379444  1
  Co  Co91  1  0.24800171  0.24945306  -0.00706726  1
  Co  Co92  1  0.87213619  0.87330823  0.12413630  1
  Co  Co93  1  0.49542870  -0.00269889  0.74709522  1
  Co  Co94  1  0.37644059  0.87240154  0.87284749  1
  Co  Co95  1  0.37366788  0.86951149  0.62193667  1
  Co  Co96  1  0.75083173  0.49753445  0.49716860  1
  Co  Co97  1  0.87464427  0.37561322  0.62731346  1
  Co  Co98  1  0.62024524  0.12298729  0.87346280  1
  Co  Co99  1  -0.00291062  0.00007298  0.00426343  1
  Co  Co100  1  0.74944973  0.00281600  0.00052304  1
  Co  Co101  1  0.50052658  0.25101699  0.00124017  1
  Co  Co102  1  0.87878201  0.62656597  0.87535597  1
  Co  Co103  1  0.87603725  0.12768468  0.12441456  1
  Co  Co104  1  0.50120829  0.25037198  0.24964269  1
  Co  Co105  1  0.24747200  0.75097210  0.75272736  1
  Co  Co106  1  0.62789920  0.62261750  0.62392119  1
  Co  Co107  1  0.24910963  0.49974978  0.50492957  1
  Co  Co108  1  0.87476457  0.37287979  0.12092700  1
  Co  Co109  1  0.74995223  0.75108446  0.49995370  1
  Co  Co110  1  0.25011040  0.49922429  0.24576502  1
  Co  Co111  1  -0.00114190  -0.00201470  0.74581785  1
  Co  Co112  1  0.25707465  0.00082237  -0.00213174  1
  Co  Co113  1  0.12241286  0.37819500  0.87356757  1
  Co  Co114  1  0.61958854  0.62662740  0.87692210  1
  Co  Co115  1  0.37593297  0.87554864  0.12934894  1
  Co  Co116  1  0.12476724  0.62161650  0.37335112  1
  Co  Co117  1  0.74826996  0.50201874  0.75646517  1
  Co  Co118  1  0.37559517  0.13072793  0.62696175  1
  Co  Co119  1  0.12401748  0.62477048  0.62861833  1
  Co  Co120  1  0.50479505  0.25277602  0.74731796  1
  Co  Co121  1  0.87781425  0.12671017  0.62565333  1
  Co  Co122  1  0.62671853  0.12582951  0.37636400  1
  Co  Co123  1  0.75216476  0.00332365  0.50149789  1
  Co  Co124  1  0.12361155  0.11605911  0.87406482  1
  Co  Co125  1  0.00232943  0.24981418  0.50070772  1
  Co  Co126  1  0.24683032  0.24878228  0.25264159  1
  Co  Co127  1  0.49587655  0.00173232  0.50065239  1
