# generated using pymatgen
data_Fe45Co19
_symmetry_space_group_name_H-M   'P 1'
_cell_length_a   11.41662756
_cell_length_b   11.41552783
_cell_length_c   11.41531089
_cell_angle_alpha   89.99944417
_cell_angle_beta   89.99936154
_cell_angle_gamma   89.99057787
_symmetry_Int_Tables_number   1
_chemical_formula_structural   Fe45Co19
_chemical_formula_sum   'Fe90 Co38'
_cell_volume   1487.72125834
_cell_formula_units_Z   2
loop_
 _symmetry_equiv_pos_site_id
 _symmetry_equiv_pos_as_xyz
  1  'x, y, z'
loop_
 _atom_site_type_symbol
 _atom_site_label
 _atom_site_symmetry_multiplicity
 _atom_site_fract_x
 _atom_site_fract_y
 _atom_site_fract_z
 _atom_site_occupancy
  Fe  Fe0  1  0.87451074  0.37447220  0.87537627  1
  Fe  Fe1  1  0.37501148  0.37585973  0.62328394  1
  Fe  Fe2  1  0.24977250  0.25272704  0.75024549  1
  Fe  Fe3  1  0.87355452  0.87396592  0.12480537  1
  Fe  Fe4  1  0.74942415  0.25156340  0.74800698  1
  Fe  Fe5  1  -0.00052712  0.24901618  0.00039217  1
  Fe  Fe6  1  0.12567905  0.37699243  0.12569107  1
  Fe  Fe7  1  0.25029503  -0.00229564  0.00116858  1
  Fe  Fe8  1  0.12528771  0.62302820  0.37218109  1
  Fe  Fe9  1  0.00135899  0.25031921  0.75316124  1
  Fe  Fe10  1  0.37344367  0.12469539  0.62610708  1
  Fe  Fe11  1  0.87335377  0.12605420  0.12643215  1
  Fe  Fe12  1  0.12475059  0.87344891  0.37432340  1
  Fe  Fe13  1  0.49906937  -0.00166524  0.50097028  1
  Fe  Fe14  1  0.37926379  0.86786037  0.12003246  1
  Fe  Fe15  1  0.00242464  0.25021855  0.25219755  1
  Fe  Fe16  1  0.50215403  0.50235804  0.25022255  1
  Fe  Fe17  1  0.11936440  0.62454695  0.62640463  1
  Fe  Fe18  1  0.74916810  0.00034487  0.50174025  1
  Fe  Fe19  1  0.50366555  0.50742357  -0.00247646  1
  Fe  Fe20  1  0.37169708  0.12495686  0.37431908  1
  Fe  Fe21  1  0.12173700  0.37671937  0.62262908  1
  Fe  Fe22  1  0.00046453  0.00091026  0.25038380  1
  Fe  Fe23  1  0.37577715  0.62686788  0.62730082  1
  Fe  Fe24  1  0.74959388  0.24916216  0.50102654  1
  Fe  Fe25  1  0.12312069  0.87381528  0.87621158  1
  Fe  Fe26  1  0.75274782  0.49489143  0.74451589  1
  Fe  Fe27  1  0.12623066  0.12450294  0.87543180  1
  Fe  Fe28  1  0.87160663  0.62210463  0.87270490  1
  Fe  Fe29  1  0.74729412  0.24831327  0.25280318  1
  Fe  Fe30  1  0.25078312  -0.00304931  0.24707784  1
  Fe  Fe31  1  0.49895992  0.75148725  0.75336638  1
  Fe  Fe32  1  0.24899442  0.74790564  0.50168797  1
  Fe  Fe33  1  0.87327582  0.37726013  0.12716620  1
  Fe  Fe34  1  0.00355986  0.24783956  0.49582294  1
  Fe  Fe35  1  -0.00346586  0.50205450  0.00202222  1
  Fe  Fe36  1  0.87590934  0.87836813  0.37671052  1
  Fe  Fe37  1  0.62541701  0.37701841  0.87475600  1
  Fe  Fe38  1  0.74735372  0.00061331  0.24929485  1
  Fe  Fe39  1  -0.00353155  0.74824257  0.24954074  1
  Fe  Fe40  1  0.37443492  0.37912222  0.87723868  1
  Fe  Fe41  1  0.62359991  0.37484133  0.37784563  1
  Fe  Fe42  1  0.62495539  0.37476978  0.12375080  1
  Fe  Fe43  1  0.24805930  0.49928071  0.74757358  1
  Fe  Fe44  1  0.24978514  0.74842268  0.24707906  1
  Fe  Fe45  1  0.49865893  -0.00268224  0.74995709  1
  Fe  Fe46  1  0.75388186  0.75327949  0.74740502  1
  Fe  Fe47  1  0.62263458  0.12506351  0.62464974  1
  Fe  Fe48  1  0.62451761  0.87052014  0.12103610  1
  Fe  Fe49  1  0.50128774  -0.00064578  0.24779224  1
  Fe  Fe50  1  -0.00414908  0.74624607  0.00011268  1
  Fe  Fe51  1  0.12558614  0.12504592  0.12632124  1
  Fe  Fe52  1  0.75235462  0.75169381  0.50196169  1
  Fe  Fe53  1  0.37377397  0.87305686  0.37555360  1
  Fe  Fe54  1  -0.00259494  0.74825289  0.49978933  1
  Fe  Fe55  1  0.62472187  0.87577760  0.87744127  1
  Fe  Fe56  1  0.37526420  0.12512696  0.12423070  1
  Fe  Fe57  1  0.50044513  0.50012969  0.75025193  1
  Fe  Fe58  1  0.63149767  0.62946290  0.12603709  1
  Fe  Fe59  1  0.37337207  0.12259377  0.87508973  1
  Fe  Fe60  1  0.25131487  0.50569445  0.00468198  1
  Fe  Fe61  1  -0.00224447  0.00280135  -0.00056649  1
  Fe  Fe62  1  0.24662874  -0.00076970  0.50306635  1
  Fe  Fe63  1  0.62574881  0.12350975  0.87760699  1
  Fe  Fe64  1  0.12260679  0.87163410  0.12309521  1
  Fe  Fe65  1  0.62472939  0.87548183  0.37624502  1
  Fe  Fe66  1  0.50036919  0.75084108  0.50016454  1
  Fe  Fe67  1  0.75193602  0.49814453  0.50328805  1
  Fe  Fe68  1  0.62625598  0.62636879  0.62678310  1
  Fe  Fe69  1  0.49945991  0.24938680  0.25137173  1
  Fe  Fe70  1  0.75107489  0.00008669  0.74904094  1
  Fe  Fe71  1  0.87689495  0.87849947  0.87401366  1
  Fe  Fe72  1  0.13172644  0.37853145  0.37432344  1
  Fe  Fe73  1  0.49836129  0.50094933  0.50049054  1
  Fe  Fe74  1  0.37726374  0.37784981  0.12530524  1
  Fe  Fe75  1  0.49950838  0.25106407  0.75153378  1
  Fe  Fe76  1  0.87817243  0.12547165  0.62591591  1
  Fe  Fe77  1  0.25071797  0.25034412  0.00093470  1
  Fe  Fe78  1  0.49938694  0.24866303  -0.00164519  1
  Fe  Fe79  1  0.87446836  0.37505016  0.37507747  1
  Fe  Fe80  1  0.12525616  0.62474332  0.87512496  1
  Fe  Fe81  1  0.12554431  0.37766121  0.87870902  1
  Fe  Fe82  1  0.00432479  0.00220816  0.50125372  1
  Fe  Fe83  1  0.62773994  0.62615276  0.37613335  1
  Fe  Fe84  1  0.37458248  0.62463183  0.37307441  1
  Fe  Fe85  1  0.75020504  0.24983819  -0.00055103  1
  Fe  Fe86  1  0.87256320  0.62198853  0.37197946  1
  Fe  Fe87  1  0.24760528  -0.00385994  0.74787671  1
  Fe  Fe88  1  0.24935542  0.75252933  0.75066469  1
  Fe  Fe89  1  0.49701915  0.25052699  0.49889064  1
  Co  Co90  1  0.62406310  0.87367541  0.62520988  1
  Co  Co91  1  0.37531022  0.87523933  0.87838885  1
  Co  Co92  1  0.00213889  0.00123667  0.75007972  1
  Co  Co93  1  0.63211440  0.62379908  0.86783954  1
  Co  Co94  1  0.62187772  0.37476729  0.62347212  1
  Co  Co95  1  0.00022071  0.49891262  0.25051990  1
  Co  Co96  1  0.88148433  0.37211546  0.62307798  1
  Co  Co97  1  0.12065177  0.87013047  0.62483897  1
  Co  Co98  1  0.25065858  0.50324038  0.50289675  1
  Co  Co99  1  0.50269310  0.74988888  0.25322628  1
  Co  Co100  1  0.87702276  0.62346937  0.62583392  1
  Co  Co101  1  0.75143321  0.75441069  0.25367978  1
  Co  Co102  1  0.24930956  0.74799872  -0.00006323  1
  Co  Co103  1  0.74681077  0.49719575  0.25168303  1
  Co  Co104  1  0.87397373  0.12591018  0.87390102  1
  Co  Co105  1  0.12473477  0.12828816  0.62781416  1
  Co  Co106  1  0.74922781  0.49995561  0.00038168  1
  Co  Co107  1  0.37912397  0.62936497  0.12562773  1
  Co  Co108  1  0.62641018  0.12671895  0.12322112  1
  Co  Co109  1  0.37429374  0.87306287  0.62339396  1
  Co  Co110  1  0.87495901  0.12321630  0.37483956  1
  Co  Co111  1  0.25178799  0.50352799  0.24622072  1
  Co  Co112  1  0.12120683  0.62611223  0.12558382  1
  Co  Co113  1  0.37072214  0.62341478  0.87197572  1
  Co  Co114  1  0.50264482  0.74262518  -0.00745875  1
  Co  Co115  1  0.75150930  -0.00064282  0.00095159  1
  Co  Co116  1  0.37259480  0.37772211  0.37391900  1
  Co  Co117  1  -0.00089260  0.50066883  0.49608866  1
  Co  Co118  1  0.87929386  0.87719355  0.62391020  1
  Co  Co119  1  -0.00290677  0.74887623  0.75263946  1
  Co  Co120  1  0.50027649  0.00077687  0.00172943  1
  Co  Co121  1  0.24975292  0.24976767  0.50128751  1
  Co  Co122  1  0.25120222  0.25139015  0.24761955  1
  Co  Co123  1  0.75253875  0.75006250  -0.00351656  1
  Co  Co124  1  -0.00071462  0.49848593  0.75302411  1
  Co  Co125  1  0.62332505  0.12447521  0.37650010  1
  Co  Co126  1  0.12960857  0.12316237  0.37075861  1
  Co  Co127  1  0.87032419  0.62348408  0.12886557  1
