# generated using pymatgen
data_Fe45Co19
_symmetry_space_group_name_H-M   'P 1'
_cell_length_a   11.41505340
_cell_length_b   11.41598623
_cell_length_c   11.41631981
_cell_angle_alpha   90.00253036
_cell_angle_beta   89.98637577
_cell_angle_gamma   89.99575709
_symmetry_Int_Tables_number   1
_chemical_formula_structural   Fe45Co19
_chemical_formula_sum   'Fe90 Co38'
_cell_volume   1487.70730752
_cell_formula_units_Z   2
loop_
 _symmetry_equiv_pos_site_id
 _symmetry_equiv_pos_as_xyz
  1  'x, y, z'
loop_
 _atom_site_type_symbol
 _atom_site_label
 _atom_site_symmetry_multiplicity
 _atom_site_fract_x
 _atom_site_fract_y
 _atom_site_fract_z
 _atom_site_occupancy
  Fe  Fe0  1  0.24799457  0.74814025  0.25141939  1
  Fe  Fe1  1  0.37455991  0.87607613  0.37578824  1
  Fe  Fe2  1  0.62578503  0.37397306  0.87664709  1
  Fe  Fe3  1  0.62375314  0.37881299  0.37775445  1
  Fe  Fe4  1  0.62402362  0.87173563  0.62335972  1
  Fe  Fe5  1  0.49810232  0.49908447  0.75043167  1
  Fe  Fe6  1  0.49822579  0.75162093  0.75466584  1
  Fe  Fe7  1  -0.00128056  0.50094876  0.75259606  1
  Fe  Fe8  1  0.62655597  0.87288352  0.37298423  1
  Fe  Fe9  1  0.25126170  0.49443097  0.50548990  1
  Fe  Fe10  1  0.12752008  0.62190586  0.87694559  1
  Fe  Fe11  1  0.00106946  0.25107265  0.25170789  1
  Fe  Fe12  1  0.00022152  0.74748747  0.49696281  1
  Fe  Fe13  1  0.12723833  0.12633503  0.62060278  1
  Fe  Fe14  1  0.87576852  0.37530839  0.62628474  1
  Fe  Fe15  1  0.74960777  -0.00224037  0.74888386  1
  Fe  Fe16  1  0.87507340  0.12502731  0.37201553  1
  Fe  Fe17  1  0.12383596  0.87358151  0.12694801  1
  Fe  Fe18  1  0.74981307  0.24973155  0.75038779  1
  Fe  Fe19  1  0.75045951  -0.00149152  0.50073628  1
  Fe  Fe20  1  0.50196659  0.74611311  0.49524300  1
  Fe  Fe21  1  0.24842673  0.49905774  0.24756173  1
  Fe  Fe22  1  -0.00033265  0.00066549  0.00098898  1
  Fe  Fe23  1  0.12930679  0.37865414  0.87470787  1
  Fe  Fe24  1  0.37565989  0.62645056  0.62595290  1
  Fe  Fe25  1  0.12402209  0.62410292  0.62362957  1
  Fe  Fe26  1  0.87323931  0.62861669  0.62843641  1
  Fe  Fe27  1  0.12187911  0.62439430  0.12305547  1
  Fe  Fe28  1  0.37309816  0.12769435  0.61881365  1
  Fe  Fe29  1  0.12814619  0.12385007  0.87417360  1
  Fe  Fe30  1  0.62149148  0.62825517  0.12461246  1
  Fe  Fe31  1  0.49961459  0.25108515  0.25416463  1
  Fe  Fe32  1  0.25056626  0.25381969  0.74554038  1
  Fe  Fe33  1  0.87504250  0.37747454  0.37522673  1
  Fe  Fe34  1  0.62298764  0.37180459  0.12331765  1
  Fe  Fe35  1  -0.00018911  0.25013011  0.49995805  1
  Fe  Fe36  1  0.75015788  0.74945648  -0.00111765  1
  Fe  Fe37  1  0.37546894  0.87205946  0.12541463  1
  Fe  Fe38  1  0.25118857  0.25080829  0.25603346  1
  Fe  Fe39  1  0.62367815  0.62425650  0.87691604  1
  Fe  Fe40  1  0.75098821  0.00163381  0.00415537  1
  Fe  Fe41  1  0.12637622  0.87633510  0.87419682  1
  Fe  Fe42  1  0.50015377  0.50168253  0.25037872  1
  Fe  Fe43  1  0.49749228  -0.00044876  0.74820442  1
  Fe  Fe44  1  0.00009951  0.24948834  0.75247446  1
  Fe  Fe45  1  0.87640609  0.37387301  0.12424171  1
  Fe  Fe46  1  0.62604209  0.12434263  0.37341774  1
  Fe  Fe47  1  0.74944767  0.49845278  0.24730527  1
  Fe  Fe48  1  0.62624118  0.62749619  0.62596749  1
  Fe  Fe49  1  0.62249762  0.37507420  0.62265821  1
  Fe  Fe50  1  0.37334915  0.12361445  0.87457728  1
  Fe  Fe51  1  0.75048123  0.50079068  0.75195251  1
  Fe  Fe52  1  0.12349453  0.12690437  0.12623355  1
  Fe  Fe53  1  0.49913318  0.24970016  0.75179776  1
  Fe  Fe54  1  0.87966112  0.62523790  0.12410251  1
  Fe  Fe55  1  0.24889641  0.00223721  0.25095757  1
  Fe  Fe56  1  0.87665078  0.87261622  0.87301537  1
  Fe  Fe57  1  0.00015774  0.00055542  0.49995598  1
  Fe  Fe58  1  0.74927625  0.24994125  0.49900342  1
  Fe  Fe59  1  0.25359450  0.25200507  0.00057627  1
  Fe  Fe60  1  0.87605987  0.87059770  0.62647938  1
  Fe  Fe61  1  0.12232396  0.37957616  0.37788660  1
  Fe  Fe62  1  0.75201894  0.24659284  0.00028629  1
  Fe  Fe63  1  0.49979585  -0.00043620  0.00341265  1
  Fe  Fe64  1  0.37648165  0.12771133  0.12754729  1
  Fe  Fe65  1  -0.00031044  0.25015213  -0.00402466  1
  Fe  Fe66  1  0.74974261  0.50260945  0.50186312  1
  Fe  Fe67  1  0.12453035  0.87651145  0.37511351  1
  Fe  Fe68  1  0.62485957  0.12372571  0.87676883  1
  Fe  Fe69  1  0.24874384  0.75213316  0.50075248  1
  Fe  Fe70  1  0.74920073  0.00215455  0.24556028  1
  Fe  Fe71  1  0.50132192  -0.00171745  0.24777123  1
  Fe  Fe72  1  0.74992015  0.74808667  0.24991843  1
  Fe  Fe73  1  0.25178080  -0.00355494  0.74414989  1
  Fe  Fe74  1  0.37681387  0.62698920  0.12479055  1
  Fe  Fe75  1  0.87380581  0.12513595  0.62646874  1
  Fe  Fe76  1  0.75213098  0.50095135  -0.00002719  1
  Fe  Fe77  1  0.00162500  0.00084791  0.74878270  1
  Fe  Fe78  1  0.50041472  0.00081012  0.50007178  1
  Fe  Fe79  1  0.87513262  0.62245770  0.37276907  1
  Fe  Fe80  1  0.25017658  0.75220026  0.74933271  1
  Fe  Fe81  1  0.62579389  0.12557838  0.62469892  1
  Fe  Fe82  1  0.87790006  0.87283255  0.12729534  1
  Fe  Fe83  1  0.62391744  0.87662096  0.87772442  1
  Fe  Fe84  1  0.49449053  0.49678440  -0.00087315  1
  Fe  Fe85  1  0.87545859  0.87534111  0.37284520  1
  Fe  Fe86  1  0.37177192  0.62157358  0.37581188  1
  Fe  Fe87  1  0.25128463  0.74941934  -0.00123531  1
  Fe  Fe88  1  0.12502512  0.37542089  0.12368513  1
  Fe  Fe89  1  0.25032272  0.00023502  0.00283648  1
  Co  Co90  1  0.00236666  0.00060079  0.24928214  1
  Co  Co91  1  0.37006753  0.37743022  0.87186821  1
  Co  Co92  1  0.50122711  0.50599062  0.50172351  1
  Co  Co93  1  0.87436850  0.12303382  0.87340755  1
  Co  Co94  1  0.37514627  0.37345621  0.12919892  1
  Co  Co95  1  0.00317113  0.74719533  0.25368832  1
  Co  Co96  1  0.75067577  0.74897624  0.49754526  1
  Co  Co97  1  0.74855967  0.25225184  0.25136460  1
  Co  Co98  1  -0.00121679  0.49767915  -0.00233908  1
  Co  Co99  1  0.87779579  0.12796336  0.12734163  1
  Co  Co100  1  0.74584160  0.75106834  0.75333015  1
  Co  Co101  1  0.37851993  0.87226243  0.62139722  1
  Co  Co102  1  0.00158268  0.50049822  0.24871883  1
  Co  Co103  1  0.12230193  0.87459936  0.62329564  1
  Co  Co104  1  0.38122075  0.37309790  0.62315156  1
  Co  Co105  1  0.12814661  0.62018338  0.37829390  1
  Co  Co106  1  0.00185217  0.75163957  -0.00144207  1
  Co  Co107  1  0.49473596  0.25212615  -0.00363942  1
  Co  Co108  1  0.11941818  0.37521947  0.62551385  1
  Co  Co109  1  0.37190232  0.62248901  0.87390940  1
  Co  Co110  1  0.25071258  0.49908055  0.74371691  1
  Co  Co111  1  0.24962926  0.25572959  0.49683230  1
  Co  Co112  1  0.37456817  0.12224500  0.37647076  1
  Co  Co113  1  0.24917411  -0.00221214  0.50032763  1
  Co  Co114  1  -0.00352040  0.50307089  0.50194237  1
  Co  Co115  1  0.00500696  0.74755092  0.75133487  1
  Co  Co116  1  0.87510117  0.62762498  0.87488773  1
  Co  Co117  1  0.37811946  0.38043857  0.37717503  1
  Co  Co118  1  0.37299216  0.87747565  0.87633437  1
  Co  Co119  1  0.50056850  0.24806584  0.49678441  1
  Co  Co120  1  0.62798766  0.62325933  0.37209211  1
  Co  Co121  1  0.62247936  0.13003534  0.12464031  1
  Co  Co122  1  0.62502328  0.86972710  0.12555373  1
  Co  Co123  1  0.87221749  0.37441667  0.87467354  1
  Co  Co124  1  0.25340226  0.49964790  0.00467516  1
  Co  Co125  1  0.12496906  0.12442185  0.37718770  1
  Co  Co126  1  0.49818782  0.74885518  0.25427822  1
  Co  Co127  1  0.49771533  0.75075767  -0.00339367  1
