# generated using pymatgen
data_Fe45Co19
_symmetry_space_group_name_H-M   'P 1'
_cell_length_a   11.41527259
_cell_length_b   11.41433522
_cell_length_c   11.41458628
_cell_angle_alpha   90.01164087
_cell_angle_beta   90.00264968
_cell_angle_gamma   89.99294928
_symmetry_Int_Tables_number   1
_chemical_formula_structural   Fe45Co19
_chemical_formula_sum   'Fe90 Co38'
_cell_volume   1487.29484396
_cell_formula_units_Z   2
loop_
 _symmetry_equiv_pos_site_id
 _symmetry_equiv_pos_as_xyz
  1  'x, y, z'
loop_
 _atom_site_type_symbol
 _atom_site_label
 _atom_site_symmetry_multiplicity
 _atom_site_fract_x
 _atom_site_fract_y
 _atom_site_fract_z
 _atom_site_occupancy
  Fe  Fe0  1  -0.00147111  0.50126583  0.50157493  1
  Fe  Fe1  1  0.62676368  0.12494551  0.12454219  1
  Fe  Fe2  1  0.49839186  0.00018001  0.24923381  1
  Fe  Fe3  1  0.88027932  0.87618182  0.87669472  1
  Fe  Fe4  1  0.13066219  0.12560262  0.87789795  1
  Fe  Fe5  1  0.87907329  0.88320168  0.62459246  1
  Fe  Fe6  1  0.24888288  0.75045850  0.25273149  1
  Fe  Fe7  1  0.24657801  0.25158270  0.50174781  1
  Fe  Fe8  1  0.87539857  0.12350537  0.87993250  1
  Fe  Fe9  1  0.75069635  0.50005765  0.49975981  1
  Fe  Fe10  1  0.75320801  0.75198132  0.50212684  1
  Fe  Fe11  1  0.75331593  0.24793843  0.75264764  1
  Fe  Fe12  1  0.62479817  0.87418115  0.37349429  1
  Fe  Fe13  1  0.12578658  0.62624099  0.87262233  1
  Fe  Fe14  1  0.62398297  0.12243992  0.87472575  1
  Fe  Fe15  1  0.37279817  0.87430845  0.12453380  1
  Fe  Fe16  1  0.62612696  0.37469894  0.87685617  1
  Fe  Fe17  1  0.12207253  0.37447319  0.37600115  1
  Fe  Fe18  1  0.24980533  0.75511998  0.74636799  1
  Fe  Fe19  1  0.12519449  0.62505828  0.62239404  1
  Fe  Fe20  1  0.62647458  0.62621677  0.87330736  1
  Fe  Fe21  1  -0.00279412  0.50138107  0.24700272  1
  Fe  Fe22  1  0.75142873  0.24753872  0.50119376  1
  Fe  Fe23  1  0.75069820  0.24925177  0.24770812  1
  Fe  Fe24  1  0.37284706  0.62667342  0.87468036  1
  Fe  Fe25  1  0.24907891  0.49895307  0.74784893  1
  Fe  Fe26  1  0.12323373  0.12098724  0.62529046  1
  Fe  Fe27  1  0.12394662  0.87341887  0.38020319  1
  Fe  Fe28  1  0.37395503  0.62424966  0.62369780  1
  Fe  Fe29  1  0.75168410  -0.00226666  0.24840696  1
  Fe  Fe30  1  0.24562084  0.75380407  -0.00218840  1
  Fe  Fe31  1  0.00188561  0.00074997  0.24818131  1
  Fe  Fe32  1  0.75128825  0.49795529  0.75046497  1
  Fe  Fe33  1  0.37354893  0.62347340  0.37576232  1
  Fe  Fe34  1  0.50020207  0.24806775  0.74973350  1
  Fe  Fe35  1  -0.00091542  0.50060008  0.75072335  1
  Fe  Fe36  1  0.24765016  -0.00096399  0.25012836  1
  Fe  Fe37  1  0.24856319  0.49852913  -0.00007511  1
  Fe  Fe38  1  0.37339176  0.37348816  0.87219577  1
  Fe  Fe39  1  0.49984799  0.50057001  0.75072282  1
  Fe  Fe40  1  0.88004291  0.87097837  0.12328447  1
  Fe  Fe41  1  0.50125485  0.74796986  0.00082790  1
  Fe  Fe42  1  0.37443284  0.37469571  0.12626849  1
  Fe  Fe43  1  0.62811439  0.62713912  0.37059418  1
  Fe  Fe44  1  0.50137845  0.50167160  0.00139090  1
  Fe  Fe45  1  0.25311961  -0.00416307  0.75223717  1
  Fe  Fe46  1  0.87741506  0.87572487  0.37612442  1
  Fe  Fe47  1  -0.00059745  0.24708455  0.24658084  1
  Fe  Fe48  1  0.37443516  0.12371879  0.62521400  1
  Fe  Fe49  1  0.87396460  0.37113919  0.12086577  1
  Fe  Fe50  1  0.49833347  0.24934160  -0.00051352  1
  Fe  Fe51  1  0.24794528  0.49894809  0.25070587  1
  Fe  Fe52  1  0.62545536  0.37420275  0.62460369  1
  Fe  Fe53  1  0.49879587  0.24836977  0.24892789  1
  Fe  Fe54  1  0.87591478  0.37382482  0.37527004  1
  Fe  Fe55  1  0.37319826  0.62627811  0.12536728  1
  Fe  Fe56  1  0.62500742  0.87855223  0.62658866  1
  Fe  Fe57  1  0.12498328  0.37138212  0.12555745  1
  Fe  Fe58  1  0.62767855  0.62566041  0.62617116  1
  Fe  Fe59  1  0.37634619  0.37423795  0.37697832  1
  Fe  Fe60  1  -0.00092248  0.24702507  0.75153363  1
  Fe  Fe61  1  0.62568619  0.12464238  0.37379471  1
  Fe  Fe62  1  0.37500133  0.37464590  0.62448956  1
  Fe  Fe63  1  0.00034525  0.50083101  0.00021114  1
  Fe  Fe64  1  0.50169230  0.50077928  0.50003134  1
  Fe  Fe65  1  0.49595785  0.00125538  -0.00090710  1
  Fe  Fe66  1  0.37410215  0.87662969  0.37842036  1
  Fe  Fe67  1  0.50302538  0.50094121  0.24800584  1
  Fe  Fe68  1  0.12496485  0.12659641  0.37317280  1
  Fe  Fe69  1  0.62185311  0.87663847  0.87341038  1
  Fe  Fe70  1  0.12474154  0.37350536  0.87317750  1
  Fe  Fe71  1  0.74895825  0.50246253  0.00419627  1
  Fe  Fe72  1  0.87443526  0.12439062  0.37474705  1
  Fe  Fe73  1  0.00682602  0.00137489  0.00310470  1
  Fe  Fe74  1  0.49808893  0.75138722  0.74825778  1
  Fe  Fe75  1  0.75304201  0.75427781  0.75064062  1
  Fe  Fe76  1  0.49937352  0.74952240  0.49943695  1
  Fe  Fe77  1  -0.00002508  0.75033755  0.74702362  1
  Fe  Fe78  1  0.62812265  0.12183018  0.62735240  1
  Fe  Fe79  1  0.37391087  0.12567339  0.37644633  1
  Fe  Fe80  1  0.36832531  0.12507643  0.12328556  1
  Fe  Fe81  1  0.62372961  0.87210181  0.12688035  1
  Fe  Fe82  1  0.62513396  0.37342979  0.37408825  1
  Fe  Fe83  1  0.87772710  0.37324129  0.62537974  1
  Fe  Fe84  1  0.74976863  -0.00295710  0.00053373  1
  Fe  Fe85  1  0.87408918  0.62523778  0.37294241  1
  Fe  Fe86  1  0.87449984  0.62557818  0.87616644  1
  Fe  Fe87  1  0.12421681  0.62527635  0.37780559  1
  Fe  Fe88  1  0.12354608  0.62800061  0.12586394  1
  Fe  Fe89  1  0.50176740  0.00183772  0.50022224  1
  Co  Co90  1  0.75172956  0.49815229  0.24628164  1
  Co  Co91  1  0.87447118  0.12219244  0.62384806  1
  Co  Co92  1  0.62662958  0.62958270  0.12920727  1
  Co  Co93  1  0.87342363  0.62285058  0.62710635  1
  Co  Co94  1  0.24717266  0.24974387  0.74594142  1
  Co  Co95  1  0.13041003  0.12716058  0.12455410  1
  Co  Co96  1  0.37133149  0.12679889  0.87514897  1
  Co  Co97  1  0.49538258  0.00028003  0.75095079  1
  Co  Co98  1  0.24872871  0.49690084  0.50030325  1
  Co  Co99  1  0.12187779  0.87557602  0.87065815  1
  Co  Co100  1  0.37740613  0.87258365  0.87679752  1
  Co  Co101  1  0.00240205  0.24829619  -0.00119738  1
  Co  Co102  1  0.87538042  0.37607951  0.87726802  1
  Co  Co103  1  -0.00318526  0.74915950  0.50320516  1
  Co  Co104  1  0.50087524  0.24766038  0.50186830  1
  Co  Co105  1  0.00048255  0.00498527  0.75391613  1
  Co  Co106  1  0.49563038  0.75099125  0.25123959  1
  Co  Co107  1  0.12415910  0.87279189  0.12727622  1
  Co  Co108  1  0.25034964  0.75031864  0.50188968  1
  Co  Co109  1  0.12013789  0.37672483  0.62571448  1
  Co  Co110  1  0.25034453  0.25220683  0.25317415  1
  Co  Co111  1  0.00104168  0.24651689  0.50155218  1
  Co  Co112  1  -0.00001460  0.00361854  0.49594151  1
  Co  Co113  1  0.75415546  0.75316279  0.24954629  1
  Co  Co114  1  0.87435852  0.12365845  0.12303073  1
  Co  Co115  1  0.75276942  -0.00022791  0.75429569  1
  Co  Co116  1  0.62561669  0.37157418  0.12444277  1
  Co  Co117  1  0.24835560  -0.00525475  -0.00212049  1
  Co  Co118  1  0.87596218  0.63024839  0.12341542  1
  Co  Co119  1  0.74958990  -0.00008506  0.49756653  1
  Co  Co120  1  0.00136990  0.74952571  0.25351471  1
  Co  Co121  1  0.00397176  0.74885594  -0.00295231  1
  Co  Co122  1  0.12150495  0.87929198  0.62341869  1
  Co  Co123  1  0.74882587  0.75212593  -0.00260865  1
  Co  Co124  1  0.25068402  0.25434553  -0.00051111  1
  Co  Co125  1  0.37604900  0.87749225  0.62101522  1
  Co  Co126  1  0.24850148  0.00228166  0.49940769  1
  Co  Co127  1  0.74893520  0.24740674  -0.00233205  1
