# generated using pymatgen
data_Fe45Co19
_symmetry_space_group_name_H-M   'P 1'
_cell_length_a   11.40643744
_cell_length_b   11.40848936
_cell_length_c   11.40810632
_cell_angle_alpha   89.99285349
_cell_angle_beta   90.00050365
_cell_angle_gamma   89.99936548
_symmetry_Int_Tables_number   1
_chemical_formula_structural   Fe45Co19
_chemical_formula_sum   'Fe90 Co38'
_cell_volume   1484.53937502
_cell_formula_units_Z   2
loop_
 _symmetry_equiv_pos_site_id
 _symmetry_equiv_pos_as_xyz
  1  'x, y, z'
loop_
 _atom_site_type_symbol
 _atom_site_label
 _atom_site_symmetry_multiplicity
 _atom_site_fract_x
 _atom_site_fract_y
 _atom_site_fract_z
 _atom_site_occupancy
  Fe  Fe0  1  0.49970703  0.74905297  0.75025836  1
  Fe  Fe1  1  0.12390804  0.62354288  0.87672118  1
  Fe  Fe2  1  0.62343834  0.62585123  0.37499529  1
  Fe  Fe3  1  0.74936568  0.75070905  0.24890567  1
  Fe  Fe4  1  0.49693964  0.49412312  0.00326258  1
  Fe  Fe5  1  0.87358354  0.37582523  0.62479554  1
  Fe  Fe6  1  0.00155275  0.00118321  0.74998579  1
  Fe  Fe7  1  0.87151782  0.62180746  0.12296132  1
  Fe  Fe8  1  0.87614792  0.87615857  0.62666208  1
  Fe  Fe9  1  0.25233344  0.75120229  -0.00108063  1
  Fe  Fe10  1  0.24478066  0.24738180  0.25378704  1
  Fe  Fe11  1  0.88049790  0.37138715  0.37458883  1
  Fe  Fe12  1  0.62630259  0.12969739  0.12483998  1
  Fe  Fe13  1  0.12964307  0.37967587  0.62538424  1
  Fe  Fe14  1  0.25043407  -0.00028249  0.75305894  1
  Fe  Fe15  1  0.12797681  0.62899043  0.62399418  1
  Fe  Fe16  1  0.50130332  0.00200510  0.24919357  1
  Fe  Fe17  1  -0.00276735  0.74761455  0.75207853  1
  Fe  Fe18  1  0.62443909  0.62396685  0.12476584  1
  Fe  Fe19  1  0.49811832  0.49866355  0.50274754  1
  Fe  Fe20  1  0.00258533  0.25023162  0.74647767  1
  Fe  Fe21  1  0.62284988  0.37136117  0.37649432  1
  Fe  Fe22  1  0.61863228  0.37034756  0.86968557  1
  Fe  Fe23  1  0.23918372  -0.00190411  0.25055436  1
  Fe  Fe24  1  0.24225521  -0.01002125  0.49669222  1
  Fe  Fe25  1  0.62635707  0.87539875  0.37346820  1
  Fe  Fe26  1  0.37455585  0.87422827  0.12832806  1
  Fe  Fe27  1  0.74889311  0.49739478  0.25249298  1
  Fe  Fe28  1  0.49818648  0.49914677  0.24848449  1
  Fe  Fe29  1  0.00133432  0.50201339  0.24932331  1
  Fe  Fe30  1  0.62393030  0.12707207  0.37901256  1
  Fe  Fe31  1  0.62659763  0.87702894  0.62583549  1
  Fe  Fe32  1  0.87691470  0.12581256  0.62126025  1
  Fe  Fe33  1  0.12603832  0.37617759  0.87309280  1
  Fe  Fe34  1  0.87367369  0.37221005  0.12793043  1
  Fe  Fe35  1  0.37262530  0.62651789  0.62295876  1
  Fe  Fe36  1  0.62561595  0.36916167  0.12795164  1
  Fe  Fe37  1  0.75101456  0.00139461  0.75209812  1
  Fe  Fe38  1  0.87672488  0.87801601  0.12788439  1
  Fe  Fe39  1  0.37880737  0.37202007  0.86868027  1
  Fe  Fe40  1  0.25121902  0.50408300  0.25058010  1
  Fe  Fe41  1  0.37209380  0.87455632  0.62824090  1
  Fe  Fe42  1  0.87647275  0.12805088  0.12677143  1
  Fe  Fe43  1  0.37179195  0.12664634  0.12634511  1
  Fe  Fe44  1  0.25050873  -0.00224498  -0.00060242  1
  Fe  Fe45  1  0.00033834  0.25220365  0.00074973  1
  Fe  Fe46  1  0.74949201  0.49758923  0.49800272  1
  Fe  Fe47  1  0.87389150  0.62282539  0.62624669  1
  Fe  Fe48  1  0.49850179  0.00118218  0.00203024  1
  Fe  Fe49  1  0.75511190  -0.00032307  0.49643141  1
  Fe  Fe50  1  0.25270073  0.24638644  0.74755365  1
  Fe  Fe51  1  0.75138046  0.75012325  0.75347058  1
  Fe  Fe52  1  0.74778032  0.50027265  0.75188270  1
  Fe  Fe53  1  0.24717410  0.25315551  0.49892012  1
  Fe  Fe54  1  0.74998796  0.00203828  -0.00086842  1
  Fe  Fe55  1  0.49912630  0.75323656  0.49991999  1
  Fe  Fe56  1  0.75095959  0.75227517  -0.00121670  1
  Fe  Fe57  1  0.87629598  0.12693586  0.87504804  1
  Fe  Fe58  1  0.12591253  0.12193180  0.62097311  1
  Fe  Fe59  1  0.49881779  0.24916133  0.50831820  1
  Fe  Fe60  1  0.62583702  0.62462897  0.62378550  1
  Fe  Fe61  1  0.74783561  0.49483327  -0.00181873  1
  Fe  Fe62  1  0.12792035  0.62516852  0.12136972  1
  Fe  Fe63  1  -0.00443982  0.74903879  -0.00067904  1
  Fe  Fe64  1  0.37418672  0.37454240  0.37543277  1
  Fe  Fe65  1  0.12658450  0.12692891  0.87747440  1
  Fe  Fe66  1  0.62362572  0.62423754  0.87747229  1
  Fe  Fe67  1  0.37575967  0.62901074  0.37345271  1
  Fe  Fe68  1  0.12467232  0.63083875  0.37732699  1
  Fe  Fe69  1  0.62311986  0.87766295  0.87501094  1
  Fe  Fe70  1  0.74808501  0.24824062  0.74688172  1
  Fe  Fe71  1  0.75190557  0.00365394  0.25238388  1
  Fe  Fe72  1  0.49660702  0.00561604  0.74842712  1
  Fe  Fe73  1  0.37782642  0.62518017  0.87882414  1
  Fe  Fe74  1  0.88524797  0.12808075  0.37661893  1
  Fe  Fe75  1  -0.00034677  0.49799162  -0.00040130  1
  Fe  Fe76  1  0.49878805  -0.00188924  0.50089273  1
  Fe  Fe77  1  0.12372261  0.87330945  0.87460485  1
  Fe  Fe78  1  0.12813290  0.37659608  0.12586690  1
  Fe  Fe79  1  0.00111669  0.00122675  0.00146812  1
  Fe  Fe80  1  0.37457284  0.87358944  0.36980844  1
  Fe  Fe81  1  0.62093498  0.12852830  0.87537910  1
  Fe  Fe82  1  0.75247580  0.75222924  0.49930293  1
  Fe  Fe83  1  0.87624113  0.62714248  0.37467225  1
  Fe  Fe84  1  0.37169559  0.12287000  0.37774754  1
  Fe  Fe85  1  0.00238799  0.50056080  0.50088948  1
  Fe  Fe86  1  0.50121266  0.75344266  0.00365106  1
  Fe  Fe87  1  0.25225850  0.50385302  0.75195109  1
  Fe  Fe88  1  0.87605010  0.37565659  0.87187501  1
  Fe  Fe89  1  0.25331292  0.25372979  -0.00094780  1
  Co  Co90  1  0.62503149  0.37698565  0.62642513  1
  Co  Co91  1  0.75042646  0.25113649  -0.00281727  1
  Co  Co92  1  0.00507050  0.25515437  0.50477715  1
  Co  Co93  1  0.87411873  0.62011925  0.87629060  1
  Co  Co94  1  0.49658000  0.25180584  0.00335893  1
  Co  Co95  1  0.49834907  0.50402622  0.74773699  1
  Co  Co96  1  0.00212032  -0.00663138  0.50098632  1
  Co  Co97  1  0.12479033  0.87057967  0.63088020  1
  Co  Co98  1  0.12043328  0.12500853  0.38064807  1
  Co  Co99  1  0.37713024  0.87551966  0.87441975  1
  Co  Co100  1  0.25046789  0.50231301  0.49729013  1
  Co  Co101  1  0.25474293  0.49727315  -0.00183993  1
  Co  Co102  1  0.49727027  0.24272057  0.73986288  1
  Co  Co103  1  0.37167079  0.37764408  0.62607597  1
  Co  Co104  1  0.37559473  0.12733551  0.87752816  1
  Co  Co105  1  -0.00099876  0.74552090  0.24390747  1
  Co  Co106  1  0.12775294  0.12807703  0.11936457  1
  Co  Co107  1  0.75059507  0.24772961  0.25511790  1
  Co  Co108  1  0.62893135  0.11975685  0.62195805  1
  Co  Co109  1  0.37122718  0.37242735  0.13110401  1
  Co  Co110  1  0.88048349  0.87372464  0.36943406  1
  Co  Co111  1  0.00701233  0.00286495  0.24784968  1
  Co  Co112  1  0.00615534  0.24876050  0.24714302  1
  Co  Co113  1  0.11635755  0.86663571  0.37185903  1
  Co  Co114  1  0.36735230  0.11994992  0.61774293  1
  Co  Co115  1  0.12258339  0.87120551  0.12177857  1
  Co  Co116  1  0.74999553  0.25018901  0.49986084  1
  Co  Co117  1  -0.00341187  0.75071254  0.50422782  1
  Co  Co118  1  0.00201144  0.50089754  0.74811971  1
  Co  Co119  1  0.62766248  0.87782490  0.12633168  1
  Co  Co120  1  0.37589635  0.62674992  0.12437315  1
  Co  Co121  1  0.25178161  0.75500529  0.49835643  1
  Co  Co122  1  0.25211322  0.74794118  0.75416473  1
  Co  Co123  1  0.87648957  0.87787550  0.87559938  1
  Co  Co124  1  0.50279730  0.75095747  0.24844633  1
  Co  Co125  1  0.12415727  0.37848075  0.37311136  1
  Co  Co126  1  0.49792968  0.24675908  0.25181088  1
  Co  Co127  1  0.24844215  0.75021350  0.24858265  1
