# generated using pymatgen
data_Fe45Co19
_symmetry_space_group_name_H-M   'P 1'
_cell_length_a   11.41471247
_cell_length_b   11.41506396
_cell_length_c   11.41518677
_cell_angle_alpha   90.00244799
_cell_angle_beta   90.00174006
_cell_angle_gamma   89.99453394
_symmetry_Int_Tables_number   1
_chemical_formula_structural   Fe45Co19
_chemical_formula_sum   'Fe90 Co38'
_cell_volume   1487.39509499
_cell_formula_units_Z   2
loop_
 _symmetry_equiv_pos_site_id
 _symmetry_equiv_pos_as_xyz
  1  'x, y, z'
loop_
 _atom_site_type_symbol
 _atom_site_label
 _atom_site_symmetry_multiplicity
 _atom_site_fract_x
 _atom_site_fract_y
 _atom_site_fract_z
 _atom_site_occupancy
  Fe  Fe0  1  0.37211569  0.12627899  0.87492876  1
  Fe  Fe1  1  0.12289342  0.37542536  0.12802719  1
  Fe  Fe2  1  0.75241454  -0.00052915  0.24905394  1
  Fe  Fe3  1  0.49694456  0.74502616  0.75081738  1
  Fe  Fe4  1  0.25022796  0.50171341  0.74774276  1
  Fe  Fe5  1  0.12456265  0.12854319  0.87322955  1
  Fe  Fe6  1  0.12500347  0.87493294  0.37215831  1
  Fe  Fe7  1  -0.00066495  0.49769987  0.00069015  1
  Fe  Fe8  1  0.75208327  0.50044854  0.24964219  1
  Fe  Fe9  1  0.12161748  0.87608479  0.12458530  1
  Fe  Fe10  1  0.12690352  0.12387983  0.37303888  1
  Fe  Fe11  1  0.36811878  0.62154950  0.37753761  1
  Fe  Fe12  1  0.37157415  0.87331721  0.87252347  1
  Fe  Fe13  1  0.87625532  0.87403820  0.37617216  1
  Fe  Fe14  1  0.62410331  0.87676680  0.37398529  1
  Fe  Fe15  1  0.50333480  0.49845910  -0.00178656  1
  Fe  Fe16  1  0.87300327  0.62620610  0.12089464  1
  Fe  Fe17  1  0.87728538  0.87419943  0.12212931  1
  Fe  Fe18  1  0.24805930  -0.00131782  0.50195829  1
  Fe  Fe19  1  0.49623820  0.00504064  0.25197796  1
  Fe  Fe20  1  -0.00134943  0.50227729  0.75234369  1
  Fe  Fe21  1  0.87557740  0.37631221  0.87649990  1
  Fe  Fe22  1  0.12746402  0.62520985  0.87936363  1
  Fe  Fe23  1  0.50157991  0.50211486  0.50029238  1
  Fe  Fe24  1  0.00150346  0.50327092  0.25149382  1
  Fe  Fe25  1  0.75132775  0.49776830  0.74492794  1
  Fe  Fe26  1  0.37770065  0.37551758  0.62541136  1
  Fe  Fe27  1  0.12273184  0.12743184  0.62831117  1
  Fe  Fe28  1  0.37630539  0.87619618  0.12514737  1
  Fe  Fe29  1  0.49870314  0.00269857  0.74970252  1
  Fe  Fe30  1  0.12348074  0.12279803  0.12524106  1
  Fe  Fe31  1  0.50124129  0.50187905  0.75016342  1
  Fe  Fe32  1  0.62636398  0.37416884  0.37539122  1
  Fe  Fe33  1  0.24680610  0.25270135  -0.00121489  1
  Fe  Fe34  1  0.87355427  0.12580992  0.37892747  1
  Fe  Fe35  1  0.37423277  0.87440876  0.62766335  1
  Fe  Fe36  1  0.87729125  0.87529277  0.62609508  1
  Fe  Fe37  1  0.62861065  0.62668473  0.12405796  1
  Fe  Fe38  1  0.37634032  0.37417842  0.12546030  1
  Fe  Fe39  1  0.50118525  0.24788883  0.49741200  1
  Fe  Fe40  1  0.62415525  0.12475314  0.12512204  1
  Fe  Fe41  1  0.11966957  0.37238558  0.62993350  1
  Fe  Fe42  1  0.37280491  0.12559596  0.62464915  1
  Fe  Fe43  1  0.62345983  0.87252907  0.62668827  1
  Fe  Fe44  1  0.49929401  0.74865018  0.49966288  1
  Fe  Fe45  1  0.49770712  0.24684300  0.25262190  1
  Fe  Fe46  1  0.12256711  0.62663937  0.62307730  1
  Fe  Fe47  1  0.24884734  -0.00092574  -0.00016860  1
  Fe  Fe48  1  0.75108182  0.24987519  0.25012669  1
  Fe  Fe49  1  -0.00038216  0.00181151  0.75229707  1
  Fe  Fe50  1  0.00150487  0.00006824  0.49951099  1
  Fe  Fe51  1  0.37475102  0.37591391  0.87291768  1
  Fe  Fe52  1  0.75117853  0.25456268  0.00280566  1
  Fe  Fe53  1  0.87624136  0.37325578  0.37729402  1
  Fe  Fe54  1  0.62444892  0.87412230  0.12685747  1
  Fe  Fe55  1  0.00547477  0.49891685  0.49622272  1
  Fe  Fe56  1  0.74997573  -0.00244406  -0.00093616  1
  Fe  Fe57  1  0.12623276  0.87239431  0.87437200  1
  Fe  Fe58  1  0.50019282  0.00068746  -0.00268800  1
  Fe  Fe59  1  0.49954200  0.74735793  0.25232471  1
  Fe  Fe60  1  0.62803911  0.12846824  0.87358797  1
  Fe  Fe61  1  0.12371766  0.87384624  0.62885845  1
  Fe  Fe62  1  0.49934414  0.50096958  0.25130941  1
  Fe  Fe63  1  0.87585575  0.62651551  0.37883831  1
  Fe  Fe64  1  0.24973734  0.49804221  0.00195633  1
  Fe  Fe65  1  -0.00259141  0.74696390  0.75344751  1
  Fe  Fe66  1  0.75486678  0.74710472  0.75098628  1
  Fe  Fe67  1  0.87821135  0.12485226  0.12203210  1
  Fe  Fe68  1  0.24844769  0.75031068  0.50250242  1
  Fe  Fe69  1  0.00022772  0.74740518  0.25041027  1
  Fe  Fe70  1  0.37047010  0.37727483  0.37580077  1
  Fe  Fe71  1  0.25237753  0.24821507  0.24866390  1
  Fe  Fe72  1  0.75461790  0.25365772  0.74348404  1
  Fe  Fe73  1  0.75116333  0.00105334  0.74909703  1
  Fe  Fe74  1  0.62564049  0.87466983  0.87205002  1
  Fe  Fe75  1  0.50031580  0.74965760  -0.00213414  1
  Fe  Fe76  1  -0.00096543  0.24863267  0.25107790  1
  Fe  Fe77  1  0.62433814  0.37477605  0.12789055  1
  Fe  Fe78  1  0.62507989  0.12664638  0.62455567  1
  Fe  Fe79  1  0.37365736  0.87740705  0.37538578  1
  Fe  Fe80  1  0.74901269  0.49820060  0.50360151  1
  Fe  Fe81  1  0.24598725  0.25346710  0.50187245  1
  Fe  Fe82  1  0.62761244  0.62548290  0.37540249  1
  Fe  Fe83  1  0.87481964  0.12602955  0.87657422  1
  Fe  Fe84  1  0.75108029  0.74992295  0.50170411  1
  Fe  Fe85  1  0.74866721  -0.00030101  0.50176255  1
  Fe  Fe86  1  0.62989271  0.62287316  0.87577093  1
  Fe  Fe87  1  0.37539430  0.62419179  0.12301796  1
  Fe  Fe88  1  0.24883491  0.74809760  0.24635498  1
  Fe  Fe89  1  0.50152642  0.25128245  -0.00268429  1
  Co  Co90  1  0.00127327  0.75219426  0.49963717  1
  Co  Co91  1  0.12309789  0.62502450  0.12074215  1
  Co  Co92  1  0.12689523  0.37403610  0.36960992  1
  Co  Co93  1  0.87854893  0.37551282  0.12754396  1
  Co  Co94  1  0.25218046  0.00073412  0.24790202  1
  Co  Co95  1  0.25062912  0.25295510  0.74938235  1
  Co  Co96  1  0.74973667  0.25197406  0.50372376  1
  Co  Co97  1  0.87816900  0.62355841  0.62193632  1
  Co  Co98  1  0.37410708  0.62320287  0.62169938  1
  Co  Co99  1  0.00352529  0.24913047  0.49798188  1
  Co  Co100  1  0.00200409  0.25282958  -0.00095589  1
  Co  Co101  1  0.87197939  0.61988800  0.87840621  1
  Co  Co102  1  -0.00290534  0.00039000  0.25194991  1
  Co  Co103  1  0.37478069  0.12591389  0.12010409  1
  Co  Co104  1  0.62032887  0.37373638  0.62484802  1
  Co  Co105  1  0.88214119  0.37680166  0.62036305  1
  Co  Co106  1  0.62586180  0.62694817  0.62597183  1
  Co  Co107  1  0.75169416  0.75073661  0.25103226  1
  Co  Co108  1  0.24918239  0.00164643  0.75001592  1
  Co  Co109  1  -0.00480084  0.25060562  0.75278304  1
  Co  Co110  1  0.37021800  0.12457272  0.37941492  1
  Co  Co111  1  0.12448548  0.37731818  0.87233221  1
  Co  Co112  1  -0.00237096  0.74985967  -0.00357388  1
  Co  Co113  1  0.75045857  0.75384084  -0.00301880  1
  Co  Co114  1  0.62822904  0.12356483  0.37494511  1
  Co  Co115  1  0.37228301  0.62359805  0.87751343  1
  Co  Co116  1  0.24922247  0.74476837  0.74894658  1
  Co  Co117  1  0.62736175  0.37329731  0.87143290  1
  Co  Co118  1  0.49993170  0.00024104  0.50202422  1
  Co  Co119  1  0.74866355  0.49458547  0.00301878  1
  Co  Co120  1  0.24402532  0.49546987  0.50501707  1
  Co  Co121  1  0.87605367  0.87787476  0.87341113  1
  Co  Co122  1  0.24868494  0.50191244  0.24616971  1
  Co  Co123  1  0.49834117  0.24783176  0.75134445  1
  Co  Co124  1  0.25084489  0.75168628  0.00296807  1
  Co  Co125  1  0.00110112  0.00071005  -0.00401107  1
  Co  Co126  1  0.12925510  0.62627167  0.37666172  1
  Co  Co127  1  0.87793034  0.12369743  0.62285999  1
