# generated using pymatgen
data_Fe45Co19
_symmetry_space_group_name_H-M   'P 1'
_cell_length_a   11.41653528
_cell_length_b   11.41401173
_cell_length_c   11.41544123
_cell_angle_alpha   90.00094382
_cell_angle_beta   90.00364422
_cell_angle_gamma   90.00718122
_symmetry_Int_Tables_number   1
_chemical_formula_structural   Fe45Co19
_chemical_formula_sum   'Fe90 Co38'
_cell_volume   1487.52863860
_cell_formula_units_Z   2
loop_
 _symmetry_equiv_pos_site_id
 _symmetry_equiv_pos_as_xyz
  1  'x, y, z'
loop_
 _atom_site_type_symbol
 _atom_site_label
 _atom_site_symmetry_multiplicity
 _atom_site_fract_x
 _atom_site_fract_y
 _atom_site_fract_z
 _atom_site_occupancy
  Fe  Fe0  1  0.24954174  0.25059610  0.74790101  1
  Fe  Fe1  1  0.12676887  0.12606004  0.87456933  1
  Fe  Fe2  1  0.12503780  0.62466828  0.12573539  1
  Fe  Fe3  1  0.25020657  0.25132313  0.24794309  1
  Fe  Fe4  1  0.49771238  0.24592968  -0.00172526  1
  Fe  Fe5  1  0.62722033  0.12604553  0.37654423  1
  Fe  Fe6  1  0.25302605  0.24983188  0.50170981  1
  Fe  Fe7  1  0.62464182  0.37313999  0.37770959  1
  Fe  Fe8  1  0.74991605  -0.00185155  0.50019320  1
  Fe  Fe9  1  -0.00113955  0.00125110  0.75015693  1
  Fe  Fe10  1  0.50213214  0.74951267  0.75002303  1
  Fe  Fe11  1  0.37474868  0.87476937  0.87121417  1
  Fe  Fe12  1  0.87362893  0.12362985  0.12635648  1
  Fe  Fe13  1  0.74959304  0.75045664  0.50155031  1
  Fe  Fe14  1  0.25024905  0.75193314  0.25041023  1
  Fe  Fe15  1  -0.00122538  0.00006449  -0.00249696  1
  Fe  Fe16  1  0.12502536  0.62450912  0.87250785  1
  Fe  Fe17  1  0.37463289  0.62454547  0.12420910  1
  Fe  Fe18  1  0.25266757  0.00212938  -0.00052965  1
  Fe  Fe19  1  0.37566621  0.37660743  0.12141917  1
  Fe  Fe20  1  0.37778100  0.12518612  0.62641693  1
  Fe  Fe21  1  0.12803864  0.62498862  0.37801014  1
  Fe  Fe22  1  0.62683509  0.62673086  0.12437564  1
  Fe  Fe23  1  0.50077701  0.50126184  0.25003154  1
  Fe  Fe24  1  0.50511414  0.00305416  0.75018970  1
  Fe  Fe25  1  0.37437851  0.37512975  0.87572350  1
  Fe  Fe26  1  0.50070708  -0.00328700  0.25284491  1
  Fe  Fe27  1  0.37357569  0.12371672  0.37430800  1
  Fe  Fe28  1  0.87308629  0.12431899  0.37299889  1
  Fe  Fe29  1  0.12579751  0.12328509  0.37847655  1
  Fe  Fe30  1  0.87319378  0.87199420  0.87297670  1
  Fe  Fe31  1  0.62546878  0.37627139  0.87763105  1
  Fe  Fe32  1  0.49859404  0.00218712  -0.00195321  1
  Fe  Fe33  1  0.62986969  0.62503848  0.87704049  1
  Fe  Fe34  1  0.87289983  0.37636725  0.37535572  1
  Fe  Fe35  1  0.12466914  0.87750229  0.38106765  1
  Fe  Fe36  1  0.62519063  0.12432796  0.12575013  1
  Fe  Fe37  1  0.87067918  0.12741240  0.87404599  1
  Fe  Fe38  1  0.37697496  0.37616351  0.37710271  1
  Fe  Fe39  1  -0.00038389  -0.00258101  0.25188108  1
  Fe  Fe40  1  0.87286445  0.62723410  0.12376096  1
  Fe  Fe41  1  0.12688601  0.37539283  0.87692016  1
  Fe  Fe42  1  0.50086828  0.25025228  0.25051790  1
  Fe  Fe43  1  0.00053022  0.24925400  0.00033668  1
  Fe  Fe44  1  0.12365385  0.87516851  0.12357058  1
  Fe  Fe45  1  0.87512269  0.37516720  0.12707025  1
  Fe  Fe46  1  -0.00030918  0.25175945  0.75005570  1
  Fe  Fe47  1  0.25024012  0.49968098  0.24889561  1
  Fe  Fe48  1  0.50441053  0.24807982  0.75095049  1
  Fe  Fe49  1  0.50062463  0.74911012  -0.00049637  1
  Fe  Fe50  1  0.37693444  0.87454560  0.12582441  1
  Fe  Fe51  1  0.24936940  -0.00217634  0.25094733  1
  Fe  Fe52  1  0.00112234  0.25032566  0.25053553  1
  Fe  Fe53  1  0.74732532  0.00052516  0.74911179  1
  Fe  Fe54  1  0.25187287  0.50168755  0.74767171  1
  Fe  Fe55  1  -0.00007932  0.50033159  -0.00038079  1
  Fe  Fe56  1  0.62435732  0.62850871  0.37397909  1
  Fe  Fe57  1  0.12561138  0.87375257  0.87184178  1
  Fe  Fe58  1  0.50041965  0.50038164  0.74867785  1
  Fe  Fe59  1  0.62413905  0.37320986  0.62066283  1
  Fe  Fe60  1  -0.00035074  0.75118043  0.25254197  1
  Fe  Fe61  1  -0.00071882  0.75009577  -0.00138941  1
  Fe  Fe62  1  -0.00299289  0.24990446  0.49942184  1
  Fe  Fe63  1  0.75003490  -0.00742974  0.24991173  1
  Fe  Fe64  1  0.00007004  0.74816872  0.50158671  1
  Fe  Fe65  1  0.49965454  -0.00196212  0.49957948  1
  Fe  Fe66  1  0.74996822  -0.00448888  0.00134802  1
  Fe  Fe67  1  0.12549437  0.12501453  0.12503046  1
  Fe  Fe68  1  0.75146315  0.50217114  0.74862677  1
  Fe  Fe69  1  0.62638472  0.87373810  0.87409363  1
  Fe  Fe70  1  0.87195705  0.12726376  0.62761129  1
  Fe  Fe71  1  0.87486512  0.37942676  0.62295143  1
  Fe  Fe72  1  0.37468626  0.62526849  0.87315942  1
  Fe  Fe73  1  0.87367081  0.37580929  0.87445492  1
  Fe  Fe74  1  0.62406381  0.62580132  0.62368710  1
  Fe  Fe75  1  0.12278025  0.37873977  0.62416894  1
  Fe  Fe76  1  0.74709536  0.49884353  0.24941713  1
  Fe  Fe77  1  0.87461982  0.87398580  0.62555154  1
  Fe  Fe78  1  0.37496951  0.62635752  0.37695325  1
  Fe  Fe79  1  0.87237620  0.62513931  0.37587474  1
  Fe  Fe80  1  0.25368403  0.49964547  0.50348706  1
  Fe  Fe81  1  0.25169823  0.75400092  0.50709647  1
  Fe  Fe82  1  0.24871586  -0.00172516  0.74676105  1
  Fe  Fe83  1  0.74899828  0.25172276  0.00235799  1
  Fe  Fe84  1  0.25007566  0.74973935  -0.00155859  1
  Fe  Fe85  1  0.00131076  0.50065836  0.25162075  1
  Fe  Fe86  1  -0.00234636  0.74506551  0.74764578  1
  Fe  Fe87  1  0.49831359  0.75270017  0.50050459  1
  Fe  Fe88  1  0.12312677  0.12341123  0.62262433  1
  Fe  Fe89  1  0.12577945  0.37539862  0.37594905  1
  Co  Co90  1  0.12577538  0.37548329  0.12345501  1
  Co  Co91  1  0.37951168  0.87583704  0.63033937  1
  Co  Co92  1  0.50045951  0.50295825  -0.00114260  1
  Co  Co93  1  0.75014179  0.49774352  0.00188614  1
  Co  Co94  1  0.50033284  0.50122892  0.49943300  1
  Co  Co95  1  0.74746698  0.25354163  0.74893349  1
  Co  Co96  1  0.87582342  0.87302276  0.37805399  1
  Co  Co97  1  0.25295963  0.24612357  0.00124888  1
  Co  Co98  1  0.62976098  0.12542189  0.87761291  1
  Co  Co99  1  0.25421036  -0.00140280  0.50350584  1
  Co  Co100  1  0.49809450  0.24792880  0.49840177  1
  Co  Co101  1  0.24947858  0.50294861  -0.00125569  1
  Co  Co102  1  0.74896275  0.75422628  0.00132576  1
  Co  Co103  1  0.12020784  0.87670864  0.62486153  1
  Co  Co104  1  0.87157496  0.62559839  0.87870199  1
  Co  Co105  1  0.37672789  0.12359623  0.12969918  1
  Co  Co106  1  0.75135076  0.74600422  0.74759980  1
  Co  Co107  1  0.74545361  0.50078805  0.49844489  1
  Co  Co108  1  0.24851995  0.74918384  0.74609621  1
  Co  Co109  1  0.37454675  0.87344382  0.37428614  1
  Co  Co110  1  0.62514273  0.87407234  0.62577605  1
  Co  Co111  1  0.62589770  0.12684659  0.62111396  1
  Co  Co112  1  0.62469450  0.87124340  0.37525626  1
  Co  Co113  1  -0.00509110  0.00266629  0.50152547  1
  Co  Co114  1  0.74808419  0.25128379  0.24946747  1
  Co  Co115  1  0.75132626  0.75361977  0.24834445  1
  Co  Co116  1  0.37915032  0.37396338  0.62638024  1
  Co  Co117  1  0.49813342  0.74844228  0.24928371  1
  Co  Co118  1  0.87526690  0.62102380  0.62052424  1
  Co  Co119  1  0.87902918  0.87365161  0.12445964  1
  Co  Co120  1  0.00100494  0.50029254  0.49564225  1
  Co  Co121  1  0.37823023  0.62640248  0.62540858  1
  Co  Co122  1  0.62021369  0.87425113  0.12542276  1
  Co  Co123  1  0.37325094  0.12496361  0.86907145  1
  Co  Co124  1  0.62102980  0.37386424  0.12295082  1
  Co  Co125  1  -0.00238005  0.50185712  0.75252916  1
  Co  Co126  1  0.75303760  0.24995777  0.49972166  1
  Co  Co127  1  0.12390894  0.62115595  0.62443615  1
