# generated using pymatgen
data_Fe45Co19
_symmetry_space_group_name_H-M   'P 1'
_cell_length_a   11.41326949
_cell_length_b   11.41571380
_cell_length_c   11.41719435
_cell_angle_alpha   90.00092027
_cell_angle_beta   89.99959244
_cell_angle_gamma   89.99702953
_symmetry_Int_Tables_number   1
_chemical_formula_structural   Fe45Co19
_chemical_formula_sum   'Fe90 Co38'
_cell_volume   1487.55330479
_cell_formula_units_Z   2
loop_
 _symmetry_equiv_pos_site_id
 _symmetry_equiv_pos_as_xyz
  1  'x, y, z'
loop_
 _atom_site_type_symbol
 _atom_site_label
 _atom_site_symmetry_multiplicity
 _atom_site_fract_x
 _atom_site_fract_y
 _atom_site_fract_z
 _atom_site_occupancy
  Fe  Fe0  1  0.24795960  0.49981754  -0.00119627  1
  Fe  Fe1  1  0.12207170  0.62424118  0.87242975  1
  Fe  Fe2  1  0.87160429  0.87433288  0.12243427  1
  Fe  Fe3  1  0.62224810  0.62509654  0.37502283  1
  Fe  Fe4  1  0.74980150  0.00084235  0.25076649  1
  Fe  Fe5  1  0.24799221  0.74971887  -0.00036229  1
  Fe  Fe6  1  0.50100116  0.49829338  0.74951025  1
  Fe  Fe7  1  0.87532017  0.87555998  0.37628696  1
  Fe  Fe8  1  0.87548814  0.12422073  0.62624836  1
  Fe  Fe9  1  0.49929791  0.75062687  0.24951501  1
  Fe  Fe10  1  -0.00136035  0.50105888  0.00234901  1
  Fe  Fe11  1  0.74968420  0.74765465  0.75091629  1
  Fe  Fe12  1  0.37518517  0.62455180  0.12476305  1
  Fe  Fe13  1  0.75055288  0.50026454  0.25293102  1
  Fe  Fe14  1  -0.00008322  -0.00244075  0.24985812  1
  Fe  Fe15  1  0.87295641  0.37511801  0.12591256  1
  Fe  Fe16  1  -0.00013231  0.75074262  0.74757982  1
  Fe  Fe17  1  0.24720774  0.74922417  0.49934870  1
  Fe  Fe18  1  0.37580187  0.12494869  0.12347439  1
  Fe  Fe19  1  0.87492029  0.87366000  0.62359094  1
  Fe  Fe20  1  0.24573336  0.49600270  0.75096514  1
  Fe  Fe21  1  0.75103049  0.24936663  0.25209110  1
  Fe  Fe22  1  0.87340405  0.37744256  0.62237166  1
  Fe  Fe23  1  0.87449419  0.12398376  0.12553791  1
  Fe  Fe24  1  0.25051927  -0.00085792  0.24981244  1
  Fe  Fe25  1  0.37441312  0.87507855  0.12367863  1
  Fe  Fe26  1  0.87937825  0.37345971  0.87440513  1
  Fe  Fe27  1  0.25189294  0.25114058  0.25126033  1
  Fe  Fe28  1  0.12561391  0.12423477  0.12494051  1
  Fe  Fe29  1  0.11886102  0.12780176  0.87317894  1
  Fe  Fe30  1  0.00218668  0.50424088  0.50323646  1
  Fe  Fe31  1  0.00376824  0.74841428  0.49988354  1
  Fe  Fe32  1  0.62513601  0.12590763  0.62496806  1
  Fe  Fe33  1  0.62507352  0.62383675  0.87539289  1
  Fe  Fe34  1  0.74931560  0.74822985  0.49889347  1
  Fe  Fe35  1  0.24902217  0.25132902  -0.00288489  1
  Fe  Fe36  1  0.37610014  0.87428398  0.62673114  1
  Fe  Fe37  1  0.87680289  0.37543286  0.37738761  1
  Fe  Fe38  1  0.12222661  0.62521685  0.13002572  1
  Fe  Fe39  1  0.37533529  0.62320755  0.87513390  1
  Fe  Fe40  1  0.37710551  0.12662422  0.87447365  1
  Fe  Fe41  1  0.24908978  0.50194673  0.49983633  1
  Fe  Fe42  1  -0.00013665  0.25095149  0.24977738  1
  Fe  Fe43  1  0.50393671  -0.00292168  -0.00017662  1
  Fe  Fe44  1  0.12605859  0.37350110  0.12397009  1
  Fe  Fe45  1  0.74913126  0.00045517  0.50004953  1
  Fe  Fe46  1  -0.00019952  0.00032590  0.50083698  1
  Fe  Fe47  1  0.62406566  0.87523763  0.37369458  1
  Fe  Fe48  1  0.49907159  0.00000264  0.50171398  1
  Fe  Fe49  1  0.62116890  0.37344426  0.37482632  1
  Fe  Fe50  1  0.37803369  0.87469837  0.87370327  1
  Fe  Fe51  1  0.75289695  0.50075965  0.75037089  1
  Fe  Fe52  1  0.37428287  0.37383738  0.62492459  1
  Fe  Fe53  1  0.75373663  0.50296032  -0.00099559  1
  Fe  Fe54  1  0.50122856  0.25521714  0.00164568  1
  Fe  Fe55  1  0.37567864  0.62438373  0.37405885  1
  Fe  Fe56  1  0.24643167  0.75247323  0.24994776  1
  Fe  Fe57  1  0.62559556  0.12489982  0.87468261  1
  Fe  Fe58  1  0.75172561  0.00063374  0.75180194  1
  Fe  Fe59  1  0.24794075  -0.00061167  -0.00370521  1
  Fe  Fe60  1  0.37463218  0.12610771  0.62808825  1
  Fe  Fe61  1  -0.00104613  0.00166146  -0.00226090  1
  Fe  Fe62  1  0.62264847  0.87363146  0.62748208  1
  Fe  Fe63  1  0.25072022  0.49817881  0.25110051  1
  Fe  Fe64  1  0.12485376  0.37553594  0.37779319  1
  Fe  Fe65  1  -0.00121508  0.74759520  0.00290986  1
  Fe  Fe66  1  0.25153051  0.24821511  0.49892874  1
  Fe  Fe67  1  0.24951203  0.75195017  0.75165349  1
  Fe  Fe68  1  0.74940122  0.24933500  0.49876597  1
  Fe  Fe69  1  0.37444175  0.87532921  0.37641188  1
  Fe  Fe70  1  0.87957406  0.62500491  0.37300722  1
  Fe  Fe71  1  0.24556298  0.25387026  0.75212418  1
  Fe  Fe72  1  0.50285120  0.25338958  0.75011425  1
  Fe  Fe73  1  0.12432840  0.12226457  0.37496963  1
  Fe  Fe74  1  0.87219813  0.87351807  0.87737403  1
  Fe  Fe75  1  0.62628651  0.62404557  0.12576557  1
  Fe  Fe76  1  0.62682877  0.62434583  0.62346403  1
  Fe  Fe77  1  0.12451628  0.12256345  0.62641052  1
  Fe  Fe78  1  0.75160268  0.24854848  -0.00088621  1
  Fe  Fe79  1  0.49996548  0.49909236  0.50120520  1
  Fe  Fe80  1  0.24767633  -0.00186627  0.75218822  1
  Fe  Fe81  1  0.62370096  0.12478505  0.12681860  1
  Fe  Fe82  1  0.37445129  0.62601108  0.62612636  1
  Fe  Fe83  1  0.75195618  0.74864771  0.24969020  1
  Fe  Fe84  1  0.37880187  0.12624239  0.37389855  1
  Fe  Fe85  1  -0.00046907  0.24736054  0.50092099  1
  Fe  Fe86  1  0.75114346  0.25118766  0.74991159  1
  Fe  Fe87  1  0.62158477  0.12600992  0.37399979  1
  Fe  Fe88  1  0.50378638  0.75177647  -0.00114643  1
  Fe  Fe89  1  0.50047214  0.49602195  0.00228237  1
  Co  Co90  1  0.49965364  0.25004712  0.50323987  1
  Co  Co91  1  0.49796739  0.25377637  0.24526048  1
  Co  Co92  1  0.50030656  0.00211223  0.74968529  1
  Co  Co93  1  -0.00143329  -0.00326424  0.75141952  1
  Co  Co94  1  0.00038715  0.25353404  0.74496734  1
  Co  Co95  1  0.87562415  0.62471574  0.12981098  1
  Co  Co96  1  0.12565237  0.87833729  0.37747625  1
  Co  Co97  1  0.11875640  0.37502531  0.87791633  1
  Co  Co98  1  0.37669718  0.37572018  0.37658570  1
  Co  Co99  1  0.12557032  0.87659072  0.62337513  1
  Co  Co100  1  0.12578179  0.37436915  0.61938787  1
  Co  Co101  1  0.74843574  0.74660574  -0.00011930  1
  Co  Co102  1  0.87839348  0.62624233  0.87262158  1
  Co  Co103  1  0.62686869  0.87507684  0.87179265  1
  Co  Co104  1  0.62797867  0.87404761  0.12782115  1
  Co  Co105  1  0.00073527  0.49847226  0.74562385  1
  Co  Co106  1  0.63080306  0.37611343  0.12521881  1
  Co  Co107  1  0.49932178  0.49837043  0.24732205  1
  Co  Co108  1  0.87549454  0.12351481  0.37532530  1
  Co  Co109  1  0.12733695  0.62721113  0.62876283  1
  Co  Co110  1  0.37096963  0.37564238  0.12328055  1
  Co  Co111  1  0.12332844  0.62405227  0.37037446  1
  Co  Co112  1  -0.00165915  0.24903502  0.00444488  1
  Co  Co113  1  0.74955546  0.50171031  0.49570569  1
  Co  Co114  1  0.49848669  -0.00162733  0.24934340  1
  Co  Co115  1  -0.00008342  0.49459352  0.24894936  1
  Co  Co116  1  0.62814230  0.37597025  0.87558262  1
  Co  Co117  1  0.37545544  0.37545122  0.87484610  1
  Co  Co118  1  0.12531354  0.87693118  0.12232611  1
  Co  Co119  1  0.25351531  0.00200249  0.50126847  1
  Co  Co120  1  0.87716913  0.12754437  0.87308959  1
  Co  Co121  1  0.62814713  0.37668568  0.62402656  1
  Co  Co122  1  0.12201214  0.87211046  0.87647341  1
  Co  Co123  1  0.50059206  0.74618314  0.75122417  1
  Co  Co124  1  0.00083953  0.75552851  0.24957212  1
  Co  Co125  1  0.74805146  0.00197832  -0.00095982  1
  Co  Co126  1  0.87303202  0.62539313  0.62357273  1
  Co  Co127  1  0.49983478  0.74973217  0.50044828  1
