# generated using pymatgen
data_Fe45Co19
_symmetry_space_group_name_H-M   'P 1'
_cell_length_a   11.41579819
_cell_length_b   11.41418772
_cell_length_c   11.41591653
_cell_angle_alpha   90.00655794
_cell_angle_beta   90.00092396
_cell_angle_gamma   89.99693412
_symmetry_Int_Tables_number   1
_chemical_formula_structural   Fe45Co19
_chemical_formula_sum   'Fe90 Co38'
_cell_volume   1487.51746756
_cell_formula_units_Z   2
loop_
 _symmetry_equiv_pos_site_id
 _symmetry_equiv_pos_as_xyz
  1  'x, y, z'
loop_
 _atom_site_type_symbol
 _atom_site_label
 _atom_site_symmetry_multiplicity
 _atom_site_fract_x
 _atom_site_fract_y
 _atom_site_fract_z
 _atom_site_occupancy
  Fe  Fe0  1  0.62449377  0.87893668  0.87628878  1
  Fe  Fe1  1  0.12525434  0.87435941  0.62638248  1
  Fe  Fe2  1  0.12778425  0.12096912  0.12860578  1
  Fe  Fe3  1  0.74710872  0.75038142  -0.00105418  1
  Fe  Fe4  1  0.25013630  0.50125781  0.25066842  1
  Fe  Fe5  1  0.37259461  0.87347269  0.62292987  1
  Fe  Fe6  1  0.50115236  0.25040149  0.75137798  1
  Fe  Fe7  1  0.37793244  0.87514172  0.37628371  1
  Fe  Fe8  1  0.75144981  0.49979747  -0.00272787  1
  Fe  Fe9  1  0.87524110  0.87631039  0.87505712  1
  Fe  Fe10  1  0.50001426  0.24840171  0.00045618  1
  Fe  Fe11  1  0.62726213  0.87575897  0.62547754  1
  Fe  Fe12  1  0.87509279  0.87959272  0.37802519  1
  Fe  Fe13  1  0.00074449  0.75266079  0.50042182  1
  Fe  Fe14  1  0.50106026  0.50285661  0.24947272  1
  Fe  Fe15  1  0.00156413  0.24942874  0.00159140  1
  Fe  Fe16  1  0.37600869  0.12518582  0.37368400  1
  Fe  Fe17  1  0.00305370  0.75238762  -0.00155241  1
  Fe  Fe18  1  0.50261628  0.74864944  0.50228302  1
  Fe  Fe19  1  0.74954591  0.50111082  0.50041672  1
  Fe  Fe20  1  0.24909210  0.50005372  0.50073946  1
  Fe  Fe21  1  0.25023660  0.75151858  0.25111251  1
  Fe  Fe22  1  0.37636324  0.37520084  0.37582443  1
  Fe  Fe23  1  0.74796486  0.74781755  0.24870519  1
  Fe  Fe24  1  0.12362127  0.12264467  0.87309053  1
  Fe  Fe25  1  0.12351944  0.62518213  0.37568687  1
  Fe  Fe26  1  0.50216571  0.75049566  0.00108290  1
  Fe  Fe27  1  0.12618324  0.37143250  0.62609111  1
  Fe  Fe28  1  0.50195887  0.50177724  0.50411063  1
  Fe  Fe29  1  0.25125480  0.24568656  -0.00294351  1
  Fe  Fe30  1  0.62518866  0.12434278  0.37506742  1
  Fe  Fe31  1  0.12352857  0.37311135  0.37614835  1
  Fe  Fe32  1  0.12327298  0.37603807  0.87512060  1
  Fe  Fe33  1  0.87536920  0.62454831  0.12314426  1
  Fe  Fe34  1  0.50186593  0.74869687  0.24732010  1
  Fe  Fe35  1  0.00102544  -0.00193768  0.00236822  1
  Fe  Fe36  1  0.25180078  0.00078418  0.75130888  1
  Fe  Fe37  1  0.62365213  0.87502307  0.37231808  1
  Fe  Fe38  1  0.87493824  0.37142449  0.37380516  1
  Fe  Fe39  1  0.50009872  0.49872042  -0.00173487  1
  Fe  Fe40  1  0.37493522  0.62583893  0.12264536  1
  Fe  Fe41  1  0.74973462  0.00081853  0.24913463  1
  Fe  Fe42  1  0.74833009  0.24851630  0.49977364  1
  Fe  Fe43  1  0.50219194  0.24815704  0.24783979  1
  Fe  Fe44  1  0.74894775  0.24976211  -0.00185903  1
  Fe  Fe45  1  0.62630652  0.12377262  0.87407647  1
  Fe  Fe46  1  0.75120283  0.75184808  0.75123817  1
  Fe  Fe47  1  -0.00193334  0.24787907  0.74893573  1
  Fe  Fe48  1  0.12595730  0.37495112  0.12362814  1
  Fe  Fe49  1  0.87462308  0.37293243  0.62441374  1
  Fe  Fe50  1  0.12342615  0.62496851  0.12300927  1
  Fe  Fe51  1  0.50040546  0.00047143  0.74757269  1
  Fe  Fe52  1  0.24934358  0.25081529  0.25223547  1
  Fe  Fe53  1  0.49803137  0.74858954  0.74893602  1
  Fe  Fe54  1  0.24726787  0.75408927  -0.00145605  1
  Fe  Fe55  1  0.37587860  0.62626746  0.37849616  1
  Fe  Fe56  1  0.00288551  0.24347234  0.49933130  1
  Fe  Fe57  1  0.37322285  0.12845334  0.62631789  1
  Fe  Fe58  1  0.86998721  0.12086811  0.62191480  1
  Fe  Fe59  1  0.25127478  0.50017214  -0.00081782  1
  Fe  Fe60  1  0.87448730  0.62708539  0.62467977  1
  Fe  Fe61  1  0.62701832  0.37545433  0.12530498  1
  Fe  Fe62  1  -0.00066344  0.49781571  0.24919349  1
  Fe  Fe63  1  0.87275707  0.87374026  0.12324272  1
  Fe  Fe64  1  0.37233800  0.37170836  0.62494794  1
  Fe  Fe65  1  0.87502210  0.12299874  0.87559465  1
  Fe  Fe66  1  0.24991479  0.74694102  0.75190502  1
  Fe  Fe67  1  0.00017579  0.74874154  0.75099251  1
  Fe  Fe68  1  0.25172125  0.50310910  0.74973469  1
  Fe  Fe69  1  0.50127293  0.25009597  0.50138435  1
  Fe  Fe70  1  0.37472580  0.87831574  0.12476379  1
  Fe  Fe71  1  0.87540298  0.37304746  0.87422532  1
  Fe  Fe72  1  -0.00203073  -0.00031869  0.74650899  1
  Fe  Fe73  1  0.50152633  0.00117238  0.50213504  1
  Fe  Fe74  1  -0.00084406  0.75181530  0.24965521  1
  Fe  Fe75  1  0.87329734  0.37379319  0.12675332  1
  Fe  Fe76  1  0.37512703  0.37312843  0.12564892  1
  Fe  Fe77  1  0.37577282  0.87654358  0.87605528  1
  Fe  Fe78  1  0.87340630  0.12706292  0.12644430  1
  Fe  Fe79  1  0.12207705  0.87970149  0.37285777  1
  Fe  Fe80  1  -0.00008727  0.50004415  0.50066332  1
  Fe  Fe81  1  0.74879474  0.75082845  0.49997987  1
  Fe  Fe82  1  0.37611080  0.37412686  0.87444795  1
  Fe  Fe83  1  0.24769664  0.00279410  0.49933589  1
  Fe  Fe84  1  0.62364975  0.62185559  0.87163122  1
  Fe  Fe85  1  0.62746894  0.37590741  0.63031375  1
  Fe  Fe86  1  0.49926929  0.00301355  0.00383712  1
  Fe  Fe87  1  0.87470371  0.62488577  0.37519511  1
  Fe  Fe88  1  -0.00157574  0.50229254  0.75082212  1
  Fe  Fe89  1  0.62555661  0.37673318  0.37383954  1
  Co  Co90  1  0.62571662  0.62226748  0.12285016  1
  Co  Co91  1  0.12543179  0.87714941  0.12755610  1
  Co  Co92  1  0.12898551  0.12730304  0.62938603  1
  Co  Co93  1  0.24626253  0.75252913  0.49710149  1
  Co  Co94  1  0.25353601  -0.00361011  0.25289685  1
  Co  Co95  1  0.25027760  0.25087755  0.75604770  1
  Co  Co96  1  0.75108112  0.50126633  0.25122389  1
  Co  Co97  1  0.75184645  0.00016576  0.00011359  1
  Co  Co98  1  0.75548093  0.50002257  0.75098978  1
  Co  Co99  1  0.00096004  0.25113578  0.24894477  1
  Co  Co100  1  -0.00328448  0.49726167  0.00035080  1
  Co  Co101  1  0.12210642  0.12150898  0.36921304  1
  Co  Co102  1  0.62794443  0.12495926  0.12369028  1
  Co  Co103  1  0.87528078  0.12345762  0.37608428  1
  Co  Co104  1  0.62471636  0.62530557  0.37584971  1
  Co  Co105  1  0.37293256  0.62817312  0.62096613  1
  Co  Co106  1  0.62762360  0.62489866  0.62875112  1
  Co  Co107  1  0.87578914  0.62739736  0.87705484  1
  Co  Co108  1  -0.00554250  -0.00070441  0.24643088  1
  Co  Co109  1  0.12409886  0.62569824  0.62398967  1
  Co  Co110  1  0.74820665  0.24914704  0.25184187  1
  Co  Co111  1  0.24821521  0.24730860  0.49574343  1
  Co  Co112  1  0.74529890  -0.00121657  0.49910783  1
  Co  Co113  1  0.87472526  0.87551046  0.62326226  1
  Co  Co114  1  0.37800910  0.12314356  0.87346964  1
  Co  Co115  1  0.62612046  0.12580102  0.62675288  1
  Co  Co116  1  0.49502322  0.50117714  0.74815792  1
  Co  Co117  1  0.24939562  0.00024890  -0.00285052  1
  Co  Co118  1  0.12433510  0.62288935  0.87778539  1
  Co  Co119  1  0.62576117  0.87738326  0.12503301  1
  Co  Co120  1  0.12398769  0.87730471  0.87138325  1
  Co  Co121  1  0.62578943  0.37518212  0.87187791  1
  Co  Co122  1  0.00381242  0.00295165  0.50394703  1
  Co  Co123  1  0.74988819  -0.00131564  0.75064804  1
  Co  Co124  1  0.37587814  0.62677687  0.87784651  1
  Co  Co125  1  0.75222895  0.24733243  0.75102106  1
  Co  Co126  1  0.37152320  0.12476762  0.12715903  1
  Co  Co127  1  0.50123455  0.00184424  0.24840748  1
