# generated using pymatgen
data_Fe45Co19
_symmetry_space_group_name_H-M   'P 1'
_cell_length_a   11.41520150
_cell_length_b   11.41676761
_cell_length_c   11.41520583
_cell_angle_alpha   89.99497317
_cell_angle_beta   89.99646426
_cell_angle_gamma   90.00154023
_symmetry_Int_Tables_number   1
_chemical_formula_structural   Fe45Co19
_chemical_formula_sum   'Fe90 Co38'
_cell_volume   1487.68329794
_cell_formula_units_Z   2
loop_
 _symmetry_equiv_pos_site_id
 _symmetry_equiv_pos_as_xyz
  1  'x, y, z'
loop_
 _atom_site_type_symbol
 _atom_site_label
 _atom_site_symmetry_multiplicity
 _atom_site_fract_x
 _atom_site_fract_y
 _atom_site_fract_z
 _atom_site_occupancy
  Fe  Fe0  1  0.87197424  0.87688131  0.62531085  1
  Fe  Fe1  1  -0.00089209  0.24999402  0.75013067  1
  Fe  Fe2  1  0.87610214  0.37471458  0.37492328  1
  Fe  Fe3  1  0.12093556  0.62912361  0.62538631  1
  Fe  Fe4  1  0.49842959  0.74778525  0.25115420  1
  Fe  Fe5  1  0.74876350  0.49811123  0.74910746  1
  Fe  Fe6  1  -0.00163033  0.75082023  0.24997065  1
  Fe  Fe7  1  0.37578744  0.62348721  0.87305321  1
  Fe  Fe8  1  0.50430733  0.49845790  0.74524848  1
  Fe  Fe9  1  0.50123992  -0.00192130  0.50411023  1
  Fe  Fe10  1  0.24613121  0.49982553  0.74925651  1
  Fe  Fe11  1  0.12489099  0.87505766  0.87529064  1
  Fe  Fe12  1  0.12440095  0.87560584  0.12596702  1
  Fe  Fe13  1  0.87777859  0.62409055  0.37251216  1
  Fe  Fe14  1  0.24971291  0.25200901  0.75046040  1
  Fe  Fe15  1  0.37704050  0.12317001  0.87273972  1
  Fe  Fe16  1  0.37510894  0.12569844  0.12594235  1
  Fe  Fe17  1  0.00176436  0.50141076  0.49988540  1
  Fe  Fe18  1  0.87679380  0.62704141  0.62656589  1
  Fe  Fe19  1  -0.00041529  -0.00173949  0.75000672  1
  Fe  Fe20  1  0.62298442  0.37655484  0.37913852  1
  Fe  Fe21  1  0.50033170  0.50048880  0.00140999  1
  Fe  Fe22  1  0.37358042  0.87851023  0.37587295  1
  Fe  Fe23  1  0.74840867  0.25079775  0.75118784  1
  Fe  Fe24  1  0.74456278  -0.00313976  0.00417960  1
  Fe  Fe25  1  0.00086273  0.25017353  0.24826726  1
  Fe  Fe26  1  0.87132684  0.12218565  0.62680027  1
  Fe  Fe27  1  0.12639180  0.37184003  0.61998123  1
  Fe  Fe28  1  0.24907818  0.74952475  0.75177331  1
  Fe  Fe29  1  0.12811699  0.12273153  0.37603822  1
  Fe  Fe30  1  0.50137741  0.50059399  0.24867316  1
  Fe  Fe31  1  0.37690369  0.37710503  0.87228023  1
  Fe  Fe32  1  0.37505679  0.62110746  0.37690121  1
  Fe  Fe33  1  0.62480136  0.62461780  0.37613053  1
  Fe  Fe34  1  0.75041883  0.50016234  0.24908417  1
  Fe  Fe35  1  0.62618043  0.37311901  0.12425768  1
  Fe  Fe36  1  0.87457091  0.12183115  0.87531114  1
  Fe  Fe37  1  0.12625188  0.87615410  0.37428376  1
  Fe  Fe38  1  0.25215596  0.75043671  0.25019485  1
  Fe  Fe39  1  0.62295417  0.12435412  0.37785644  1
  Fe  Fe40  1  0.49837303  0.74793827  0.00029875  1
  Fe  Fe41  1  0.50215822  0.75106053  0.74745130  1
  Fe  Fe42  1  0.25136780  0.74856566  -0.00121657  1
  Fe  Fe43  1  0.24716201  0.49903033  0.25329478  1
  Fe  Fe44  1  0.49810158  0.25127687  -0.00093416  1
  Fe  Fe45  1  0.75026039  0.24792961  0.49893260  1
  Fe  Fe46  1  0.25162824  0.25006813  -0.00292505  1
  Fe  Fe47  1  0.75215327  0.50036152  0.00144434  1
  Fe  Fe48  1  0.25348376  0.25132337  0.25680537  1
  Fe  Fe49  1  -0.00147022  0.24708512  0.49892446  1
  Fe  Fe50  1  0.75240867  0.75203089  0.00049628  1
  Fe  Fe51  1  0.50075686  0.74962094  0.50169809  1
  Fe  Fe52  1  0.62554130  0.62478911  0.87454380  1
  Fe  Fe53  1  0.50292212  -0.00286574  0.74602689  1
  Fe  Fe54  1  0.12466153  0.12427784  0.87423809  1
  Fe  Fe55  1  0.37747992  0.87616149  0.87466913  1
  Fe  Fe56  1  0.87279230  0.87928486  0.36897238  1
  Fe  Fe57  1  0.87459064  0.37434694  0.62338347  1
  Fe  Fe58  1  0.62670244  0.62775161  0.12598130  1
  Fe  Fe59  1  0.74771829  0.24952661  0.25177975  1
  Fe  Fe60  1  0.12644531  0.12613781  0.62363723  1
  Fe  Fe61  1  0.12838892  0.12680007  0.12558660  1
  Fe  Fe62  1  -0.00175396  0.74984082  -0.00005147  1
  Fe  Fe63  1  0.25225675  0.00005007  0.00044460  1
  Fe  Fe64  1  0.75104336  0.75329050  0.75373596  1
  Fe  Fe65  1  0.24950242  0.74897577  0.49841438  1
  Fe  Fe66  1  0.25072408  -0.00163557  0.74757427  1
  Fe  Fe67  1  0.62642622  0.87491195  0.37359183  1
  Fe  Fe68  1  0.12410576  0.87319035  0.62396211  1
  Fe  Fe69  1  0.87412129  0.12258089  0.37209825  1
  Fe  Fe70  1  0.37387466  0.62375921  0.62430859  1
  Fe  Fe71  1  0.37386079  0.12654352  0.62315677  1
  Fe  Fe72  1  0.75015896  0.25026093  -0.00162631  1
  Fe  Fe73  1  0.37352895  0.37607253  0.12663513  1
  Fe  Fe74  1  0.50290997  0.00105033  0.24633014  1
  Fe  Fe75  1  0.75257575  0.75002255  0.49665711  1
  Fe  Fe76  1  -0.00101830  -0.00107113  0.49850907  1
  Fe  Fe77  1  0.00011532  0.49712043  0.24606748  1
  Fe  Fe78  1  0.12056211  0.37558990  0.87862717  1
  Fe  Fe79  1  0.49737839  0.25099849  0.25458811  1
  Fe  Fe80  1  0.87313231  0.12405351  0.12657606  1
  Fe  Fe81  1  0.88034626  0.62282910  0.87334997  1
  Fe  Fe82  1  0.37718843  0.87497143  0.12476879  1
  Fe  Fe83  1  0.74991809  0.50235751  0.50054465  1
  Fe  Fe84  1  0.87840645  0.37605614  0.87711014  1
  Fe  Fe85  1  0.50268581  0.25328348  0.74560680  1
  Fe  Fe86  1  0.24893450  0.50117905  -0.00094517  1
  Fe  Fe87  1  0.62291774  0.12340529  0.87521503  1
  Fe  Fe88  1  0.00049305  0.00077296  0.00245025  1
  Fe  Fe89  1  0.12586538  0.62552059  0.12560908  1
  Co  Co90  1  0.00263188  0.00230974  0.24972303  1
  Co  Co91  1  0.37765194  0.38298054  0.38004410  1
  Co  Co92  1  0.50366595  0.50254048  0.50578659  1
  Co  Co93  1  0.62780013  0.12503431  0.62360133  1
  Co  Co94  1  0.37595059  0.11744735  0.37647654  1
  Co  Co95  1  0.63084395  0.87351572  0.62308342  1
  Co  Co96  1  0.24389195  0.50360343  0.49873482  1
  Co  Co97  1  0.62476569  0.37563797  0.87697310  1
  Co  Co98  1  0.75096599  0.00041278  0.49657848  1
  Co  Co99  1  -0.00116134  0.50043917  0.00594583  1
  Co  Co100  1  0.12821523  0.37221223  0.12447114  1
  Co  Co101  1  0.62834845  0.37237635  0.62015308  1
  Co  Co102  1  0.37303075  0.62322545  0.12603356  1
  Co  Co103  1  0.12186376  0.62802493  0.37235840  1
  Co  Co104  1  0.25473017  0.24957614  0.49459550  1
  Co  Co105  1  0.37183515  0.37743674  0.62198460  1
  Co  Co106  1  0.74665790  -0.00200641  0.75345452  1
  Co  Co107  1  0.37359314  0.87220416  0.62412775  1
  Co  Co108  1  0.62935535  0.62900447  0.62549387  1
  Co  Co109  1  0.87417072  0.62751191  0.12697798  1
  Co  Co110  1  0.49659732  0.24953847  0.49942126  1
  Co  Co111  1  0.50122415  0.00069606  0.00358130  1
  Co  Co112  1  0.00178527  0.49710257  0.74658890  1
  Co  Co113  1  -0.00047030  0.24732857  0.00138422  1
  Co  Co114  1  -0.00157712  0.75401346  0.75199418  1
  Co  Co115  1  0.12122427  0.62460191  0.87530796  1
  Co  Co116  1  0.62124398  0.87461365  0.87706203  1
  Co  Co117  1  0.87585370  0.87854867  0.87753334  1
  Co  Co118  1  0.62376376  0.86827697  0.12674826  1
  Co  Co119  1  0.74350376  0.00222047  0.24669192  1
  Co  Co120  1  0.12173675  0.37307124  0.37676146  1
  Co  Co121  1  0.62354896  0.13123397  0.12375673  1
  Co  Co122  1  0.25084090  -0.00063734  0.24702244  1
  Co  Co123  1  0.87487947  0.87695587  0.12841944  1
  Co  Co124  1  0.75049973  0.74857221  0.25197229  1
  Co  Co125  1  0.87245649  0.37101124  0.12543806  1
  Co  Co126  1  -0.00345627  0.75328347  0.49741483  1
  Co  Co127  1  0.24911069  -0.00117419  0.50326162  1
