# generated using pymatgen
data_Fe45Co19
_symmetry_space_group_name_H-M   'P 1'
_cell_length_a   11.41505732
_cell_length_b   11.41524219
_cell_length_c   11.41606794
_cell_angle_alpha   90.00044614
_cell_angle_beta   89.99918746
_cell_angle_gamma   90.00253750
_symmetry_Int_Tables_number   1
_chemical_formula_structural   Fe45Co19
_chemical_formula_sum   'Fe90 Co38'
_cell_volume   1487.57808160
_cell_formula_units_Z   2
loop_
 _symmetry_equiv_pos_site_id
 _symmetry_equiv_pos_as_xyz
  1  'x, y, z'
loop_
 _atom_site_type_symbol
 _atom_site_label
 _atom_site_symmetry_multiplicity
 _atom_site_fract_x
 _atom_site_fract_y
 _atom_site_fract_z
 _atom_site_occupancy
  Fe  Fe0  1  0.87581580  0.62458978  0.12824580  1
  Fe  Fe1  1  0.62790806  0.87576459  0.62385766  1
  Fe  Fe2  1  0.25074752  0.50377939  0.00035994  1
  Fe  Fe3  1  0.62494399  0.62373752  0.37351390  1
  Fe  Fe4  1  0.49701624  0.74758865  0.00128324  1
  Fe  Fe5  1  0.62662175  0.37429456  0.37481529  1
  Fe  Fe6  1  0.12462703  0.12408067  0.62312341  1
  Fe  Fe7  1  0.49843577  0.25133304  0.74714678  1
  Fe  Fe8  1  0.50031931  0.24783982  0.00206021  1
  Fe  Fe9  1  0.74996183  0.00063244  0.25148730  1
  Fe  Fe10  1  0.75413421  0.74880636  0.50119915  1
  Fe  Fe11  1  0.12472661  0.63109687  0.62232755  1
  Fe  Fe12  1  0.87559613  0.37564262  0.12503680  1
  Fe  Fe13  1  0.37264771  0.12360994  0.12644940  1
  Fe  Fe14  1  0.12441364  0.87208111  0.87531056  1
  Fe  Fe15  1  0.49734847  0.24803914  0.50098243  1
  Fe  Fe16  1  0.37270985  0.37480935  0.12722920  1
  Fe  Fe17  1  0.88013380  0.12271690  0.12807513  1
  Fe  Fe18  1  0.87537639  0.37850351  0.62770885  1
  Fe  Fe19  1  0.62429127  0.12542524  0.62440928  1
  Fe  Fe20  1  0.62628016  0.87411614  0.87587415  1
  Fe  Fe21  1  0.75314046  0.50070993  -0.00182180  1
  Fe  Fe22  1  0.87766607  0.62481106  0.37558944  1
  Fe  Fe23  1  0.37459289  0.87398104  0.87498279  1
  Fe  Fe24  1  0.37431245  0.37677105  0.87378652  1
  Fe  Fe25  1  0.88081711  0.12459911  0.37154628  1
  Fe  Fe26  1  0.12481949  0.87158060  0.38089231  1
  Fe  Fe27  1  0.62496273  0.37350297  0.87669023  1
  Fe  Fe28  1  0.62531196  0.87547647  0.37719183  1
  Fe  Fe29  1  -0.00066172  0.25317376  0.49903012  1
  Fe  Fe30  1  0.62713181  0.37683213  0.12614706  1
  Fe  Fe31  1  -0.00131625  -0.00269404  -0.00104946  1
  Fe  Fe32  1  0.62689248  0.87610847  0.12331061  1
  Fe  Fe33  1  0.24138335  0.24660739  0.24897090  1
  Fe  Fe34  1  -0.00123217  -0.00421415  0.50077303  1
  Fe  Fe35  1  0.24778252  -0.00098273  0.75118020  1
  Fe  Fe36  1  0.75143312  0.00177340  0.75371530  1
  Fe  Fe37  1  0.62736864  0.62618960  0.62575839  1
  Fe  Fe38  1  0.74964751  0.49928874  0.50018262  1
  Fe  Fe39  1  0.75165218  0.25105263  0.75176281  1
  Fe  Fe40  1  -0.00306734  0.74912492  0.00119824  1
  Fe  Fe41  1  0.87604783  0.62244020  0.86835405  1
  Fe  Fe42  1  -0.00325290  0.75397984  0.74336465  1
  Fe  Fe43  1  0.24915560  0.74941962  0.25239807  1
  Fe  Fe44  1  0.75149286  0.24727287  -0.00159669  1
  Fe  Fe45  1  0.75238091  0.74839987  -0.00080050  1
  Fe  Fe46  1  0.50081165  0.49825393  0.49968579  1
  Fe  Fe47  1  0.25360880  0.00192326  0.49758610  1
  Fe  Fe48  1  0.00170698  0.25200308  0.75000849  1
  Fe  Fe49  1  0.49820139  0.75178648  0.49966717  1
  Fe  Fe50  1  0.24818596  0.24899585  0.00158520  1
  Fe  Fe51  1  0.00115275  -0.00278252  0.74882928  1
  Fe  Fe52  1  0.37234364  0.37312032  0.37473332  1
  Fe  Fe53  1  0.75351325  0.24937752  0.49951079  1
  Fe  Fe54  1  0.49998885  0.75036677  0.74975734  1
  Fe  Fe55  1  0.12368529  0.62429167  0.12697690  1
  Fe  Fe56  1  0.49698292  0.50092314  0.00250648  1
  Fe  Fe57  1  0.24466626  0.00240380  0.25243463  1
  Fe  Fe58  1  0.25058377  0.24761112  0.50125224  1
  Fe  Fe59  1  0.00063037  0.25180628  0.00198584  1
  Fe  Fe60  1  0.49996803  -0.00039621  0.74823226  1
  Fe  Fe61  1  0.12392212  0.12457344  0.87729820  1
  Fe  Fe62  1  0.24632702  0.50021861  0.74818096  1
  Fe  Fe63  1  0.37469442  0.12567204  0.87355348  1
  Fe  Fe64  1  0.75165685  0.24943394  0.25105493  1
  Fe  Fe65  1  0.75165293  0.00321813  -0.00282880  1
  Fe  Fe66  1  0.75047845  0.00302192  0.49798741  1
  Fe  Fe67  1  0.49957763  0.00260316  0.00005729  1
  Fe  Fe68  1  0.50078430  0.75000223  0.24942407  1
  Fe  Fe69  1  0.37208935  0.87425391  0.62417487  1
  Fe  Fe70  1  0.62494392  0.62223654  0.12701702  1
  Fe  Fe71  1  0.37341821  0.87660228  0.12707582  1
  Fe  Fe72  1  0.50296398  0.49759983  0.74753001  1
  Fe  Fe73  1  0.24811930  0.50264474  0.49944342  1
  Fe  Fe74  1  0.12614104  0.87482012  0.12216619  1
  Fe  Fe75  1  -0.00148222  0.75494164  0.25108448  1
  Fe  Fe76  1  0.37667771  0.62535814  0.37322271  1
  Fe  Fe77  1  0.00078005  0.49550852  0.25164709  1
  Fe  Fe78  1  0.12294601  0.62702300  0.87347118  1
  Fe  Fe79  1  0.37447222  0.62448837  0.62696517  1
  Fe  Fe80  1  0.50237117  0.24911918  0.24948805  1
  Fe  Fe81  1  0.87708420  0.12404311  0.62680136  1
  Fe  Fe82  1  0.50215985  0.00222281  0.25297226  1
  Fe  Fe83  1  0.75079147  0.75043991  0.25057572  1
  Fe  Fe84  1  0.12297570  0.37795078  0.87792270  1
  Fe  Fe85  1  0.24871264  0.25087591  0.74874333  1
  Fe  Fe86  1  0.62451184  0.62492870  0.87409200  1
  Fe  Fe87  1  0.00214737  0.49959226  0.50078026  1
  Fe  Fe88  1  0.25293128  0.74730152  -0.00095559  1
  Fe  Fe89  1  0.24838719  0.50083621  0.25183672  1
  Co  Co90  1  0.12527439  0.38007695  0.12293450  1
  Co  Co91  1  0.62636700  0.37110083  0.62198691  1
  Co  Co92  1  0.87953981  0.12597010  0.87480619  1
  Co  Co93  1  0.37538200  0.87539462  0.37229565  1
  Co  Co94  1  0.75136045  0.75025822  0.74948779  1
  Co  Co95  1  0.11961350  0.12576399  0.37966898  1
  Co  Co96  1  0.49942896  0.49783057  0.25107383  1
  Co  Co97  1  0.00435145  -0.00546422  0.25182525  1
  Co  Co98  1  -0.00596920  0.75276702  0.50392468  1
  Co  Co99  1  0.62237368  0.12660739  0.87278376  1
  Co  Co100  1  0.87278967  0.87698409  0.12434030  1
  Co  Co101  1  0.87301867  0.87553723  0.37531226  1
  Co  Co102  1  0.25039183  0.75054994  0.75104770  1
  Co  Co103  1  0.25389561  0.74738156  0.49686780  1
  Co  Co104  1  0.87752109  0.37681400  0.87350408  1
  Co  Co105  1  0.00440821  0.25400696  0.24921585  1
  Co  Co106  1  0.75192350  0.49975000  0.25160916  1
  Co  Co107  1  0.74571032  0.49682031  0.75003768  1
  Co  Co108  1  0.12064809  0.12092038  0.12193520  1
  Co  Co109  1  0.37276217  0.37737044  0.62410190  1
  Co  Co110  1  0.86937256  0.87865758  0.62505152  1
  Co  Co111  1  0.62517897  0.12725640  0.37732784  1
  Co  Co112  1  0.62713392  0.12412979  0.12544512  1
  Co  Co113  1  0.00542572  0.49928462  0.74685050  1
  Co  Co114  1  0.87501918  0.87367933  0.87476661  1
  Co  Co115  1  0.87498445  0.37557787  0.37583067  1
  Co  Co116  1  0.87399872  0.61992167  0.62699313  1
  Co  Co117  1  0.37459929  0.12723582  0.37190519  1
  Co  Co118  1  0.11991620  0.62747023  0.37504019  1
  Co  Co119  1  0.37359492  0.12377483  0.62689754  1
  Co  Co120  1  0.37576095  0.62256848  0.87047633  1
  Co  Co121  1  0.25051378  -0.00014779  -0.00217692  1
  Co  Co122  1  0.49795829  0.00031848  0.49933962  1
  Co  Co123  1  0.37441241  0.62528041  0.12911990  1
  Co  Co124  1  0.12747672  0.37423687  0.37734971  1
  Co  Co125  1  0.12995754  0.87367117  0.62068217  1
  Co  Co126  1  0.12556402  0.37269593  0.62238020  1
  Co  Co127  1  -0.00244185  0.50304011  0.00037409  1
