# generated using pymatgen
data_Fe45Co19
_symmetry_space_group_name_H-M   'P 1'
_cell_length_a   11.41518570
_cell_length_b   11.41514892
_cell_length_c   11.41588489
_cell_angle_alpha   90.00047649
_cell_angle_beta   89.99858787
_cell_angle_gamma   90.00713149
_symmetry_Int_Tables_number   1
_chemical_formula_structural   Fe45Co19
_chemical_formula_sum   'Fe90 Co38'
_cell_volume   1487.55879565
_cell_formula_units_Z   2
loop_
 _symmetry_equiv_pos_site_id
 _symmetry_equiv_pos_as_xyz
  1  'x, y, z'
loop_
 _atom_site_type_symbol
 _atom_site_label
 _atom_site_symmetry_multiplicity
 _atom_site_fract_x
 _atom_site_fract_y
 _atom_site_fract_z
 _atom_site_occupancy
  Fe  Fe0  1  0.12456024  0.87658404  0.12333639  1
  Fe  Fe1  1  0.25222358  0.49704771  0.00469369  1
  Fe  Fe2  1  0.25229982  0.00161163  0.00253947  1
  Fe  Fe3  1  0.50347196  0.75002325  0.75083309  1
  Fe  Fe4  1  0.87362179  0.87402002  0.37611180  1
  Fe  Fe5  1  0.62621509  0.62194981  0.87355505  1
  Fe  Fe6  1  0.12655268  0.62391920  0.87631724  1
  Fe  Fe7  1  0.37688787  0.62815969  0.12483863  1
  Fe  Fe8  1  0.12611633  0.62349771  0.37492726  1
  Fe  Fe9  1  0.37722412  0.87317424  0.12641615  1
  Fe  Fe10  1  -0.00692259  0.00231118  -0.00220676  1
  Fe  Fe11  1  0.87330618  0.62619395  0.37500795  1
  Fe  Fe12  1  0.25050173  -0.00003341  0.74814660  1
  Fe  Fe13  1  0.37450406  0.62416071  0.37533453  1
  Fe  Fe14  1  0.87393278  0.12893544  0.62570143  1
  Fe  Fe15  1  0.75257640  0.50152874  0.00191492  1
  Fe  Fe16  1  0.38142746  0.13167409  0.12613439  1
  Fe  Fe17  1  0.62533741  0.87668906  0.62498992  1
  Fe  Fe18  1  0.75064008  0.24687344  0.00176416  1
  Fe  Fe19  1  0.63295422  0.87757959  0.87852640  1
  Fe  Fe20  1  0.50309564  0.74951310  0.49820402  1
  Fe  Fe21  1  -0.00154860  0.74876183  -0.00046434  1
  Fe  Fe22  1  0.49815964  0.49723560  0.00001121  1
  Fe  Fe23  1  -0.00513117  -0.00083442  0.75091863  1
  Fe  Fe24  1  0.74812933  0.00282250  0.24474204  1
  Fe  Fe25  1  0.62952929  0.12254186  0.87342117  1
  Fe  Fe26  1  0.50092784  0.00007700  0.75128911  1
  Fe  Fe27  1  0.24765678  0.24384179  0.49683295  1
  Fe  Fe28  1  0.50237159  0.75170910  -0.00063264  1
  Fe  Fe29  1  0.50252575  0.00084899  0.00036399  1
  Fe  Fe30  1  0.12405013  0.12267313  0.87508063  1
  Fe  Fe31  1  0.24932417  0.25086772  0.00258104  1
  Fe  Fe32  1  0.37838962  0.12792365  0.62353971  1
  Fe  Fe33  1  0.74745603  0.74940694  0.25000360  1
  Fe  Fe34  1  0.00202230  0.25072491  0.74960761  1
  Fe  Fe35  1  0.37387072  0.62727913  0.87536804  1
  Fe  Fe36  1  0.37357573  0.37415289  0.87411942  1
  Fe  Fe37  1  0.87489614  0.37368524  0.87492718  1
  Fe  Fe38  1  0.87755311  0.37450001  0.12449474  1
  Fe  Fe39  1  0.25260779  0.49978307  0.74710267  1
  Fe  Fe40  1  0.74646361  0.25025284  0.24960832  1
  Fe  Fe41  1  0.25156489  0.00402218  0.24941905  1
  Fe  Fe42  1  0.62282226  0.62528303  0.12662868  1
  Fe  Fe43  1  0.24931453  0.74988812  0.25037998  1
  Fe  Fe44  1  0.87300990  0.37361363  0.37639350  1
  Fe  Fe45  1  -0.00279214  0.49946287  0.74895663  1
  Fe  Fe46  1  0.12441738  0.62551753  0.62441435  1
  Fe  Fe47  1  0.75087228  0.49806090  0.24846954  1
  Fe  Fe48  1  0.74376494  0.25310716  0.50168103  1
  Fe  Fe49  1  0.62742859  0.37797818  0.87411473  1
  Fe  Fe50  1  0.62646491  0.61975310  0.62408254  1
  Fe  Fe51  1  0.24785210  0.24825678  0.75049909  1
  Fe  Fe52  1  0.12555762  0.37445043  0.62420455  1
  Fe  Fe53  1  0.87360301  0.62832827  0.62368863  1
  Fe  Fe54  1  0.49525596  0.49411080  0.50086691  1
  Fe  Fe55  1  0.12460906  0.87587271  0.87686194  1
  Fe  Fe56  1  0.12473054  0.88054736  0.37860805  1
  Fe  Fe57  1  0.12227581  0.87831420  0.62187635  1
  Fe  Fe58  1  0.62110044  0.37157623  0.12417259  1
  Fe  Fe59  1  0.87232994  0.12574323  0.37440865  1
  Fe  Fe60  1  0.50024377  0.00265781  0.49905531  1
  Fe  Fe61  1  0.37690369  0.87366472  0.62451608  1
  Fe  Fe62  1  0.75183348  -0.00057419  0.50288928  1
  Fe  Fe63  1  0.62549767  0.87707124  0.37336226  1
  Fe  Fe64  1  0.87285909  0.62876935  0.87262041  1
  Fe  Fe65  1  0.00267384  0.24791567  0.49834662  1
  Fe  Fe66  1  0.62546872  0.62029220  0.37594432  1
  Fe  Fe67  1  0.49549226  0.49858380  0.74784580  1
  Fe  Fe68  1  0.74773258  0.25291876  0.74675343  1
  Fe  Fe69  1  0.00110196  0.75193931  0.25172852  1
  Fe  Fe70  1  -0.00319070  -0.00071799  0.25081299  1
  Fe  Fe71  1  0.87129534  0.87303717  0.12205360  1
  Fe  Fe72  1  0.37474975  0.12463290  0.87496483  1
  Fe  Fe73  1  0.00260794  0.25080552  0.25276363  1
  Fe  Fe74  1  -0.00234528  0.49935530  0.49969240  1
  Fe  Fe75  1  0.87557169  0.86907392  0.62455809  1
  Fe  Fe76  1  0.12121937  0.12467736  0.12597427  1
  Fe  Fe77  1  0.12410425  0.37767079  0.87678689  1
  Fe  Fe78  1  0.50290958  0.25104612  0.75051199  1
  Fe  Fe79  1  -0.00066918  0.49853918  0.25140729  1
  Fe  Fe80  1  0.37429308  0.87409498  0.87539465  1
  Fe  Fe81  1  0.49686651  0.49637445  0.25068424  1
  Fe  Fe82  1  0.50269126  0.00201571  0.24911496  1
  Fe  Fe83  1  0.25324228  0.49978486  0.50310855  1
  Fe  Fe84  1  0.37556149  0.87651247  0.37451426  1
  Fe  Fe85  1  0.24961778  0.75169588  0.49964353  1
  Fe  Fe86  1  0.24856508  0.75131602  0.74914901  1
  Fe  Fe87  1  0.13014944  0.37706051  0.37297995  1
  Fe  Fe88  1  0.12267113  0.62317897  0.12460873  1
  Fe  Fe89  1  -0.00039154  0.24934311  -0.00068941  1
  Co  Co90  1  0.75467631  -0.00232500  0.74684456  1
  Co  Co91  1  0.62409331  0.38025432  0.62652190  1
  Co  Co92  1  0.50139176  0.25088902  -0.00787328  1
  Co  Co93  1  0.12314870  0.12171608  0.62608516  1
  Co  Co94  1  0.00119436  0.74892408  0.49725172  1
  Co  Co95  1  0.75546370  0.49910549  0.74921355  1
  Co  Co96  1  0.25243958  0.50083294  0.24425025  1
  Co  Co97  1  0.25314822  0.00269459  0.50145855  1
  Co  Co98  1  0.50093781  0.74941565  0.25272887  1
  Co  Co99  1  0.74515150  0.74990022  0.74796485  1
  Co  Co100  1  0.75262560  0.00712934  0.00436498  1
  Co  Co101  1  0.87832857  0.12806051  0.12944575  1
  Co  Co102  1  0.87020705  0.87153405  0.87758823  1
  Co  Co103  1  0.62440033  0.12279510  0.62534314  1
  Co  Co104  1  0.75449721  0.49835003  0.50102813  1
  Co  Co105  1  0.36878100  0.37328855  0.37330296  1
  Co  Co106  1  0.37636074  0.62920724  0.62464365  1
  Co  Co107  1  0.12120456  0.37625866  0.12519669  1
  Co  Co108  1  0.74876596  0.74404205  0.00263455  1
  Co  Co109  1  0.24644142  0.24627310  0.24856901  1
  Co  Co110  1  0.12207539  0.11896326  0.37389383  1
  Co  Co111  1  -0.00633753  0.00269673  0.50117020  1
  Co  Co112  1  0.87671636  0.62539818  0.12985127  1
  Co  Co113  1  -0.00419997  0.50151367  -0.00174273  1
  Co  Co114  1  0.87645698  0.37192153  0.62344380  1
  Co  Co115  1  0.00263332  0.75019542  0.75101210  1
  Co  Co116  1  0.62813433  0.38076984  0.37569957  1
  Co  Co117  1  0.50559642  0.25259278  0.49597032  1
  Co  Co118  1  0.37383906  0.36739540  0.62387618  1
  Co  Co119  1  0.37975060  0.36784752  0.12814813  1
  Co  Co120  1  0.24985489  0.75077731  0.00166022  1
  Co  Co121  1  0.37738979  0.12585318  0.37482934  1
  Co  Co122  1  0.50434207  0.25167797  0.26078994  1
  Co  Co123  1  0.62631867  0.87401596  0.12396398  1
  Co  Co124  1  0.62879648  0.12134456  0.37645132  1
  Co  Co125  1  0.87238173  0.12833186  0.87044249  1
  Co  Co126  1  0.62007756  0.13002960  0.12460314  1
  Co  Co127  1  0.74605118  0.75003963  0.49854896  1
