# generated using pymatgen
data_Fe45Co19
_symmetry_space_group_name_H-M   'P 1'
_cell_length_a   11.41395487
_cell_length_b   11.41395515
_cell_length_c   11.41429748
_cell_angle_alpha   90.00277844
_cell_angle_beta   89.99406286
_cell_angle_gamma   90.00729798
_symmetry_Int_Tables_number   1
_chemical_formula_structural   Fe45Co19
_chemical_formula_sum   'Fe90 Co38'
_cell_volume   1487.03603768
_cell_formula_units_Z   2
loop_
 _symmetry_equiv_pos_site_id
 _symmetry_equiv_pos_as_xyz
  1  'x, y, z'
loop_
 _atom_site_type_symbol
 _atom_site_label
 _atom_site_symmetry_multiplicity
 _atom_site_fract_x
 _atom_site_fract_y
 _atom_site_fract_z
 _atom_site_occupancy
  Fe  Fe0  1  0.62678542  0.37554592  0.12554071  1
  Fe  Fe1  1  0.12570458  0.37561703  0.62645250  1
  Fe  Fe2  1  0.62498600  0.12802357  0.37474505  1
  Fe  Fe3  1  0.49937731  -0.00274066  0.75099089  1
  Fe  Fe4  1  0.24901855  0.00072772  0.74868991  1
  Fe  Fe5  1  0.37391634  0.87236193  0.62218745  1
  Fe  Fe6  1  0.87538863  0.87076436  0.87404600  1
  Fe  Fe7  1  0.37603992  0.12432388  0.87471396  1
  Fe  Fe8  1  0.87673834  0.62071808  0.12177624  1
  Fe  Fe9  1  0.12507504  0.12644609  0.87571901  1
  Fe  Fe10  1  0.37411741  0.37668504  0.12341368  1
  Fe  Fe11  1  0.87459901  0.37674187  0.62859062  1
  Fe  Fe12  1  0.74920184  0.49921630  0.24927502  1
  Fe  Fe13  1  0.37730305  0.62441948  0.12697623  1
  Fe  Fe14  1  0.00041830  0.74952721  0.49999471  1
  Fe  Fe15  1  0.37963463  0.62423094  0.62543639  1
  Fe  Fe16  1  0.25042047  0.25005158  0.24668846  1
  Fe  Fe17  1  0.00141796  -0.00179048  0.75141360  1
  Fe  Fe18  1  0.12716205  0.87323578  0.62356973  1
  Fe  Fe19  1  0.25162178  0.25041479  0.75056560  1
  Fe  Fe20  1  0.62427672  0.62089570  0.37565734  1
  Fe  Fe21  1  -0.00012929  -0.00227290  -0.00187010  1
  Fe  Fe22  1  0.12344478  0.12810573  0.12122745  1
  Fe  Fe23  1  0.74908094  0.00289830  0.24802532  1
  Fe  Fe24  1  0.37579385  0.87478836  0.12545198  1
  Fe  Fe25  1  0.25032439  0.24936848  0.50272410  1
  Fe  Fe26  1  0.87326453  0.87421537  0.12452159  1
  Fe  Fe27  1  0.24848210  0.00155398  0.24923977  1
  Fe  Fe28  1  0.00158930  0.00081665  0.50151163  1
  Fe  Fe29  1  -0.00418316  0.25734036  -0.00472863  1
  Fe  Fe30  1  0.12687796  0.87424764  0.37756165  1
  Fe  Fe31  1  0.74841207  -0.00036708  0.00001465  1
  Fe  Fe32  1  0.00117833  0.49908909  0.24959010  1
  Fe  Fe33  1  -0.00002311  0.74897047  0.24838856  1
  Fe  Fe34  1  0.24927113  0.74657074  0.00135611  1
  Fe  Fe35  1  -0.00189767  0.49702622  0.49899586  1
  Fe  Fe36  1  0.87391643  0.87296209  0.62620623  1
  Fe  Fe37  1  0.37744860  0.12646869  0.62596694  1
  Fe  Fe38  1  0.74952622  0.74785902  0.24895054  1
  Fe  Fe39  1  0.87759092  0.62447213  0.62618369  1
  Fe  Fe40  1  0.87341133  0.87436820  0.37603459  1
  Fe  Fe41  1  0.50302639  0.00074682  0.24683798  1
  Fe  Fe42  1  0.62536982  0.37599309  0.87347264  1
  Fe  Fe43  1  0.49948263  0.25367712  0.49938424  1
  Fe  Fe44  1  0.62629073  0.87507054  0.37500668  1
  Fe  Fe45  1  0.87753953  0.62536430  0.87569393  1
  Fe  Fe46  1  0.12546432  0.87363168  0.12368832  1
  Fe  Fe47  1  0.12441085  0.12661011  0.37717178  1
  Fe  Fe48  1  0.75066852  0.25301807  0.50075808  1
  Fe  Fe49  1  0.24597226  0.74433470  0.74886759  1
  Fe  Fe50  1  0.49924786  0.49562558  0.49809530  1
  Fe  Fe51  1  0.87644166  0.12685119  0.37646111  1
  Fe  Fe52  1  0.74703437  0.74552579  0.00049077  1
  Fe  Fe53  1  0.62480971  0.12570961  0.87574796  1
  Fe  Fe54  1  0.74563607  0.50608714  0.75063950  1
  Fe  Fe55  1  0.37196168  0.37818870  0.87369718  1
  Fe  Fe56  1  0.12518805  0.62387756  0.37628092  1
  Fe  Fe57  1  0.25023241  0.50037909  0.24824473  1
  Fe  Fe58  1  0.12727346  0.37692475  0.11913477  1
  Fe  Fe59  1  -0.00042105  0.25253438  0.24916104  1
  Fe  Fe60  1  0.62388598  0.37617380  0.62699578  1
  Fe  Fe61  1  0.50105781  -0.00098146  0.00172548  1
  Fe  Fe62  1  0.00534361  0.50124004  0.75388989  1
  Fe  Fe63  1  0.75382548  0.25375073  -0.00194587  1
  Fe  Fe64  1  0.50255903  0.74951671  0.24954763  1
  Fe  Fe65  1  0.87683468  0.12606335  0.62589889  1
  Fe  Fe66  1  0.37824752  0.62566417  0.87288725  1
  Fe  Fe67  1  0.74885173  0.00068540  0.50132614  1
  Fe  Fe68  1  0.25046693  0.00186104  0.00098149  1
  Fe  Fe69  1  0.37325974  0.87195408  0.87554010  1
  Fe  Fe70  1  0.37630394  0.62417570  0.37452125  1
  Fe  Fe71  1  0.75007935  0.24840039  0.75119982  1
  Fe  Fe72  1  0.74591901  0.74678153  0.50434935  1
  Fe  Fe73  1  0.62412380  0.86996839  0.87420293  1
  Fe  Fe74  1  0.87454216  0.12708401  0.12283737  1
  Fe  Fe75  1  0.87356453  0.62376074  0.37629431  1
  Fe  Fe76  1  0.12778376  0.37527616  0.37628661  1
  Fe  Fe77  1  0.25193074  0.50042938  0.50276860  1
  Fe  Fe78  1  0.37438241  0.12591993  0.37368889  1
  Fe  Fe79  1  0.74971977  -0.00058790  0.75101089  1
  Fe  Fe80  1  0.37359579  0.87455390  0.37648119  1
  Fe  Fe81  1  0.49982324  0.25306455  0.25022437  1
  Fe  Fe82  1  -0.00012524  -0.00043366  0.24966010  1
  Fe  Fe83  1  0.49972953  -0.00135055  0.50048142  1
  Fe  Fe84  1  0.49779251  0.24997760  -0.00122822  1
  Fe  Fe85  1  -0.00050075  0.25170642  0.75354512  1
  Fe  Fe86  1  0.87280036  0.37497314  0.37414769  1
  Fe  Fe87  1  0.62298097  0.12529103  0.62697391  1
  Fe  Fe88  1  0.24827451  0.74830642  0.24996945  1
  Fe  Fe89  1  0.50244639  0.50243141  -0.00056269  1
  Co  Co90  1  0.75144912  0.24972416  0.25069357  1
  Co  Co91  1  0.12254120  0.62199240  0.12280562  1
  Co  Co92  1  0.12751741  0.87350547  0.87580158  1
  Co  Co93  1  0.62607358  0.12951143  0.12234499  1
  Co  Co94  1  0.50024576  0.75270044  0.74736394  1
  Co  Co95  1  0.62018590  0.62855227  0.87284813  1
  Co  Co96  1  0.37507028  0.37515657  0.62788729  1
  Co  Co97  1  0.12278916  0.12737360  0.62702915  1
  Co  Co98  1  0.49959924  0.74890388  0.00247118  1
  Co  Co99  1  0.87530174  0.12322309  0.87523157  1
  Co  Co100  1  0.00380364  0.74958491  0.75023251  1
  Co  Co101  1  0.25436924  0.24815449  -0.00063716  1
  Co  Co102  1  0.12266626  0.62415411  0.88026703  1
  Co  Co103  1  0.87333133  0.37868032  0.12709041  1
  Co  Co104  1  0.00070107  0.75089550  0.00167102  1
  Co  Co105  1  0.25071081  0.74572474  0.50025893  1
  Co  Co106  1  0.37712291  0.12425751  0.12637557  1
  Co  Co107  1  0.62585049  0.87273599  0.12452970  1
  Co  Co108  1  0.25050685  0.00334671  0.50114988  1
  Co  Co109  1  0.49989697  0.49739206  0.75206638  1
  Co  Co110  1  0.13165050  0.37580274  0.87658854  1
  Co  Co111  1  0.61845225  0.62233719  0.62521129  1
  Co  Co112  1  0.74727867  0.50087590  -0.00288679  1
  Co  Co113  1  0.24881122  0.50423084  0.74870587  1
  Co  Co114  1  0.49879483  0.49668947  0.25043457  1
  Co  Co115  1  0.87128513  0.38128352  0.86922298  1
  Co  Co116  1  0.25316548  0.50479581  -0.00123544  1
  Co  Co117  1  0.75071682  0.49951604  0.50286137  1
  Co  Co118  1  0.62507171  0.87614060  0.62665969  1
  Co  Co119  1  -0.00127837  0.25374662  0.50037492  1
  Co  Co120  1  0.62455526  0.62254381  0.12709400  1
  Co  Co121  1  0.62786302  0.37673501  0.37388276  1
  Co  Co122  1  0.49959836  0.25126784  0.75260438  1
  Co  Co123  1  0.12159502  0.62263927  0.62117885  1
  Co  Co124  1  -0.00146572  0.49447122  -0.00304862  1
  Co  Co125  1  0.74910643  0.74640977  0.74721317  1
  Co  Co126  1  0.50262407  0.75081908  0.49853199  1
  Co  Co127  1  0.37073081  0.37442134  0.37479636  1
