# generated using pymatgen
data_Fe45Co19
_symmetry_space_group_name_H-M   'P 1'
_cell_length_a   11.41464429
_cell_length_b   11.41640929
_cell_length_c   11.41532271
_cell_angle_alpha   89.99809651
_cell_angle_beta   90.00021507
_cell_angle_gamma   90.00057776
_symmetry_Int_Tables_number   1
_chemical_formula_structural   Fe45Co19
_chemical_formula_sum   'Fe90 Co38'
_cell_volume   1487.57922929
_cell_formula_units_Z   2
loop_
 _symmetry_equiv_pos_site_id
 _symmetry_equiv_pos_as_xyz
  1  'x, y, z'
loop_
 _atom_site_type_symbol
 _atom_site_label
 _atom_site_symmetry_multiplicity
 _atom_site_fract_x
 _atom_site_fract_y
 _atom_site_fract_z
 _atom_site_occupancy
  Fe  Fe0  1  -0.00008965  -0.00251169  0.49682330  1
  Fe  Fe1  1  0.87144916  0.37558840  0.62450709  1
  Fe  Fe2  1  0.74187114  0.25049367  0.49842994  1
  Fe  Fe3  1  0.75021760  0.00199282  0.75045729  1
  Fe  Fe4  1  0.37539293  0.87560745  0.87487397  1
  Fe  Fe5  1  0.87080040  0.12552517  0.37323411  1
  Fe  Fe6  1  0.12242959  0.62340819  0.87921323  1
  Fe  Fe7  1  -0.00199027  0.25073098  0.24955958  1
  Fe  Fe8  1  0.62624441  0.87249321  0.37063917  1
  Fe  Fe9  1  0.25161745  0.74748300  0.75153817  1
  Fe  Fe10  1  0.25242339  0.74996983  0.00199541  1
  Fe  Fe11  1  -0.00248492  0.75050884  0.75296611  1
  Fe  Fe12  1  0.12506087  0.12616663  0.12477438  1
  Fe  Fe13  1  0.38114295  0.12602639  0.37875836  1
  Fe  Fe14  1  0.50050471  0.25417031  0.00160725  1
  Fe  Fe15  1  0.25090299  0.49774448  0.50122720  1
  Fe  Fe16  1  0.74760550  0.50183197  0.24936908  1
  Fe  Fe17  1  0.49917181  0.75266152  0.49874127  1
  Fe  Fe18  1  0.74941808  -0.00012316  0.00296851  1
  Fe  Fe19  1  0.49944665  0.00211573  0.74981554  1
  Fe  Fe20  1  0.12477774  0.12626054  0.87680050  1
  Fe  Fe21  1  0.62398246  0.87129237  0.12820279  1
  Fe  Fe22  1  0.24876377  0.75038094  0.49911693  1
  Fe  Fe23  1  0.87403112  0.87484298  0.62420191  1
  Fe  Fe24  1  0.12327030  0.62515804  0.62349519  1
  Fe  Fe25  1  0.37758798  0.36985476  0.62943918  1
  Fe  Fe26  1  0.37716453  0.37363452  0.37378158  1
  Fe  Fe27  1  0.37539941  0.87519741  0.62606836  1
  Fe  Fe28  1  0.75201342  0.74793194  0.75197915  1
  Fe  Fe29  1  0.87321822  0.87254485  0.37287701  1
  Fe  Fe30  1  0.12500502  0.62388557  0.37735695  1
  Fe  Fe31  1  0.87776285  0.62395263  0.12183389  1
  Fe  Fe32  1  0.74993859  0.74939188  -0.00025602  1
  Fe  Fe33  1  0.25288087  0.24788572  0.24955207  1
  Fe  Fe34  1  0.87504662  0.87563874  0.12369725  1
  Fe  Fe35  1  -0.00077346  0.00071686  0.75179733  1
  Fe  Fe36  1  0.25108850  0.00110060  0.00001893  1
  Fe  Fe37  1  -0.00046128  0.00150433  0.24963615  1
  Fe  Fe38  1  0.62672592  0.37502815  0.87360278  1
  Fe  Fe39  1  0.37769795  0.62382122  0.88048538  1
  Fe  Fe40  1  0.62098491  0.62592609  0.37252885  1
  Fe  Fe41  1  0.74641866  0.00040939  0.49739873  1
  Fe  Fe42  1  0.12696915  0.37506615  0.37291653  1
  Fe  Fe43  1  -0.00027803  0.25238635  0.00241155  1
  Fe  Fe44  1  0.74635364  0.24731775  0.74734186  1
  Fe  Fe45  1  0.74977295  0.24974175  0.00226077  1
  Fe  Fe46  1  0.25143112  0.50062383  0.75141477  1
  Fe  Fe47  1  0.25147157  0.25473871  0.00104794  1
  Fe  Fe48  1  0.62319957  0.62494851  0.62574971  1
  Fe  Fe49  1  0.25003140  0.24867392  0.50279981  1
  Fe  Fe50  1  0.25440760  0.50236070  0.24794508  1
  Fe  Fe51  1  0.00061687  0.49811183  0.24997825  1
  Fe  Fe52  1  0.12444223  0.37518680  0.62534940  1
  Fe  Fe53  1  0.87263208  0.37671758  0.37584556  1
  Fe  Fe54  1  -0.00246449  0.49999336  0.75094986  1
  Fe  Fe55  1  0.87225585  0.37537337  0.12560978  1
  Fe  Fe56  1  0.62487116  0.87453677  0.62691275  1
  Fe  Fe57  1  0.12498837  0.12520921  0.37582416  1
  Fe  Fe58  1  0.87204193  0.37548582  0.87409770  1
  Fe  Fe59  1  -0.00028875  0.25187710  0.49886854  1
  Fe  Fe60  1  0.50063633  -0.00097904  0.00134156  1
  Fe  Fe61  1  0.62709025  0.12780877  0.12938446  1
  Fe  Fe62  1  0.49922414  -0.00099473  0.24958599  1
  Fe  Fe63  1  0.62277262  0.62650919  0.87571016  1
  Fe  Fe64  1  0.87638035  0.62392933  0.62318406  1
  Fe  Fe65  1  0.87440475  0.12525215  0.62255192  1
  Fe  Fe66  1  0.37602178  0.62578191  0.62306079  1
  Fe  Fe67  1  0.12918248  0.87750081  0.12787325  1
  Fe  Fe68  1  0.74976537  0.74803951  0.49900390  1
  Fe  Fe69  1  0.49975167  0.49993712  0.75200766  1
  Fe  Fe70  1  0.87531513  0.12400600  0.87812477  1
  Fe  Fe71  1  0.37531595  0.12955611  0.87326664  1
  Fe  Fe72  1  0.37619489  0.12533708  0.12414480  1
  Fe  Fe73  1  0.62507125  0.12458088  0.87688411  1
  Fe  Fe74  1  0.87687717  0.62421231  0.37605305  1
  Fe  Fe75  1  0.49997475  0.49663743  0.49924426  1
  Fe  Fe76  1  0.00082211  0.24906107  0.74901207  1
  Fe  Fe77  1  0.12552975  0.87539630  0.87609451  1
  Fe  Fe78  1  0.74815931  0.50133056  0.00004935  1
  Fe  Fe79  1  0.12399448  0.62137201  0.12146209  1
  Fe  Fe80  1  0.24982434  0.00171394  0.50130870  1
  Fe  Fe81  1  0.37136350  0.87610318  0.37276179  1
  Fe  Fe82  1  0.00085821  0.74957732  0.24996043  1
  Fe  Fe83  1  0.12393032  0.87454907  0.62502194  1
  Fe  Fe84  1  0.25017281  0.00479837  0.74765415  1
  Fe  Fe85  1  0.12655050  0.37595959  0.87501998  1
  Fe  Fe86  1  0.74701086  0.49992800  0.49925901  1
  Fe  Fe87  1  0.61794490  0.62638916  0.12560025  1
  Fe  Fe88  1  0.62520818  0.87474804  0.87338278  1
  Fe  Fe89  1  0.25470822  0.74531654  0.24808360  1
  Co  Co90  1  0.75015114  -0.00102040  0.24827548  1
  Co  Co91  1  0.37948032  0.12770101  0.62355385  1
  Co  Co92  1  0.62634981  0.37486323  0.12772782  1
  Co  Co93  1  0.37592032  0.62318646  0.37867241  1
  Co  Co94  1  0.37501044  0.37767390  0.12632087  1
  Co  Co95  1  0.49823489  0.74932069  0.75045863  1
  Co  Co96  1  0.49910057  0.75546312  -0.00057009  1
  Co  Co97  1  0.62338107  0.12466074  0.37068141  1
  Co  Co98  1  0.87330959  0.87695410  0.87815136  1
  Co  Co99  1  0.75228701  0.74593629  0.24827623  1
  Co  Co100  1  0.50682344  0.25311483  0.50038555  1
  Co  Co101  1  0.62146934  0.12155311  0.62241549  1
  Co  Co102  1  -0.00044877  0.49437267  0.00045793  1
  Co  Co103  1  0.49782735  0.50030836  0.25014932  1
  Co  Co104  1  0.50190471  -0.00443543  0.49798448  1
  Co  Co105  1  0.38113105  0.62214098  0.11898672  1
  Co  Co106  1  0.25163757  0.49704848  -0.00017057  1
  Co  Co107  1  0.75060632  0.25152439  0.25175724  1
  Co  Co108  1  0.50661822  0.24796002  0.75052661  1
  Co  Co109  1  0.12761792  0.37511392  0.12841028  1
  Co  Co110  1  0.25222498  0.00636969  0.25105139  1
  Co  Co111  1  0.00194674  -0.00004780  0.00190857  1
  Co  Co112  1  0.75068842  0.50343182  0.75128170  1
  Co  Co113  1  0.00080073  0.49765936  0.49971000  1
  Co  Co114  1  0.49888870  0.25112335  0.24764355  1
  Co  Co115  1  0.12155091  0.12337780  0.62211124  1
  Co  Co116  1  0.49302224  0.75001045  0.25097447  1
  Co  Co117  1  0.87741346  0.62444200  0.87946955  1
  Co  Co118  1  0.12869115  0.87501290  0.37093025  1
  Co  Co119  1  0.62299409  0.37598100  0.36944719  1
  Co  Co120  1  0.87393000  0.12562486  0.12468571  1
  Co  Co121  1  0.62519269  0.37903453  0.62810524  1
  Co  Co122  1  0.24627593  0.24730540  0.74759977  1
  Co  Co123  1  0.00145324  0.75358407  0.00139251  1
  Co  Co124  1  0.37281438  0.87726820  0.12570667  1
  Co  Co125  1  0.00062905  0.75150488  0.49757339  1
  Co  Co126  1  0.37503613  0.37162510  0.87090324  1
  Co  Co127  1  0.50186537  0.49330116  -0.00147530  1
