# generated using pymatgen
data_Fe45Co19
_symmetry_space_group_name_H-M   'P 1'
_cell_length_a   11.41545487
_cell_length_b   11.41616481
_cell_length_c   11.41496095
_cell_angle_alpha   90.00130851
_cell_angle_beta   90.00707135
_cell_angle_gamma   90.00240533
_symmetry_Int_Tables_number   1
_chemical_formula_structural   Fe45Co19
_chemical_formula_sum   'Fe90 Co38'
_cell_volume   1487.60585007
_cell_formula_units_Z   2
loop_
 _symmetry_equiv_pos_site_id
 _symmetry_equiv_pos_as_xyz
  1  'x, y, z'
loop_
 _atom_site_type_symbol
 _atom_site_label
 _atom_site_symmetry_multiplicity
 _atom_site_fract_x
 _atom_site_fract_y
 _atom_site_fract_z
 _atom_site_occupancy
  Fe  Fe0  1  -0.00014232  0.49963257  0.74912488  1
  Fe  Fe1  1  0.62793747  0.87374035  0.37351793  1
  Fe  Fe2  1  0.62313991  0.62730958  0.87506244  1
  Fe  Fe3  1  0.12337502  0.12676047  0.87423991  1
  Fe  Fe4  1  0.87057525  0.37354014  0.37591047  1
  Fe  Fe5  1  0.74905206  0.00101055  -0.00137513  1
  Fe  Fe6  1  0.12349887  0.37377290  0.12618206  1
  Fe  Fe7  1  -0.00147901  0.49733098  0.00154737  1
  Fe  Fe8  1  0.75111521  0.50091620  0.50016729  1
  Fe  Fe9  1  0.24826302  0.74963994  0.74726912  1
  Fe  Fe10  1  0.37665738  0.87279598  0.87525615  1
  Fe  Fe11  1  -0.00235443  0.00165177  0.25140441  1
  Fe  Fe12  1  0.87476671  0.87293287  0.37811242  1
  Fe  Fe13  1  0.12521141  0.37423617  0.87545553  1
  Fe  Fe14  1  0.75016266  0.24926023  0.50755206  1
  Fe  Fe15  1  0.87807581  0.87343241  0.62581948  1
  Fe  Fe16  1  0.12351482  0.87664242  0.12655363  1
  Fe  Fe17  1  0.37537489  0.12458105  0.37309178  1
  Fe  Fe18  1  0.00030639  0.75091514  0.00099887  1
  Fe  Fe19  1  0.37542425  0.87395831  0.62363204  1
  Fe  Fe20  1  -0.00468078  0.24816745  0.24971664  1
  Fe  Fe21  1  0.75408082  0.74667074  0.25029685  1
  Fe  Fe22  1  0.25011435  0.24592728  0.24734860  1
  Fe  Fe23  1  0.62714905  0.12690315  0.12446902  1
  Fe  Fe24  1  0.50364319  0.25471860  0.25297105  1
  Fe  Fe25  1  -0.00139657  0.00141129  -0.00181450  1
  Fe  Fe26  1  0.24896965  0.74831049  0.00220319  1
  Fe  Fe27  1  0.25034178  0.49848105  0.24998543  1
  Fe  Fe28  1  0.50192368  -0.00245215  0.00094151  1
  Fe  Fe29  1  0.74921678  0.00052664  0.74809634  1
  Fe  Fe30  1  0.25000464  0.49960488  0.75091211  1
  Fe  Fe31  1  0.37426404  0.37447580  0.87533473  1
  Fe  Fe32  1  0.12623425  0.87518386  0.37472376  1
  Fe  Fe33  1  0.87472841  0.12792501  0.86912822  1
  Fe  Fe34  1  0.24815482  0.25085391  0.74816338  1
  Fe  Fe35  1  0.74997770  0.74749342  0.74722402  1
  Fe  Fe36  1  -0.00344886  0.25025714  -0.00003208  1
  Fe  Fe37  1  0.00069996  0.00148949  0.50214403  1
  Fe  Fe38  1  0.24705821  0.50204566  0.49678501  1
  Fe  Fe39  1  0.25075192  0.75231321  0.25219519  1
  Fe  Fe40  1  0.49962433  0.50081906  0.75047292  1
  Fe  Fe41  1  0.12539025  0.37322757  0.37331780  1
  Fe  Fe42  1  0.86893638  0.37375265  0.12641120  1
  Fe  Fe43  1  0.12337155  0.12546440  0.37487618  1
  Fe  Fe44  1  0.62318308  0.87571220  0.62580047  1
  Fe  Fe45  1  0.62810604  0.37547809  0.87118344  1
  Fe  Fe46  1  0.87552134  0.87345545  0.87307856  1
  Fe  Fe47  1  0.25085674  0.24751982  0.00319561  1
  Fe  Fe48  1  0.24927769  -0.00076834  0.49945643  1
  Fe  Fe49  1  0.87359036  0.87619440  0.12392262  1
  Fe  Fe50  1  0.24936428  0.24862078  0.50089275  1
  Fe  Fe51  1  0.62294669  0.87251015  0.87254962  1
  Fe  Fe52  1  0.50245571  0.24980287  0.74638235  1
  Fe  Fe53  1  0.50205895  -0.00062723  0.25098463  1
  Fe  Fe54  1  0.00475470  0.74699061  0.49860363  1
  Fe  Fe55  1  0.00210828  0.49953624  0.49696422  1
  Fe  Fe56  1  0.37639724  0.62771409  0.87630980  1
  Fe  Fe57  1  0.24873080  -0.00063599  0.74924029  1
  Fe  Fe58  1  0.75164483  -0.00012683  0.50211397  1
  Fe  Fe59  1  0.87548389  0.62598421  0.87682472  1
  Fe  Fe60  1  0.12332655  0.62456860  0.87469480  1
  Fe  Fe61  1  0.49954370  0.49613021  0.49458562  1
  Fe  Fe62  1  0.50168045  0.25360243  0.49917441  1
  Fe  Fe63  1  0.37621351  0.87596705  0.12696143  1
  Fe  Fe64  1  0.75355144  0.00429144  0.25246780  1
  Fe  Fe65  1  0.12409553  0.87410406  0.87378105  1
  Fe  Fe66  1  0.62498977  0.12541902  0.87266748  1
  Fe  Fe67  1  0.37630821  0.12399057  0.62462388  1
  Fe  Fe68  1  0.62204987  0.62383388  0.12767795  1
  Fe  Fe69  1  0.37422126  0.37642911  0.62337149  1
  Fe  Fe70  1  0.62341318  0.62369463  0.62323783  1
  Fe  Fe71  1  0.50272557  0.25202358  0.00038034  1
  Fe  Fe72  1  0.24930486  0.50120330  0.00180544  1
  Fe  Fe73  1  0.50045568  0.75183022  0.49740547  1
  Fe  Fe74  1  0.37680005  0.12502407  0.87512608  1
  Fe  Fe75  1  -0.00068470  0.25106308  0.50623425  1
  Fe  Fe76  1  0.87664174  0.62507336  0.62270328  1
  Fe  Fe77  1  0.74941931  0.50042859  0.00037948  1
  Fe  Fe78  1  0.62764905  0.12633581  0.37863185  1
  Fe  Fe79  1  0.37695944  0.37466230  0.12560639  1
  Fe  Fe80  1  0.11971205  0.62470518  0.13018605  1
  Fe  Fe81  1  0.37509526  0.62619858  0.37384362  1
  Fe  Fe82  1  0.74815448  0.75003915  0.00216504  1
  Fe  Fe83  1  0.37450711  0.62494688  0.62260893  1
  Fe  Fe84  1  0.37880507  0.62464296  0.12741237  1
  Fe  Fe85  1  0.49981050  -0.00141797  0.49803976  1
  Fe  Fe86  1  0.50064259  0.49852100  -0.00010962  1
  Fe  Fe87  1  0.87117753  0.37301008  0.86879863  1
  Fe  Fe88  1  0.25077155  0.00325318  0.00323783  1
  Fe  Fe89  1  0.62603795  0.62489682  0.37442342  1
  Co  Co90  1  0.24805702  0.74907882  0.49887139  1
  Co  Co91  1  -0.00564217  0.49643055  0.25205293  1
  Co  Co92  1  0.87646696  0.12253286  0.62810066  1
  Co  Co93  1  0.12403580  0.62476108  0.36847550  1
  Co  Co94  1  0.75112372  0.24525949  0.25137440  1
  Co  Co95  1  0.49987103  0.74886525  0.74705440  1
  Co  Co96  1  0.12737678  0.37810741  0.62357430  1
  Co  Co97  1  0.00199767  0.00011807  0.75034770  1
  Co  Co98  1  0.74843834  0.75054050  0.50163244  1
  Co  Co99  1  0.62448866  0.38017060  0.62481316  1
  Co  Co100  1  -0.00089389  0.74786390  0.75015320  1
  Co  Co101  1  0.87544487  0.62545760  0.37789787  1
  Co  Co102  1  0.11998903  0.12453354  0.12481172  1
  Co  Co103  1  0.87558694  0.12673200  0.38100970  1
  Co  Co104  1  0.75242632  0.50422483  0.24994002  1
  Co  Co105  1  0.12485520  0.62325737  0.62650058  1
  Co  Co106  1  0.24916066  0.00218879  0.24881703  1
  Co  Co107  1  0.62262202  0.12125021  0.62250245  1
  Co  Co108  1  0.50099246  0.49504342  0.25415327  1
  Co  Co109  1  0.12574457  0.12353458  0.62503497  1
  Co  Co110  1  0.49869313  0.00023460  0.75063252  1
  Co  Co111  1  0.87398049  0.12359743  0.12206498  1
  Co  Co112  1  0.87322004  0.37907027  0.62694757  1
  Co  Co113  1  0.37412051  0.87654787  0.37494245  1
  Co  Co114  1  0.00230267  0.25228369  0.74509119  1
  Co  Co115  1  0.63340312  0.37495302  0.37566591  1
  Co  Co116  1  0.62904266  0.37518076  0.12685032  1
  Co  Co117  1  0.50034160  0.75174605  0.25246529  1
  Co  Co118  1  0.87822544  0.62537136  0.12315707  1
  Co  Co119  1  0.74642718  0.24809739  0.74272954  1
  Co  Co120  1  0.62926631  0.87541906  0.12949126  1
  Co  Co121  1  0.38110476  0.12547342  0.12677221  1
  Co  Co122  1  0.50133342  0.75288939  0.00290143  1
  Co  Co123  1  -0.00400535  0.75324508  0.25163103  1
  Co  Co124  1  0.37000891  0.37328516  0.37482664  1
  Co  Co125  1  0.12300704  0.87410654  0.62473717  1
  Co  Co126  1  0.74984455  0.50549138  0.74943721  1
  Co  Co127  1  0.75009750  0.24959432  -0.00248017  1
