# generated using pymatgen
data_Fe45Co19
_symmetry_space_group_name_H-M   'P 1'
_cell_length_a   11.41610380
_cell_length_b   11.41516485
_cell_length_c   11.41534914
_cell_angle_alpha   89.99195860
_cell_angle_beta   90.00237492
_cell_angle_gamma   90.00901706
_symmetry_Int_Tables_number   1
_chemical_formula_structural   Fe45Co19
_chemical_formula_sum   'Fe90 Co38'
_cell_volume   1487.61067220
_cell_formula_units_Z   2
loop_
 _symmetry_equiv_pos_site_id
 _symmetry_equiv_pos_as_xyz
  1  'x, y, z'
loop_
 _atom_site_type_symbol
 _atom_site_label
 _atom_site_symmetry_multiplicity
 _atom_site_fract_x
 _atom_site_fract_y
 _atom_site_fract_z
 _atom_site_occupancy
  Fe  Fe0  1  0.25248261  0.00108836  0.75159490  1
  Fe  Fe1  1  0.00013387  0.49922879  0.00118891  1
  Fe  Fe2  1  -0.00028158  0.49922138  0.24717599  1
  Fe  Fe3  1  0.75083140  0.74915458  0.25042140  1
  Fe  Fe4  1  0.25036754  0.00329287  0.00149343  1
  Fe  Fe5  1  0.87067611  0.87269839  0.11906810  1
  Fe  Fe6  1  0.49997992  0.49781744  0.50150720  1
  Fe  Fe7  1  0.37349081  0.87490488  0.62290352  1
  Fe  Fe8  1  0.62690948  0.37449951  0.37373156  1
  Fe  Fe9  1  0.75283032  0.25121419  0.49849278  1
  Fe  Fe10  1  0.75083980  0.50016498  0.25038770  1
  Fe  Fe11  1  0.50265446  -0.00055880  0.00382988  1
  Fe  Fe12  1  0.37350716  0.37314110  0.12257275  1
  Fe  Fe13  1  0.75184961  0.74843512  0.75463842  1
  Fe  Fe14  1  0.24587849  0.24501835  0.50191390  1
  Fe  Fe15  1  0.24919102  0.50019099  0.24953597  1
  Fe  Fe16  1  0.50137354  0.25183010  0.74964932  1
  Fe  Fe17  1  0.37561664  0.12368422  0.37433940  1
  Fe  Fe18  1  0.00316184  0.25338268  0.74985008  1
  Fe  Fe19  1  0.37721344  0.62600123  0.37452209  1
  Fe  Fe20  1  0.37891119  0.62513228  0.87509578  1
  Fe  Fe21  1  0.12359045  0.87543240  0.87546241  1
  Fe  Fe22  1  0.12358022  0.37282164  0.37702224  1
  Fe  Fe23  1  0.37719958  0.62567829  0.62636658  1
  Fe  Fe24  1  0.62356668  0.62474869  0.12411250  1
  Fe  Fe25  1  0.87315266  0.37415363  0.87509348  1
  Fe  Fe26  1  -0.00435394  -0.00179054  0.75268513  1
  Fe  Fe27  1  0.74866808  0.75028451  0.49980890  1
  Fe  Fe28  1  0.37377186  0.87497468  0.37587062  1
  Fe  Fe29  1  0.00217011  0.00377733  0.50040238  1
  Fe  Fe30  1  0.00128043  0.49712791  0.74856576  1
  Fe  Fe31  1  0.24901032  0.49823186  0.74987252  1
  Fe  Fe32  1  0.50068658  0.25077722  0.50045559  1
  Fe  Fe33  1  0.50406207  0.75348726  -0.00034837  1
  Fe  Fe34  1  0.87302341  0.87516827  0.62553775  1
  Fe  Fe35  1  0.62396398  0.62654177  0.62559996  1
  Fe  Fe36  1  0.49954612  0.49580632  0.24794624  1
  Fe  Fe37  1  0.24760851  0.74840524  -0.00049867  1
  Fe  Fe38  1  0.12529452  0.87713267  0.37477834  1
  Fe  Fe39  1  0.12366632  0.12502197  0.87558849  1
  Fe  Fe40  1  -0.00003888  0.75057937  0.50180837  1
  Fe  Fe41  1  0.12161184  0.62442467  0.87439202  1
  Fe  Fe42  1  0.75197215  0.49798104  0.50036089  1
  Fe  Fe43  1  0.12375202  0.87478133  0.12335079  1
  Fe  Fe44  1  0.50072199  0.75240133  0.24786304  1
  Fe  Fe45  1  0.62330407  0.62507207  0.37586731  1
  Fe  Fe46  1  0.87597768  0.62809263  0.12258303  1
  Fe  Fe47  1  0.87729400  0.62534520  0.37434498  1
  Fe  Fe48  1  0.74912480  0.00105001  0.50118536  1
  Fe  Fe49  1  0.75129942  0.00153597  0.24740685  1
  Fe  Fe50  1  0.62459429  0.12253859  0.62775129  1
  Fe  Fe51  1  0.37566155  0.62628336  0.12336858  1
  Fe  Fe52  1  0.87678581  0.12802941  0.62646921  1
  Fe  Fe53  1  -0.00209997  0.49666306  0.50251223  1
  Fe  Fe54  1  0.37277612  0.37302392  0.37730871  1
  Fe  Fe55  1  0.74681220  0.24875057  0.75216365  1
  Fe  Fe56  1  0.24991903  0.50148700  0.50120981  1
  Fe  Fe57  1  0.24786174  0.74954610  0.75024565  1
  Fe  Fe58  1  0.24931601  0.74856629  0.50044026  1
  Fe  Fe59  1  0.63170433  0.88252671  0.87444424  1
  Fe  Fe60  1  0.62388705  0.12560067  0.37164076  1
  Fe  Fe61  1  0.87026806  0.37270065  0.12381749  1
  Fe  Fe62  1  0.62553827  0.87486899  0.37408942  1
  Fe  Fe63  1  0.50419690  0.25060951  0.00201785  1
  Fe  Fe64  1  0.50173367  0.49513773  0.74893979  1
  Fe  Fe65  1  0.00023430  0.25033960  -0.00017594  1
  Fe  Fe66  1  0.12544318  0.87753093  0.62582918  1
  Fe  Fe67  1  0.25094043  0.00237910  0.24600469  1
  Fe  Fe68  1  0.50161077  0.75560939  0.75067008  1
  Fe  Fe69  1  0.37606807  0.37475898  0.87675084  1
  Fe  Fe70  1  0.37845146  0.12455800  0.87734791  1
  Fe  Fe71  1  0.12160946  0.62533427  0.37408571  1
  Fe  Fe72  1  0.24795873  0.74944803  0.24885909  1
  Fe  Fe73  1  -0.00457051  0.00203454  -0.00116163  1
  Fe  Fe74  1  0.74754289  0.50334874  -0.00326427  1
  Fe  Fe75  1  0.74792363  0.49985613  0.75245213  1
  Fe  Fe76  1  -0.00117913  -0.00072951  0.24788969  1
  Fe  Fe77  1  0.74679414  0.24265674  -0.00080078  1
  Fe  Fe78  1  0.25029201  0.50125488  -0.00135880  1
  Fe  Fe79  1  -0.00048888  0.25034935  0.24981245  1
  Fe  Fe80  1  0.87537487  0.87526970  0.37554582  1
  Fe  Fe81  1  0.12757941  0.37337197  0.12266188  1
  Fe  Fe82  1  0.87559137  0.62490845  0.62750231  1
  Fe  Fe83  1  0.50114775  -0.00298088  0.50214409  1
  Fe  Fe84  1  0.37410351  0.87567691  0.87814260  1
  Fe  Fe85  1  0.25041202  0.24668515  0.24762101  1
  Fe  Fe86  1  0.24904122  0.25106582  0.75221962  1
  Fe  Fe87  1  0.87631669  0.12553827  0.37366806  1
  Fe  Fe88  1  0.49858589  -0.00256444  0.24663073  1
  Fe  Fe89  1  0.37525445  0.12463206  0.62613823  1
  Co  Co90  1  0.49810809  0.25412650  0.25030188  1
  Co  Co91  1  0.24942033  0.00261362  0.50127024  1
  Co  Co92  1  0.37236196  0.87315710  0.12311770  1
  Co  Co93  1  0.12278334  0.12518308  0.12310628  1
  Co  Co94  1  0.63196450  0.87612277  0.12304913  1
  Co  Co95  1  -0.00044760  0.24823713  0.49991821  1
  Co  Co96  1  0.12469873  0.37613353  0.87767308  1
  Co  Co97  1  0.37236441  0.37368888  0.62404221  1
  Co  Co98  1  0.75231999  0.01043078  0.00059905  1
  Co  Co99  1  0.75130139  0.24946393  0.25228159  1
  Co  Co100  1  0.00100303  0.74969426  -0.00165335  1
  Co  Co101  1  0.62970563  0.87617196  0.62883390  1
  Co  Co102  1  0.62061254  0.11997012  0.87129963  1
  Co  Co103  1  0.12464623  0.62528423  0.12512688  1
  Co  Co104  1  0.61837768  0.62337508  0.87329709  1
  Co  Co105  1  0.50125980  0.75262496  0.50091396  1
  Co  Co106  1  0.87105162  0.87372630  0.88008326  1
  Co  Co107  1  0.24941910  0.24816545  -0.00217854  1
  Co  Co108  1  0.63016864  0.37391279  0.12510503  1
  Co  Co109  1  0.12374380  0.62427354  0.62544821  1
  Co  Co110  1  -0.00058764  0.75302497  0.75020031  1
  Co  Co111  1  0.87359673  0.37303380  0.62894437  1
  Co  Co112  1  -0.00136231  0.75203691  0.24841511  1
  Co  Co113  1  0.87685491  0.37537067  0.37271628  1
  Co  Co114  1  0.37752481  0.12682541  0.12274214  1
  Co  Co115  1  0.49610724  -0.00365617  0.74826824  1
  Co  Co116  1  0.75645182  0.00376486  0.75141416  1
  Co  Co117  1  0.74640563  0.74421831  -0.00558646  1
  Co  Co118  1  0.62282727  0.12602917  0.13102809  1
  Co  Co119  1  0.87684570  0.12765522  0.12751055  1
  Co  Co120  1  0.62627619  0.37454430  0.87720698  1
  Co  Co121  1  0.12636245  0.37434759  0.62208246  1
  Co  Co122  1  0.12372242  0.12306887  0.63036158  1
  Co  Co123  1  0.62737569  0.37375356  0.62361741  1
  Co  Co124  1  0.50055914  0.49729421  0.00227145  1
  Co  Co125  1  0.87786865  0.12984662  0.87244690  1
  Co  Co126  1  0.88048931  0.62302729  0.87424224  1
  Co  Co127  1  0.12470122  0.12420630  0.37145154  1
