# generated using pymatgen
data_Fe45Co19
_symmetry_space_group_name_H-M   'P 1'
_cell_length_a   11.41440916
_cell_length_b   11.41560838
_cell_length_c   11.41478226
_cell_angle_alpha   90.00141660
_cell_angle_beta   90.01413261
_cell_angle_gamma   90.00226704
_symmetry_Int_Tables_number   1
_chemical_formula_structural   Fe45Co19
_chemical_formula_sum   'Fe90 Co38'
_cell_volume   1487.37376197
_cell_formula_units_Z   2
loop_
 _symmetry_equiv_pos_site_id
 _symmetry_equiv_pos_as_xyz
  1  'x, y, z'
loop_
 _atom_site_type_symbol
 _atom_site_label
 _atom_site_symmetry_multiplicity
 _atom_site_fract_x
 _atom_site_fract_y
 _atom_site_fract_z
 _atom_site_occupancy
  Fe  Fe0  1  0.62498610  0.62380210  0.37247984  1
  Fe  Fe1  1  0.37561188  0.62584196  0.87504740  1
  Fe  Fe2  1  0.12625300  0.37381107  0.37601717  1
  Fe  Fe3  1  0.87360155  0.37478626  0.87964331  1
  Fe  Fe4  1  0.24823156  0.00381433  -0.00015642  1
  Fe  Fe5  1  0.24999703  0.24857210  0.75048221  1
  Fe  Fe6  1  0.87471939  0.37317913  0.62325392  1
  Fe  Fe7  1  0.87477469  0.62550156  0.62580685  1
  Fe  Fe8  1  0.24862293  0.49956515  0.00174364  1
  Fe  Fe9  1  0.62744590  0.37430627  0.87531383  1
  Fe  Fe10  1  0.62623655  0.62544649  0.12645613  1
  Fe  Fe11  1  0.12202509  0.12566497  0.62578986  1
  Fe  Fe12  1  0.62593955  0.87405533  0.12383033  1
  Fe  Fe13  1  0.62558095  0.62620842  0.62820079  1
  Fe  Fe14  1  0.49986163  0.75092727  0.50209920  1
  Fe  Fe15  1  -0.00273378  0.49825331  0.75066708  1
  Fe  Fe16  1  0.12420577  0.62341810  0.37317619  1
  Fe  Fe17  1  0.24934975  0.75110960  0.24998849  1
  Fe  Fe18  1  0.62835598  0.12494715  0.37146791  1
  Fe  Fe19  1  -0.00348670  0.24684477  0.49507905  1
  Fe  Fe20  1  0.25094608  0.00280635  0.25001480  1
  Fe  Fe21  1  0.25060424  0.74839934  0.49999802  1
  Fe  Fe22  1  0.37403541  0.87672391  0.37626874  1
  Fe  Fe23  1  0.50313762  0.24951905  0.49959165  1
  Fe  Fe24  1  0.12138141  0.37100492  0.12465082  1
  Fe  Fe25  1  0.87193653  0.87627709  0.62437473  1
  Fe  Fe26  1  0.62745289  0.87617643  0.37488134  1
  Fe  Fe27  1  0.50262928  0.75019841  -0.00101589  1
  Fe  Fe28  1  0.50390387  -0.00075134  0.50148635  1
  Fe  Fe29  1  0.37529447  0.87601338  0.12150251  1
  Fe  Fe30  1  0.37459849  0.62484132  0.12505245  1
  Fe  Fe31  1  0.50112010  0.50029252  0.50091545  1
  Fe  Fe32  1  0.75172947  0.24805965  0.74991958  1
  Fe  Fe33  1  0.49944995  0.49704656  0.75016036  1
  Fe  Fe34  1  0.25307399  0.75255857  0.74927897  1
  Fe  Fe35  1  -0.00307769  0.00020302  0.24849065  1
  Fe  Fe36  1  0.12227936  0.87447744  0.12565986  1
  Fe  Fe37  1  0.12507159  0.87772692  0.87469681  1
  Fe  Fe38  1  0.37483021  0.62249266  0.37261937  1
  Fe  Fe39  1  0.25456391  0.00129723  0.75240259  1
  Fe  Fe40  1  0.37690095  0.12618340  0.12408550  1
  Fe  Fe41  1  0.74898964  0.75040461  0.49866187  1
  Fe  Fe42  1  0.50417598  0.24907728  0.00131491  1
  Fe  Fe43  1  0.12366312  0.37617389  0.87490245  1
  Fe  Fe44  1  0.62856980  0.37520908  0.62698502  1
  Fe  Fe45  1  0.75480723  0.49895408  0.24546696  1
  Fe  Fe46  1  0.87651838  0.62564237  0.87779774  1
  Fe  Fe47  1  0.49754036  0.49539596  0.24725230  1
  Fe  Fe48  1  0.62935953  0.88037589  0.87378727  1
  Fe  Fe49  1  -0.00328445  0.49660506  0.24770344  1
  Fe  Fe50  1  0.37790343  0.12515838  0.62589632  1
  Fe  Fe51  1  0.12585111  0.87773674  0.62408380  1
  Fe  Fe52  1  0.50317355  0.00366027  -0.00226936  1
  Fe  Fe53  1  0.49822193  0.25298850  0.24978990  1
  Fe  Fe54  1  -0.00388806  -0.00018927  0.75081354  1
  Fe  Fe55  1  0.24960729  0.00593107  0.49776937  1
  Fe  Fe56  1  0.37450370  0.37325385  0.62240501  1
  Fe  Fe57  1  0.50034136  0.49759254  0.00177307  1
  Fe  Fe58  1  -0.00130708  0.49999454  0.50003277  1
  Fe  Fe59  1  0.25215794  0.24862654  0.25423380  1
  Fe  Fe60  1  -0.00016250  0.75122512  0.49925534  1
  Fe  Fe61  1  0.74679186  0.24433733  0.00328301  1
  Fe  Fe62  1  0.87309930  0.87549050  0.37332228  1
  Fe  Fe63  1  0.12424355  0.62526113  0.62695016  1
  Fe  Fe64  1  0.24640048  0.24677381  -0.00239887  1
  Fe  Fe65  1  0.87413684  0.12050552  0.88004832  1
  Fe  Fe66  1  0.25115052  0.49799328  0.74935324  1
  Fe  Fe67  1  0.62468455  0.62370196  0.87261287  1
  Fe  Fe68  1  0.75194632  0.75104297  0.75293720  1
  Fe  Fe69  1  0.12521584  0.87752555  0.37557564  1
  Fe  Fe70  1  0.12366030  0.62430357  0.87313026  1
  Fe  Fe71  1  0.25005403  0.50064890  0.50093893  1
  Fe  Fe72  1  0.49657613  0.75615394  0.74841722  1
  Fe  Fe73  1  0.12085733  0.62558984  0.12630353  1
  Fe  Fe74  1  0.62645803  0.12164102  0.62992156  1
  Fe  Fe75  1  -0.00249465  0.24843285  0.75390581  1
  Fe  Fe76  1  0.12297154  0.37130915  0.62367583  1
  Fe  Fe77  1  0.87487154  0.62537038  0.37280245  1
  Fe  Fe78  1  -0.00134780  0.75325268  0.75108974  1
  Fe  Fe79  1  0.49926211  -0.00141024  0.24934802  1
  Fe  Fe80  1  0.75452326  0.25127048  0.24668482  1
  Fe  Fe81  1  0.24741156  0.74977727  0.00062453  1
  Fe  Fe82  1  0.49982516  0.75170805  0.24998656  1
  Fe  Fe83  1  0.37581865  0.37142380  0.87741757  1
  Fe  Fe84  1  -0.00314433  0.00208318  0.49828681  1
  Fe  Fe85  1  0.75305862  -0.00115442  0.24278681  1
  Fe  Fe86  1  0.74970244  0.50057428  0.50158308  1
  Fe  Fe87  1  0.75135154  0.50244864  0.00280520  1
  Fe  Fe88  1  0.62853143  0.37494762  0.37358008  1
  Fe  Fe89  1  0.11886687  0.12831783  0.12739457  1
  Co  Co90  1  0.87262719  0.87882239  0.88042798  1
  Co  Co91  1  0.86962209  0.12351796  0.37301397  1
  Co  Co92  1  0.74712579  0.74939049  -0.00161076  1
  Co  Co93  1  0.49645944  -0.00393310  0.75134665  1
  Co  Co94  1  0.24840886  0.49728954  0.24694858  1
  Co  Co95  1  0.37549317  0.62405161  0.62673840  1
  Co  Co96  1  0.87090724  0.37584385  0.37830309  1
  Co  Co97  1  0.50191308  0.25215186  0.74865854  1
  Co  Co98  1  0.75451838  0.00213149  0.74953476  1
  Co  Co99  1  -0.00448138  0.25253573  0.25618157  1
  Co  Co100  1  0.87584959  0.86906792  0.12199851  1
  Co  Co101  1  0.62750816  0.37511102  0.12546279  1
  Co  Co102  1  -0.00017777  0.50094568  0.00112676  1
  Co  Co103  1  0.62935255  0.87548909  0.62757689  1
  Co  Co104  1  0.62273659  0.12560120  0.13033402  1
  Co  Co105  1  0.74804530  0.75129900  0.25013484  1
  Co  Co106  1  0.87837356  0.37000784  0.11882735  1
  Co  Co107  1  0.12143354  0.12528692  0.37287295  1
  Co  Co108  1  0.37432644  0.37567111  0.37777519  1
  Co  Co109  1  0.87607216  0.12605487  0.62344923  1
  Co  Co110  1  0.25069734  0.24517915  0.49826770  1
  Co  Co111  1  0.74855189  0.00294866  0.00694600  1
  Co  Co112  1  0.37387308  0.87536167  0.88130032  1
  Co  Co113  1  0.37224071  0.87850070  0.62037052  1
  Co  Co114  1  0.00098867  0.75178956  0.25330305  1
  Co  Co115  1  0.37223087  0.37129005  0.12202613  1
  Co  Co116  1  0.75255657  0.49913773  0.75066402  1
  Co  Co117  1  0.37840906  0.12812151  0.87599032  1
  Co  Co118  1  0.88099018  0.12894064  0.12297947  1
  Co  Co119  1  0.00252472  0.75196164  -0.00363764  1
  Co  Co120  1  0.62526407  0.12365208  0.87061897  1
  Co  Co121  1  0.74810881  0.24749976  0.50199389  1
  Co  Co122  1  0.00139452  -0.00110696  0.00259806  1
  Co  Co123  1  0.38038287  0.12404844  0.37498320  1
  Co  Co124  1  0.00309070  0.24766787  -0.00638496  1
  Co  Co125  1  0.74982730  0.00142072  0.50075972  1
  Co  Co126  1  0.87672552  0.63154666  0.12460757  1
  Co  Co127  1  0.12336293  0.12096413  0.87206819  1
