# generated using pymatgen
data_Fe45Co19
_symmetry_space_group_name_H-M   'P 1'
_cell_length_a   11.41541519
_cell_length_b   11.41448384
_cell_length_c   11.41499536
_cell_angle_alpha   89.99477017
_cell_angle_beta   89.99963707
_cell_angle_gamma   89.99725886
_symmetry_Int_Tables_number   1
_chemical_formula_structural   Fe45Co19
_chemical_formula_sum   'Fe90 Co38'
_cell_volume   1487.38612606
_cell_formula_units_Z   2
loop_
 _symmetry_equiv_pos_site_id
 _symmetry_equiv_pos_as_xyz
  1  'x, y, z'
loop_
 _atom_site_type_symbol
 _atom_site_label
 _atom_site_symmetry_multiplicity
 _atom_site_fract_x
 _atom_site_fract_y
 _atom_site_fract_z
 _atom_site_occupancy
  Fe  Fe0  1  0.12164244  0.87351724  0.87705995  1
  Fe  Fe1  1  0.25159854  0.25128533  -0.00096109  1
  Fe  Fe2  1  0.24637014  0.74924929  0.49941846  1
  Fe  Fe3  1  0.12127197  0.12733636  0.62365520  1
  Fe  Fe4  1  0.49846904  0.00127035  -0.00108310  1
  Fe  Fe5  1  0.75081308  0.75036159  0.24978699  1
  Fe  Fe6  1  0.63043610  0.12514513  0.37269404  1
  Fe  Fe7  1  0.37372744  0.62720341  0.62670439  1
  Fe  Fe8  1  0.37513257  0.37427177  0.62591585  1
  Fe  Fe9  1  0.24648732  0.00198402  0.24965772  1
  Fe  Fe10  1  0.00058049  0.74323310  0.00354590  1
  Fe  Fe11  1  0.87715260  0.87345653  0.87627462  1
  Fe  Fe12  1  0.87695425  0.37426060  0.62860706  1
  Fe  Fe13  1  0.12511112  0.37654374  0.12297329  1
  Fe  Fe14  1  0.50261663  0.00257376  0.74994605  1
  Fe  Fe15  1  0.75076866  0.00083140  0.74848528  1
  Fe  Fe16  1  0.50245784  0.25024889  0.25108516  1
  Fe  Fe17  1  0.50074486  0.74966987  0.49964982  1
  Fe  Fe18  1  0.50058521  0.50157278  0.49913651  1
  Fe  Fe19  1  0.37323875  0.87387236  0.12644452  1
  Fe  Fe20  1  0.12305710  0.87474354  0.62466801  1
  Fe  Fe21  1  0.24727069  0.25287985  0.50048980  1
  Fe  Fe22  1  0.62597846  0.37299712  0.62418059  1
  Fe  Fe23  1  0.12278631  0.37390128  0.37334749  1
  Fe  Fe24  1  0.12189294  0.12378116  0.87735554  1
  Fe  Fe25  1  0.75144013  0.74915755  0.74743265  1
  Fe  Fe26  1  0.50008153  0.50173618  -0.00118023  1
  Fe  Fe27  1  0.87713435  0.87392275  0.62308261  1
  Fe  Fe28  1  0.37488981  0.87396081  0.87158945  1
  Fe  Fe29  1  0.62841730  0.62629616  0.62269598  1
  Fe  Fe30  1  0.50290389  0.50143667  0.74941994  1
  Fe  Fe31  1  0.74684574  0.50103089  0.25013351  1
  Fe  Fe32  1  0.75319975  -0.00063205  -0.00024333  1
  Fe  Fe33  1  0.62476105  0.37635004  0.12455223  1
  Fe  Fe34  1  0.87827416  0.87433032  0.12491908  1
  Fe  Fe35  1  0.87952983  0.87350451  0.37524469  1
  Fe  Fe36  1  0.50058134  0.74891583  -0.00203956  1
  Fe  Fe37  1  0.37282273  0.12580614  0.12629715  1
  Fe  Fe38  1  0.75175486  0.49925711  0.49987946  1
  Fe  Fe39  1  0.50189031  0.00070874  0.50066495  1
  Fe  Fe40  1  0.62426479  0.87469310  0.12446563  1
  Fe  Fe41  1  0.62826102  0.37664170  0.87515275  1
  Fe  Fe42  1  0.12347924  0.62257877  0.62538831  1
  Fe  Fe43  1  0.37645719  0.37442492  0.87351245  1
  Fe  Fe44  1  -0.00446483  0.24824428  0.00123918  1
  Fe  Fe45  1  -0.00418108  0.50163216  0.75329247  1
  Fe  Fe46  1  0.24621199  0.25135948  0.75085920  1
  Fe  Fe47  1  -0.00080781  0.49849954  0.50049728  1
  Fe  Fe48  1  0.37326481  0.12547954  0.37441886  1
  Fe  Fe49  1  0.11987994  0.12959669  0.37483813  1
  Fe  Fe50  1  0.50116081  0.24884665  0.49862612  1
  Fe  Fe51  1  0.00072913  0.50220045  0.24740162  1
  Fe  Fe52  1  0.75061242  0.74846660  0.00293758  1
  Fe  Fe53  1  0.62643699  0.87374624  0.37629332  1
  Fe  Fe54  1  0.87403344  0.37803004  0.12423600  1
  Fe  Fe55  1  0.62916837  0.12324854  0.12635537  1
  Fe  Fe56  1  0.50107681  0.74844724  0.25147355  1
  Fe  Fe57  1  -0.00066270  0.00009493  0.75045878  1
  Fe  Fe58  1  0.12057694  0.87374145  0.37353378  1
  Fe  Fe59  1  0.37603666  0.37484632  0.37541248  1
  Fe  Fe60  1  0.24755730  -0.00018361  0.49928424  1
  Fe  Fe61  1  0.75180161  0.24909240  0.75275499  1
  Fe  Fe62  1  -0.00001212  0.00327470  0.24593705  1
  Fe  Fe63  1  0.24578204  0.74756029  0.25097176  1
  Fe  Fe64  1  0.24922762  0.49931161  0.75183375  1
  Fe  Fe65  1  0.24789435  -0.00076625  0.75001581  1
  Fe  Fe66  1  0.37359066  0.12578497  0.62580674  1
  Fe  Fe67  1  0.75368262  0.25083322  0.49699817  1
  Fe  Fe68  1  0.75195562  -0.00057381  0.49982080  1
  Fe  Fe69  1  0.75191206  0.24989459  -0.00049575  1
  Fe  Fe70  1  0.12109313  0.37814903  0.87770465  1
  Fe  Fe71  1  0.50081106  -0.00050492  0.25015119  1
  Fe  Fe72  1  0.37400509  0.62445780  0.12566149  1
  Fe  Fe73  1  0.24915906  -0.00128002  0.00056135  1
  Fe  Fe74  1  0.87807419  0.12686853  0.62449998  1
  Fe  Fe75  1  0.62653085  0.87577537  0.87373588  1
  Fe  Fe76  1  0.50040054  0.24718840  -0.00177655  1
  Fe  Fe77  1  0.87694403  0.62718144  0.37550818  1
  Fe  Fe78  1  0.50189812  0.24665227  0.75193669  1
  Fe  Fe79  1  0.37534562  0.37512229  0.12563722  1
  Fe  Fe80  1  -0.00075614  0.74635185  0.74962363  1
  Fe  Fe81  1  0.50195427  0.50227355  0.25305732  1
  Fe  Fe82  1  0.37305384  0.62641376  0.87251799  1
  Fe  Fe83  1  0.87594986  0.37400762  0.37151584  1
  Fe  Fe84  1  0.24930761  0.49994160  0.49877369  1
  Fe  Fe85  1  0.37343008  0.87471934  0.37474018  1
  Fe  Fe86  1  0.24785912  0.74872545  -0.00047545  1
  Fe  Fe87  1  0.25054799  0.49977638  0.25165223  1
  Fe  Fe88  1  0.37601210  0.87324614  0.62726181  1
  Fe  Fe89  1  0.63044310  0.62322033  0.87568895  1
  Co  Co90  1  0.00127154  0.74689239  0.24603756  1
  Co  Co91  1  0.25287729  0.49915200  -0.00198099  1
  Co  Co92  1  0.00073397  0.25128926  0.75260639  1
  Co  Co93  1  0.62524240  0.37567226  0.37691158  1
  Co  Co94  1  0.75269214  0.75242157  0.50047195  1
  Co  Co95  1  0.12685396  0.12802195  0.12235951  1
  Co  Co96  1  0.12286199  0.37806844  0.62674441  1
  Co  Co97  1  -0.00304158  0.50419774  0.00014721  1
  Co  Co98  1  0.75083864  0.25408088  0.24942423  1
  Co  Co99  1  0.87564683  0.12548733  0.37251174  1
  Co  Co100  1  0.24593073  0.75041578  0.74979351  1
  Co  Co101  1  0.62846621  0.62642270  0.37679944  1
  Co  Co102  1  0.62440492  0.62542931  0.12538150  1
  Co  Co103  1  0.62746012  0.12707880  0.62386875  1
  Co  Co104  1  0.75127539  0.49986565  0.74720178  1
  Co  Co105  1  0.87353766  0.37749097  0.87589404  1
  Co  Co106  1  0.50416072  0.74787080  0.75141480  1
  Co  Co107  1  0.37402699  0.62598223  0.37533361  1
  Co  Co108  1  0.12470418  0.62346612  0.87557215  1
  Co  Co109  1  0.75039308  0.49994171  0.00259027  1
  Co  Co110  1  -0.00232735  0.24988178  0.24503376  1
  Co  Co111  1  0.12421864  0.87431645  0.12452431  1
  Co  Co112  1  0.87652872  0.12297116  0.87404520  1
  Co  Co113  1  0.62886689  0.12299750  0.87645775  1
  Co  Co114  1  0.87074119  0.62474284  0.87636432  1
  Co  Co115  1  0.62469444  0.87442131  0.62534715  1
  Co  Co116  1  0.12101793  0.62372552  0.37555423  1
  Co  Co117  1  0.75240848  -0.00575553  0.25071991  1
  Co  Co118  1  0.37223699  0.12432957  0.87362937  1
  Co  Co119  1  0.00162332  0.74941466  0.50204504  1
  Co  Co120  1  0.24915393  0.25169243  0.25070009  1
  Co  Co121  1  -0.00180238  0.25427785  0.49984651  1
  Co  Co122  1  0.87217971  0.62326055  0.12702345  1
  Co  Co123  1  0.87564751  0.62454871  0.62243443  1
  Co  Co124  1  -0.00145683  0.00184995  0.00346749  1
  Co  Co125  1  0.12791297  0.62026577  0.12437582  1
  Co  Co126  1  0.86980368  0.12388938  0.12723709  1
  Co  Co127  1  -0.00044574  0.00061712  0.49932728  1
