# generated using pymatgen
data_Fe45Co19
_symmetry_space_group_name_H-M   'P 1'
_cell_length_a   11.41568569
_cell_length_b   11.41441028
_cell_length_c   11.41470177
_cell_angle_alpha   90.00868457
_cell_angle_beta   90.00031815
_cell_angle_gamma   90.00262584
_symmetry_Int_Tables_number   1
_chemical_formula_structural   Fe45Co19
_chemical_formula_sum   'Fe90 Co38'
_cell_volume   1487.37351967
_cell_formula_units_Z   2
loop_
 _symmetry_equiv_pos_site_id
 _symmetry_equiv_pos_as_xyz
  1  'x, y, z'
loop_
 _atom_site_type_symbol
 _atom_site_label
 _atom_site_symmetry_multiplicity
 _atom_site_fract_x
 _atom_site_fract_y
 _atom_site_fract_z
 _atom_site_occupancy
  Fe  Fe0  1  0.37474111  0.12455619  0.37652251  1
  Fe  Fe1  1  0.37211536  0.38003836  0.37694610  1
  Fe  Fe2  1  0.87693775  0.62375741  0.12465584  1
  Fe  Fe3  1  0.50053744  0.74538767  -0.00691835  1
  Fe  Fe4  1  0.87685940  0.87563927  0.12451723  1
  Fe  Fe5  1  0.37615799  0.87242291  0.12291179  1
  Fe  Fe6  1  0.62205160  0.62593473  0.37742745  1
  Fe  Fe7  1  0.87584868  0.62463101  0.37558649  1
  Fe  Fe8  1  0.12659361  0.62540543  0.37491305  1
  Fe  Fe9  1  0.87409056  0.87571221  0.37643747  1
  Fe  Fe10  1  0.37273454  0.37596862  0.62335337  1
  Fe  Fe11  1  0.62808578  0.37556582  0.37648118  1
  Fe  Fe12  1  0.12577025  0.37190242  0.62753516  1
  Fe  Fe13  1  0.50230747  0.24944509  -0.00443722  1
  Fe  Fe14  1  0.87245071  0.37819857  0.37824067  1
  Fe  Fe15  1  0.25318927  0.00365679  0.74902295  1
  Fe  Fe16  1  0.87361270  0.87449105  0.87365731  1
  Fe  Fe17  1  0.49695161  0.00393285  0.75251817  1
  Fe  Fe18  1  0.25593102  0.74412358  0.50382623  1
  Fe  Fe19  1  0.37251071  0.87388910  0.37529816  1
  Fe  Fe20  1  0.24841713  0.50168166  0.74809435  1
  Fe  Fe21  1  0.74723189  0.50130654  0.24880386  1
  Fe  Fe22  1  0.49965945  -0.00295496  0.50027807  1
  Fe  Fe23  1  0.49898760  0.25083544  0.25226813  1
  Fe  Fe24  1  0.87474747  0.12308028  0.37515470  1
  Fe  Fe25  1  0.61930429  0.62828209  0.62710674  1
  Fe  Fe26  1  0.37665684  0.62419752  0.12144747  1
  Fe  Fe27  1  0.00240568  0.50015350  0.50134751  1
  Fe  Fe28  1  0.74980568  -0.00106789  0.74828933  1
  Fe  Fe29  1  0.62727717  0.37258656  0.62363356  1
  Fe  Fe30  1  -0.00206415  0.75060906  0.75171105  1
  Fe  Fe31  1  0.12635274  0.62518772  0.87743106  1
  Fe  Fe32  1  0.74850665  -0.00095426  0.24890167  1
  Fe  Fe33  1  0.00083171  0.75110927  0.50171728  1
  Fe  Fe34  1  0.62272496  0.87151302  0.12473987  1
  Fe  Fe35  1  0.62205961  0.12863257  0.62760120  1
  Fe  Fe36  1  0.25591304  0.74613048  0.74896849  1
  Fe  Fe37  1  0.87248011  0.12624729  0.87397763  1
  Fe  Fe38  1  0.87325721  0.37475072  0.87422534  1
  Fe  Fe39  1  0.00006411  0.25219195  -0.00277978  1
  Fe  Fe40  1  0.00022473  0.49881118  0.75102418  1
  Fe  Fe41  1  0.24989846  -0.00148188  0.24768353  1
  Fe  Fe42  1  0.12318458  0.12400314  0.12629631  1
  Fe  Fe43  1  0.12666074  0.87304877  0.87376560  1
  Fe  Fe44  1  0.49851907  0.25244133  0.49910015  1
  Fe  Fe45  1  0.00158765  -0.00189843  -0.00191012  1
  Fe  Fe46  1  0.12760837  0.37673447  0.37520221  1
  Fe  Fe47  1  0.74927934  0.74846711  -0.00088417  1
  Fe  Fe48  1  0.12766898  0.87236599  0.62662423  1
  Fe  Fe49  1  -0.00107447  0.25169100  0.25190215  1
  Fe  Fe50  1  0.62011301  0.87120700  0.62822283  1
  Fe  Fe51  1  0.00239612  0.75182970  0.24819286  1
  Fe  Fe52  1  0.37643472  0.12530596  0.12181579  1
  Fe  Fe53  1  0.75012273  0.49960335  0.74526167  1
  Fe  Fe54  1  0.12552647  0.12516208  0.37343623  1
  Fe  Fe55  1  0.50119133  0.49883677  0.75254480  1
  Fe  Fe56  1  0.49972209  -0.00157093  0.24930632  1
  Fe  Fe57  1  0.74680736  0.00044608  0.00001381  1
  Fe  Fe58  1  0.62332373  0.12690245  0.12366932  1
  Fe  Fe59  1  0.12814629  0.87315313  0.37506461  1
  Fe  Fe60  1  0.25139506  0.25110336  0.24934405  1
  Fe  Fe61  1  0.62513808  0.87387254  0.87242356  1
  Fe  Fe62  1  0.00032081  -0.00008624  0.74891518  1
  Fe  Fe63  1  0.87204052  0.62436644  0.87455598  1
  Fe  Fe64  1  0.75013548  0.25029885  0.24933993  1
  Fe  Fe65  1  0.37450750  0.87664870  0.87534710  1
  Fe  Fe66  1  0.74847026  0.75021579  0.50296343  1
  Fe  Fe67  1  0.49808675  0.74917323  0.25375462  1
  Fe  Fe68  1  0.12322311  0.62555536  0.12067696  1
  Fe  Fe69  1  0.62467179  0.12427750  0.37530420  1
  Fe  Fe70  1  0.12158310  0.37742304  0.12465035  1
  Fe  Fe71  1  0.37882392  0.37622602  0.12236385  1
  Fe  Fe72  1  0.24808333  0.25277198  -0.00000884  1
  Fe  Fe73  1  0.74917592  0.74937826  0.25065884  1
  Fe  Fe74  1  0.50225744  0.49979622  0.24893675  1
  Fe  Fe75  1  0.87442642  0.12673345  0.62574877  1
  Fe  Fe76  1  0.87700950  0.12416749  0.12467116  1
  Fe  Fe77  1  0.12764503  0.12898510  0.62663035  1
  Fe  Fe78  1  0.87701333  0.62534600  0.62527739  1
  Fe  Fe79  1  0.87564735  0.37680948  0.12528230  1
  Fe  Fe80  1  0.74749531  -0.00142583  0.50239534  1
  Fe  Fe81  1  -0.00052394  0.25075646  0.50046114  1
  Fe  Fe82  1  0.74643407  0.50034646  0.00343741  1
  Fe  Fe83  1  0.62788783  0.37372997  0.87595582  1
  Fe  Fe84  1  0.24928948  -0.00161985  0.00074014  1
  Fe  Fe85  1  0.00163691  -0.00073952  0.50176615  1
  Fe  Fe86  1  0.37304591  0.37800208  0.87720013  1
  Fe  Fe87  1  0.12652206  0.12811232  0.87305344  1
  Fe  Fe88  1  0.24962197  0.50239967  0.24708579  1
  Fe  Fe89  1  0.25102299  0.00122048  0.50267085  1
  Co  Co90  1  0.62249364  0.37201762  0.12456323  1
  Co  Co91  1  0.87646881  0.87449293  0.62453412  1
  Co  Co92  1  0.12475974  0.87490698  0.12388387  1
  Co  Co93  1  0.37612829  0.62015800  0.37582064  1
  Co  Co94  1  0.50229547  0.49715876  0.50055161  1
  Co  Co95  1  0.24990787  0.74671014  0.24795386  1
  Co  Co96  1  0.62275691  0.62774336  0.12585437  1
  Co  Co97  1  0.62713873  0.12619678  0.87240272  1
  Co  Co98  1  0.50227121  -0.00065172  -0.00156642  1
  Co  Co99  1  0.37379590  0.12550877  0.87956736  1
  Co  Co100  1  0.50520818  0.50287867  -0.00218738  1
  Co  Co101  1  0.75066758  0.25149381  0.74903523  1
  Co  Co102  1  0.75185592  0.75065883  0.74754238  1
  Co  Co103  1  0.62968360  0.62388825  0.87051865  1
  Co  Co104  1  0.24673669  0.50412640  0.50393845  1
  Co  Co105  1  0.24786856  0.49773556  0.00224291  1
  Co  Co106  1  0.00084574  0.50135139  0.25179797  1
  Co  Co107  1  0.49664304  0.25201930  0.75215153  1
  Co  Co108  1  0.38231044  0.62019858  0.62539365  1
  Co  Co109  1  0.12674770  0.37481631  0.87145057  1
  Co  Co110  1  0.62585360  0.87421212  0.37470764  1
  Co  Co111  1  -0.00062901  0.49940432  -0.00400162  1
  Co  Co112  1  0.49416492  0.74694696  0.75615313  1
  Co  Co113  1  0.25587637  0.24888739  0.75163515  1
  Co  Co114  1  0.74990276  0.24781125  0.50055941  1
  Co  Co115  1  0.49586510  0.75208358  0.49858961  1
  Co  Co116  1  -0.00285735  0.25100802  0.75041169  1
  Co  Co117  1  0.37672764  0.12721050  0.62200325  1
  Co  Co118  1  0.87524316  0.37608809  0.62258015  1
  Co  Co119  1  0.25145731  0.75088920  -0.00106477  1
  Co  Co120  1  -0.00172185  0.75077842  -0.00170364  1
  Co  Co121  1  0.75038262  0.25004660  0.00089520  1
  Co  Co122  1  0.12193644  0.62754702  0.62809894  1
  Co  Co123  1  0.00109241  -0.00294664  0.25159079  1
  Co  Co124  1  0.25081255  0.25049349  0.49813492  1
  Co  Co125  1  0.74820289  0.50520888  0.50262155  1
  Co  Co126  1  0.37593735  0.87568171  0.62729609  1
  Co  Co127  1  0.37164371  0.61815969  0.87669559  1
