# generated using pymatgen
data_Fe45Co19
_symmetry_space_group_name_H-M   'P 1'
_cell_length_a   11.41407119
_cell_length_b   11.41561261
_cell_length_c   11.41655907
_cell_angle_alpha   90.00567318
_cell_angle_beta   89.99229468
_cell_angle_gamma   89.99177972
_symmetry_Int_Tables_number   1
_chemical_formula_structural   Fe45Co19
_chemical_formula_sum   'Fe90 Co38'
_cell_volume   1487.56179807
_cell_formula_units_Z   2
loop_
 _symmetry_equiv_pos_site_id
 _symmetry_equiv_pos_as_xyz
  1  'x, y, z'
loop_
 _atom_site_type_symbol
 _atom_site_label
 _atom_site_symmetry_multiplicity
 _atom_site_fract_x
 _atom_site_fract_y
 _atom_site_fract_z
 _atom_site_occupancy
  Fe  Fe0  1  0.12694548  0.37226564  0.36978479  1
  Fe  Fe1  1  0.87444231  0.12731917  0.12582095  1
  Fe  Fe2  1  0.74939177  0.49997929  0.49785377  1
  Fe  Fe3  1  0.88108949  0.12220644  0.37440355  1
  Fe  Fe4  1  0.00146880  0.25025088  0.75036221  1
  Fe  Fe5  1  0.87178452  0.87378322  0.62528613  1
  Fe  Fe6  1  -0.00302985  0.75016771  0.25023051  1
  Fe  Fe7  1  0.12156884  0.87842775  0.37497002  1
  Fe  Fe8  1  0.37410844  0.12544845  0.62251430  1
  Fe  Fe9  1  0.12449502  0.12774020  0.12938100  1
  Fe  Fe10  1  0.37799176  0.62410315  0.37556518  1
  Fe  Fe11  1  0.62278392  0.87672263  0.37678300  1
  Fe  Fe12  1  0.62688079  0.37392059  0.62451891  1
  Fe  Fe13  1  0.49559698  0.24926007  0.24701903  1
  Fe  Fe14  1  0.62530571  0.12661277  0.87352520  1
  Fe  Fe15  1  0.75089132  0.24946126  0.25110101  1
  Fe  Fe16  1  0.62757269  0.37279242  0.12581684  1
  Fe  Fe17  1  0.87333280  0.87409444  0.87368076  1
  Fe  Fe18  1  0.25150679  0.00390674  0.25268771  1
  Fe  Fe19  1  0.49950242  0.24887577  0.00272230  1
  Fe  Fe20  1  0.87923872  0.62296051  0.62088823  1
  Fe  Fe21  1  0.24952575  0.50161347  0.75152177  1
  Fe  Fe22  1  0.00248446  0.49980068  0.00598443  1
  Fe  Fe23  1  0.74762274  0.00159778  0.74771962  1
  Fe  Fe24  1  0.24904591  0.50097281  0.49829845  1
  Fe  Fe25  1  0.50292116  0.75043292  -0.00037986  1
  Fe  Fe26  1  0.37586247  0.87653182  0.87414197  1
  Fe  Fe27  1  0.75401536  0.74836020  0.49556561  1
  Fe  Fe28  1  0.37504592  0.37565271  0.37497648  1
  Fe  Fe29  1  0.25054058  0.74947890  -0.00266596  1
  Fe  Fe30  1  0.37243082  0.37374966  0.87724385  1
  Fe  Fe31  1  0.74910325  0.00274145  0.50103149  1
  Fe  Fe32  1  0.00091028  0.74990472  0.74696120  1
  Fe  Fe33  1  0.62707041  0.87497462  0.12569881  1
  Fe  Fe34  1  0.12786322  0.37307381  0.87624164  1
  Fe  Fe35  1  0.12714188  0.37480998  0.62587962  1
  Fe  Fe36  1  0.00134288  0.49944731  0.74925234  1
  Fe  Fe37  1  0.87509515  0.37412022  0.62446547  1
  Fe  Fe38  1  0.11909120  0.62469685  0.37816307  1
  Fe  Fe39  1  0.75086647  0.24902366  0.49767787  1
  Fe  Fe40  1  0.49971284  0.49919215  0.24832377  1
  Fe  Fe41  1  0.87504479  0.12760957  0.62567661  1
  Fe  Fe42  1  0.37772512  0.62495566  0.87475770  1
  Fe  Fe43  1  0.87123977  0.87184723  0.12428489  1
  Fe  Fe44  1  0.49990725  0.25136141  0.50142837  1
  Fe  Fe45  1  0.50010264  0.50083988  0.00243486  1
  Fe  Fe46  1  0.37096523  0.62856192  0.62501245  1
  Fe  Fe47  1  0.49967841  0.49968936  0.74744996  1
  Fe  Fe48  1  0.12298776  0.62551695  0.87531429  1
  Fe  Fe49  1  0.87589786  0.37784411  0.37335826  1
  Fe  Fe50  1  0.87889472  0.87938869  0.37664409  1
  Fe  Fe51  1  0.49577905  0.75445313  0.50095130  1
  Fe  Fe52  1  0.13011501  0.87076849  0.62348616  1
  Fe  Fe53  1  0.37185189  0.37456352  0.62370845  1
  Fe  Fe54  1  0.12706642  0.87275624  0.12663891  1
  Fe  Fe55  1  0.50247097  0.00029758  0.00084325  1
  Fe  Fe56  1  0.87467313  0.62539167  0.87617442  1
  Fe  Fe57  1  0.62267783  0.37569486  0.37481252  1
  Fe  Fe58  1  0.62072438  0.12422171  0.37564496  1
  Fe  Fe59  1  0.75025533  0.50055442  0.00198005  1
  Fe  Fe60  1  0.12688190  0.12679492  0.62283654  1
  Fe  Fe61  1  0.24953185  0.74819099  0.25434407  1
  Fe  Fe62  1  0.00029889  -0.00023119  0.00236846  1
  Fe  Fe63  1  0.75078816  0.50078357  0.74880431  1
  Fe  Fe64  1  0.12295985  0.87530633  0.87541445  1
  Fe  Fe65  1  0.49803779  0.00166281  0.24914891  1
  Fe  Fe66  1  0.37154915  0.62490452  0.12551853  1
  Fe  Fe67  1  0.50356844  0.75264570  0.75023065  1
  Fe  Fe68  1  0.00153967  0.25089140  0.49785451  1
  Fe  Fe69  1  0.36585398  0.37688193  0.12454340  1
  Fe  Fe70  1  0.00257025  0.25186328  0.00341358  1
  Fe  Fe71  1  0.24717803  0.00238237  -0.00055275  1
  Fe  Fe72  1  0.25274599  -0.00087557  0.49618728  1
  Fe  Fe73  1  0.24846715  0.00178501  0.75202792  1
  Fe  Fe74  1  0.74937662  0.00175594  0.00015655  1
  Fe  Fe75  1  0.87419505  0.37339914  0.87711383  1
  Fe  Fe76  1  -0.00031874  0.49913972  0.24440474  1
  Fe  Fe77  1  0.62497024  0.62681403  0.62282119  1
  Fe  Fe78  1  0.75060291  -0.00015569  0.25075306  1
  Fe  Fe79  1  0.62322071  0.62417553  0.37465654  1
  Fe  Fe80  1  0.50028031  0.75056590  0.24884819  1
  Fe  Fe81  1  0.37496461  0.12534220  0.87537902  1
  Fe  Fe82  1  0.62559745  0.37551400  0.87507163  1
  Fe  Fe83  1  0.50275639  -0.00221110  0.74454161  1
  Fe  Fe84  1  0.37313505  0.87545330  0.12581786  1
  Fe  Fe85  1  0.00160508  -0.00079641  0.74705172  1
  Fe  Fe86  1  0.49970325  0.25105611  0.74866975  1
  Fe  Fe87  1  0.62978600  0.62690032  0.12778474  1
  Fe  Fe88  1  0.87656859  0.12607611  0.87417749  1
  Fe  Fe89  1  -0.00069523  0.74916710  0.00267867  1
  Co  Co90  1  0.87280726  0.37387772  0.12411645  1
  Co  Co91  1  0.62438595  0.62140886  0.87432927  1
  Co  Co92  1  0.12731214  0.62676228  0.12575203  1
  Co  Co93  1  0.24793292  0.25012082  0.49598740  1
  Co  Co94  1  -0.00192245  0.25263473  0.24976875  1
  Co  Co95  1  0.62567910  0.12500152  0.12789189  1
  Co  Co96  1  0.87870700  0.61977692  0.37466933  1
  Co  Co97  1  0.25466822  0.24366240  0.25291754  1
  Co  Co98  1  0.37706534  0.87587351  0.37093924  1
  Co  Co99  1  0.13253059  0.37438414  0.12826713  1
  Co  Co100  1  0.49885907  0.49995634  0.50218099  1
  Co  Co101  1  0.12568924  0.62590457  0.62219605  1
  Co  Co102  1  0.24799641  0.50356205  -0.00325724  1
  Co  Co103  1  -0.00123288  0.75348461  0.50046643  1
  Co  Co104  1  0.00109454  -0.00079409  0.50652767  1
  Co  Co105  1  0.38054801  0.12533661  0.37981234  1
  Co  Co106  1  0.24962348  0.50482837  0.25483437  1
  Co  Co107  1  0.24795034  0.74788741  0.75550307  1
  Co  Co108  1  0.75202042  0.75236045  0.25712273  1
  Co  Co109  1  0.87067483  0.62726368  0.12686478  1
  Co  Co110  1  0.75017603  0.74573018  0.75033537  1
  Co  Co111  1  0.37455556  0.12182126  0.12236046  1
  Co  Co112  1  0.25076714  0.75039487  0.49319637  1
  Co  Co113  1  0.25076942  0.24869835  0.75056253  1
  Co  Co114  1  0.00300151  0.49385481  0.49990779  1
  Co  Co115  1  0.74986343  0.25148865  0.75085359  1
  Co  Co116  1  0.12187492  0.12537894  0.87417716  1
  Co  Co117  1  -0.00107083  -0.00216159  0.24424998  1
  Co  Co118  1  0.62732460  0.87702287  0.87407050  1
  Co  Co119  1  0.74713068  0.74956323  -0.00365432  1
  Co  Co120  1  0.49788774  -0.00426394  0.50448311  1
  Co  Co121  1  0.62482136  0.12792825  0.62300981  1
  Co  Co122  1  0.74844404  0.24804077  -0.00024436  1
  Co  Co123  1  0.36932002  0.87302462  0.62854786  1
  Co  Co124  1  0.74893832  0.49827000  0.25121850  1
  Co  Co125  1  0.62933473  0.87189457  0.62198054  1
  Co  Co126  1  0.24853682  0.24553685  0.00031290  1
  Co  Co127  1  0.11959660  0.12251090  0.37405705  1
