# generated using pymatgen
data_Fe45Co19
_symmetry_space_group_name_H-M   'P 1'
_cell_length_a   11.41691786
_cell_length_b   11.41617201
_cell_length_c   11.41543507
_cell_angle_alpha   89.99594495
_cell_angle_beta   89.99845473
_cell_angle_gamma   89.99512333
_symmetry_Int_Tables_number   1
_chemical_formula_structural   Fe45Co19
_chemical_formula_sum   'Fe90 Co38'
_cell_volume   1487.85923685
_cell_formula_units_Z   2
loop_
 _symmetry_equiv_pos_site_id
 _symmetry_equiv_pos_as_xyz
  1  'x, y, z'
loop_
 _atom_site_type_symbol
 _atom_site_label
 _atom_site_symmetry_multiplicity
 _atom_site_fract_x
 _atom_site_fract_y
 _atom_site_fract_z
 _atom_site_occupancy
  Fe  Fe0  1  0.12645163  0.87286810  0.62338977  1
  Fe  Fe1  1  0.00033212  0.74746501  0.75309499  1
  Fe  Fe2  1  0.12756772  0.87237220  0.87553501  1
  Fe  Fe3  1  0.87487910  0.62535341  0.12699519  1
  Fe  Fe4  1  0.62436296  0.37540349  0.87528549  1
  Fe  Fe5  1  0.12751827  0.87582968  0.37726391  1
  Fe  Fe6  1  -0.00139130  0.50185438  0.75257949  1
  Fe  Fe7  1  0.62789465  0.87717836  0.87600078  1
  Fe  Fe8  1  0.24900358  -0.00018295  0.74757121  1
  Fe  Fe9  1  0.74986181  0.75008678  0.00166296  1
  Fe  Fe10  1  0.74859436  0.74980764  0.25268561  1
  Fe  Fe11  1  0.87501876  0.87470779  0.37481263  1
  Fe  Fe12  1  0.50168000  0.00160086  0.24808683  1
  Fe  Fe13  1  0.00153580  0.74844707  0.49675123  1
  Fe  Fe14  1  0.62312645  0.37574330  0.13025801  1
  Fe  Fe15  1  0.62350275  0.62372617  0.13086312  1
  Fe  Fe16  1  0.62646348  0.87676881  0.37468403  1
  Fe  Fe17  1  0.37561008  0.87531126  0.12541377  1
  Fe  Fe18  1  0.75123444  -0.00185435  0.24507483  1
  Fe  Fe19  1  0.87388695  0.12409826  0.87017442  1
  Fe  Fe20  1  0.50023337  0.24857075  0.00225451  1
  Fe  Fe21  1  0.37559944  0.12451250  0.87564100  1
  Fe  Fe22  1  0.37672273  0.37270300  0.12747087  1
  Fe  Fe23  1  0.50205024  0.74965369  0.75102073  1
  Fe  Fe24  1  0.00340133  0.75008117  0.25233240  1
  Fe  Fe25  1  0.00251735  0.24926598  0.50087652  1
  Fe  Fe26  1  0.49849484  0.50023939  0.00142056  1
  Fe  Fe27  1  -0.00047376  0.24879476  -0.00011373  1
  Fe  Fe28  1  0.37677494  0.62780512  0.12813969  1
  Fe  Fe29  1  0.12244666  0.12349967  0.87299724  1
  Fe  Fe30  1  0.87381587  0.87228292  0.62567571  1
  Fe  Fe31  1  0.75115730  0.25018906  0.00114890  1
  Fe  Fe32  1  0.49781762  0.25344009  0.49550506  1
  Fe  Fe33  1  0.37262834  0.62704588  0.87540288  1
  Fe  Fe34  1  -0.00430036  0.00027443  0.00080718  1
  Fe  Fe35  1  0.87390261  0.62719804  0.62338123  1
  Fe  Fe36  1  0.00010146  0.74791252  -0.00205945  1
  Fe  Fe37  1  -0.00467905  0.49698725  0.25265396  1
  Fe  Fe38  1  0.50226504  0.24983418  0.74942325  1
  Fe  Fe39  1  -0.00153216  0.50181860  0.49779641  1
  Fe  Fe40  1  0.25156402  0.50441380  0.74677979  1
  Fe  Fe41  1  0.37187190  0.87410866  0.37509911  1
  Fe  Fe42  1  0.75081013  0.24843226  0.50174311  1
  Fe  Fe43  1  0.24949844  0.24869380  0.00114268  1
  Fe  Fe44  1  0.12527552  0.37717575  0.62470054  1
  Fe  Fe45  1  0.75456093  0.25446329  0.24950546  1
  Fe  Fe46  1  0.62647603  0.87463507  0.62411914  1
  Fe  Fe47  1  0.24772287  0.24801075  0.24853258  1
  Fe  Fe48  1  0.37439415  0.12689108  0.62233276  1
  Fe  Fe49  1  0.49983887  0.50079296  0.75028215  1
  Fe  Fe50  1  0.62835165  0.12316164  0.87554683  1
  Fe  Fe51  1  -0.00015752  0.00043554  0.24855988  1
  Fe  Fe52  1  0.25070486  0.50093145  0.24818667  1
  Fe  Fe53  1  0.87595183  0.12546012  0.37311473  1
  Fe  Fe54  1  0.50175355  0.75109107  0.49622488  1
  Fe  Fe55  1  0.25170312  0.50043054  0.00195851  1
  Fe  Fe56  1  0.12629530  0.37672662  0.37600578  1
  Fe  Fe57  1  0.37374629  0.87429915  0.87471197  1
  Fe  Fe58  1  0.12218947  0.37426885  0.12471347  1
  Fe  Fe59  1  0.49962810  0.00039021  0.49892154  1
  Fe  Fe60  1  -0.00045969  0.00023254  0.50178031  1
  Fe  Fe61  1  0.37508830  0.37465523  0.87353970  1
  Fe  Fe62  1  0.12385488  0.87543781  0.12326970  1
  Fe  Fe63  1  0.75144705  0.00090425  0.50266935  1
  Fe  Fe64  1  0.12546792  0.12381504  0.37692983  1
  Fe  Fe65  1  0.37352148  0.87194771  0.62340309  1
  Fe  Fe66  1  0.24878091  -0.00011254  0.24873024  1
  Fe  Fe67  1  0.74970679  0.49930672  0.00340757  1
  Fe  Fe68  1  0.49761728  0.49634137  0.49489575  1
  Fe  Fe69  1  0.50122430  0.00098048  0.74773348  1
  Fe  Fe70  1  0.62686704  0.12632802  0.37350279  1
  Fe  Fe71  1  0.12631659  0.37736352  0.87499549  1
  Fe  Fe72  1  0.49987915  0.75036718  0.00070449  1
  Fe  Fe73  1  0.37215006  0.12494456  0.37552529  1
  Fe  Fe74  1  0.62665683  0.62452703  0.87623560  1
  Fe  Fe75  1  0.87436184  0.37487876  0.62428223  1
  Fe  Fe76  1  0.24781272  0.24927990  0.74837133  1
  Fe  Fe77  1  0.62460158  0.37548312  0.62262906  1
  Fe  Fe78  1  -0.00038428  0.50182456  -0.00193672  1
  Fe  Fe79  1  0.12439860  0.62505358  0.12526297  1
  Fe  Fe80  1  0.74978647  0.50041059  0.74987735  1
  Fe  Fe81  1  0.87837051  0.12536013  0.62996204  1
  Fe  Fe82  1  0.50313164  0.00163564  0.00355144  1
  Fe  Fe83  1  0.75042540  0.50200038  0.49333036  1
  Fe  Fe84  1  0.25244474  0.50317209  0.50275338  1
  Fe  Fe85  1  0.87380141  0.37541529  0.87525837  1
  Fe  Fe86  1  0.87078956  0.87509539  0.87351522  1
  Fe  Fe87  1  0.24958142  0.00111483  0.00088864  1
  Fe  Fe88  1  0.62442406  0.62485525  0.62116051  1
  Fe  Fe89  1  0.37442370  0.62705227  0.37305564  1
  Co  Co90  1  0.87622827  0.37158016  0.37912555  1
  Co  Co91  1  0.87688277  0.87078644  0.12639416  1
  Co  Co92  1  0.12949487  0.62429064  0.87615459  1
  Co  Co93  1  0.87140244  0.62438128  0.87637498  1
  Co  Co94  1  0.37563955  0.37402179  0.62694776  1
  Co  Co95  1  0.87593169  0.62853107  0.37426828  1
  Co  Co96  1  0.87590449  0.12705053  0.12778767  1
  Co  Co97  1  0.75440127  0.49823221  0.25299524  1
  Co  Co98  1  0.62157781  0.12671420  0.62144474  1
  Co  Co99  1  0.62287760  0.62450487  0.37308718  1
  Co  Co100  1  0.25065701  0.75003565  0.00370667  1
  Co  Co101  1  0.00201116  0.25135031  0.25193678  1
  Co  Co102  1  0.74811638  0.25095859  0.74868015  1
  Co  Co103  1  0.12567888  0.62091616  0.37352073  1
  Co  Co104  1  0.62731939  0.37285312  0.37289989  1
  Co  Co105  1  0.25010738  0.74767576  0.74693606  1
  Co  Co106  1  0.49706351  0.24893115  0.25267781  1
  Co  Co107  1  0.38099590  0.62719643  0.62301055  1
  Co  Co108  1  0.12349523  0.12374959  0.62571790  1
  Co  Co109  1  0.24757457  0.75139521  0.24969131  1
  Co  Co110  1  0.00144788  -0.00488195  0.74993893  1
  Co  Co111  1  0.75330146  0.00029015  0.00413979  1
  Co  Co112  1  0.37439007  0.12386763  0.12496521  1
  Co  Co113  1  0.50040373  0.75337613  0.25183441  1
  Co  Co114  1  0.49867877  0.49779041  0.25438743  1
  Co  Co115  1  0.62769308  0.12827437  0.12767671  1
  Co  Co116  1  0.74800023  0.74820091  0.74897031  1
  Co  Co117  1  0.36856380  0.37450372  0.37212239  1
  Co  Co118  1  0.87784836  0.37522489  0.12254203  1
  Co  Co119  1  0.24838621  0.74550776  0.49917479  1
  Co  Co120  1  0.00109064  0.25463236  0.74996207  1
  Co  Co121  1  0.62500943  0.87308041  0.12444279  1
  Co  Co122  1  0.12275166  0.12349677  0.12396568  1
  Co  Co123  1  0.74843600  0.75078601  0.49727023  1
  Co  Co124  1  0.24816405  0.25133974  0.50138073  1
  Co  Co125  1  0.24980225  -0.00011903  0.50208428  1
  Co  Co126  1  0.12039880  0.62516325  0.62461678  1
  Co  Co127  1  0.74792819  0.00113367  0.74574316  1
