# generated using pymatgen
data_Fe45Co19
_symmetry_space_group_name_H-M   'P 1'
_cell_length_a   11.41557167
_cell_length_b   11.41519425
_cell_length_c   11.41609520
_cell_angle_alpha   89.99508288
_cell_angle_beta   89.99307933
_cell_angle_gamma   89.99203866
_symmetry_Int_Tables_number   1
_chemical_formula_structural   Fe45Co19
_chemical_formula_sum   'Fe90 Co38'
_cell_volume   1487.64238629
_cell_formula_units_Z   2
loop_
 _symmetry_equiv_pos_site_id
 _symmetry_equiv_pos_as_xyz
  1  'x, y, z'
loop_
 _atom_site_type_symbol
 _atom_site_label
 _atom_site_symmetry_multiplicity
 _atom_site_fract_x
 _atom_site_fract_y
 _atom_site_fract_z
 _atom_site_occupancy
  Fe  Fe0  1  0.37452146  0.37884988  0.62142245  1
  Fe  Fe1  1  0.37472877  0.12150044  0.37565112  1
  Fe  Fe2  1  0.62481298  0.12744674  0.87410895  1
  Fe  Fe3  1  0.87553584  0.87498253  0.87562756  1
  Fe  Fe4  1  0.00112469  0.00046544  0.49830673  1
  Fe  Fe5  1  0.37424463  0.62149342  0.62203658  1
  Fe  Fe6  1  0.87367965  0.62499287  0.12488418  1
  Fe  Fe7  1  0.00440584  0.49928913  0.49638811  1
  Fe  Fe8  1  0.00171897  -0.00024995  0.00097813  1
  Fe  Fe9  1  0.75113130  0.74955591  0.75204555  1
  Fe  Fe10  1  0.50079176  0.50039477  0.74999455  1
  Fe  Fe11  1  0.25166428  0.74938460  0.00167638  1
  Fe  Fe12  1  0.87464661  0.12435904  0.37345406  1
  Fe  Fe13  1  0.37515960  0.62360346  0.87558883  1
  Fe  Fe14  1  0.49593314  0.24831855  0.00330198  1
  Fe  Fe15  1  0.62202563  0.37216279  0.12976889  1
  Fe  Fe16  1  0.12609078  0.87313497  0.87514728  1
  Fe  Fe17  1  0.37157644  0.87994365  0.12630173  1
  Fe  Fe18  1  0.49848195  0.00127503  -0.00031169  1
  Fe  Fe19  1  0.75133458  0.24982259  0.00194492  1
  Fe  Fe20  1  0.49817877  0.25065282  0.74972590  1
  Fe  Fe21  1  0.12644952  0.37410557  0.12379954  1
  Fe  Fe22  1  0.74689069  0.00104051  0.74913426  1
  Fe  Fe23  1  0.25139852  0.75032019  0.74814835  1
  Fe  Fe24  1  0.12674766  0.12434721  0.87454716  1
  Fe  Fe25  1  0.37313648  0.62031666  0.12443351  1
  Fe  Fe26  1  0.87596191  0.62461091  0.37384537  1
  Fe  Fe27  1  -0.00071981  0.25005931  0.49972180  1
  Fe  Fe28  1  0.62614164  0.12679879  0.37215383  1
  Fe  Fe29  1  0.12548391  0.12842332  0.37345107  1
  Fe  Fe30  1  0.37451321  0.62125631  0.37852419  1
  Fe  Fe31  1  0.25694951  0.25140405  0.25040256  1
  Fe  Fe32  1  0.87163128  0.87580052  0.37650308  1
  Fe  Fe33  1  0.62568997  0.37311128  0.62563667  1
  Fe  Fe34  1  -0.00165693  0.74900145  0.00055741  1
  Fe  Fe35  1  0.62370273  0.62647014  0.37294360  1
  Fe  Fe36  1  0.87226383  0.12465913  0.62545959  1
  Fe  Fe37  1  0.74741386  0.50049676  0.49799813  1
  Fe  Fe38  1  0.50118375  0.49977432  0.00177372  1
  Fe  Fe39  1  -0.00058373  0.00009616  0.74944652  1
  Fe  Fe40  1  0.62274219  0.62940386  0.87759599  1
  Fe  Fe41  1  0.74931731  0.49956301  0.75251989  1
  Fe  Fe42  1  0.50137114  0.75041929  0.50110393  1
  Fe  Fe43  1  0.12462153  0.37337716  0.62611603  1
  Fe  Fe44  1  0.12445849  0.62631936  0.62572450  1
  Fe  Fe45  1  0.00258695  0.50316028  -0.00113629  1
  Fe  Fe46  1  0.12766005  0.12392007  0.12604299  1
  Fe  Fe47  1  0.74822112  0.50071636  0.00001162  1
  Fe  Fe48  1  0.74870306  -0.00283586  0.00203491  1
  Fe  Fe49  1  0.00031009  0.75216163  0.24894582  1
  Fe  Fe50  1  0.00137164  0.50145301  0.75362440  1
  Fe  Fe51  1  0.74865596  -0.00286242  0.24819284  1
  Fe  Fe52  1  -0.00283983  0.24767093  0.75309120  1
  Fe  Fe53  1  0.25248413  0.24880970  0.74992344  1
  Fe  Fe54  1  0.50019715  0.25171958  0.49739502  1
  Fe  Fe55  1  0.12934352  0.87124472  0.37520421  1
  Fe  Fe56  1  -0.00040346  0.75003295  0.49976398  1
  Fe  Fe57  1  0.12643415  0.87582095  0.62388251  1
  Fe  Fe58  1  0.87594358  0.37620251  0.62479387  1
  Fe  Fe59  1  0.50307418  -0.00003687  0.74795703  1
  Fe  Fe60  1  0.37537533  0.12275082  0.62484792  1
  Fe  Fe61  1  0.12588209  0.37292309  0.87715342  1
  Fe  Fe62  1  0.37454789  0.87745351  0.62386443  1
  Fe  Fe63  1  0.12666820  0.62632864  0.12706195  1
  Fe  Fe64  1  0.62342180  0.12613535  0.12756587  1
  Fe  Fe65  1  0.87620383  0.62467698  0.62551588  1
  Fe  Fe66  1  0.25165089  0.25175063  0.49843546  1
  Fe  Fe67  1  0.87650791  0.37485847  0.87848603  1
  Fe  Fe68  1  0.00017531  0.49712110  0.25108044  1
  Fe  Fe69  1  0.24847277  0.50030780  0.75119494  1
  Fe  Fe70  1  0.74934753  0.75359078  0.24791083  1
  Fe  Fe71  1  0.62364737  0.37283385  0.87519793  1
  Fe  Fe72  1  -0.00442645  0.25284545  0.24685479  1
  Fe  Fe73  1  0.74988315  0.25062293  0.49750035  1
  Fe  Fe74  1  0.50592833  -0.00083030  0.50168151  1
  Fe  Fe75  1  0.49734061  0.75041464  0.24798474  1
  Fe  Fe76  1  0.00343917  -0.00300224  0.24997164  1
  Fe  Fe77  1  0.87089731  0.87468331  0.62187763  1
  Fe  Fe78  1  0.37475378  0.37629990  0.87704888  1
  Fe  Fe79  1  0.37494131  0.87647044  0.87378234  1
  Fe  Fe80  1  0.24869724  0.49878576  0.25380344  1
  Fe  Fe81  1  0.87532620  0.12257388  0.12458124  1
  Fe  Fe82  1  0.37350115  0.87532056  0.37633807  1
  Fe  Fe83  1  0.62163512  0.87064853  0.87746718  1
  Fe  Fe84  1  0.50173117  -0.00121740  0.25070556  1
  Fe  Fe85  1  0.62485465  0.62909969  0.12337845  1
  Fe  Fe86  1  0.12657384  0.12457629  0.62515757  1
  Fe  Fe87  1  0.62487971  0.62786068  0.62706924  1
  Fe  Fe88  1  0.25419847  0.24728688  0.00170185  1
  Fe  Fe89  1  0.75018135  0.49687110  0.24969081  1
  Co  Co90  1  0.24291737  0.49849070  0.49760832  1
  Co  Co91  1  0.87716287  0.87546653  0.12536324  1
  Co  Co92  1  0.49729889  0.74953948  0.74795020  1
  Co  Co93  1  0.87248079  0.12254264  0.87681479  1
  Co  Co94  1  0.49329027  0.74996076  0.00375927  1
  Co  Co95  1  0.12477359  0.62895360  0.37295163  1
  Co  Co96  1  0.12624079  0.62958533  0.87365717  1
  Co  Co97  1  -0.00132096  0.75210129  0.74834200  1
  Co  Co98  1  0.87445731  0.62549753  0.87506645  1
  Co  Co99  1  0.74956393  0.74595207  0.49800202  1
  Co  Co100  1  0.75260996  0.75207331  0.00117788  1
  Co  Co101  1  0.25027441  0.00182080  -0.00204994  1
  Co  Co102  1  0.24928456  0.00023647  0.74985271  1
  Co  Co103  1  0.37683349  0.12396453  0.87193157  1
  Co  Co104  1  0.24758316  0.50048063  -0.00125038  1
  Co  Co105  1  0.62532331  0.13000652  0.62608255  1
  Co  Co106  1  0.25423743  0.74887755  0.24907235  1
  Co  Co107  1  0.62084234  0.87354227  0.12302637  1
  Co  Co108  1  0.87640083  0.37730463  0.12018647  1
  Co  Co109  1  0.25046606  0.74895328  0.50130129  1
  Co  Co110  1  0.50126974  0.50300099  0.24843437  1
  Co  Co111  1  0.24743244  0.00145039  0.49851413  1
  Co  Co112  1  0.87526868  0.37622871  0.37724903  1
  Co  Co113  1  0.62299577  0.37361998  0.37095411  1
  Co  Co114  1  0.12435783  0.37001775  0.37250262  1
  Co  Co115  1  0.37898255  0.38139995  0.37669012  1
  Co  Co116  1  0.24656295  -0.00039084  0.25329014  1
  Co  Co117  1  0.75300799  0.25167518  0.75177455  1
  Co  Co118  1  0.74666051  0.00323156  0.50002729  1
  Co  Co119  1  0.00025924  0.24636506  0.00050626  1
  Co  Co120  1  0.62594790  0.87382846  0.37519844  1
  Co  Co121  1  0.49381063  0.24897154  0.25108461  1
  Co  Co122  1  0.12825201  0.87382563  0.12359322  1
  Co  Co123  1  0.62800167  0.87095445  0.62434511  1
  Co  Co124  1  0.75458865  0.25196610  0.24884900  1
  Co  Co125  1  0.50666671  0.50046443  0.50131170  1
  Co  Co126  1  0.37473546  0.11945396  0.12732087  1
  Co  Co127  1  0.37560322  0.37881417  0.12528769  1
