# generated using pymatgen
data_Fe45Co19
_symmetry_space_group_name_H-M   'P 1'
_cell_length_a   11.41549468
_cell_length_b   11.41622620
_cell_length_c   11.41627664
_cell_angle_alpha   89.99606696
_cell_angle_beta   89.99937899
_cell_angle_gamma   89.99536247
_symmetry_Int_Tables_number   1
_chemical_formula_structural   Fe45Co19
_chemical_formula_sum   'Fe90 Co38'
_cell_volume   1487.79050574
_cell_formula_units_Z   2
loop_
 _symmetry_equiv_pos_site_id
 _symmetry_equiv_pos_as_xyz
  1  'x, y, z'
loop_
 _atom_site_type_symbol
 _atom_site_label
 _atom_site_symmetry_multiplicity
 _atom_site_fract_x
 _atom_site_fract_y
 _atom_site_fract_z
 _atom_site_occupancy
  Fe  Fe0  1  0.12662958  0.37365346  0.37403576  1
  Fe  Fe1  1  0.12517901  0.37253504  0.87481021  1
  Fe  Fe2  1  0.75041823  -0.00172580  0.50009294  1
  Fe  Fe3  1  0.62434595  0.62609872  0.62402204  1
  Fe  Fe4  1  -0.00167049  0.74965720  0.24973056  1
  Fe  Fe5  1  0.62201537  0.12171713  0.12592799  1
  Fe  Fe6  1  0.75249024  0.25152943  0.00240178  1
  Fe  Fe7  1  0.00150440  0.50062744  0.75124647  1
  Fe  Fe8  1  0.75140376  0.25214680  0.50252810  1
  Fe  Fe9  1  0.00554820  -0.00044398  -0.00865866  1
  Fe  Fe10  1  0.62436062  0.62583453  0.87699095  1
  Fe  Fe11  1  0.00018421  0.50077500  0.49746993  1
  Fe  Fe12  1  0.25000961  0.75155715  0.24712672  1
  Fe  Fe13  1  0.75114320  0.49709561  -0.00092728  1
  Fe  Fe14  1  -0.00056896  -0.00000024  0.50180486  1
  Fe  Fe15  1  0.37439034  0.12600763  0.37220588  1
  Fe  Fe16  1  0.12454878  0.12513288  0.37579848  1
  Fe  Fe17  1  -0.00052774  0.25136146  -0.00006809  1
  Fe  Fe18  1  0.87408150  0.87598100  0.37395984  1
  Fe  Fe19  1  0.62444787  0.87853068  0.12571072  1
  Fe  Fe20  1  0.75134094  -0.00135830  0.75180146  1
  Fe  Fe21  1  0.74889217  0.00049738  -0.00261256  1
  Fe  Fe22  1  0.49849283  0.00053205  0.75341596  1
  Fe  Fe23  1  -0.00085042  0.74862376  0.50104107  1
  Fe  Fe24  1  0.37551808  0.12259090  0.62552734  1
  Fe  Fe25  1  0.37405768  0.37523291  0.87734839  1
  Fe  Fe26  1  0.12449516  0.12444061  0.63000429  1
  Fe  Fe27  1  -0.00079973  0.25020393  0.50166272  1
  Fe  Fe28  1  -0.00257592  0.24629933  0.24874537  1
  Fe  Fe29  1  0.12414157  0.87550657  0.62832296  1
  Fe  Fe30  1  0.74695426  0.49636336  0.75083388  1
  Fe  Fe31  1  0.49897634  0.50029084  0.25303329  1
  Fe  Fe32  1  0.75039382  0.25593561  0.74821785  1
  Fe  Fe33  1  0.00266669  0.74884736  -0.00352142  1
  Fe  Fe34  1  0.62669473  0.87063805  0.37240520  1
  Fe  Fe35  1  0.49948443  0.24905803  0.49903930  1
  Fe  Fe36  1  0.24629341  0.49959864  0.00198322  1
  Fe  Fe37  1  0.37562205  0.37620050  0.12662916  1
  Fe  Fe38  1  0.25004011  0.00004189  0.49994857  1
  Fe  Fe39  1  0.62564820  0.12864900  0.87432703  1
  Fe  Fe40  1  0.25019925  0.24951629  0.50235652  1
  Fe  Fe41  1  0.62541659  0.62387556  0.12616616  1
  Fe  Fe42  1  0.50067569  -0.00189610  0.49806886  1
  Fe  Fe43  1  0.87454404  0.62498980  0.87470838  1
  Fe  Fe44  1  0.87645512  0.62223794  0.12418515  1
  Fe  Fe45  1  0.49950352  0.74993119  0.74872044  1
  Fe  Fe46  1  0.24925440  0.49919573  0.74889164  1
  Fe  Fe47  1  0.62507407  0.63133142  0.37236039  1
  Fe  Fe48  1  0.87540489  0.12700411  0.87455455  1
  Fe  Fe49  1  0.25282288  0.74808793  0.50479453  1
  Fe  Fe50  1  0.62522583  0.37246903  0.37361226  1
  Fe  Fe51  1  0.87507210  0.37352372  0.37286587  1
  Fe  Fe52  1  0.24994363  0.74658015  0.74619699  1
  Fe  Fe53  1  -0.00089293  0.00242331  0.25159297  1
  Fe  Fe54  1  0.62685385  0.12543012  0.37396406  1
  Fe  Fe55  1  0.49997162  0.50016428  -0.00014089  1
  Fe  Fe56  1  0.74906874  0.49989255  0.49884412  1
  Fe  Fe57  1  0.12405896  0.37560704  0.62413148  1
  Fe  Fe58  1  0.25135064  0.24878635  0.24686980  1
  Fe  Fe59  1  0.37533262  0.87213029  0.37536476  1
  Fe  Fe60  1  0.62454247  0.12526830  0.62614445  1
  Fe  Fe61  1  0.49877623  0.75052224  0.00251469  1
  Fe  Fe62  1  0.87586327  0.87224699  0.62951919  1
  Fe  Fe63  1  0.24801040  0.75049025  0.00183171  1
  Fe  Fe64  1  0.62464681  0.87382323  0.62534574  1
  Fe  Fe65  1  0.25241424  0.50156501  0.49824650  1
  Fe  Fe66  1  0.87642374  0.87892897  0.12205641  1
  Fe  Fe67  1  0.37570374  0.88222141  0.12450163  1
  Fe  Fe68  1  0.12200464  0.37697552  0.12666640  1
  Fe  Fe69  1  0.12335311  0.87655206  0.12593624  1
  Fe  Fe70  1  0.37783833  0.37670255  0.62281275  1
  Fe  Fe71  1  0.62520514  0.87314286  0.87571472  1
  Fe  Fe72  1  0.37334815  0.62343810  0.12648931  1
  Fe  Fe73  1  0.12676742  0.12250729  0.12300481  1
  Fe  Fe74  1  0.75414534  0.24620156  0.24683358  1
  Fe  Fe75  1  0.49844620  0.50253695  0.49520244  1
  Fe  Fe76  1  0.00142838  0.50184960  0.25092948  1
  Fe  Fe77  1  0.12870190  0.62708392  0.37396673  1
  Fe  Fe78  1  0.74984989  0.75004380  0.00172564  1
  Fe  Fe79  1  0.37242725  0.87436864  0.87462918  1
  Fe  Fe80  1  0.49760910  0.24840104  0.00228066  1
  Fe  Fe81  1  0.87526123  0.12537720  0.62615322  1
  Fe  Fe82  1  0.49813478  0.25169425  0.75105975  1
  Fe  Fe83  1  0.62563635  0.37551665  0.12574354  1
  Fe  Fe84  1  0.87462076  0.62487930  0.62638619  1
  Fe  Fe85  1  0.12481832  0.87387225  0.37576055  1
  Fe  Fe86  1  0.87252704  0.62659073  0.37348926  1
  Fe  Fe87  1  0.37356533  0.62454708  0.87511512  1
  Fe  Fe88  1  0.36876495  0.12612258  0.87885852  1
  Fe  Fe89  1  0.50244044  0.49761682  0.75252869  1
  Co  Co90  1  0.87664604  0.37837137  0.62396959  1
  Co  Co91  1  0.37792603  0.62109025  0.62760867  1
  Co  Co92  1  0.62389691  0.37205079  0.87924349  1
  Co  Co93  1  0.75189477  0.75015902  0.50089229  1
  Co  Co94  1  0.87504262  0.12492074  0.37895806  1
  Co  Co95  1  0.00145672  0.74736787  0.75209810  1
  Co  Co96  1  0.50022158  0.00097033  -0.00491364  1
  Co  Co97  1  0.24858407  -0.00019882  0.25277240  1
  Co  Co98  1  0.74919579  0.50071510  0.25147372  1
  Co  Co99  1  -0.00116511  0.25098817  0.74884259  1
  Co  Co100  1  0.24955138  0.49876865  0.24974064  1
  Co  Co101  1  0.37487547  0.87826934  0.62638540  1
  Co  Co102  1  -0.00024623  0.00050449  0.75452530  1
  Co  Co103  1  0.50011330  -0.00099843  0.25433035  1
  Co  Co104  1  0.74826532  0.74873131  0.75096084  1
  Co  Co105  1  0.24536549  -0.00192361  -0.00258894  1
  Co  Co106  1  0.37319872  0.37216277  0.37495143  1
  Co  Co107  1  0.12437472  0.62591893  0.12622217  1
  Co  Co108  1  0.00237881  0.50044822  -0.00131534  1
  Co  Co109  1  0.12894179  0.87108182  0.86964971  1
  Co  Co110  1  0.75214785  0.00165665  0.24998226  1
  Co  Co111  1  0.12827072  0.13189307  0.87295298  1
  Co  Co112  1  0.87777646  0.12004115  0.11961109  1
  Co  Co113  1  0.49751223  0.74953583  0.50292202  1
  Co  Co114  1  0.25269059  0.25248007  0.74691168  1
  Co  Co115  1  0.24992804  0.25263558  0.00481238  1
  Co  Co116  1  0.49897762  0.75106027  0.24486318  1
  Co  Co117  1  0.12813056  0.62478662  0.87562290  1
  Co  Co118  1  0.37465714  0.11948607  0.12453003  1
  Co  Co119  1  0.24962720  0.00195144  0.75207292  1
  Co  Co120  1  0.62087439  0.37535976  0.62178080  1
  Co  Co121  1  0.87634682  0.37832264  0.12667044  1
  Co  Co122  1  0.87661534  0.37567310  0.87549809  1
  Co  Co123  1  0.87355630  0.87254466  0.87538385  1
  Co  Co124  1  0.12375132  0.62386305  0.62334452  1
  Co  Co125  1  0.37293006  0.62976412  0.37183124  1
  Co  Co126  1  0.75263773  0.75103466  0.24539475  1
  Co  Co127  1  0.49902095  0.24988149  0.24809067  1
