# generated using pymatgen
data_Fe45Co19
_symmetry_space_group_name_H-M   'P 1'
_cell_length_a   11.41491714
_cell_length_b   11.41535190
_cell_length_c   11.41406516
_cell_angle_alpha   90.00526772
_cell_angle_beta   89.99539904
_cell_angle_gamma   90.00462183
_symmetry_Int_Tables_number   1
_chemical_formula_structural   Fe45Co19
_chemical_formula_sum   'Fe90 Co38'
_cell_volume   1487.31312321
_cell_formula_units_Z   2
loop_
 _symmetry_equiv_pos_site_id
 _symmetry_equiv_pos_as_xyz
  1  'x, y, z'
loop_
 _atom_site_type_symbol
 _atom_site_label
 _atom_site_symmetry_multiplicity
 _atom_site_fract_x
 _atom_site_fract_y
 _atom_site_fract_z
 _atom_site_occupancy
  Fe  Fe0  1  0.75080254  0.00124937  0.49974294  1
  Fe  Fe1  1  0.37241524  0.62390298  0.37403904  1
  Fe  Fe2  1  0.62632724  0.62441609  0.87499593  1
  Fe  Fe3  1  0.24890819  0.74728966  0.50023513  1
  Fe  Fe4  1  0.75067116  0.50042791  0.00285325  1
  Fe  Fe5  1  0.49935341  0.50013490  0.00100303  1
  Fe  Fe6  1  0.62375016  0.87621259  0.12586969  1
  Fe  Fe7  1  0.87570882  0.12361753  0.37246072  1
  Fe  Fe8  1  0.49852844  0.49636200  0.25081207  1
  Fe  Fe9  1  0.50066970  0.00194450  0.49846348  1
  Fe  Fe10  1  0.25161308  0.74992354  0.00269254  1
  Fe  Fe11  1  0.00162000  0.25232606  0.75157537  1
  Fe  Fe12  1  0.74789277  0.50144103  0.49770902  1
  Fe  Fe13  1  0.12359093  0.62528384  0.12887684  1
  Fe  Fe14  1  0.24740094  0.00073591  0.49915127  1
  Fe  Fe15  1  0.75118177  0.75035963  0.00245432  1
  Fe  Fe16  1  0.75053786  0.49741339  0.24989077  1
  Fe  Fe17  1  0.37082073  0.12371100  0.37292839  1
  Fe  Fe18  1  0.25023350  0.25027960  0.00014746  1
  Fe  Fe19  1  0.87475811  0.37522641  0.37528287  1
  Fe  Fe20  1  0.87606798  0.87423097  0.62343309  1
  Fe  Fe21  1  0.75008286  0.25281824  0.74917618  1
  Fe  Fe22  1  0.12589231  0.37396966  0.37710667  1
  Fe  Fe23  1  0.24990997  0.49697504  0.25012259  1
  Fe  Fe24  1  0.87801016  0.37806375  0.62339338  1
  Fe  Fe25  1  0.25082549  0.75157045  0.74958549  1
  Fe  Fe26  1  0.24884833  -0.00105050  0.74984932  1
  Fe  Fe27  1  0.87530750  0.62475344  0.37277228  1
  Fe  Fe28  1  0.00350841  0.50256864  0.49582077  1
  Fe  Fe29  1  0.62718162  0.12686394  0.87417997  1
  Fe  Fe30  1  0.74973346  0.74775409  0.49791085  1
  Fe  Fe31  1  0.74966470  -0.00109201  0.74978762  1
  Fe  Fe32  1  -0.00108452  0.74599775  0.00197209  1
  Fe  Fe33  1  0.24890405  0.25267288  0.74840303  1
  Fe  Fe34  1  0.37463351  0.12232154  0.12740770  1
  Fe  Fe35  1  0.49945001  0.50137419  0.49800758  1
  Fe  Fe36  1  0.49711282  0.75406104  0.25195316  1
  Fe  Fe37  1  0.37593414  0.87579546  0.87670905  1
  Fe  Fe38  1  0.50056991  0.74721874  0.49846359  1
  Fe  Fe39  1  0.12294673  0.87532061  0.62597345  1
  Fe  Fe40  1  -0.00143583  0.24829046  0.49876759  1
  Fe  Fe41  1  0.24661630  0.49653853  0.74779764  1
  Fe  Fe42  1  0.49837906  0.74790575  0.00122892  1
  Fe  Fe43  1  0.12054932  0.37412339  0.12145531  1
  Fe  Fe44  1  0.50178161  0.49989424  0.74971524  1
  Fe  Fe45  1  0.87486532  0.12537616  0.62686837  1
  Fe  Fe46  1  0.37481826  0.37526392  0.87471157  1
  Fe  Fe47  1  0.50019310  0.24948959  0.74842830  1
  Fe  Fe48  1  0.62437870  0.37332903  0.12429337  1
  Fe  Fe49  1  0.50310285  0.00249731  0.00013495  1
  Fe  Fe50  1  0.49889452  0.74813607  0.74885953  1
  Fe  Fe51  1  0.75139713  0.25181982  0.24934027  1
  Fe  Fe52  1  0.49830273  0.24883952  0.49995481  1
  Fe  Fe53  1  0.87462092  0.12311345  0.87515224  1
  Fe  Fe54  1  0.75159822  0.74827891  0.74862618  1
  Fe  Fe55  1  0.62496316  0.87384952  0.87477631  1
  Fe  Fe56  1  0.37352195  0.12441762  0.87409002  1
  Fe  Fe57  1  0.00100024  0.00124767  0.49960930  1
  Fe  Fe58  1  0.74995337  0.49959751  0.74879398  1
  Fe  Fe59  1  0.12272398  0.87376637  0.87641361  1
  Fe  Fe60  1  0.87867380  0.37700005  0.87856831  1
  Fe  Fe61  1  0.24846674  0.50122751  0.00159483  1
  Fe  Fe62  1  -0.00308378  0.75131196  0.25031440  1
  Fe  Fe63  1  0.62536747  0.37354572  0.62170378  1
  Fe  Fe64  1  0.00070628  0.74819213  0.49811142  1
  Fe  Fe65  1  0.12396543  0.62292642  0.62642682  1
  Fe  Fe66  1  0.62715438  0.12730572  0.37540567  1
  Fe  Fe67  1  0.87526003  0.62288898  0.87465860  1
  Fe  Fe68  1  0.49906724  0.25094448  0.25079559  1
  Fe  Fe69  1  0.75145615  0.75281869  0.25077584  1
  Fe  Fe70  1  0.50061528  0.00168464  0.74805615  1
  Fe  Fe71  1  0.62576819  0.87360034  0.62336641  1
  Fe  Fe72  1  0.87607604  0.87670733  0.87723113  1
  Fe  Fe73  1  0.12531440  0.87409982  0.37352396  1
  Fe  Fe74  1  0.62423093  0.62548337  0.12852625  1
  Fe  Fe75  1  0.25131679  0.25158482  0.50268755  1
  Fe  Fe76  1  0.00057547  0.00268591  0.00339601  1
  Fe  Fe77  1  0.37511155  0.87576978  0.62229309  1
  Fe  Fe78  1  0.12472791  0.12564633  0.87519861  1
  Fe  Fe79  1  0.12448496  0.12631131  0.62533473  1
  Fe  Fe80  1  0.00406366  0.00095420  0.24815634  1
  Fe  Fe81  1  -0.00022194  0.24985224  0.24856597  1
  Fe  Fe82  1  0.49966902  0.24970420  -0.00000436  1
  Fe  Fe83  1  0.24783074  -0.00134654  0.00309084  1
  Fe  Fe84  1  0.37277117  0.62389644  0.87403376  1
  Fe  Fe85  1  0.74802805  -0.00118753  0.24928096  1
  Fe  Fe86  1  0.25421591  0.75495499  0.24749389  1
  Fe  Fe87  1  0.75169892  0.24921004  0.00187966  1
  Fe  Fe88  1  -0.00117819  0.74806934  0.75002453  1
  Fe  Fe89  1  0.24908486  0.25148432  0.24889453  1
  Co  Co90  1  0.00096330  0.50501883  0.00035248  1
  Co  Co91  1  0.12706439  0.62614637  0.87362483  1
  Co  Co92  1  0.12222699  0.87159501  0.12524204  1
  Co  Co93  1  0.62498801  0.37295273  0.37637406  1
  Co  Co94  1  0.62755685  0.12656967  0.62411995  1
  Co  Co95  1  0.12650860  0.12695883  0.37494482  1
  Co  Co96  1  0.37312008  0.37463528  0.37679661  1
  Co  Co97  1  0.12197826  0.37486599  0.62110220  1
  Co  Co98  1  0.62583511  0.62481373  0.62544000  1
  Co  Co99  1  0.75348680  0.24946974  0.49943665  1
  Co  Co100  1  0.37242938  0.87618774  0.37838456  1
  Co  Co101  1  0.24839835  0.50125104  0.49953793  1
  Co  Co102  1  0.62520788  0.37474523  0.87688702  1
  Co  Co103  1  0.12668476  0.12767752  0.12527688  1
  Co  Co104  1  0.00218671  0.49935070  0.75231279  1
  Co  Co105  1  0.62482268  0.12649229  0.12686526  1
  Co  Co106  1  0.00039997  0.00044196  0.74959866  1
  Co  Co107  1  0.87662505  0.62282491  0.62300584  1
  Co  Co108  1  0.12353599  0.37442369  0.87990438  1
  Co  Co109  1  0.87557896  0.87758844  0.12427072  1
  Co  Co110  1  0.37472772  0.37372201  0.12331606  1
  Co  Co111  1  0.24750228  -0.00272631  0.24846204  1
  Co  Co112  1  0.87511972  0.62371580  0.12876891  1
  Co  Co113  1  0.87362529  0.12337630  0.12695875  1
  Co  Co114  1  0.87862623  0.37573954  0.12297518  1
  Co  Co115  1  0.62434090  0.62496985  0.37050778  1
  Co  Co116  1  0.74770528  0.00002054  0.00024444  1
  Co  Co117  1  0.37399744  0.62372869  0.62559879  1
  Co  Co118  1  0.12726639  0.62649279  0.36966324  1
  Co  Co119  1  0.87661095  0.87716145  0.37533234  1
  Co  Co120  1  0.62608000  0.87483232  0.37683608  1
  Co  Co121  1  0.00051274  0.49766748  0.25195354  1
  Co  Co122  1  0.37294850  0.12388329  0.62506425  1
  Co  Co123  1  -0.00222055  0.24569776  0.00045193  1
  Co  Co124  1  0.37555844  0.62349379  0.12720401  1
  Co  Co125  1  0.37693187  0.37651437  0.62437023  1
  Co  Co126  1  0.37859692  0.88036687  0.12300600  1
  Co  Co127  1  0.50074542  -0.00021398  0.25419397  1
