# generated using pymatgen
data_Fe45Co19
_symmetry_space_group_name_H-M   'P 1'
_cell_length_a   11.41540374
_cell_length_b   11.41490575
_cell_length_c   11.41498131
_cell_angle_alpha   90.00881649
_cell_angle_beta   90.00740538
_cell_angle_gamma   90.00212527
_symmetry_Int_Tables_number   1
_chemical_formula_structural   Fe45Co19
_chemical_formula_sum   'Fe90 Co38'
_cell_volume   1487.43775753
_cell_formula_units_Z   2
loop_
 _symmetry_equiv_pos_site_id
 _symmetry_equiv_pos_as_xyz
  1  'x, y, z'
loop_
 _atom_site_type_symbol
 _atom_site_label
 _atom_site_symmetry_multiplicity
 _atom_site_fract_x
 _atom_site_fract_y
 _atom_site_fract_z
 _atom_site_occupancy
  Fe  Fe0  1  0.49855487  0.00151123  0.50197324  1
  Fe  Fe1  1  0.37216503  0.62179682  0.87492317  1
  Fe  Fe2  1  0.25227287  0.25156504  0.24710622  1
  Fe  Fe3  1  0.74969806  0.75025741  0.74939123  1
  Fe  Fe4  1  0.37387554  0.12613159  0.37504803  1
  Fe  Fe5  1  -0.00134420  0.00271636  0.49880616  1
  Fe  Fe6  1  0.24922744  0.74846752  0.50057849  1
  Fe  Fe7  1  0.37268841  0.37883460  0.87697565  1
  Fe  Fe8  1  0.25014649  0.74885591  0.24862519  1
  Fe  Fe9  1  0.87732494  0.87477800  0.12364441  1
  Fe  Fe10  1  0.49858343  -0.00025421  0.24995557  1
  Fe  Fe11  1  0.37964352  0.62735349  0.62516921  1
  Fe  Fe12  1  0.37211774  0.12453862  0.87519633  1
  Fe  Fe13  1  0.00224698  0.25365882  -0.00384142  1
  Fe  Fe14  1  0.00005552  0.74867729  0.75477185  1
  Fe  Fe15  1  -0.00052022  0.50016905  0.25127694  1
  Fe  Fe16  1  0.74871328  0.75100730  0.50088534  1
  Fe  Fe17  1  0.00105349  0.00034537  -0.00292917  1
  Fe  Fe18  1  0.75066522  -0.00028623  0.50220111  1
  Fe  Fe19  1  0.12389173  0.87562640  0.62692205  1
  Fe  Fe20  1  -0.00092726  0.74896852  0.25269494  1
  Fe  Fe21  1  0.25251121  0.00302803  0.50426915  1
  Fe  Fe22  1  0.87162665  0.12627491  0.87609434  1
  Fe  Fe23  1  0.24900639  0.25027425  0.74842564  1
  Fe  Fe24  1  0.87003646  0.62003703  0.87559369  1
  Fe  Fe25  1  0.74772359  0.00339326  0.00332372  1
  Fe  Fe26  1  0.12280289  0.12769567  0.12311980  1
  Fe  Fe27  1  0.61682296  0.37563679  0.12084717  1
  Fe  Fe28  1  0.24824903  -0.00050112  0.00089179  1
  Fe  Fe29  1  0.37552676  0.37619473  0.37428254  1
  Fe  Fe30  1  0.25068060  0.49860886  0.24641903  1
  Fe  Fe31  1  0.74599714  0.49692959  0.24617476  1
  Fe  Fe32  1  -0.00182786  0.00105510  0.25103701  1
  Fe  Fe33  1  0.87758412  0.87339804  0.62442869  1
  Fe  Fe34  1  0.00079040  0.25044959  0.75344113  1
  Fe  Fe35  1  0.12605610  0.37426305  0.37540825  1
  Fe  Fe36  1  0.12222402  0.37170027  0.62398858  1
  Fe  Fe37  1  0.87692866  0.12737926  0.62592905  1
  Fe  Fe38  1  0.87166995  0.62312126  0.37596582  1
  Fe  Fe39  1  0.37804057  0.12715661  0.12280709  1
  Fe  Fe40  1  0.74959686  0.25308379  0.74792315  1
  Fe  Fe41  1  0.62248123  0.12372952  0.63065994  1
  Fe  Fe42  1  0.50057542  0.25136170  0.25174777  1
  Fe  Fe43  1  -0.00136164  0.49812236  0.75154772  1
  Fe  Fe44  1  0.50475221  0.49945868  0.75307147  1
  Fe  Fe45  1  0.37361431  0.87472799  0.37684376  1
  Fe  Fe46  1  -0.00015535  0.49942807  0.49940060  1
  Fe  Fe47  1  0.25082680  0.00071220  0.24732839  1
  Fe  Fe48  1  0.87249863  0.87528258  0.87632061  1
  Fe  Fe49  1  -0.00211406  0.24969870  0.25181549  1
  Fe  Fe50  1  0.12278853  0.87326404  0.12329101  1
  Fe  Fe51  1  0.25050124  0.75014571  0.75083139  1
  Fe  Fe52  1  0.50130879  0.25076350  0.75684433  1
  Fe  Fe53  1  0.74655293  0.49777835  0.50686135  1
  Fe  Fe54  1  0.62318241  0.87441136  0.12436508  1
  Fe  Fe55  1  0.12565945  0.87518404  0.37488748  1
  Fe  Fe56  1  0.25072654  0.49872385  0.50319360  1
  Fe  Fe57  1  0.87610980  0.62392898  0.12356229  1
  Fe  Fe58  1  0.50268261  0.50007717  0.49965796  1
  Fe  Fe59  1  0.62903106  0.12515643  0.37075991  1
  Fe  Fe60  1  0.62644179  0.62367842  0.37468925  1
  Fe  Fe61  1  0.74933379  0.25142430  0.50329728  1
  Fe  Fe62  1  0.74590930  0.24722288  0.00408424  1
  Fe  Fe63  1  0.12398713  0.62382625  0.62604133  1
  Fe  Fe64  1  0.49909468  0.74930223  0.25236807  1
  Fe  Fe65  1  0.24848707  0.74851191  -0.00038501  1
  Fe  Fe66  1  0.25239637  -0.00004414  0.74811252  1
  Fe  Fe67  1  0.00104259  0.74783619  0.49785679  1
  Fe  Fe68  1  0.37472542  0.62389634  0.37561849  1
  Fe  Fe69  1  0.50073410  0.75332606  0.75456964  1
  Fe  Fe70  1  0.50313142  0.74702503  -0.00377918  1
  Fe  Fe71  1  0.87705397  0.37509827  0.12306524  1
  Fe  Fe72  1  0.12732642  0.12741667  0.37719853  1
  Fe  Fe73  1  0.50332659  0.00282778  -0.00475754  1
  Fe  Fe74  1  0.50066734  0.24855790  0.49801750  1
  Fe  Fe75  1  0.62268288  0.87614103  0.62761393  1
  Fe  Fe76  1  -0.00031592  0.00223923  0.75260930  1
  Fe  Fe77  1  0.12126542  0.62308387  0.12273953  1
  Fe  Fe78  1  0.37711423  0.87430922  0.12145970  1
  Fe  Fe79  1  0.86831009  0.37801676  0.87538334  1
  Fe  Fe80  1  0.62586788  0.87732158  0.37441677  1
  Fe  Fe81  1  0.75099992  0.75231344  0.25023835  1
  Fe  Fe82  1  0.74865849  0.74758246  0.00070351  1
  Fe  Fe83  1  0.86884081  0.12625049  0.37090675  1
  Fe  Fe84  1  0.12703673  0.61920563  0.87645488  1
  Fe  Fe85  1  0.37883179  0.62199777  0.12427928  1
  Fe  Fe86  1  0.87429189  0.62396700  0.62571247  1
  Fe  Fe87  1  0.24960206  0.25547639  0.00225410  1
  Fe  Fe88  1  0.87048707  0.37467996  0.37586072  1
  Fe  Fe89  1  0.37877644  0.37314535  0.62590845  1
  Co  Co90  1  0.74645757  0.50158405  0.00525238  1
  Co  Co91  1  0.62726656  0.37382036  0.37638066  1
  Co  Co92  1  0.62088044  0.12531964  0.12860202  1
  Co  Co93  1  0.12669018  0.62282547  0.37427535  1
  Co  Co94  1  0.12123719  0.37435028  0.12775924  1
  Co  Co95  1  0.75464677  -0.00092693  0.74746453  1
  Co  Co96  1  0.12992340  0.37907123  0.87217317  1
  Co  Co97  1  0.50152514  0.24711429  -0.00623280  1
  Co  Co98  1  0.62206940  0.62850747  0.62663080  1
  Co  Co99  1  0.12695819  0.87558209  0.87388287  1
  Co  Co100  1  -0.00366279  0.24907822  0.49609746  1
  Co  Co101  1  0.62993876  0.37592260  0.87844733  1
  Co  Co102  1  0.37292701  0.87499910  0.87902537  1
  Co  Co103  1  0.25339041  0.25155829  0.50165204  1
  Co  Co104  1  0.62329487  0.62674657  0.12784850  1
  Co  Co105  1  0.50199327  0.50026623  0.25264475  1
  Co  Co106  1  0.62021444  0.37151082  0.62578919  1
  Co  Co107  1  -0.00060346  0.74790356  -0.00462056  1
  Co  Co108  1  0.25133326  0.49998585  0.74376525  1
  Co  Co109  1  0.74624631  0.49735348  0.74375796  1
  Co  Co110  1  0.74783043  0.25398879  0.24312324  1
  Co  Co111  1  0.50203236  0.75071500  0.49639281  1
  Co  Co112  1  0.24988110  0.49705024  0.00570763  1
  Co  Co113  1  0.49524362  -0.00303686  0.75300977  1
  Co  Co114  1  0.50165648  0.50452124  -0.00503484  1
  Co  Co115  1  0.87842455  0.12608265  0.12429730  1
  Co  Co116  1  0.62915489  0.87708637  0.87452628  1
  Co  Co117  1  -0.00019149  0.49677876  -0.00314687  1
  Co  Co118  1  0.87871406  0.37461580  0.62543377  1
  Co  Co119  1  0.63047672  0.62323278  0.87232476  1
  Co  Co120  1  0.37613811  0.87118870  0.62378410  1
  Co  Co121  1  0.37886011  0.12907476  0.62835154  1
  Co  Co122  1  0.12820002  0.12567287  0.87570750  1
  Co  Co123  1  0.87563340  0.87479692  0.37651685  1
  Co  Co124  1  0.12367845  0.12747460  0.62470658  1
  Co  Co125  1  0.38309742  0.37590401  0.12325543  1
  Co  Co126  1  0.75147420  -0.00251800  0.24578056  1
  Co  Co127  1  0.62902061  0.12330925  0.86939477  1
