# generated using pymatgen
data_Fe45Co19
_symmetry_space_group_name_H-M   'P 1'
_cell_length_a   11.41449425
_cell_length_b   11.41458647
_cell_length_c   11.41462013
_cell_angle_alpha   90.00854026
_cell_angle_beta   89.98520970
_cell_angle_gamma   89.99415939
_symmetry_Int_Tables_number   1
_chemical_formula_structural   Fe45Co19
_chemical_formula_sum   'Fe90 Co38'
_cell_volume   1487.23054867
_cell_formula_units_Z   2
loop_
 _symmetry_equiv_pos_site_id
 _symmetry_equiv_pos_as_xyz
  1  'x, y, z'
loop_
 _atom_site_type_symbol
 _atom_site_label
 _atom_site_symmetry_multiplicity
 _atom_site_fract_x
 _atom_site_fract_y
 _atom_site_fract_z
 _atom_site_occupancy
  Fe  Fe0  1  0.24957124  0.49957539  0.75020680  1
  Fe  Fe1  1  0.49953601  0.00017100  0.75135461  1
  Fe  Fe2  1  0.87452146  0.37413131  0.37390185  1
  Fe  Fe3  1  0.74776864  0.74936360  0.24614032  1
  Fe  Fe4  1  0.25085673  0.24804110  0.24847003  1
  Fe  Fe5  1  0.37469143  0.12344023  0.12432162  1
  Fe  Fe6  1  0.24906854  -0.00047867  0.49787918  1
  Fe  Fe7  1  0.24655845  0.00128298  0.00080561  1
  Fe  Fe8  1  0.49949601  0.75036967  0.75066142  1
  Fe  Fe9  1  0.75341114  0.49874398  0.75454465  1
  Fe  Fe10  1  0.37365518  0.87378289  0.87651711  1
  Fe  Fe11  1  0.37526238  0.87550697  0.62348878  1
  Fe  Fe12  1  0.37444475  0.62605509  0.87585697  1
  Fe  Fe13  1  0.12367908  0.12469938  0.37259152  1
  Fe  Fe14  1  0.00023026  0.25165356  0.50202050  1
  Fe  Fe15  1  0.12632175  0.87407437  0.12937063  1
  Fe  Fe16  1  -0.00013853  0.75027136  0.00368242  1
  Fe  Fe17  1  0.49844825  0.24920861  0.74948654  1
  Fe  Fe18  1  0.87448174  0.37452135  0.12396312  1
  Fe  Fe19  1  0.24860922  -0.00006017  0.75126207  1
  Fe  Fe20  1  0.37599702  0.37444914  0.12518553  1
  Fe  Fe21  1  0.87374163  0.62476618  0.62607999  1
  Fe  Fe22  1  0.62535693  0.62518808  0.87565730  1
  Fe  Fe23  1  0.37656698  0.87353732  0.12775580  1
  Fe  Fe24  1  0.49891010  0.50047349  0.74933706  1
  Fe  Fe25  1  0.12538058  0.37589431  0.37402659  1
  Fe  Fe26  1  0.24932795  0.74969839  0.00177911  1
  Fe  Fe27  1  0.00073720  0.74900058  0.74957859  1
  Fe  Fe28  1  -0.00271374  0.50085478  0.49829817  1
  Fe  Fe29  1  0.62358627  0.87343987  0.87494421  1
  Fe  Fe30  1  0.24853239  0.50033313  0.00345236  1
  Fe  Fe31  1  0.87139648  0.88006299  0.12580874  1
  Fe  Fe32  1  0.37183603  0.12759159  0.87658240  1
  Fe  Fe33  1  0.00201840  0.00104303  -0.00146431  1
  Fe  Fe34  1  0.62533566  0.62575526  0.62678585  1
  Fe  Fe35  1  0.75076364  0.49942018  0.49837523  1
  Fe  Fe36  1  -0.00177479  0.74973289  0.49707203  1
  Fe  Fe37  1  0.37761095  0.12444404  0.37583909  1
  Fe  Fe38  1  0.25093299  0.24898050  0.50105015  1
  Fe  Fe39  1  0.37504844  0.37299430  0.87751635  1
  Fe  Fe40  1  0.50385494  -0.00225340  0.49839371  1
  Fe  Fe41  1  0.00144526  0.00051332  0.75275264  1
  Fe  Fe42  1  0.24858494  0.75011044  0.74987991  1
  Fe  Fe43  1  0.87441817  0.87562513  0.62597816  1
  Fe  Fe44  1  0.00038806  0.25242625  0.74711368  1
  Fe  Fe45  1  -0.00307133  0.24644813  0.24842650  1
  Fe  Fe46  1  0.50210973  0.50086355  0.24931417  1
  Fe  Fe47  1  0.74883373  0.25227661  0.75428209  1
  Fe  Fe48  1  0.87395234  0.12507837  0.62448102  1
  Fe  Fe49  1  0.63033361  0.12018818  0.12116916  1
  Fe  Fe50  1  0.75003813  0.24780277  0.49814939  1
  Fe  Fe51  1  0.50062525  0.75173104  0.49541495  1
  Fe  Fe52  1  0.62669927  0.62503511  0.37285875  1
  Fe  Fe53  1  0.25169006  0.74976443  0.49458769  1
  Fe  Fe54  1  0.37574637  0.62641174  0.62298995  1
  Fe  Fe55  1  0.25037849  0.50156873  0.49718875  1
  Fe  Fe56  1  0.50103285  -0.00114027  -0.00158482  1
  Fe  Fe57  1  0.12273173  0.62499192  0.87790109  1
  Fe  Fe58  1  0.75137183  0.49722750  -0.00287807  1
  Fe  Fe59  1  0.49968302  0.50195196  0.00062948  1
  Fe  Fe60  1  0.12487621  0.87401482  0.62488392  1
  Fe  Fe61  1  -0.00084923  -0.00087105  0.50025713  1
  Fe  Fe62  1  0.37630612  0.37527529  0.37276462  1
  Fe  Fe63  1  0.87324930  0.12775491  0.87810652  1
  Fe  Fe64  1  0.12603459  0.12506433  0.62630975  1
  Fe  Fe65  1  -0.00135498  0.50367648  0.25103678  1
  Fe  Fe66  1  0.50333750  -0.00124899  0.25156356  1
  Fe  Fe67  1  0.62393501  0.12523786  0.62443191  1
  Fe  Fe68  1  0.62683196  0.37487800  0.62596089  1
  Fe  Fe69  1  0.74910918  -0.00180864  0.75082370  1
  Fe  Fe70  1  -0.00262286  0.49803911  0.75043926  1
  Fe  Fe71  1  0.50367837  0.24898739  0.00051977  1
  Fe  Fe72  1  0.37682773  0.62755572  0.12875638  1
  Fe  Fe73  1  0.12585429  0.37271365  0.87546227  1
  Fe  Fe74  1  0.87649148  0.87178417  0.87388036  1
  Fe  Fe75  1  0.37431610  0.37556085  0.62414632  1
  Fe  Fe76  1  0.00259132  0.24800336  0.00282895  1
  Fe  Fe77  1  0.62679458  0.37698977  0.12518040  1
  Fe  Fe78  1  0.12428464  0.37582187  0.12731858  1
  Fe  Fe79  1  -0.00415231  0.00223671  0.24897364  1
  Fe  Fe80  1  0.12435834  0.62413918  0.62228742  1
  Fe  Fe81  1  0.87076045  0.87612983  0.37468227  1
  Fe  Fe82  1  0.50253427  0.24744692  0.24794397  1
  Fe  Fe83  1  0.74903057  0.75157422  0.50332957  1
  Fe  Fe84  1  0.62531141  0.37253525  0.37308731  1
  Fe  Fe85  1  0.12423349  0.87407681  0.37055273  1
  Fe  Fe86  1  0.75194668  0.24549647  0.24920051  1
  Fe  Fe87  1  0.50197449  0.49845412  0.49961445  1
  Fe  Fe88  1  0.74813582  0.75103159  0.00061449  1
  Fe  Fe89  1  0.87409047  0.62243462  0.12418829  1
  Co  Co90  1  0.37840208  0.62118922  0.37280691  1
  Co  Co91  1  0.37594197  0.12128352  0.62296854  1
  Co  Co92  1  0.12594668  0.37713411  0.62347557  1
  Co  Co93  1  0.00110330  0.50029386  0.00149354  1
  Co  Co94  1  0.87669198  0.62800481  0.87684307  1
  Co  Co95  1  0.74931344  0.75086239  0.75042267  1
  Co  Co96  1  0.75076839  0.00603513  0.25383007  1
  Co  Co97  1  0.87122450  0.62719606  0.37432854  1
  Co  Co98  1  0.87114043  0.12345168  0.11837650  1
  Co  Co99  1  0.87772165  0.12457465  0.37841900  1
  Co  Co100  1  0.12445318  0.87239235  0.87618116  1
  Co  Co101  1  -0.00543290  0.74996031  0.24912957  1
  Co  Co102  1  0.62289523  0.12621796  0.37660993  1
  Co  Co103  1  0.25356442  0.74911589  0.25414297  1
  Co  Co104  1  0.62006981  0.37728993  0.87476868  1
  Co  Co105  1  0.49916439  0.25251948  0.50149082  1
  Co  Co106  1  0.62556553  0.62263337  0.12402013  1
  Co  Co107  1  0.12484416  0.62828725  0.12844989  1
  Co  Co108  1  0.62568544  0.12387587  0.87562931  1
  Co  Co109  1  0.24830895  0.25003102  0.00525375  1
  Co  Co110  1  0.87909968  0.37089400  0.87877571  1
  Co  Co111  1  0.74900783  0.00139899  0.50150328  1
  Co  Co112  1  0.25227586  0.25079811  0.74623201  1
  Co  Co113  1  0.50155464  0.75006726  0.00080395  1
  Co  Co114  1  0.75127922  0.49940980  0.25056569  1
  Co  Co115  1  0.25142881  0.00183718  0.24987877  1
  Co  Co116  1  0.12344047  0.62629408  0.37284830  1
  Co  Co117  1  0.37549443  0.87830233  0.37258916  1
  Co  Co118  1  0.62536272  0.87892926  0.12487262  1
  Co  Co119  1  0.74592740  0.25403978  -0.00070208  1
  Co  Co120  1  0.12437124  0.12264752  0.12807946  1
  Co  Co121  1  0.63129470  0.87448521  0.37260448  1
  Co  Co122  1  0.24955545  0.50047083  0.24824158  1
  Co  Co123  1  0.50316689  0.75146997  0.25176244  1
  Co  Co124  1  0.87161645  0.37499759  0.62328804  1
  Co  Co125  1  0.12621833  0.12928773  0.87377736  1
  Co  Co126  1  0.62335677  0.87485387  0.62597345  1
  Co  Co127  1  0.75035019  -0.00415254  -0.00611468  1
