# generated using pymatgen
data_Fe45Co19
_symmetry_space_group_name_H-M   'P 1'
_cell_length_a   11.41360332
_cell_length_b   11.41510500
_cell_length_c   11.41565859
_cell_angle_alpha   90.00851633
_cell_angle_beta   89.99052008
_cell_angle_gamma   89.99808421
_symmetry_Int_Tables_number   1
_chemical_formula_structural   Fe45Co19
_chemical_formula_sum   'Fe90 Co38'
_cell_volume   1487.31735574
_cell_formula_units_Z   2
loop_
 _symmetry_equiv_pos_site_id
 _symmetry_equiv_pos_as_xyz
  1  'x, y, z'
loop_
 _atom_site_type_symbol
 _atom_site_label
 _atom_site_symmetry_multiplicity
 _atom_site_fract_x
 _atom_site_fract_y
 _atom_site_fract_z
 _atom_site_occupancy
  Fe  Fe0  1  0.25136238  0.24776158  0.75075499  1
  Fe  Fe1  1  0.25150856  0.50188636  0.74841546  1
  Fe  Fe2  1  0.37551421  0.87592968  0.37574007  1
  Fe  Fe3  1  0.12568570  0.37254354  0.12688955  1
  Fe  Fe4  1  0.37550811  0.37525086  0.87569688  1
  Fe  Fe5  1  0.25094386  0.24999985  0.49857279  1
  Fe  Fe6  1  0.00040203  0.00124469  0.00020430  1
  Fe  Fe7  1  0.74887484  0.00215553  0.25184401  1
  Fe  Fe8  1  0.37698803  0.37590203  0.37464140  1
  Fe  Fe9  1  0.37329105  0.12578334  0.12468392  1
  Fe  Fe10  1  -0.00014619  0.49898214  0.00205289  1
  Fe  Fe11  1  -0.00058542  0.74920658  0.49893780  1
  Fe  Fe12  1  -0.00025682  0.50110675  0.25037661  1
  Fe  Fe13  1  0.74918954  0.00094201  -0.00239479  1
  Fe  Fe14  1  0.12653639  0.62657300  0.87680006  1
  Fe  Fe15  1  0.12487520  0.87363601  0.87410860  1
  Fe  Fe16  1  0.50128926  0.00000523  0.25021334  1
  Fe  Fe17  1  0.37216118  0.62566540  0.12437461  1
  Fe  Fe18  1  -0.00048941  0.24901135  -0.00053187  1
  Fe  Fe19  1  0.12474969  0.12482042  0.62376423  1
  Fe  Fe20  1  0.87262363  0.37594043  0.62458796  1
  Fe  Fe21  1  -0.00201365  0.24924896  0.50108862  1
  Fe  Fe22  1  0.62678444  0.37320194  0.12491769  1
  Fe  Fe23  1  0.49879649  0.49962431  0.00233367  1
  Fe  Fe24  1  0.37435749  0.87449473  0.87495481  1
  Fe  Fe25  1  0.50197267  0.50065558  0.49777354  1
  Fe  Fe26  1  0.87323891  0.87365038  0.62293818  1
  Fe  Fe27  1  0.87336910  0.62456855  0.62503239  1
  Fe  Fe28  1  0.74524004  0.25429734  0.74863939  1
  Fe  Fe29  1  0.87244822  0.37147859  0.37449711  1
  Fe  Fe30  1  0.24959731  0.00326075  0.25272723  1
  Fe  Fe31  1  0.87160077  0.12607736  0.62462606  1
  Fe  Fe32  1  0.74613722  0.00143087  0.49931885  1
  Fe  Fe33  1  0.50312160  -0.00012469  0.50001571  1
  Fe  Fe34  1  0.87522728  0.37428097  0.87422057  1
  Fe  Fe35  1  0.62578694  0.12698638  0.12517038  1
  Fe  Fe36  1  0.50110036  0.74957599  0.75021922  1
  Fe  Fe37  1  0.75247445  0.49784230  0.00037649  1
  Fe  Fe38  1  0.50163175  0.74893816  0.25106395  1
  Fe  Fe39  1  0.12468203  0.37423477  0.87309880  1
  Fe  Fe40  1  0.37783539  0.12580318  0.62565062  1
  Fe  Fe41  1  0.24894386  -0.00010616  0.74858063  1
  Fe  Fe42  1  0.00110190  0.75023126  0.74780974  1
  Fe  Fe43  1  0.12650999  0.87402018  0.37602475  1
  Fe  Fe44  1  0.87568851  0.12723456  0.87188732  1
  Fe  Fe45  1  0.87515286  0.87376453  0.87663498  1
  Fe  Fe46  1  0.50422182  0.74946155  0.49840295  1
  Fe  Fe47  1  0.12533450  0.37573807  0.62491035  1
  Fe  Fe48  1  0.50060428  0.25091503  0.25010768  1
  Fe  Fe49  1  0.37543138  0.62297981  0.37523773  1
  Fe  Fe50  1  0.25065618  0.49999215  0.25149047  1
  Fe  Fe51  1  0.87490818  0.62556764  0.87630415  1
  Fe  Fe52  1  0.87453766  0.12518464  0.12543728  1
  Fe  Fe53  1  0.50022057  -0.00002418  0.00027904  1
  Fe  Fe54  1  0.87316859  0.62758962  0.37243854  1
  Fe  Fe55  1  0.12642671  0.62698728  0.12719214  1
  Fe  Fe56  1  0.37266985  0.37415937  0.12537433  1
  Fe  Fe57  1  0.24896524  0.24753110  -0.00232924  1
  Fe  Fe58  1  0.49978718  0.24963989  -0.00155616  1
  Fe  Fe59  1  0.00010546  0.00049362  0.49975079  1
  Fe  Fe60  1  0.37504492  0.87321695  0.62440977  1
  Fe  Fe61  1  0.12585791  0.87444334  0.12805618  1
  Fe  Fe62  1  0.37699275  0.37613318  0.62415332  1
  Fe  Fe63  1  0.37222226  0.62574837  0.87686289  1
  Fe  Fe64  1  0.50097566  0.49919649  0.75099488  1
  Fe  Fe65  1  -0.00090246  0.50015960  0.74962990  1
  Fe  Fe66  1  0.74856224  -0.00323487  0.75081521  1
  Fe  Fe67  1  -0.00007377  0.50019967  0.49807335  1
  Fe  Fe68  1  0.87187418  0.87380863  0.37458612  1
  Fe  Fe69  1  0.37389802  0.87469991  0.12620266  1
  Fe  Fe70  1  0.25063805  0.74827891  0.50068273  1
  Fe  Fe71  1  0.50100703  -0.00191899  0.74957873  1
  Fe  Fe72  1  0.12549976  0.37418961  0.37510855  1
  Fe  Fe73  1  0.37703457  0.12533949  0.37597116  1
  Fe  Fe74  1  0.50639524  0.25029264  0.50174648  1
  Fe  Fe75  1  0.62268888  0.12650379  0.87270014  1
  Fe  Fe76  1  0.12528169  0.62349178  0.62296521  1
  Fe  Fe77  1  0.62637139  0.62350048  0.62509368  1
  Fe  Fe78  1  0.24878255  0.00164035  -0.00097650  1
  Fe  Fe79  1  0.74975423  0.50037243  0.49786014  1
  Fe  Fe80  1  0.74989949  0.49804341  0.24934128  1
  Fe  Fe81  1  0.50019179  0.75095064  0.00037956  1
  Fe  Fe82  1  0.62712653  0.87443139  0.12443172  1
  Fe  Fe83  1  0.00055154  0.00109173  0.25220611  1
  Fe  Fe84  1  -0.00097682  0.24654252  0.25146835  1
  Fe  Fe85  1  0.62687949  0.62443780  0.87728110  1
  Fe  Fe86  1  0.00028114  -0.00098970  0.74763099  1
  Fe  Fe87  1  -0.00303708  0.75101524  0.00535508  1
  Fe  Fe88  1  0.74884383  0.75063813  0.75038032  1
  Fe  Fe89  1  0.62730958  0.62546474  0.12535886  1
  Co  Co90  1  0.25003637  0.75269644  0.00062094  1
  Co  Co91  1  0.12546236  0.87437915  0.62223188  1
  Co  Co92  1  0.37738282  0.12339551  0.87421122  1
  Co  Co93  1  0.24998269  0.49924632  0.49952479  1
  Co  Co94  1  0.75105927  0.24895924  -0.00102578  1
  Co  Co95  1  0.24966975  0.74864123  0.74789622  1
  Co  Co96  1  0.74748545  0.74896311  0.50037697  1
  Co  Co97  1  0.74595851  0.24974687  0.50042913  1
  Co  Co98  1  0.62514313  0.38019241  0.62288153  1
  Co  Co99  1  0.87580638  0.37275106  0.12653001  1
  Co  Co100  1  0.87219067  0.87992344  0.12570762  1
  Co  Co101  1  0.75219060  0.75104896  0.00119859  1
  Co  Co102  1  0.12229221  0.12482113  0.87270208  1
  Co  Co103  1  0.75060278  0.49937081  0.75202621  1
  Co  Co104  1  -0.00314672  0.75132059  0.24882494  1
  Co  Co105  1  0.87358097  0.62278414  0.12643531  1
  Co  Co106  1  0.12480656  0.12584124  0.37761434  1
  Co  Co107  1  0.87386929  0.12501114  0.37712339  1
  Co  Co108  1  0.12513065  0.12620321  0.12586461  1
  Co  Co109  1  0.25270333  0.74988875  0.25187734  1
  Co  Co110  1  0.24846902  0.49896927  0.00101208  1
  Co  Co111  1  0.74980256  0.24808517  0.25129597  1
  Co  Co112  1  0.62481152  0.37573507  0.37305033  1
  Co  Co113  1  0.49940657  0.50032754  0.24752155  1
  Co  Co114  1  0.25172454  0.00153431  0.50048408  1
  Co  Co115  1  0.62683665  0.62367406  0.37261882  1
  Co  Co116  1  0.62489777  0.87438415  0.62445473  1
  Co  Co117  1  0.62422188  0.87426857  0.87655296  1
  Co  Co118  1  0.62358844  0.12580605  0.37367845  1
  Co  Co119  1  0.62615538  0.87487895  0.37368726  1
  Co  Co120  1  0.62516034  0.12288208  0.62812853  1
  Co  Co121  1  0.50210551  0.25369765  0.74978689  1
  Co  Co122  1  -0.00105528  0.25100055  0.74652522  1
  Co  Co123  1  0.75074984  0.75115112  0.24803769  1
  Co  Co124  1  0.62394700  0.37643790  0.87860901  1
  Co  Co125  1  0.25157164  0.24859088  0.25304168  1
  Co  Co126  1  0.12514124  0.62613574  0.37461897  1
  Co  Co127  1  0.37743439  0.62433535  0.62312294  1
