# generated using pymatgen
data_Fe45Co19
_symmetry_space_group_name_H-M   'P 1'
_cell_length_a   11.41538064
_cell_length_b   11.41482796
_cell_length_c   11.41543278
_cell_angle_alpha   90.00120473
_cell_angle_beta   90.00019830
_cell_angle_gamma   89.99120793
_symmetry_Int_Tables_number   1
_chemical_formula_structural   Fe45Co19
_chemical_formula_sum   'Fe90 Co38'
_cell_volume   1487.48345474
_cell_formula_units_Z   2
loop_
 _symmetry_equiv_pos_site_id
 _symmetry_equiv_pos_as_xyz
  1  'x, y, z'
loop_
 _atom_site_type_symbol
 _atom_site_label
 _atom_site_symmetry_multiplicity
 _atom_site_fract_x
 _atom_site_fract_y
 _atom_site_fract_z
 _atom_site_occupancy
  Fe  Fe0  1  0.37134603  0.86929669  0.37686028  1
  Fe  Fe1  1  0.87607014  0.13047090  0.62128397  1
  Fe  Fe2  1  0.74889099  0.74659884  0.74894026  1
  Fe  Fe3  1  0.62388077  0.12666556  0.87425736  1
  Fe  Fe4  1  0.62470918  0.12387301  0.62161091  1
  Fe  Fe5  1  0.62048505  0.38069694  0.12437217  1
  Fe  Fe6  1  0.24815745  0.25210950  0.50047142  1
  Fe  Fe7  1  0.87447230  0.87220575  0.87348615  1
  Fe  Fe8  1  0.49885073  0.00013983  0.74980213  1
  Fe  Fe9  1  0.37930966  0.87015946  0.12727848  1
  Fe  Fe10  1  0.62454545  0.12079160  0.12603377  1
  Fe  Fe11  1  0.74573379  0.75160772  0.00148379  1
  Fe  Fe12  1  0.25084153  -0.00112305  0.00055876  1
  Fe  Fe13  1  0.62499177  0.37821088  0.62666532  1
  Fe  Fe14  1  0.12772056  0.62540856  0.37547405  1
  Fe  Fe15  1  -0.00061911  0.49479624  0.49859264  1
  Fe  Fe16  1  0.62471649  0.62147990  0.62313773  1
  Fe  Fe17  1  0.62540002  0.12592530  0.37711854  1
  Fe  Fe18  1  0.50148247  0.24837746  0.24797995  1
  Fe  Fe19  1  0.87606395  0.12466889  0.12427229  1
  Fe  Fe20  1  0.00360200  0.25145199  0.00222916  1
  Fe  Fe21  1  0.62226155  0.62457537  0.87716652  1
  Fe  Fe22  1  0.12438141  0.62264632  0.12531292  1
  Fe  Fe23  1  0.37558850  0.12458996  0.62179593  1
  Fe  Fe24  1  0.37509494  0.37305767  0.37161030  1
  Fe  Fe25  1  0.49924372  0.74933654  0.74829896  1
  Fe  Fe26  1  0.62508525  0.87531441  0.62355997  1
  Fe  Fe27  1  0.12670453  0.12586671  0.87615525  1
  Fe  Fe28  1  0.37147221  0.37672014  0.62638963  1
  Fe  Fe29  1  0.62849604  0.87096374  0.37578198  1
  Fe  Fe30  1  0.75174232  -0.00034322  0.25267500  1
  Fe  Fe31  1  0.00188891  0.75080004  -0.00068350  1
  Fe  Fe32  1  0.74733086  0.25148551  0.00294439  1
  Fe  Fe33  1  0.75317875  0.49698255  0.49960385  1
  Fe  Fe34  1  0.00117780  0.74814000  0.50127090  1
  Fe  Fe35  1  0.37559898  0.12851300  0.87724666  1
  Fe  Fe36  1  0.74988848  0.50338968  0.24909958  1
  Fe  Fe37  1  0.87501064  0.12691738  0.87698233  1
  Fe  Fe38  1  0.87326491  0.37445290  0.87374933  1
  Fe  Fe39  1  0.12902588  0.37322388  0.87408584  1
  Fe  Fe40  1  0.12776058  0.87353517  0.37672431  1
  Fe  Fe41  1  0.87341273  0.13041099  0.37780470  1
  Fe  Fe42  1  0.25614836  0.49924832  0.00001043  1
  Fe  Fe43  1  0.87452903  0.87341358  0.12650110  1
  Fe  Fe44  1  -0.00151804  -0.00123108  0.25217016  1
  Fe  Fe45  1  0.37560111  0.36827023  0.87542953  1
  Fe  Fe46  1  0.12743136  0.12480411  0.37400440  1
  Fe  Fe47  1  0.12408633  0.87652723  0.12651447  1
  Fe  Fe48  1  0.87549503  0.62098449  0.62747109  1
  Fe  Fe49  1  0.12561125  0.37652839  0.37059664  1
  Fe  Fe50  1  0.87739730  0.37721047  0.12708871  1
  Fe  Fe51  1  0.00061645  -0.00186760  -0.00132524  1
  Fe  Fe52  1  0.00002984  0.49754769  0.75254872  1
  Fe  Fe53  1  0.24951581  0.75084565  0.00151253  1
  Fe  Fe54  1  0.49868401  0.74706058  0.49931332  1
  Fe  Fe55  1  0.12579175  0.87760631  0.62407019  1
  Fe  Fe56  1  0.49767730  0.50798991  0.25225351  1
  Fe  Fe57  1  0.24887698  0.25056011  0.24381928  1
  Fe  Fe58  1  0.49754273  -0.00070585  0.25455830  1
  Fe  Fe59  1  0.62419707  0.37750826  0.37340184  1
  Fe  Fe60  1  0.12288226  0.12774672  0.62432763  1
  Fe  Fe61  1  -0.00055741  0.00084655  0.49807477  1
  Fe  Fe62  1  0.49582602  0.50096987  0.49670313  1
  Fe  Fe63  1  0.50198393  -0.00292043  -0.00171215  1
  Fe  Fe64  1  0.25205807  -0.00082940  0.25064578  1
  Fe  Fe65  1  0.37576194  0.12537748  0.12435969  1
  Fe  Fe66  1  -0.00029455  0.49994132  -0.00212318  1
  Fe  Fe67  1  0.37471377  0.87235084  0.87313783  1
  Fe  Fe68  1  0.24934429  0.74947933  0.74687865  1
  Fe  Fe69  1  0.49661960  0.50036510  0.75344888  1
  Fe  Fe70  1  0.87500672  0.87464851  0.62441847  1
  Fe  Fe71  1  0.25132147  0.00082668  0.74855641  1
  Fe  Fe72  1  0.49745531  -0.00139085  0.49687161  1
  Fe  Fe73  1  0.00239822  0.74878937  0.75009589  1
  Fe  Fe74  1  0.12771767  0.61824994  0.62463662  1
  Fe  Fe75  1  0.87383683  0.62682366  0.37436481  1
  Fe  Fe76  1  0.12700230  0.62497021  0.87491724  1
  Fe  Fe77  1  0.87283467  0.86987066  0.37612482  1
  Fe  Fe78  1  0.37185150  0.62223092  0.62404137  1
  Fe  Fe79  1  0.74754422  -0.00280024  -0.00065355  1
  Fe  Fe80  1  0.50019590  0.25253113  0.50068429  1
  Fe  Fe81  1  0.62219443  0.37421567  0.87519943  1
  Fe  Fe82  1  0.00199032  0.25045769  0.24788755  1
  Fe  Fe83  1  0.87738473  0.62614899  0.12456950  1
  Fe  Fe84  1  0.75130275  0.00134156  0.74828238  1
  Fe  Fe85  1  0.25356379  0.50276234  0.24777494  1
  Fe  Fe86  1  -0.00082617  0.00093771  0.75142674  1
  Fe  Fe87  1  0.75035865  0.50136917  -0.00113889  1
  Fe  Fe88  1  0.74736509  0.25131444  0.24826007  1
  Fe  Fe89  1  0.74875840  0.25088214  0.74811647  1
  Co  Co90  1  0.61994999  0.62281128  0.12012587  1
  Co  Co91  1  0.37282859  0.12948013  0.37511312  1
  Co  Co92  1  0.24800332  0.74864303  0.50524297  1
  Co  Co93  1  0.12424932  0.12027823  0.12537726  1
  Co  Co94  1  0.49999331  0.24970016  0.74593943  1
  Co  Co95  1  0.37911004  0.62930818  0.12277183  1
  Co  Co96  1  0.87566971  0.62733165  0.87538634  1
  Co  Co97  1  0.87520681  0.37403127  0.62732975  1
  Co  Co98  1  0.37903755  0.37536822  0.12713363  1
  Co  Co99  1  0.00209066  0.74995583  0.25077898  1
  Co  Co100  1  0.37518567  0.63136273  0.87554664  1
  Co  Co101  1  0.24803324  0.25146164  0.00531377  1
  Co  Co102  1  0.12375796  0.38144201  0.12594112  1
  Co  Co103  1  0.00023772  0.25158039  0.75263939  1
  Co  Co104  1  0.00359729  0.25546319  0.49782501  1
  Co  Co105  1  0.50321477  0.74484764  0.25485261  1
  Co  Co106  1  0.25064605  0.00133006  0.50038524  1
  Co  Co107  1  0.74890569  0.50105393  0.75303457  1
  Co  Co108  1  0.12660597  0.87512102  0.87306141  1
  Co  Co109  1  0.49327453  0.49895742  -0.00377563  1
  Co  Co110  1  0.75155290  -0.00043924  0.49964527  1
  Co  Co111  1  0.62248929  0.87723772  0.13090673  1
  Co  Co112  1  0.74618409  0.74553832  0.24632810  1
  Co  Co113  1  0.24783038  0.74850372  0.24701761  1
  Co  Co114  1  0.12686103  0.37668465  0.62837491  1
  Co  Co115  1  0.25328293  0.50010088  0.75489370  1
  Co  Co116  1  0.62549574  0.87466926  0.86937982  1
  Co  Co117  1  0.37554370  0.87510788  0.62369070  1
  Co  Co118  1  0.75173807  0.74760776  0.50466144  1
  Co  Co119  1  0.50254220  0.24887490  0.00376661  1
  Co  Co120  1  0.36933363  0.62873312  0.37620249  1
  Co  Co121  1  0.50380947  0.75450760  -0.00094710  1
  Co  Co122  1  0.25042758  0.49662431  0.49647452  1
  Co  Co123  1  0.25128334  0.24724023  0.74815196  1
  Co  Co124  1  0.74652971  0.25504737  0.50017540  1
  Co  Co125  1  0.62907450  0.62418315  0.37994899  1
  Co  Co126  1  -0.00092283  0.50316051  0.25274115  1
  Co  Co127  1  0.87377747  0.37289124  0.37096425  1
