# generated using pymatgen
data_Fe45Co19
_symmetry_space_group_name_H-M   'P 1'
_cell_length_a   11.41537916
_cell_length_b   11.41560786
_cell_length_c   11.41601014
_cell_angle_alpha   89.99768813
_cell_angle_beta   89.99095792
_cell_angle_gamma   89.99560886
_symmetry_Int_Tables_number   1
_chemical_formula_structural   Fe45Co19
_chemical_formula_sum   'Fe90 Co38'
_cell_volume   1487.66012305
_cell_formula_units_Z   2
loop_
 _symmetry_equiv_pos_site_id
 _symmetry_equiv_pos_as_xyz
  1  'x, y, z'
loop_
 _atom_site_type_symbol
 _atom_site_label
 _atom_site_symmetry_multiplicity
 _atom_site_fract_x
 _atom_site_fract_y
 _atom_site_fract_z
 _atom_site_occupancy
  Fe  Fe0  1  -0.00275610  0.74939958  0.74742787  1
  Fe  Fe1  1  0.49697175  0.50232965  0.74450723  1
  Fe  Fe2  1  0.00199711  0.24727546  0.50098465  1
  Fe  Fe3  1  0.74758192  0.49889454  0.00038750  1
  Fe  Fe4  1  0.00017157  0.74979241  0.00163977  1
  Fe  Fe5  1  -0.00150657  0.50157415  0.25268607  1
  Fe  Fe6  1  0.87610009  0.62304606  0.87688151  1
  Fe  Fe7  1  0.12438778  0.87596688  0.62615135  1
  Fe  Fe8  1  0.49939320  0.74822723  0.74590498  1
  Fe  Fe9  1  0.37349153  0.87488687  0.62360227  1
  Fe  Fe10  1  0.50197260  0.24993190  0.49915429  1
  Fe  Fe11  1  0.37603920  0.37407325  0.87464348  1
  Fe  Fe12  1  0.50287691  -0.00179031  0.00194499  1
  Fe  Fe13  1  0.87377330  0.62403285  0.62203876  1
  Fe  Fe14  1  0.87796237  0.37292211  0.87532673  1
  Fe  Fe15  1  0.74754426  -0.00139420  0.00153804  1
  Fe  Fe16  1  0.75341573  0.74873594  0.24851149  1
  Fe  Fe17  1  0.87905761  0.87316844  0.37407117  1
  Fe  Fe18  1  0.87325483  0.12392885  0.12493105  1
  Fe  Fe19  1  0.49987749  0.25154837  0.00281549  1
  Fe  Fe20  1  -0.00285001  0.74757239  0.24858864  1
  Fe  Fe21  1  0.87389264  0.37721488  0.12769648  1
  Fe  Fe22  1  0.74989335  0.25159362  0.00080498  1
  Fe  Fe23  1  0.00060415  0.49811689  0.00111086  1
  Fe  Fe24  1  0.87523115  0.12525665  0.37674405  1
  Fe  Fe25  1  0.12676200  0.62419628  0.12581451  1
  Fe  Fe26  1  0.75266162  0.49878743  0.75042083  1
  Fe  Fe27  1  0.37707032  0.37816063  0.37959676  1
  Fe  Fe28  1  0.12761856  0.37590825  0.12769434  1
  Fe  Fe29  1  0.37567739  0.62575122  0.38464431  1
  Fe  Fe30  1  0.00238668  0.00004188  0.49830636  1
  Fe  Fe31  1  0.62970754  0.12176479  0.62212771  1
  Fe  Fe32  1  0.37532821  0.87437055  0.87609554  1
  Fe  Fe33  1  0.37125721  0.12578788  0.62252383  1
  Fe  Fe34  1  0.00141660  0.50020806  0.49943739  1
  Fe  Fe35  1  0.12662712  0.12570340  0.12781985  1
  Fe  Fe36  1  0.50262824  -0.00175632  0.50034718  1
  Fe  Fe37  1  0.12584132  0.62740280  0.37732779  1
  Fe  Fe38  1  0.12720830  0.62665383  0.62395135  1
  Fe  Fe39  1  0.49939161  0.24774948  0.74685467  1
  Fe  Fe40  1  0.74892009  0.00009641  0.25148930  1
  Fe  Fe41  1  0.25331003  0.25089715  0.25250938  1
  Fe  Fe42  1  0.62461632  0.87551812  0.87239281  1
  Fe  Fe43  1  0.75085268  0.50182965  0.25407102  1
  Fe  Fe44  1  0.74979907  0.75034845  0.00172277  1
  Fe  Fe45  1  0.87616566  0.87653037  0.87569261  1
  Fe  Fe46  1  0.24785923  -0.00067153  -0.00025271  1
  Fe  Fe47  1  0.62196232  0.87162500  0.37162110  1
  Fe  Fe48  1  0.74679343  0.49983509  0.49522064  1
  Fe  Fe49  1  0.12570512  0.37431921  0.37385552  1
  Fe  Fe50  1  -0.00125556  0.24950746  0.24913880  1
  Fe  Fe51  1  0.12302536  0.87541376  0.87317252  1
  Fe  Fe52  1  0.37686213  0.12332021  0.37528935  1
  Fe  Fe53  1  0.74917953  0.75120883  0.49961145  1
  Fe  Fe54  1  0.00012440  0.49804259  0.74762503  1
  Fe  Fe55  1  0.62905499  0.87752016  0.62733065  1
  Fe  Fe56  1  0.25008307  0.49993738  0.00025694  1
  Fe  Fe57  1  0.12369208  0.37048985  0.87414733  1
  Fe  Fe58  1  0.37507192  0.62672484  0.87821986  1
  Fe  Fe59  1  0.62506515  0.12535892  0.87602799  1
  Fe  Fe60  1  0.49704286  0.50490033  0.25174345  1
  Fe  Fe61  1  0.37518898  0.12468478  0.12482741  1
  Fe  Fe62  1  0.37532553  0.12493758  0.87700586  1
  Fe  Fe63  1  -0.00479381  0.00539363  0.74654641  1
  Fe  Fe64  1  0.12524488  0.62483874  0.87435767  1
  Fe  Fe65  1  0.25081543  0.75025848  0.74976975  1
  Fe  Fe66  1  0.24940549  -0.00170535  0.25237531  1
  Fe  Fe67  1  0.37709990  0.87351519  0.37746122  1
  Fe  Fe68  1  0.75301778  0.75067069  0.74956918  1
  Fe  Fe69  1  0.87406039  0.37407110  0.62115974  1
  Fe  Fe70  1  0.50188809  0.00008578  0.24773838  1
  Fe  Fe71  1  0.50015154  0.00169545  0.74838488  1
  Fe  Fe72  1  0.24997573  0.00210304  0.75122493  1
  Fe  Fe73  1  0.74620603  0.25220413  0.49532787  1
  Fe  Fe74  1  0.62200345  0.62697840  0.12620624  1
  Fe  Fe75  1  0.00064027  0.00099001  0.00266983  1
  Fe  Fe76  1  0.12865934  0.36958761  0.62579924  1
  Fe  Fe77  1  0.25257205  0.49861101  0.74703495  1
  Fe  Fe78  1  0.62297633  0.37454670  0.12978151  1
  Fe  Fe79  1  0.12415294  0.87484332  0.12881393  1
  Fe  Fe80  1  0.62516279  0.37598974  0.62590213  1
  Fe  Fe81  1  0.62325276  0.37508587  0.87231494  1
  Fe  Fe82  1  0.25376543  0.74758268  0.25077040  1
  Fe  Fe83  1  0.62424253  0.62365836  0.87324045  1
  Fe  Fe84  1  0.37567246  0.87205646  0.12263059  1
  Fe  Fe85  1  0.74762956  0.24936566  0.25387360  1
  Fe  Fe86  1  0.37468142  0.37759476  0.12600221  1
  Fe  Fe87  1  0.75355029  0.24694067  0.74973645  1
  Fe  Fe88  1  0.24574402  -0.00063282  0.49615948  1
  Fe  Fe89  1  0.12276722  0.12969138  0.87454101  1
  Co  Co90  1  0.24700682  0.75542661  0.49925038  1
  Co  Co91  1  0.50296022  0.75140425  -0.00142389  1
  Co  Co92  1  -0.00468298  0.24738225  0.74507753  1
  Co  Co93  1  0.62191901  0.12365795  0.37429915  1
  Co  Co94  1  0.50482614  0.75071153  0.50480103  1
  Co  Co95  1  0.87643001  0.12594661  0.87957500  1
  Co  Co96  1  0.74865791  -0.00463196  0.49259332  1
  Co  Co97  1  0.87732773  0.37421110  0.37569086  1
  Co  Co98  1  -0.00025178  0.25141933  0.00533260  1
  Co  Co99  1  0.24648734  0.75159086  0.00012124  1
  Co  Co100  1  0.25322753  0.24948702  0.75202217  1
  Co  Co101  1  0.37577157  0.62582581  0.11931758  1
  Co  Co102  1  0.87359185  0.87770014  0.62356234  1
  Co  Co103  1  0.87587195  0.87700696  0.12526429  1
  Co  Co104  1  0.12199685  0.87162142  0.37077739  1
  Co  Co105  1  0.87508127  0.62185515  0.12313684  1
  Co  Co106  1  0.25072593  0.25059541  0.00146561  1
  Co  Co107  1  0.86906170  0.12326213  0.61746469  1
  Co  Co108  1  0.37474252  0.37266882  0.62106162  1
  Co  Co109  1  0.87588247  0.62594575  0.37792746  1
  Co  Co110  1  0.25299271  0.50364303  0.25307079  1
  Co  Co111  1  0.49370889  0.74704869  0.25115422  1
  Co  Co112  1  0.62415291  0.62808712  0.37306699  1
  Co  Co113  1  0.62004148  0.37735848  0.37205451  1
  Co  Co114  1  0.25030642  0.24877980  0.49492576  1
  Co  Co115  1  0.00012457  0.75123305  0.50268198  1
  Co  Co116  1  0.50477441  0.50267969  0.50413358  1
  Co  Co117  1  0.50185027  0.49833257  0.00017796  1
  Co  Co118  1  0.12503211  0.12639478  0.37140002  1
  Co  Co119  1  0.37078500  0.62717090  0.61921447  1
  Co  Co120  1  0.24667911  0.49770562  0.50175962  1
  Co  Co121  1  -0.00123855  0.00189288  0.25190050  1
  Co  Co122  1  0.75323718  0.00280502  0.75336443  1
  Co  Co123  1  0.49718269  0.24963189  0.25113746  1
  Co  Co124  1  0.63046796  0.62374197  0.62660971  1
  Co  Co125  1  0.62472296  0.12709919  0.12623372  1
  Co  Co126  1  0.12952145  0.12617416  0.62571068  1
  Co  Co127  1  0.62407507  0.87170409  0.12891890  1
