# generated using pymatgen
data_Fe45Co19
_symmetry_space_group_name_H-M   'P 1'
_cell_length_a   11.41461989
_cell_length_b   11.41418372
_cell_length_c   11.41601774
_cell_angle_alpha   90.00148351
_cell_angle_beta   89.99960592
_cell_angle_gamma   89.99802710
_symmetry_Int_Tables_number   1
_chemical_formula_structural   Fe45Co19
_chemical_formula_sum   'Fe90 Co38'
_cell_volume   1487.37660871
_cell_formula_units_Z   2
loop_
 _symmetry_equiv_pos_site_id
 _symmetry_equiv_pos_as_xyz
  1  'x, y, z'
loop_
 _atom_site_type_symbol
 _atom_site_label
 _atom_site_symmetry_multiplicity
 _atom_site_fract_x
 _atom_site_fract_y
 _atom_site_fract_z
 _atom_site_occupancy
  Fe  Fe0  1  -0.00056923  0.25058777  0.00117309  1
  Fe  Fe1  1  0.50088710  0.74908526  -0.00253003  1
  Fe  Fe2  1  0.87656386  0.12481378  0.62462958  1
  Fe  Fe3  1  0.25005069  0.75168165  -0.00570523  1
  Fe  Fe4  1  0.00536256  0.25025283  0.74898314  1
  Fe  Fe5  1  0.24911362  0.25321603  -0.00792379  1
  Fe  Fe6  1  0.75173710  0.49972979  -0.00114207  1
  Fe  Fe7  1  0.74802895  -0.00333774  0.75114918  1
  Fe  Fe8  1  0.00233328  0.49994357  0.24229641  1
  Fe  Fe9  1  0.62758913  0.62678741  0.12299066  1
  Fe  Fe10  1  0.62729617  0.87292517  0.12356951  1
  Fe  Fe11  1  0.37605056  0.62339503  0.87398541  1
  Fe  Fe12  1  0.88067880  0.37792035  0.87451999  1
  Fe  Fe13  1  0.12672154  0.12449279  0.62378936  1
  Fe  Fe14  1  0.37286800  0.87459370  0.12452194  1
  Fe  Fe15  1  0.75024806  0.25254600  0.25433780  1
  Fe  Fe16  1  0.87725593  0.37407335  0.62450338  1
  Fe  Fe17  1  0.00173677  0.00001102  0.24822952  1
  Fe  Fe18  1  0.37142622  0.12726408  0.62745767  1
  Fe  Fe19  1  0.37861743  0.37888116  0.37421680  1
  Fe  Fe20  1  0.87300040  0.12465389  0.12490332  1
  Fe  Fe21  1  0.24954630  0.74979309  0.25356238  1
  Fe  Fe22  1  0.75131596  -0.00444031  -0.00309697  1
  Fe  Fe23  1  0.12247733  0.87928003  0.87361048  1
  Fe  Fe24  1  0.00166601  0.74921690  0.50023425  1
  Fe  Fe25  1  0.87647111  0.87447940  0.37367098  1
  Fe  Fe26  1  0.49888042  0.50059034  0.00202458  1
  Fe  Fe27  1  0.49954297  0.24735176  -0.00099534  1
  Fe  Fe28  1  0.87309712  0.62742225  0.62542573  1
  Fe  Fe29  1  0.49709980  0.74885201  0.50234052  1
  Fe  Fe30  1  0.37264069  0.37304025  0.62843892  1
  Fe  Fe31  1  -0.00058729  -0.00043286  0.00242155  1
  Fe  Fe32  1  0.50070555  0.74928736  0.24946214  1
  Fe  Fe33  1  0.49868680  -0.00013490  0.24639305  1
  Fe  Fe34  1  0.74930810  0.49739935  0.49888722  1
  Fe  Fe35  1  0.37400396  0.12247101  0.37358984  1
  Fe  Fe36  1  0.37005849  0.12461156  0.12461482  1
  Fe  Fe37  1  0.87072546  0.63000603  0.12578043  1
  Fe  Fe38  1  0.24739469  0.49691436  0.75439946  1
  Fe  Fe39  1  0.75039243  0.25073489  0.75208895  1
  Fe  Fe40  1  -0.00279694  0.75092170  0.00073582  1
  Fe  Fe41  1  0.50108873  0.50202348  0.74821036  1
  Fe  Fe42  1  0.50073898  0.24689513  0.75205400  1
  Fe  Fe43  1  0.37322415  0.87146301  0.63012995  1
  Fe  Fe44  1  0.87791356  0.62303486  0.37451488  1
  Fe  Fe45  1  0.00110153  0.74884462  0.24925686  1
  Fe  Fe46  1  0.37655069  0.62340372  0.37487187  1
  Fe  Fe47  1  0.12695270  0.87345834  0.62624554  1
  Fe  Fe48  1  0.87607161  0.87363717  0.62712678  1
  Fe  Fe49  1  0.75055077  -0.00108892  0.25106959  1
  Fe  Fe50  1  0.37869027  0.87863592  0.87246324  1
  Fe  Fe51  1  0.62195271  0.87546421  0.37649914  1
  Fe  Fe52  1  0.12969621  0.12696647  0.12425471  1
  Fe  Fe53  1  0.12260849  0.37650652  0.37469553  1
  Fe  Fe54  1  0.12536658  0.12442747  0.37560970  1
  Fe  Fe55  1  0.00169649  0.74760691  0.75047403  1
  Fe  Fe56  1  0.37454523  0.12075187  0.87379769  1
  Fe  Fe57  1  0.24820443  0.50137371  0.24667109  1
  Fe  Fe58  1  0.49933051  0.25095300  0.49926508  1
  Fe  Fe59  1  0.12166795  0.61939721  0.87989626  1
  Fe  Fe60  1  0.37244957  0.37332023  0.12424906  1
  Fe  Fe61  1  0.62318383  0.12407090  0.37585060  1
  Fe  Fe62  1  0.87504115  0.62533997  0.87411172  1
  Fe  Fe63  1  0.25149462  -0.00321296  0.50003609  1
  Fe  Fe64  1  0.37146140  0.62774582  0.12345239  1
  Fe  Fe65  1  0.74985371  0.75041039  0.49741508  1
  Fe  Fe66  1  0.24925452  0.25247940  0.49793781  1
  Fe  Fe67  1  0.62080111  0.62167384  0.37593684  1
  Fe  Fe68  1  0.49916060  0.24989467  0.24926259  1
  Fe  Fe69  1  0.62401561  0.37327673  0.62506898  1
  Fe  Fe70  1  0.00134462  0.50037478  0.50334819  1
  Fe  Fe71  1  0.62706046  0.12597885  0.62448066  1
  Fe  Fe72  1  0.75128726  0.25087271  -0.00337780  1
  Fe  Fe73  1  0.25003222  0.50069406  0.49952972  1
  Fe  Fe74  1  0.37035345  0.62720322  0.62794917  1
  Fe  Fe75  1  0.62797098  0.12557564  0.12315640  1
  Fe  Fe76  1  0.74895632  0.49835627  0.25210565  1
  Fe  Fe77  1  0.75156763  -0.00115553  0.50061620  1
  Fe  Fe78  1  0.87853066  0.12543442  0.37653674  1
  Fe  Fe79  1  0.12587832  0.87433180  0.37591349  1
  Fe  Fe80  1  0.49800931  -0.00090267  0.50395108  1
  Fe  Fe81  1  0.62740407  0.62762380  0.62627923  1
  Fe  Fe82  1  0.75083088  0.49990249  0.74988474  1
  Fe  Fe83  1  0.00041001  0.25219043  0.24713050  1
  Fe  Fe84  1  0.62223177  0.37586271  0.87486077  1
  Fe  Fe85  1  0.12864189  0.62601429  0.62500017  1
  Fe  Fe86  1  0.62592832  0.37366829  0.12475271  1
  Fe  Fe87  1  0.12676739  0.87288371  0.12454497  1
  Fe  Fe88  1  0.87741840  0.12319049  0.87331713  1
  Fe  Fe89  1  0.75124228  0.25318036  0.49625754  1
  Co  Co90  1  0.49989744  0.00125011  0.00374111  1
  Co  Co91  1  0.25076721  0.74949833  0.49687129  1
  Co  Co92  1  -0.00031651  0.50258125  0.74507203  1
  Co  Co93  1  0.24535782  0.25157439  0.75569847  1
  Co  Co94  1  0.62408954  0.87295702  0.62390581  1
  Co  Co95  1  0.00042935  -0.00175360  0.50070158  1
  Co  Co96  1  0.75082840  0.75349779  -0.00525494  1
  Co  Co97  1  0.24921930  -0.00189075  -0.00056285  1
  Co  Co98  1  0.87346722  0.87328382  0.12752800  1
  Co  Co99  1  0.62580972  0.12302766  0.87593389  1
  Co  Co100  1  0.12326933  0.62349473  0.37511369  1
  Co  Co101  1  0.25339630  0.49902204  -0.00064042  1
  Co  Co102  1  0.12383874  0.12228638  0.87687131  1
  Co  Co103  1  0.25038598  0.25214548  0.25366682  1
  Co  Co104  1  0.24923081  -0.00188645  0.24997886  1
  Co  Co105  1  0.12919735  0.37312060  0.12052950  1
  Co  Co106  1  0.61924100  0.37778969  0.37521044  1
  Co  Co107  1  0.37941218  0.37616356  0.87258852  1
  Co  Co108  1  0.00117917  0.00137653  0.74784012  1
  Co  Co109  1  0.49820931  0.50134870  0.50717085  1
  Co  Co110  1  0.37707203  0.87514093  0.37427642  1
  Co  Co111  1  0.12751176  0.37662367  0.62533983  1
  Co  Co112  1  0.50201452  0.00239020  0.74646171  1
  Co  Co113  1  0.74874262  0.75272754  0.75349795  1
  Co  Co114  1  0.87083771  0.37295462  0.12571899  1
  Co  Co115  1  0.62582817  0.62342878  0.87561041  1
  Co  Co116  1  0.00151454  0.25042183  0.50260159  1
  Co  Co117  1  0.74778678  0.74903257  0.25461827  1
  Co  Co118  1  0.11811467  0.38137203  0.87919662  1
  Co  Co119  1  0.50138654  0.74715628  0.75076087  1
  Co  Co120  1  -0.00477201  0.50148054  0.00960971  1
  Co  Co121  1  0.61904552  0.87560882  0.87492199  1
  Co  Co122  1  0.87953666  0.87508558  0.87163707  1
  Co  Co123  1  0.24896673  0.00051621  0.74985494  1
  Co  Co124  1  0.49870406  0.50107663  0.24306582  1
  Co  Co125  1  0.12880915  0.62899559  0.12066585  1
  Co  Co126  1  0.24672406  0.74885132  0.75716495  1
  Co  Co127  1  0.88110697  0.37733472  0.37482382  1
