# generated using pymatgen
data_Fe45Co19
_symmetry_space_group_name_H-M   'P 1'
_cell_length_a   11.41461374
_cell_length_b   11.41445525
_cell_length_c   11.41520145
_cell_angle_alpha   90.00043951
_cell_angle_beta   89.99696395
_cell_angle_gamma   90.00210246
_symmetry_Int_Tables_number   1
_chemical_formula_structural   Fe45Co19
_chemical_formula_sum   'Fe90 Co38'
_cell_volume   1487.30483176
_cell_formula_units_Z   2
loop_
 _symmetry_equiv_pos_site_id
 _symmetry_equiv_pos_as_xyz
  1  'x, y, z'
loop_
 _atom_site_type_symbol
 _atom_site_label
 _atom_site_symmetry_multiplicity
 _atom_site_fract_x
 _atom_site_fract_y
 _atom_site_fract_z
 _atom_site_occupancy
  Fe  Fe0  1  0.24901048  -0.00075700  0.24666565  1
  Fe  Fe1  1  0.12559658  0.37629217  0.37461489  1
  Fe  Fe2  1  0.87693566  0.87461424  0.37260891  1
  Fe  Fe3  1  0.74954629  0.49975637  0.50109391  1
  Fe  Fe4  1  0.49676458  0.75154550  -0.00246912  1
  Fe  Fe5  1  0.49958020  0.50244334  0.49933894  1
  Fe  Fe6  1  0.25139791  0.75144465  0.00076256  1
  Fe  Fe7  1  0.50148885  0.25017115  0.25103565  1
  Fe  Fe8  1  0.12209905  0.62516884  0.12203416  1
  Fe  Fe9  1  0.62872743  0.62578869  0.37332188  1
  Fe  Fe10  1  0.87507825  0.12420974  0.62445389  1
  Fe  Fe11  1  0.74954817  -0.00207673  0.24801991  1
  Fe  Fe12  1  0.49810977  -0.00089570  0.49842415  1
  Fe  Fe13  1  0.12804741  0.12689185  0.62575909  1
  Fe  Fe14  1  0.00257635  0.50092961  0.50343507  1
  Fe  Fe15  1  0.37298912  0.37337326  0.62303718  1
  Fe  Fe16  1  0.12557619  0.12267766  0.37488020  1
  Fe  Fe17  1  0.37439611  0.12471172  0.12479181  1
  Fe  Fe18  1  0.87505951  0.37410933  0.12653688  1
  Fe  Fe19  1  0.37372258  0.87400841  0.62686567  1
  Fe  Fe20  1  0.00147216  -0.00043464  0.00151822  1
  Fe  Fe21  1  0.00149305  0.75007764  0.75066351  1
  Fe  Fe22  1  0.37323246  0.37738268  0.37606813  1
  Fe  Fe23  1  0.12383927  0.61998416  0.87797424  1
  Fe  Fe24  1  0.75045440  0.50175705  0.74937126  1
  Fe  Fe25  1  0.87514227  0.37577031  0.37652684  1
  Fe  Fe26  1  0.75029957  0.24845906  0.75002844  1
  Fe  Fe27  1  0.49996156  0.74924796  0.49647800  1
  Fe  Fe28  1  0.12819339  0.87773457  0.87446827  1
  Fe  Fe29  1  0.62426103  0.62614106  0.87492934  1
  Fe  Fe30  1  0.24954375  0.50266559  0.24879639  1
  Fe  Fe31  1  0.25032577  0.75138187  0.49637130  1
  Fe  Fe32  1  0.74979341  0.25164040  -0.00101152  1
  Fe  Fe33  1  0.37102797  0.11971549  0.87577508  1
  Fe  Fe34  1  0.00100683  0.75234782  0.49889850  1
  Fe  Fe35  1  0.12566234  0.37183078  0.62848299  1
  Fe  Fe36  1  0.62513571  0.12468772  0.12297562  1
  Fe  Fe37  1  0.12690330  0.12381001  0.87456819  1
  Fe  Fe38  1  0.75181668  0.49847999  0.00032834  1
  Fe  Fe39  1  0.62600105  0.12169217  0.87741807  1
  Fe  Fe40  1  0.87570744  0.37359290  0.62636336  1
  Fe  Fe41  1  0.62744396  0.87148589  0.62498702  1
  Fe  Fe42  1  0.49712628  -0.00271941  0.00040946  1
  Fe  Fe43  1  0.62374417  0.12550964  0.62318355  1
  Fe  Fe44  1  0.00230968  0.25592264  -0.00318161  1
  Fe  Fe45  1  0.87496848  0.12356013  0.87679619  1
  Fe  Fe46  1  0.49645302  0.24781648  0.49788489  1
  Fe  Fe47  1  0.37344645  0.62682927  0.62316980  1
  Fe  Fe48  1  0.37666917  0.87344894  0.36776344  1
  Fe  Fe49  1  0.00090976  0.24883111  0.50019043  1
  Fe  Fe50  1  0.87496127  0.87684462  0.87424143  1
  Fe  Fe51  1  0.49910533  -0.00147895  0.75015499  1
  Fe  Fe52  1  0.75014460  -0.00337700  0.49980956  1
  Fe  Fe53  1  0.87608183  0.12661464  0.12447243  1
  Fe  Fe54  1  0.37508973  0.37507496  0.12556413  1
  Fe  Fe55  1  0.24992299  0.50213858  0.74702242  1
  Fe  Fe56  1  0.62676483  0.62425394  0.12518803  1
  Fe  Fe57  1  0.24757345  0.25371436  -0.00197924  1
  Fe  Fe58  1  0.12217506  0.87221337  0.12824215  1
  Fe  Fe59  1  0.74628708  0.25333691  0.25129562  1
  Fe  Fe60  1  0.49757184  0.24866679  0.75217196  1
  Fe  Fe61  1  0.12350084  0.12725945  0.12502355  1
  Fe  Fe62  1  0.87626995  0.62716019  0.12485428  1
  Fe  Fe63  1  0.25014828  0.24953889  0.25166362  1
  Fe  Fe64  1  0.62161348  0.87446562  0.12600224  1
  Fe  Fe65  1  -0.00020592  0.50152206  0.24862363  1
  Fe  Fe66  1  0.74885482  -0.00183340  0.74963232  1
  Fe  Fe67  1  0.62458706  0.37278740  0.62330793  1
  Fe  Fe68  1  0.24948051  0.74910941  0.75186186  1
  Fe  Fe69  1  0.49865790  0.75093192  0.75328209  1
  Fe  Fe70  1  0.50187512  0.50041565  0.25117971  1
  Fe  Fe71  1  0.87813738  0.62337219  0.87727680  1
  Fe  Fe72  1  0.62582168  0.12428288  0.37617148  1
  Fe  Fe73  1  0.00107172  -0.00227748  0.50113905  1
  Fe  Fe74  1  0.49902277  0.50079466  0.74847543  1
  Fe  Fe75  1  0.87948428  0.87310809  0.12701674  1
  Fe  Fe76  1  0.87476123  0.62950743  0.62446814  1
  Fe  Fe77  1  0.49841446  0.25002811  -0.00139651  1
  Fe  Fe78  1  0.25237867  -0.00029273  0.50018536  1
  Fe  Fe79  1  0.62675781  0.62886104  0.62564715  1
  Fe  Fe80  1  0.37504533  0.62733384  0.12668576  1
  Fe  Fe81  1  0.49800589  0.50183292  0.00007403  1
  Fe  Fe82  1  0.12697017  0.62495091  0.37741257  1
  Fe  Fe83  1  0.00059899  0.24993675  0.25180844  1
  Fe  Fe84  1  0.75073430  0.75288431  -0.00062554  1
  Fe  Fe85  1  0.00216682  -0.00054311  0.74744969  1
  Fe  Fe86  1  0.87282660  0.62500718  0.37360711  1
  Fe  Fe87  1  0.62506543  0.37647679  0.87600502  1
  Fe  Fe88  1  0.37271504  0.37909232  0.87560478  1
  Fe  Fe89  1  0.87407055  0.12475659  0.37468793  1
  Co  Co90  1  0.75194771  -0.00364265  0.00306385  1
  Co  Co91  1  0.24819167  -0.00266269  0.00641296  1
  Co  Co92  1  0.24983954  0.24870213  0.49815886  1
  Co  Co93  1  0.37397135  0.12309844  0.37221466  1
  Co  Co94  1  0.62289261  0.87487581  0.37414619  1
  Co  Co95  1  0.12669724  0.87319266  0.62420077  1
  Co  Co96  1  0.00116984  0.75306239  -0.00305105  1
  Co  Co97  1  0.37280802  0.62402567  0.37535569  1
  Co  Co98  1  0.74972598  0.75274924  0.24835048  1
  Co  Co99  1  0.24950235  0.00083473  0.74570375  1
  Co  Co100  1  0.87501064  0.37631511  0.87200426  1
  Co  Co101  1  0.50252253  0.74578821  0.25137441  1
  Co  Co102  1  0.75168608  0.24987226  0.50054785  1
  Co  Co103  1  -0.00103258  0.24760016  0.75188132  1
  Co  Co104  1  0.25328455  0.24960668  0.75330331  1
  Co  Co105  1  -0.00053691  0.49342018  0.00277895  1
  Co  Co106  1  0.37105574  0.87780637  0.87442714  1
  Co  Co107  1  0.25015593  0.49992190  0.00306563  1
  Co  Co108  1  0.37520642  0.12553253  0.62571534  1
  Co  Co109  1  0.74960682  0.49726107  0.24941611  1
  Co  Co110  1  0.50135862  0.00309206  0.24967128  1
  Co  Co111  1  0.75187498  0.74938315  0.75414279  1
  Co  Co112  1  -0.00056815  0.50320442  0.74633444  1
  Co  Co113  1  0.87507570  0.87278597  0.62656267  1
  Co  Co114  1  0.62263751  0.37603341  0.12169506  1
  Co  Co115  1  0.12584232  0.87678912  0.37373534  1
  Co  Co116  1  0.37717476  0.87327712  0.12933257  1
  Co  Co117  1  0.00192736  0.74689758  0.25351265  1
  Co  Co118  1  0.62390602  0.37511420  0.37868525  1
  Co  Co119  1  0.12598513  0.62974810  0.62328749  1
  Co  Co120  1  0.00009177  0.00139791  0.24910097  1
  Co  Co121  1  0.12607792  0.37501083  0.12848330  1
  Co  Co122  1  0.37391045  0.62390049  0.87471773  1
  Co  Co123  1  0.12513099  0.38035024  0.87052875  1
  Co  Co124  1  0.62504835  0.87508535  0.87566243  1
  Co  Co125  1  0.24772326  0.49954760  0.50285909  1
  Co  Co126  1  0.75093292  0.75166784  0.49674606  1
  Co  Co127  1  0.24706048  0.74782600  0.24915648  1
