# generated using pymatgen
data_Fe45Co19
_symmetry_space_group_name_H-M   'P 1'
_cell_length_a   11.41663301
_cell_length_b   11.41493698
_cell_length_c   11.41402394
_cell_angle_alpha   89.99529225
_cell_angle_beta   89.99862735
_cell_angle_gamma   89.99586882
_symmetry_Int_Tables_number   1
_chemical_formula_structural   Fe45Co19
_chemical_formula_sum   'Fe90 Co38'
_cell_volume   1487.47726077
_cell_formula_units_Z   2
loop_
 _symmetry_equiv_pos_site_id
 _symmetry_equiv_pos_as_xyz
  1  'x, y, z'
loop_
 _atom_site_type_symbol
 _atom_site_label
 _atom_site_symmetry_multiplicity
 _atom_site_fract_x
 _atom_site_fract_y
 _atom_site_fract_z
 _atom_site_occupancy
  Fe  Fe0  1  0.00009715  0.75120598  -0.00006439  1
  Fe  Fe1  1  -0.00008278  0.24985319  0.49987418  1
  Fe  Fe2  1  0.61939814  0.62285313  0.12606352  1
  Fe  Fe3  1  0.37717535  0.62341319  0.62620289  1
  Fe  Fe4  1  0.12534065  0.12650073  0.87422276  1
  Fe  Fe5  1  0.62262104  0.12677262  0.62567044  1
  Fe  Fe6  1  0.00249900  0.25073401  -0.00047772  1
  Fe  Fe7  1  0.37260816  0.12638136  0.12578375  1
  Fe  Fe8  1  0.00013404  0.49909819  0.49816100  1
  Fe  Fe9  1  0.62405906  0.62555707  0.62511200  1
  Fe  Fe10  1  0.49852743  0.25349134  0.24902854  1
  Fe  Fe11  1  0.49961032  0.00137842  0.00080443  1
  Fe  Fe12  1  -0.00103846  0.75364973  0.75013014  1
  Fe  Fe13  1  0.12698062  0.37469912  0.37428499  1
  Fe  Fe14  1  0.12417518  0.62660354  0.87666604  1
  Fe  Fe15  1  0.12207102  0.62690646  0.62340092  1
  Fe  Fe16  1  0.12748801  0.12623072  0.12642514  1
  Fe  Fe17  1  0.62491070  0.37467198  0.87447400  1
  Fe  Fe18  1  0.74942214  0.50003614  0.50078157  1
  Fe  Fe19  1  0.87394186  0.37427479  0.37318624  1
  Fe  Fe20  1  0.62221553  0.12838847  0.12604873  1
  Fe  Fe21  1  0.00040602  0.75516975  0.49634725  1
  Fe  Fe22  1  0.25174079  0.24803733  0.50119517  1
  Fe  Fe23  1  0.74858319  0.75086073  0.49937369  1
  Fe  Fe24  1  0.87606636  0.12282449  0.12279072  1
  Fe  Fe25  1  0.12750812  0.37349521  0.62633817  1
  Fe  Fe26  1  0.25032438  0.50221163  0.00231870  1
  Fe  Fe27  1  -0.00060815  0.24932620  0.25113522  1
  Fe  Fe28  1  0.62141659  0.12624770  0.87425430  1
  Fe  Fe29  1  0.12731018  0.87397406  0.12500320  1
  Fe  Fe30  1  0.37515992  0.12498145  0.37260503  1
  Fe  Fe31  1  0.25258293  0.00199146  0.74914436  1
  Fe  Fe32  1  -0.00168383  0.00164179  0.75044869  1
  Fe  Fe33  1  0.75057073  0.24787227  0.50023630  1
  Fe  Fe34  1  0.37930648  0.62320004  0.37169002  1
  Fe  Fe35  1  0.87425745  0.62565525  0.37410153  1
  Fe  Fe36  1  0.87489090  0.87870095  0.12315488  1
  Fe  Fe37  1  0.12870716  0.37275704  0.87160394  1
  Fe  Fe38  1  0.74957814  0.74971291  0.24765661  1
  Fe  Fe39  1  0.49821287  0.25500336  0.50299265  1
  Fe  Fe40  1  0.37479835  0.87650700  0.87551974  1
  Fe  Fe41  1  0.87602472  0.37431075  0.87585421  1
  Fe  Fe42  1  0.62371598  0.87465790  0.62574310  1
  Fe  Fe43  1  0.74702357  0.00216481  0.24979814  1
  Fe  Fe44  1  0.87372226  0.87933808  0.62067051  1
  Fe  Fe45  1  0.00342570  -0.00317487  0.25276179  1
  Fe  Fe46  1  0.62767660  0.37292374  0.37396130  1
  Fe  Fe47  1  0.12212297  0.12497390  0.62384765  1
  Fe  Fe48  1  0.37889848  0.12590982  0.62847766  1
  Fe  Fe49  1  0.12657064  0.87546159  0.87517552  1
  Fe  Fe50  1  0.75007047  0.49896429  0.00220551  1
  Fe  Fe51  1  0.12760648  0.12257723  0.37557828  1
  Fe  Fe52  1  0.87422996  0.87960343  0.87964678  1
  Fe  Fe53  1  0.37161630  0.37592480  0.37307971  1
  Fe  Fe54  1  0.62237324  0.62536908  0.37270521  1
  Fe  Fe55  1  0.49852481  -0.00264202  0.50122129  1
  Fe  Fe56  1  0.62264866  0.62418923  0.87567467  1
  Fe  Fe57  1  0.62276147  0.87571526  0.12562082  1
  Fe  Fe58  1  0.00184961  0.49898221  0.75101873  1
  Fe  Fe59  1  0.37151618  0.87570793  0.37651336  1
  Fe  Fe60  1  0.25112979  0.74735234  0.74999645  1
  Fe  Fe61  1  0.24968974  0.50247344  0.49961254  1
  Fe  Fe62  1  0.49617298  0.49590608  0.00069799  1
  Fe  Fe63  1  0.87975125  0.62171920  0.12424673  1
  Fe  Fe64  1  0.74954200  0.74926179  0.00156477  1
  Fe  Fe65  1  0.75113984  0.24940114  0.00176761  1
  Fe  Fe66  1  0.87503885  0.37349399  0.62554853  1
  Fe  Fe67  1  0.25336626  0.74685218  0.00258017  1
  Fe  Fe68  1  0.49724326  0.74991841  0.00165732  1
  Fe  Fe69  1  0.75019140  0.00272479  0.75131263  1
  Fe  Fe70  1  0.49421457  0.25273551  -0.00141015  1
  Fe  Fe71  1  0.49836915  0.75032377  0.75053632  1
  Fe  Fe72  1  0.74933736  0.50099048  0.74972407  1
  Fe  Fe73  1  0.12647103  0.37594124  0.12747533  1
  Fe  Fe74  1  0.12437468  0.62694814  0.37308421  1
  Fe  Fe75  1  0.75170825  0.75074284  0.75147341  1
  Fe  Fe76  1  0.50122611  0.49667587  0.50220327  1
  Fe  Fe77  1  0.62426510  0.87492977  0.87619154  1
  Fe  Fe78  1  0.87690731  0.62601586  0.62398724  1
  Fe  Fe79  1  0.74941098  0.49691199  0.24654766  1
  Fe  Fe80  1  0.37006357  0.37604516  0.86838711  1
  Fe  Fe81  1  0.87477716  0.12035195  0.37777102  1
  Fe  Fe82  1  0.75260951  0.24692105  0.75048528  1
  Fe  Fe83  1  0.87667639  0.62470944  0.87611451  1
  Fe  Fe84  1  0.12984923  0.87558214  0.62137025  1
  Fe  Fe85  1  0.25333470  0.74809159  0.24707474  1
  Fe  Fe86  1  0.62213204  0.12653721  0.37441079  1
  Fe  Fe87  1  0.62355643  0.87450850  0.37368367  1
  Fe  Fe88  1  0.00000412  0.75341541  0.25193493  1
  Fe  Fe89  1  0.24951592  0.00203284  0.00028532  1
  Co  Co90  1  -0.00173451  0.24829204  0.75068813  1
  Co  Co91  1  0.49906397  0.25435196  0.75026120  1
  Co  Co92  1  0.87810991  0.37477359  0.12476666  1
  Co  Co93  1  0.49753506  0.75391367  0.24957967  1
  Co  Co94  1  0.00049448  0.49871986  0.25284837  1
  Co  Co95  1  0.24882153  0.24930660  0.25195984  1
  Co  Co96  1  0.12187374  0.62514660  0.12507982  1
  Co  Co97  1  0.00375520  0.49695881  -0.00296299  1
  Co  Co98  1  0.75216838  0.24775671  0.24896464  1
  Co  Co99  1  0.49843390  0.00002716  0.24990146  1
  Co  Co100  1  0.74423316  0.00179298  0.00105481  1
  Co  Co101  1  0.74327498  0.00077026  0.49933443  1
  Co  Co102  1  0.25066157  -0.00010767  0.24838274  1
  Co  Co103  1  0.00581210  0.00113500  0.00082551  1
  Co  Co104  1  0.37013735  0.37442265  0.12867027  1
  Co  Co105  1  0.87633193  0.12340662  0.88041052  1
  Co  Co106  1  0.37690022  0.62365193  0.87436519  1
  Co  Co107  1  0.37458745  0.87793332  0.12246448  1
  Co  Co108  1  0.24655726  0.50592629  0.74867457  1
  Co  Co109  1  0.87013468  0.87741399  0.37528339  1
  Co  Co110  1  0.25105701  0.24477577  0.74802141  1
  Co  Co111  1  0.25118711  0.25047314  -0.00117535  1
  Co  Co112  1  0.24803993  0.50325902  0.24972016  1
  Co  Co113  1  0.25413472  0.00533019  0.50211043  1
  Co  Co114  1  0.49980200  -0.00209316  0.74986066  1
  Co  Co115  1  0.62886496  0.37259487  0.62605249  1
  Co  Co116  1  0.36967185  0.37688569  0.62823695  1
  Co  Co117  1  0.13430069  0.87445984  0.37691630  1
  Co  Co118  1  0.62449056  0.37148014  0.12329428  1
  Co  Co119  1  0.00414509  -0.00367637  0.49649795  1
  Co  Co120  1  0.50262313  0.49316159  0.25005816  1
  Co  Co121  1  0.50238054  0.49767212  0.74784173  1
  Co  Co122  1  0.49929292  0.75090058  0.49968823  1
  Co  Co123  1  0.37622882  0.12374698  0.87457292  1
  Co  Co124  1  0.25304615  0.74432426  0.50018691  1
  Co  Co125  1  0.37205044  0.87341510  0.62549731  1
  Co  Co126  1  0.37974924  0.62158872  0.12827854  1
  Co  Co127  1  0.87605266  0.12276715  0.62022933  1
