# generated using pymatgen
data_Fe45Co19
_symmetry_space_group_name_H-M   'P 1'
_cell_length_a   11.41466054
_cell_length_b   11.41516059
_cell_length_c   11.41634598
_cell_angle_alpha   90.00678567
_cell_angle_beta   90.00235768
_cell_angle_gamma   89.99293680
_symmetry_Int_Tables_number   1
_chemical_formula_structural   Fe45Co19
_chemical_formula_sum   'Fe90 Co38'
_cell_volume   1487.55194909
_cell_formula_units_Z   2
loop_
 _symmetry_equiv_pos_site_id
 _symmetry_equiv_pos_as_xyz
  1  'x, y, z'
loop_
 _atom_site_type_symbol
 _atom_site_label
 _atom_site_symmetry_multiplicity
 _atom_site_fract_x
 _atom_site_fract_y
 _atom_site_fract_z
 _atom_site_occupancy
  Fe  Fe0  1  0.12809344  0.87629953  0.12513699  1
  Fe  Fe1  1  -0.00315777  -0.00404758  0.49902925  1
  Fe  Fe2  1  0.75031061  0.00080507  0.74960233  1
  Fe  Fe3  1  0.25035072  0.50188348  0.00049927  1
  Fe  Fe4  1  0.74783615  0.25097181  0.24929382  1
  Fe  Fe5  1  0.24956610  0.75373834  0.50006801  1
  Fe  Fe6  1  0.12556619  0.37696165  0.12696345  1
  Fe  Fe7  1  0.87410388  0.62587851  0.87579439  1
  Fe  Fe8  1  0.62232853  0.37786308  0.37225956  1
  Fe  Fe9  1  0.74808682  0.24913310  0.49848501  1
  Fe  Fe10  1  0.12635605  0.87644044  0.62816189  1
  Fe  Fe11  1  0.00300793  0.25055168  0.75263364  1
  Fe  Fe12  1  -0.00038373  0.50049717  0.74868676  1
  Fe  Fe13  1  0.62192440  0.87791346  0.87583041  1
  Fe  Fe14  1  0.49612856  -0.00165117  0.25006523  1
  Fe  Fe15  1  0.62349912  0.87878722  0.12414570  1
  Fe  Fe16  1  0.12694004  0.12120870  0.12416314  1
  Fe  Fe17  1  0.87328809  0.12663853  0.12429543  1
  Fe  Fe18  1  0.74904858  0.00173087  0.00018727  1
  Fe  Fe19  1  0.50041503  0.50236299  0.49944415  1
  Fe  Fe20  1  0.62324429  0.12260491  0.62113408  1
  Fe  Fe21  1  0.00281182  0.25008078  -0.00174413  1
  Fe  Fe22  1  0.87635109  0.62952393  0.62248810  1
  Fe  Fe23  1  0.74884150  0.24922869  0.75061621  1
  Fe  Fe24  1  0.00203572  0.74978998  0.00102927  1
  Fe  Fe25  1  0.75257563  -0.00144086  0.25095182  1
  Fe  Fe26  1  0.12424766  0.37471823  0.62354167  1
  Fe  Fe27  1  0.62429842  0.37568281  0.87383189  1
  Fe  Fe28  1  0.25111396  0.74987310  0.24805167  1
  Fe  Fe29  1  0.37539469  0.62668586  0.62512170  1
  Fe  Fe30  1  0.25534584  -0.00423750  -0.00400315  1
  Fe  Fe31  1  -0.00022547  0.75108807  0.75108090  1
  Fe  Fe32  1  0.74915738  0.50394222  0.49928448  1
  Fe  Fe33  1  0.12572063  0.12222170  0.62630068  1
  Fe  Fe34  1  0.37460804  0.37165005  0.87512726  1
  Fe  Fe35  1  0.37635392  0.12253493  0.62170548  1
  Fe  Fe36  1  0.87590832  0.12450381  0.37438656  1
  Fe  Fe37  1  0.87613368  0.37344993  0.62231714  1
  Fe  Fe38  1  0.24986994  0.50151481  0.49966334  1
  Fe  Fe39  1  0.49922968  0.24881855  0.74726257  1
  Fe  Fe40  1  0.37493335  0.37454263  0.62373776  1
  Fe  Fe41  1  0.50244536  0.74985924  0.24814206  1
  Fe  Fe42  1  0.87332328  0.87344179  0.87586132  1
  Fe  Fe43  1  0.62242701  0.12353045  0.87538127  1
  Fe  Fe44  1  0.87427699  0.37480144  0.87647153  1
  Fe  Fe45  1  0.24708783  0.24943360  -0.00255281  1
  Fe  Fe46  1  0.24957573  0.24780854  0.25178092  1
  Fe  Fe47  1  0.37522072  0.12214907  0.37864082  1
  Fe  Fe48  1  0.87757635  0.37453868  0.37731861  1
  Fe  Fe49  1  0.87445037  0.63048336  0.37526662  1
  Fe  Fe50  1  0.50102438  0.75175142  0.50111881  1
  Fe  Fe51  1  0.87275990  0.62575135  0.12723851  1
  Fe  Fe52  1  0.62261730  0.62266472  0.87369487  1
  Fe  Fe53  1  0.37751178  0.62831443  0.87677573  1
  Fe  Fe54  1  0.12335140  0.62451628  0.37376874  1
  Fe  Fe55  1  0.25631380  -0.00029359  0.75500494  1
  Fe  Fe56  1  0.74720883  0.49954722  0.00148692  1
  Fe  Fe57  1  0.24881904  0.24814004  0.50032897  1
  Fe  Fe58  1  0.87423480  0.12656428  0.87695767  1
  Fe  Fe59  1  0.12359641  0.37650621  0.37540583  1
  Fe  Fe60  1  0.12544928  0.12094035  0.37418014  1
  Fe  Fe61  1  0.87307758  0.37389807  0.12442138  1
  Fe  Fe62  1  0.37686685  0.62826055  0.12171084  1
  Fe  Fe63  1  -0.00263434  -0.00136543  0.75216192  1
  Fe  Fe64  1  0.62715751  0.87737879  0.62401272  1
  Fe  Fe65  1  0.87504306  0.12610191  0.62457229  1
  Fe  Fe66  1  0.62395327  0.37693303  0.62477029  1
  Fe  Fe67  1  0.37441736  0.12429676  0.12358909  1
  Fe  Fe68  1  0.25198069  0.50190827  0.24946246  1
  Fe  Fe69  1  0.50150028  0.75127708  0.74803784  1
  Fe  Fe70  1  0.75057291  0.50132316  0.74794837  1
  Fe  Fe71  1  0.74515545  0.74882044  0.00184726  1
  Fe  Fe72  1  0.00199081  0.24866343  0.24967634  1
  Fe  Fe73  1  0.12515838  0.62498148  0.87576978  1
  Fe  Fe74  1  0.87353279  0.87460726  0.12463907  1
  Fe  Fe75  1  0.37491670  0.37522664  0.37540924  1
  Fe  Fe76  1  0.37560784  0.37451181  0.12514622  1
  Fe  Fe77  1  0.25145813  0.75230578  0.75353160  1
  Fe  Fe78  1  0.74834462  0.74957196  0.74974888  1
  Fe  Fe79  1  0.62334879  0.12247831  0.37575522  1
  Fe  Fe80  1  0.25173831  0.49936792  0.75033812  1
  Fe  Fe81  1  0.00133259  0.50155187  0.00245125  1
  Fe  Fe82  1  -0.00018276  -0.00104721  -0.00034668  1
  Fe  Fe83  1  0.12483376  0.62674779  0.62391945  1
  Fe  Fe84  1  0.12758398  0.87816904  0.37120669  1
  Fe  Fe85  1  0.62833248  0.87379898  0.37624753  1
  Fe  Fe86  1  0.50481739  0.24935490  0.00400734  1
  Fe  Fe87  1  0.49930190  0.24859971  0.24977971  1
  Fe  Fe88  1  0.00024998  0.75226893  0.24907130  1
  Fe  Fe89  1  0.37634381  0.62795232  0.37586860  1
  Co  Co90  1  0.74483147  0.24985324  0.00092769  1
  Co  Co91  1  0.87141758  0.87064802  0.37467406  1
  Co  Co92  1  0.49757376  0.00159010  0.00152296  1
  Co  Co93  1  0.12592069  0.37815274  0.87457580  1
  Co  Co94  1  0.62413874  0.37897202  0.12977243  1
  Co  Co95  1  0.75367448  0.49980005  0.25289632  1
  Co  Co96  1  0.74674146  0.75097763  0.24521723  1
  Co  Co97  1  0.12349430  0.87527121  0.87432821  1
  Co  Co98  1  0.37431929  0.87474669  0.62637045  1
  Co  Co99  1  0.49915298  0.49902659  -0.00074059  1
  Co  Co100  1  0.49851580  0.00067243  0.74863762  1
  Co  Co101  1  0.00199049  0.24674877  0.49948701  1
  Co  Co102  1  0.62446639  0.61868711  0.12811738  1
  Co  Co103  1  0.24970358  0.24820953  0.74818670  1
  Co  Co104  1  -0.00231616  0.50045391  0.25013478  1
  Co  Co105  1  0.25520658  0.00056136  0.24871027  1
  Co  Co106  1  0.37779513  0.12879842  0.87650639  1
  Co  Co107  1  0.49648039  0.49905247  0.75092887  1
  Co  Co108  1  0.75354950  0.00058226  0.49926023  1
  Co  Co109  1  0.37574559  0.87147773  0.12350024  1
  Co  Co110  1  0.62565753  0.62601539  0.37262462  1
  Co  Co111  1  0.24784536  0.75210228  -0.00181948  1
  Co  Co112  1  0.87317164  0.87266769  0.62592900  1
  Co  Co113  1  0.49494680  0.50219576  0.24997260  1
  Co  Co114  1  0.62593389  0.12189602  0.12875997  1
  Co  Co115  1  0.38236850  0.87076412  0.87681051  1
  Co  Co116  1  -0.00274716  -0.00063263  0.24859023  1
  Co  Co117  1  0.62225414  0.62359459  0.62653527  1
  Co  Co118  1  0.12617310  0.12216079  0.87504604  1
  Co  Co119  1  0.74716221  0.74832266  0.50294422  1
  Co  Co120  1  0.37364654  0.87274169  0.37324583  1
  Co  Co121  1  0.50023832  0.25146240  0.49902718  1
  Co  Co122  1  -0.00072790  0.50308885  0.49964107  1
  Co  Co123  1  0.25061658  -0.00337778  0.49957537  1
  Co  Co124  1  0.50633484  0.74867307  0.00244504  1
  Co  Co125  1  0.12566275  0.62566080  0.12695346  1
  Co  Co126  1  0.49889673  -0.00608548  0.49833799  1
  Co  Co127  1  0.00383455  0.75533154  0.49871043  1
