# generated using pymatgen
data_Fe45Co19
_symmetry_space_group_name_H-M   'P 1'
_cell_length_a   11.41530918
_cell_length_b   11.41547384
_cell_length_c   11.41510281
_cell_angle_alpha   89.99697925
_cell_angle_beta   90.00020268
_cell_angle_gamma   89.99899933
_symmetry_Int_Tables_number   1
_chemical_formula_structural   Fe45Co19
_chemical_formula_sum   'Fe90 Co38'
_cell_volume   1487.51532430
_cell_formula_units_Z   2
loop_
 _symmetry_equiv_pos_site_id
 _symmetry_equiv_pos_as_xyz
  1  'x, y, z'
loop_
 _atom_site_type_symbol
 _atom_site_label
 _atom_site_symmetry_multiplicity
 _atom_site_fract_x
 _atom_site_fract_y
 _atom_site_fract_z
 _atom_site_occupancy
  Fe  Fe0  1  0.37657603  0.87402052  0.37488508  1
  Fe  Fe1  1  -0.00300739  0.50186638  0.74900624  1
  Fe  Fe2  1  0.37652900  0.62770687  0.62467804  1
  Fe  Fe3  1  -0.00204025  0.25209007  0.25271439  1
  Fe  Fe4  1  0.24813513  0.50097040  0.00014103  1
  Fe  Fe5  1  0.75165331  0.25159704  0.00335994  1
  Fe  Fe6  1  0.12568403  0.37456438  0.62415865  1
  Fe  Fe7  1  0.37809541  0.87336706  0.12215350  1
  Fe  Fe8  1  0.25040052  0.50083903  0.24938200  1
  Fe  Fe9  1  0.49959688  0.50118773  0.75137397  1
  Fe  Fe10  1  0.12502679  0.37668726  0.87183561  1
  Fe  Fe11  1  0.12701749  0.62466211  0.37470931  1
  Fe  Fe12  1  0.37483519  0.37640106  0.37590821  1
  Fe  Fe13  1  0.74998288  0.75538272  0.24755769  1
  Fe  Fe14  1  0.62550662  0.12376283  0.62443290  1
  Fe  Fe15  1  0.25082950  0.24988733  0.75001558  1
  Fe  Fe16  1  0.12560613  0.87722288  0.37429187  1
  Fe  Fe17  1  0.75204507  0.50104191  0.74691365  1
  Fe  Fe18  1  0.12389885  0.12285783  0.12849930  1
  Fe  Fe19  1  0.24743536  0.24922756  -0.00054885  1
  Fe  Fe20  1  0.00179472  0.50329238  -0.00149926  1
  Fe  Fe21  1  0.50322415  0.50171137  0.00109162  1
  Fe  Fe22  1  0.12328661  0.87699259  0.87291778  1
  Fe  Fe23  1  0.37472937  0.37567994  0.87552253  1
  Fe  Fe24  1  0.25366616  0.74996351  0.75394363  1
  Fe  Fe25  1  0.87662067  0.87280714  0.62328773  1
  Fe  Fe26  1  0.25187532  0.75136606  0.25046293  1
  Fe  Fe27  1  -0.00221724  -0.00099837  0.00102505  1
  Fe  Fe28  1  0.00370803  0.24728938  0.49710842  1
  Fe  Fe29  1  0.24976971  0.75113570  0.49848327  1
  Fe  Fe30  1  0.00015851  0.24890789  0.00044791  1
  Fe  Fe31  1  0.87480345  0.12339006  0.87617702  1
  Fe  Fe32  1  0.12489134  0.62736260  0.62749685  1
  Fe  Fe33  1  0.25069484  0.00021001  -0.00090730  1
  Fe  Fe34  1  -0.00459975  -0.00271615  0.25030225  1
  Fe  Fe35  1  0.50146923  0.24901868  0.75023426  1
  Fe  Fe36  1  0.75361870  0.00054225  0.74745500  1
  Fe  Fe37  1  0.50476443  0.74585702  -0.00186470  1
  Fe  Fe38  1  0.12857815  0.12188404  0.62477203  1
  Fe  Fe39  1  0.87363427  0.37459576  0.61929040  1
  Fe  Fe40  1  0.12507103  0.12217886  0.87176156  1
  Fe  Fe41  1  0.37291909  0.12625662  0.12598043  1
  Fe  Fe42  1  0.62518532  0.87608228  0.87357976  1
  Fe  Fe43  1  0.37743137  0.87310852  0.62513169  1
  Fe  Fe44  1  0.37254721  0.12432295  0.62436230  1
  Fe  Fe45  1  -0.00043670  -0.00062283  0.50064999  1
  Fe  Fe46  1  0.37539407  0.37344341  0.62293144  1
  Fe  Fe47  1  0.62742006  0.12499250  0.87430205  1
  Fe  Fe48  1  0.87068971  0.12372969  0.37240071  1
  Fe  Fe49  1  0.75132753  0.49378995  0.25023184  1
  Fe  Fe50  1  0.37569881  0.62691752  0.12474130  1
  Fe  Fe51  1  0.12309040  0.37551568  0.12706198  1
  Fe  Fe52  1  0.24795823  0.74906432  -0.00193858  1
  Fe  Fe53  1  0.62590834  0.37521624  0.87509847  1
  Fe  Fe54  1  0.75154691  0.74989760  0.75025828  1
  Fe  Fe55  1  0.74692777  0.75020507  0.50174196  1
  Fe  Fe56  1  0.50155324  -0.00074087  0.50066875  1
  Fe  Fe57  1  0.74745269  0.49914529  0.00352658  1
  Fe  Fe58  1  -0.00226330  0.50040442  0.25162448  1
  Fe  Fe59  1  0.24979196  0.50075021  0.50153385  1
  Fe  Fe60  1  0.62503440  0.62627648  0.37186832  1
  Fe  Fe61  1  0.62428701  0.37568189  0.62239150  1
  Fe  Fe62  1  0.24758475  0.24973084  0.25375677  1
  Fe  Fe63  1  0.12354574  0.87472660  0.62748735  1
  Fe  Fe64  1  0.37589160  0.37281784  0.12577783  1
  Fe  Fe65  1  0.74602275  0.25104472  0.49521454  1
  Fe  Fe66  1  0.12324427  0.87391216  0.12566365  1
  Fe  Fe67  1  0.50106737  0.24871254  0.00019325  1
  Fe  Fe68  1  -0.00153357  0.75068488  0.25271935  1
  Fe  Fe69  1  0.74863150  0.75140496  0.00102324  1
  Fe  Fe70  1  0.50005885  0.00042121  0.24891409  1
  Fe  Fe71  1  0.50107571  0.24703411  0.49644822  1
  Fe  Fe72  1  0.75102255  -0.00137051  0.00545277  1
  Fe  Fe73  1  0.87288519  0.62669216  0.37756995  1
  Fe  Fe74  1  0.62913392  0.12842804  0.13214922  1
  Fe  Fe75  1  0.62385078  0.87563021  0.37384376  1
  Fe  Fe76  1  0.50141510  0.50371432  0.49838049  1
  Fe  Fe77  1  0.74936439  -0.00195364  0.50059821  1
  Fe  Fe78  1  -0.00292546  0.24753834  0.74792020  1
  Fe  Fe79  1  0.62336980  0.62769578  0.62694959  1
  Fe  Fe80  1  0.87503325  0.37631091  0.87611915  1
  Fe  Fe81  1  0.50093245  0.00424907  0.00021592  1
  Fe  Fe82  1  0.50010631  0.50166576  0.24901578  1
  Fe  Fe83  1  0.12320874  0.62763866  0.12592879  1
  Fe  Fe84  1  0.75102524  0.25008649  0.74860344  1
  Fe  Fe85  1  0.00034748  0.50396553  0.50093176  1
  Fe  Fe86  1  -0.00410736  0.74799358  0.75452622  1
  Fe  Fe87  1  0.49799520  0.00020673  0.75144383  1
  Fe  Fe88  1  0.37090177  0.12131358  0.37605649  1
  Fe  Fe89  1  0.87512154  0.62717783  0.12333386  1
  Co  Co90  1  0.12548068  0.11915745  0.37306299  1
  Co  Co91  1  0.24832712  0.24990549  0.49691321  1
  Co  Co92  1  0.25397926  -0.00228135  0.75158655  1
  Co  Co93  1  0.87718827  0.37723309  0.38215020  1
  Co  Co94  1  0.75392899  0.25814050  0.25176420  1
  Co  Co95  1  0.61965919  0.87496423  0.12398739  1
  Co  Co96  1  0.87875817  0.87133835  0.12243349  1
  Co  Co97  1  0.25237272  0.50026815  0.74759618  1
  Co  Co98  1  0.37450857  0.12683723  0.87449409  1
  Co  Co99  1  0.37447178  0.62532000  0.37512072  1
  Co  Co100  1  0.49958035  0.74974609  0.75314170  1
  Co  Co101  1  0.74630025  0.50325954  0.50014941  1
  Co  Co102  1  0.49776895  0.24715356  0.25426879  1
  Co  Co103  1  0.62735579  0.62544226  0.12936527  1
  Co  Co104  1  0.62784617  0.62414483  0.87249205  1
  Co  Co105  1  0.87920527  0.37653861  0.12196105  1
  Co  Co106  1  0.87404699  0.12590412  0.12843522  1
  Co  Co107  1  0.87392655  0.87344650  0.37880716  1
  Co  Co108  1  0.24950994  -0.00435092  0.50162067  1
  Co  Co109  1  0.87372056  0.87703120  0.87568473  1
  Co  Co110  1  0.12455105  0.37886554  0.37538667  1
  Co  Co111  1  0.00285193  0.75025900  0.49769990  1
  Co  Co112  1  0.37855408  0.87393465  0.87971622  1
  Co  Co113  1  0.62096452  0.37644552  0.37447275  1
  Co  Co114  1  0.00117202  0.74935521  -0.00411638  1
  Co  Co115  1  0.87150653  0.62328776  0.87874278  1
  Co  Co116  1  0.87581368  0.62777985  0.62147693  1
  Co  Co117  1  0.75138460  -0.00692246  0.24664587  1
  Co  Co118  1  0.50227456  0.74998054  0.49832344  1
  Co  Co119  1  0.37475947  0.62323094  0.87668142  1
  Co  Co120  1  0.49920646  0.74998472  0.25060267  1
  Co  Co121  1  -0.00443956  0.00208326  0.74698284  1
  Co  Co122  1  0.62407079  0.87505809  0.62762065  1
  Co  Co123  1  0.25237119  -0.00324792  0.24744249  1
  Co  Co124  1  0.12661342  0.62359198  0.87208936  1
  Co  Co125  1  0.62934794  0.12194719  0.37067149  1
  Co  Co126  1  0.62143010  0.37127999  0.12755033  1
  Co  Co127  1  0.87254935  0.12716390  0.61961360  1
