# generated using pymatgen
data_Fe45Co19
_symmetry_space_group_name_H-M   'P 1'
_cell_length_a   11.41581018
_cell_length_b   11.41647381
_cell_length_c   11.41471968
_cell_angle_alpha   89.99783862
_cell_angle_beta   89.98688155
_cell_angle_gamma   90.00315607
_symmetry_Int_Tables_number   1
_chemical_formula_structural   Fe45Co19
_chemical_formula_sum   'Fe90 Co38'
_cell_volume   1487.66094506
_cell_formula_units_Z   2
loop_
 _symmetry_equiv_pos_site_id
 _symmetry_equiv_pos_as_xyz
  1  'x, y, z'
loop_
 _atom_site_type_symbol
 _atom_site_label
 _atom_site_symmetry_multiplicity
 _atom_site_fract_x
 _atom_site_fract_y
 _atom_site_fract_z
 _atom_site_occupancy
  Fe  Fe0  1  0.50007626  0.49861717  0.49767478  1
  Fe  Fe1  1  0.24919322  0.50020792  0.00092451  1
  Fe  Fe2  1  -0.00019890  0.75176686  0.50271096  1
  Fe  Fe3  1  -0.00196051  0.49774604  0.75266177  1
  Fe  Fe4  1  0.00364067  0.25192485  -0.00124058  1
  Fe  Fe5  1  0.25098041  0.50163391  0.49833694  1
  Fe  Fe6  1  0.12273458  0.12297997  0.12544225  1
  Fe  Fe7  1  0.37317424  0.37051088  0.87756064  1
  Fe  Fe8  1  0.87144855  0.37365047  0.87893561  1
  Fe  Fe9  1  0.75051790  0.50278991  0.74948164  1
  Fe  Fe10  1  0.87400832  0.37534269  0.62470384  1
  Fe  Fe11  1  0.37272394  0.87404091  0.62493819  1
  Fe  Fe12  1  0.24938684  0.00173837  0.49997582  1
  Fe  Fe13  1  0.12943693  0.37224592  0.87222126  1
  Fe  Fe14  1  0.12682639  0.87735071  0.87285717  1
  Fe  Fe15  1  0.37438756  0.37363732  0.62563485  1
  Fe  Fe16  1  0.87174440  0.87401855  0.37683194  1
  Fe  Fe17  1  0.50029238  0.24967760  0.75133463  1
  Fe  Fe18  1  0.25274408  0.00270971  0.25125058  1
  Fe  Fe19  1  0.74582555  0.74520926  0.75273763  1
  Fe  Fe20  1  0.25188657  0.74799252  0.75131481  1
  Fe  Fe21  1  0.37358797  0.37129804  0.12494207  1
  Fe  Fe22  1  0.50111943  0.75218017  0.49786580  1
  Fe  Fe23  1  0.62490176  0.12320586  0.87573726  1
  Fe  Fe24  1  0.87265682  0.87267325  0.12240293  1
  Fe  Fe25  1  0.49884612  -0.00269297  0.25236822  1
  Fe  Fe26  1  0.74871098  0.24978617  0.24781400  1
  Fe  Fe27  1  0.12173199  0.12260186  0.37464593  1
  Fe  Fe28  1  0.62506945  0.37612473  0.62610555  1
  Fe  Fe29  1  0.37679533  0.12766330  0.12254039  1
  Fe  Fe30  1  -0.00236669  -0.00479738  0.50514134  1
  Fe  Fe31  1  0.12537695  0.87658758  0.12714613  1
  Fe  Fe32  1  0.37847512  0.12594020  0.62347425  1
  Fe  Fe33  1  0.50215733  0.25258667  0.49768955  1
  Fe  Fe34  1  0.87035231  0.87506569  0.87492055  1
  Fe  Fe35  1  -0.00077968  0.75307704  0.74988030  1
  Fe  Fe36  1  0.74980243  0.24772390  0.74695782  1
  Fe  Fe37  1  0.62638709  0.62477698  0.12270422  1
  Fe  Fe38  1  0.75031771  0.50224894  0.50238476  1
  Fe  Fe39  1  0.12525462  0.37650133  0.13033658  1
  Fe  Fe40  1  0.62738742  0.87481619  0.62603162  1
  Fe  Fe41  1  0.87366791  0.37515080  0.37453042  1
  Fe  Fe42  1  0.12336235  0.62534443  0.87619173  1
  Fe  Fe43  1  0.75168455  -0.00079650  0.24990968  1
  Fe  Fe44  1  -0.00132128  0.49946131  0.49905260  1
  Fe  Fe45  1  0.37489593  0.87433081  0.87503413  1
  Fe  Fe46  1  0.00114642  0.25101435  0.25274424  1
  Fe  Fe47  1  -0.00396291  0.74908624  0.24919085  1
  Fe  Fe48  1  0.12248322  0.62481679  0.62706202  1
  Fe  Fe49  1  0.11857326  0.12552440  0.63018919  1
  Fe  Fe50  1  0.11935577  0.62289741  0.12392188  1
  Fe  Fe51  1  0.75191951  0.00448727  0.74574847  1
  Fe  Fe52  1  0.37446785  0.87405560  0.12432908  1
  Fe  Fe53  1  0.74886859  0.24725448  0.50230547  1
  Fe  Fe54  1  0.62762277  0.62455982  0.37287788  1
  Fe  Fe55  1  0.37854977  0.62667314  0.62478385  1
  Fe  Fe56  1  0.24793287  0.24837338  0.49977945  1
  Fe  Fe57  1  0.87593115  0.62473521  0.88174760  1
  Fe  Fe58  1  0.87555655  0.12349626  0.37634865  1
  Fe  Fe59  1  0.24755003  0.75005988  0.00006661  1
  Fe  Fe60  1  0.25291324  0.50207002  0.75045584  1
  Fe  Fe61  1  0.74935142  0.74658707  0.50131488  1
  Fe  Fe62  1  -0.00108320  -0.00242274  -0.00102053  1
  Fe  Fe63  1  0.00062539  0.25297749  0.49963192  1
  Fe  Fe64  1  0.75821701  0.50343465  0.24364782  1
  Fe  Fe65  1  0.37041338  0.37352203  0.37193521  1
  Fe  Fe66  1  0.49940821  -0.00071695  0.75014522  1
  Fe  Fe67  1  0.12630504  0.37534674  0.62654323  1
  Fe  Fe68  1  0.49985574  0.49778645  0.00000278  1
  Fe  Fe69  1  0.62806283  0.87735859  0.12388065  1
  Fe  Fe70  1  0.62645438  0.37653748  0.87560268  1
  Fe  Fe71  1  0.87834294  0.12641965  0.87386637  1
  Fe  Fe72  1  0.49720094  0.50167441  0.25007370  1
  Fe  Fe73  1  0.50463493  0.75212720  -0.00481080  1
  Fe  Fe74  1  0.50065767  -0.00008896  -0.00113431  1
  Fe  Fe75  1  0.87654565  0.12644080  0.12490940  1
  Fe  Fe76  1  0.62534107  0.12278126  0.37464126  1
  Fe  Fe77  1  0.50180506  0.75214667  0.25197178  1
  Fe  Fe78  1  0.24936941  0.00356362  -0.00217700  1
  Fe  Fe79  1  0.50109130  -0.00311404  0.49755367  1
  Fe  Fe80  1  0.62864367  0.37769943  0.37161118  1
  Fe  Fe81  1  0.49868196  0.50193117  0.75154513  1
  Fe  Fe82  1  0.12535704  0.87595422  0.37339768  1
  Fe  Fe83  1  0.12223292  0.62181307  0.37224942  1
  Fe  Fe84  1  0.50184020  0.24955706  0.24956590  1
  Fe  Fe85  1  0.24895899  0.74813105  0.49814167  1
  Fe  Fe86  1  0.74486353  0.24907097  0.00432251  1
  Fe  Fe87  1  0.25041431  0.74750515  0.25022864  1
  Fe  Fe88  1  0.25090725  0.00501689  0.75146290  1
  Fe  Fe89  1  0.37606529  0.62732887  0.12212940  1
  Co  Co90  1  0.62399933  0.37837368  0.12840736  1
  Co  Co91  1  0.25275171  0.50390793  0.24797853  1
  Co  Co92  1  0.75090731  0.00410953  0.50292472  1
  Co  Co93  1  0.00242001  0.49379051  -0.00232190  1
  Co  Co94  1  -0.00380149  -0.00238947  0.24909561  1
  Co  Co95  1  0.87751310  0.62527246  0.62693958  1
  Co  Co96  1  0.75006723  0.49770175  0.00488091  1
  Co  Co97  1  -0.00253205  0.25681481  0.75082277  1
  Co  Co98  1  0.24546221  0.24752287  0.00079119  1
  Co  Co99  1  0.37817295  0.12789556  0.87881624  1
  Co  Co100  1  0.75226870  0.74775094  0.24644412  1
  Co  Co101  1  0.87749789  0.37091698  0.12328866  1
  Co  Co102  1  0.86828325  0.87143543  0.62595107  1
  Co  Co103  1  0.63035103  0.87474638  0.37549783  1
  Co  Co104  1  0.00317135  0.75700253  -0.00201451  1
  Co  Co105  1  0.50248138  0.75085332  0.75296774  1
  Co  Co106  1  0.75289744  0.00316706  0.00094559  1
  Co  Co107  1  0.62830260  0.88114114  0.87318326  1
  Co  Co108  1  -0.00288535  -0.00666439  0.74841295  1
  Co  Co109  1  0.74532857  0.75069496  -0.00209175  1
  Co  Co110  1  0.25190381  0.24520274  0.74888357  1
  Co  Co111  1  0.88085361  0.12747589  0.62566248  1
  Co  Co112  1  0.87934214  0.62835269  0.11426768  1
  Co  Co113  1  0.37717146  0.12596113  0.37595268  1
  Co  Co114  1  0.62087223  0.12544783  0.62376356  1
  Co  Co115  1  0.37108782  0.87410270  0.37457639  1
  Co  Co116  1  0.62490490  0.61962975  0.87795346  1
  Co  Co117  1  0.11864619  0.12447231  0.87101527  1
  Co  Co118  1  0.24798411  0.24543340  0.25055045  1
  Co  Co119  1  0.62142233  0.62414491  0.62399396  1
  Co  Co120  1  0.62375961  0.12016534  0.12686725  1
  Co  Co121  1  0.50677532  0.25098431  0.00125820  1
  Co  Co122  1  0.37660819  0.62674182  0.37515640  1
  Co  Co123  1  -0.00721649  0.50074756  0.24962897  1
  Co  Co124  1  0.12979921  0.87404031  0.62684813  1
  Co  Co125  1  0.87420320  0.62624410  0.37774712  1
  Co  Co126  1  0.12720627  0.37819137  0.37224461  1
  Co  Co127  1  0.37560314  0.62649439  0.87782934  1
