# generated using pymatgen
data_Fe45Co19
_symmetry_space_group_name_H-M   'P 1'
_cell_length_a   11.41588576
_cell_length_b   11.41566357
_cell_length_c   11.41534485
_cell_angle_alpha   89.99411726
_cell_angle_beta   90.00103311
_cell_angle_gamma   89.99296286
_symmetry_Int_Tables_number   1
_chemical_formula_structural   Fe45Co19
_chemical_formula_sum   'Fe90 Co38'
_cell_volume   1487.64670812
_cell_formula_units_Z   2
loop_
 _symmetry_equiv_pos_site_id
 _symmetry_equiv_pos_as_xyz
  1  'x, y, z'
loop_
 _atom_site_type_symbol
 _atom_site_label
 _atom_site_symmetry_multiplicity
 _atom_site_fract_x
 _atom_site_fract_y
 _atom_site_fract_z
 _atom_site_occupancy
  Fe  Fe0  1  0.49964379  0.25019924  0.75508164  1
  Fe  Fe1  1  0.12575494  0.12847277  0.12680295  1
  Fe  Fe2  1  0.00392025  0.49830140  0.49974359  1
  Fe  Fe3  1  0.12580983  0.87180181  0.87431702  1
  Fe  Fe4  1  0.24887471  -0.00084867  -0.00069995  1
  Fe  Fe5  1  0.25077278  0.00073230  0.24911114  1
  Fe  Fe6  1  0.00088386  -0.00001128  0.75120563  1
  Fe  Fe7  1  0.37392541  0.12464104  0.37575216  1
  Fe  Fe8  1  0.37457693  0.12527482  0.12219561  1
  Fe  Fe9  1  0.37259064  0.62452787  0.12529172  1
  Fe  Fe10  1  0.75039821  -0.00392725  0.00231117  1
  Fe  Fe11  1  0.62260796  0.37291604  0.37583424  1
  Fe  Fe12  1  0.25302808  0.75151293  0.25248031  1
  Fe  Fe13  1  0.74920658  -0.00052965  0.74914436  1
  Fe  Fe14  1  0.12751034  0.37585656  0.63058497  1
  Fe  Fe15  1  0.49992974  -0.00117401  -0.00095957  1
  Fe  Fe16  1  0.87433311  0.12324061  0.12508980  1
  Fe  Fe17  1  0.87547141  0.62279343  0.37543726  1
  Fe  Fe18  1  0.49693304  0.49715492  0.25013976  1
  Fe  Fe19  1  0.24708844  0.49971986  -0.00311199  1
  Fe  Fe20  1  0.74823420  0.49922368  0.25032081  1
  Fe  Fe21  1  0.62562177  0.12529242  0.37379231  1
  Fe  Fe22  1  0.62643715  0.87262855  0.62292499  1
  Fe  Fe23  1  0.87634864  0.37531105  0.37503255  1
  Fe  Fe24  1  0.87481160  0.12377110  0.37527655  1
  Fe  Fe25  1  0.87320456  0.12366316  0.87474201  1
  Fe  Fe26  1  0.87681913  0.37770559  0.12703555  1
  Fe  Fe27  1  0.12522970  0.37025929  0.37139186  1
  Fe  Fe28  1  0.49666974  0.75174406  0.00069279  1
  Fe  Fe29  1  0.00239730  0.00340243  0.50142439  1
  Fe  Fe30  1  0.12801407  0.87868782  0.37799008  1
  Fe  Fe31  1  0.00073646  0.00126011  0.24920620  1
  Fe  Fe32  1  0.87472238  0.38003575  0.87319505  1
  Fe  Fe33  1  0.62458164  0.87476207  0.87375284  1
  Fe  Fe34  1  0.87513430  0.37755821  0.62639299  1
  Fe  Fe35  1  0.25179540  0.49685354  0.25149429  1
  Fe  Fe36  1  0.62538853  0.12634773  0.12451899  1
  Fe  Fe37  1  0.00090061  0.74899074  0.49962814  1
  Fe  Fe38  1  0.50116529  0.49837193  0.00197705  1
  Fe  Fe39  1  0.49972141  0.50070281  0.74834088  1
  Fe  Fe40  1  0.12599535  0.87153586  0.12432612  1
  Fe  Fe41  1  0.75084030  0.75232661  0.24949317  1
  Fe  Fe42  1  0.49762629  0.74990512  0.74764115  1
  Fe  Fe43  1  0.49577555  0.75269801  0.25210265  1
  Fe  Fe44  1  0.25125142  0.25184448  -0.00352675  1
  Fe  Fe45  1  0.37048974  0.62386230  0.61881698  1
  Fe  Fe46  1  0.87696916  0.62462280  0.12660175  1
  Fe  Fe47  1  0.37598287  0.12562041  0.62734279  1
  Fe  Fe48  1  -0.00056181  0.25087836  0.75158582  1
  Fe  Fe49  1  0.50074619  0.00049299  0.50183677  1
  Fe  Fe50  1  -0.00014651  0.74787376  -0.00129664  1
  Fe  Fe51  1  0.24987261  0.00185380  0.74888601  1
  Fe  Fe52  1  -0.00048953  0.25114906  -0.00058234  1
  Fe  Fe53  1  0.37479456  0.62347540  0.87590814  1
  Fe  Fe54  1  0.50015939  -0.00190826  0.24906585  1
  Fe  Fe55  1  0.74910760  0.25258636  -0.00153396  1
  Fe  Fe56  1  0.62308726  0.62680580  0.37517627  1
  Fe  Fe57  1  0.50006857  0.25159358  -0.00311322  1
  Fe  Fe58  1  0.12637172  0.87419348  0.62350684  1
  Fe  Fe59  1  0.74723928  0.25304129  0.75122245  1
  Fe  Fe60  1  0.49576306  0.25256156  0.24847697  1
  Fe  Fe61  1  0.37412702  0.87634925  0.87399522  1
  Fe  Fe62  1  0.74751695  0.49908005  0.50070081  1
  Fe  Fe63  1  0.49921075  0.49978216  0.49871166  1
  Fe  Fe64  1  0.12797222  0.62312867  0.37637977  1
  Fe  Fe65  1  0.12493642  0.37306527  0.12764801  1
  Fe  Fe66  1  0.24845040  0.24728332  0.50093634  1
  Fe  Fe67  1  0.37491240  0.37421105  0.62439729  1
  Fe  Fe68  1  0.87438216  0.87549687  0.62366434  1
  Fe  Fe69  1  0.87585335  0.12569322  0.62589943  1
  Fe  Fe70  1  0.62492353  0.62487991  0.87493483  1
  Fe  Fe71  1  0.75189601  0.25089654  0.24932993  1
  Fe  Fe72  1  0.00440780  0.50166979  -0.00094331  1
  Fe  Fe73  1  -0.00120442  0.74677608  0.75057019  1
  Fe  Fe74  1  0.74831322  0.24982081  0.50147272  1
  Fe  Fe75  1  0.74741969  0.50005349  0.00144914  1
  Fe  Fe76  1  0.62678486  0.87492244  0.37801705  1
  Fe  Fe77  1  0.00240683  0.24915643  0.50054924  1
  Fe  Fe78  1  0.62498884  0.62618236  0.62276751  1
  Fe  Fe79  1  0.75239515  0.74746469  0.75079600  1
  Fe  Fe80  1  0.62348315  0.12667622  0.62732454  1
  Fe  Fe81  1  0.87646324  0.62166112  0.62461175  1
  Fe  Fe82  1  0.37252194  0.87509452  0.62065296  1
  Fe  Fe83  1  0.25072781  0.74688529  0.74929701  1
  Fe  Fe84  1  0.62327250  0.62725091  0.12641394  1
  Fe  Fe85  1  0.12607802  0.12743941  0.87263065  1
  Fe  Fe86  1  0.75247717  0.75186066  0.00067792  1
  Fe  Fe87  1  0.00108777  -0.00050865  -0.00084679  1
  Fe  Fe88  1  0.87299289  0.87733012  0.37637393  1
  Fe  Fe89  1  0.00186179  0.74846635  0.25210322  1
  Co  Co90  1  0.37495028  0.12219750  0.87527881  1
  Co  Co91  1  0.87962104  0.87388450  0.12624227  1
  Co  Co92  1  0.25094765  0.50277846  0.75140558  1
  Co  Co93  1  0.49842421  0.75038422  0.49939242  1
  Co  Co94  1  0.49962967  -0.00202962  0.74791730  1
  Co  Co95  1  0.87359393  0.62083440  0.87578307  1
  Co  Co96  1  0.74883081  -0.00199923  0.24765516  1
  Co  Co97  1  0.62234984  0.87289628  0.12439563  1
  Co  Co98  1  0.37601785  0.37823067  0.87428429  1
  Co  Co99  1  0.62400604  0.37842950  0.87420573  1
  Co  Co100  1  0.49979882  0.24701014  0.49963769  1
  Co  Co101  1  0.62087304  0.37382731  0.62421941  1
  Co  Co102  1  0.37340718  0.87897066  0.37951109  1
  Co  Co103  1  0.12507248  0.37341260  0.87111276  1
  Co  Co104  1  0.12630445  0.62473664  0.62328441  1
  Co  Co105  1  0.37381740  0.87639424  0.12434860  1
  Co  Co106  1  0.62608082  0.12230112  0.87584140  1
  Co  Co107  1  0.00371697  0.50310916  0.75197897  1
  Co  Co108  1  0.12385393  0.12664321  0.62939344  1
  Co  Co109  1  0.12891023  0.62689408  0.12625338  1
  Co  Co110  1  0.25379183  0.24942912  0.75233873  1
  Co  Co111  1  0.12518210  0.12682939  0.37174403  1
  Co  Co112  1  0.62411802  0.37325789  0.12637213  1
  Co  Co113  1  0.00269298  0.50137717  0.25023810  1
  Co  Co114  1  0.87567727  0.87594882  0.87422247  1
  Co  Co115  1  0.37505541  0.37261044  0.37942204  1
  Co  Co116  1  0.25315579  0.75020181  -0.00130023  1
  Co  Co117  1  0.37408283  0.62366708  0.37676102  1
  Co  Co118  1  0.74877242  0.00350431  0.50225314  1
  Co  Co119  1  0.12615984  0.62815958  0.87388965  1
  Co  Co120  1  0.24740479  0.49563746  0.49866770  1
  Co  Co121  1  0.37352216  0.37573663  0.12128598  1
  Co  Co122  1  0.24854836  0.00646345  0.50222033  1
  Co  Co123  1  0.75230421  0.74720576  0.50000450  1
  Co  Co124  1  0.74667017  0.50036120  0.74731983  1
  Co  Co125  1  0.24906255  0.74980558  0.49727357  1
  Co  Co126  1  0.25464552  0.25004602  0.24906937  1
  Co  Co127  1  -0.00384931  0.24854457  0.24874198  1
