# generated using pymatgen
data_Fe45Co19
_symmetry_space_group_name_H-M   'P 1'
_cell_length_a   11.41425328
_cell_length_b   11.41301300
_cell_length_c   11.41536339
_cell_angle_alpha   89.99672761
_cell_angle_beta   89.99920301
_cell_angle_gamma   89.99745347
_symmetry_Int_Tables_number   1
_chemical_formula_structural   Fe45Co19
_chemical_formula_sum   'Fe90 Co38'
_cell_volume   1487.09104027
_cell_formula_units_Z   2
loop_
 _symmetry_equiv_pos_site_id
 _symmetry_equiv_pos_as_xyz
  1  'x, y, z'
loop_
 _atom_site_type_symbol
 _atom_site_label
 _atom_site_symmetry_multiplicity
 _atom_site_fract_x
 _atom_site_fract_y
 _atom_site_fract_z
 _atom_site_occupancy
  Fe  Fe0  1  0.87628467  0.62315924  0.87446831  1
  Fe  Fe1  1  0.87229288  0.61870520  0.62602892  1
  Fe  Fe2  1  0.62414311  0.87411855  0.87584519  1
  Fe  Fe3  1  0.00069834  0.25113116  0.74334427  1
  Fe  Fe4  1  0.49878976  0.00327192  -0.00124576  1
  Fe  Fe5  1  0.12167054  0.37106344  0.37750996  1
  Fe  Fe6  1  0.74977144  0.00149250  0.25333844  1
  Fe  Fe7  1  0.12526851  0.87567993  0.62339945  1
  Fe  Fe8  1  0.37479810  0.87477988  0.62409225  1
  Fe  Fe9  1  -0.00303624  0.00328928  0.50082226  1
  Fe  Fe10  1  0.00220303  0.49777354  0.75141524  1
  Fe  Fe11  1  0.87571056  0.12869060  0.87195992  1
  Fe  Fe12  1  0.62925256  0.88056737  0.62153258  1
  Fe  Fe13  1  0.37614355  0.87533373  0.87401927  1
  Fe  Fe14  1  0.37582042  0.87666017  0.12579027  1
  Fe  Fe15  1  0.62777307  0.62045026  0.62459630  1
  Fe  Fe16  1  0.49957533  0.25127793  0.50748131  1
  Fe  Fe17  1  0.50269922  0.00207246  0.74735674  1
  Fe  Fe18  1  0.00281191  0.49857894  0.24702026  1
  Fe  Fe19  1  0.75034640  0.49622275  -0.00528181  1
  Fe  Fe20  1  0.50240313  0.00027065  0.25283970  1
  Fe  Fe21  1  0.87507468  0.87900120  0.12492230  1
  Fe  Fe22  1  0.87619223  0.12325780  0.12751181  1
  Fe  Fe23  1  -0.00178246  0.74625069  0.00467265  1
  Fe  Fe24  1  0.12319887  0.87352372  0.37706193  1
  Fe  Fe25  1  -0.00263828  0.74803565  0.24628150  1
  Fe  Fe26  1  0.37919198  0.37652620  0.37655510  1
  Fe  Fe27  1  0.25283563  0.24670920  -0.00151677  1
  Fe  Fe28  1  0.25054221  0.50103037  -0.00265151  1
  Fe  Fe29  1  0.49803583  0.74804974  0.00028010  1
  Fe  Fe30  1  0.50028613  0.74821508  0.74728610  1
  Fe  Fe31  1  0.87137957  0.87875266  0.62540971  1
  Fe  Fe32  1  0.62678855  0.87290737  0.37834975  1
  Fe  Fe33  1  0.12369692  0.87325631  0.87645306  1
  Fe  Fe34  1  0.12415208  0.62643494  0.87717642  1
  Fe  Fe35  1  0.62539244  0.87660717  0.12412650  1
  Fe  Fe36  1  0.50221842  0.74798893  0.24968290  1
  Fe  Fe37  1  0.12682640  0.62260873  0.62460007  1
  Fe  Fe38  1  0.37414906  0.37532920  0.12532096  1
  Fe  Fe39  1  -0.00294647  0.74791886  0.50280167  1
  Fe  Fe40  1  0.24812467  0.00098907  0.75012506  1
  Fe  Fe41  1  0.24926658  0.49827864  0.25293618  1
  Fe  Fe42  1  0.50141247  0.74770573  0.50281920  1
  Fe  Fe43  1  0.12908563  0.37429274  0.62182357  1
  Fe  Fe44  1  0.75143927  0.74903783  0.00169093  1
  Fe  Fe45  1  0.87372704  0.87148437  0.37547118  1
  Fe  Fe46  1  0.62463111  0.12481132  0.12508285  1
  Fe  Fe47  1  0.87586260  0.87357786  0.87508421  1
  Fe  Fe48  1  0.12385496  0.12377564  0.12616282  1
  Fe  Fe49  1  0.62673317  0.62275525  0.12477724  1
  Fe  Fe50  1  0.25187959  0.74705122  0.75033251  1
  Fe  Fe51  1  0.24920826  0.25042895  0.25101700  1
  Fe  Fe52  1  0.37644122  0.87466213  0.37657012  1
  Fe  Fe53  1  0.74480962  0.49549631  0.25419443  1
  Fe  Fe54  1  0.37166128  0.12645875  0.62808655  1
  Fe  Fe55  1  0.75087005  0.00253763  -0.00391838  1
  Fe  Fe56  1  0.12356775  0.87596911  0.12436557  1
  Fe  Fe57  1  0.12123470  0.12898758  0.37771920  1
  Fe  Fe58  1  0.25058219  0.74667893  0.50081323  1
  Fe  Fe59  1  -0.00103157  0.25080726  0.00356817  1
  Fe  Fe60  1  -0.00039870  0.49802436  0.49822630  1
  Fe  Fe61  1  0.75077554  0.25141050  0.00017709  1
  Fe  Fe62  1  0.62303492  0.37449859  0.12347803  1
  Fe  Fe63  1  0.62307024  0.12975255  0.87173611  1
  Fe  Fe64  1  0.87479748  0.37646244  0.12674447  1
  Fe  Fe65  1  0.74752598  0.49620694  0.49480097  1
  Fe  Fe66  1  0.00002594  0.00127842  0.74916145  1
  Fe  Fe67  1  0.37359769  0.62350198  0.12468214  1
  Fe  Fe68  1  0.25131832  0.00214439  0.49878757  1
  Fe  Fe69  1  0.25003807  0.74991966  0.25017685  1
  Fe  Fe70  1  -0.00144118  0.74920648  0.74724359  1
  Fe  Fe71  1  0.62302607  0.62361494  0.87577394  1
  Fe  Fe72  1  0.37869971  0.62255964  0.37751423  1
  Fe  Fe73  1  0.75381658  0.25356986  0.50187548  1
  Fe  Fe74  1  0.74979550  0.74936216  0.74901423  1
  Fe  Fe75  1  0.50063718  0.25131437  0.24743722  1
  Fe  Fe76  1  0.37704180  0.37497735  0.87324543  1
  Fe  Fe77  1  0.74927872  0.25513597  0.74874134  1
  Fe  Fe78  1  0.36963098  0.37937141  0.62449862  1
  Fe  Fe79  1  0.50047386  0.49850126  0.74911998  1
  Fe  Fe80  1  0.49730560  0.24917251  -0.00025474  1
  Fe  Fe81  1  0.12318184  0.62665212  0.37396982  1
  Fe  Fe82  1  0.12425990  0.12612931  0.87380669  1
  Fe  Fe83  1  0.12314497  0.37335448  0.87777479  1
  Fe  Fe84  1  0.24887563  0.00083856  0.25191524  1
  Fe  Fe85  1  0.62442839  0.13005552  0.37811292  1
  Fe  Fe86  1  0.87221724  0.62508213  0.37297698  1
  Fe  Fe87  1  0.87790630  0.13254134  0.37132553  1
  Fe  Fe88  1  0.25178472  0.00171392  -0.00047182  1
  Fe  Fe89  1  0.37730835  0.12645322  0.37416294  1
  Co  Co90  1  0.50244723  0.50004112  0.24990201  1
  Co  Co91  1  0.74970840  0.75183171  0.24705321  1
  Co  Co92  1  0.49880092  0.00305742  0.50118369  1
  Co  Co93  1  0.75084426  0.74769943  0.50404119  1
  Co  Co94  1  0.37725182  0.12487961  0.87025212  1
  Co  Co95  1  0.49939054  0.49950516  0.00149071  1
  Co  Co96  1  0.49971231  0.25267734  0.74413236  1
  Co  Co97  1  0.37705708  0.62365246  0.87404590  1
  Co  Co98  1  0.62890279  0.37733547  0.62562263  1
  Co  Co99  1  0.75383373  0.00435599  0.49327313  1
  Co  Co100  1  0.25287127  0.24982398  0.49734739  1
  Co  Co101  1  0.50399631  0.49869608  0.50088397  1
  Co  Co102  1  0.62574562  0.62794956  0.37547387  1
  Co  Co103  1  0.86990902  0.12290332  0.62891234  1
  Co  Co104  1  0.87263909  0.38159789  0.62672228  1
  Co  Co105  1  0.74821582  0.25133935  0.24786978  1
  Co  Co106  1  0.62090383  0.37274897  0.87536131  1
  Co  Co107  1  -0.00035839  -0.00066203  0.25430234  1
  Co  Co108  1  -0.00582918  0.25122816  0.50735905  1
  Co  Co109  1  0.24763219  0.50065173  0.49504961  1
  Co  Co110  1  0.12772195  0.12656281  0.62246686  1
  Co  Co111  1  -0.00109967  0.00207132  -0.00367755  1
  Co  Co112  1  0.12895290  0.37512317  0.12155051  1
  Co  Co113  1  0.24901060  0.25178476  0.75215691  1
  Co  Co114  1  0.24724682  0.50011332  0.75389813  1
  Co  Co115  1  0.87818359  0.37292431  0.37149498  1
  Co  Co116  1  0.74871241  0.49767009  0.75701553  1
  Co  Co117  1  0.87889659  0.37267614  0.87384803  1
  Co  Co118  1  0.37330317  0.62021323  0.62370460  1
  Co  Co119  1  0.86971403  0.61855123  0.12729648  1
  Co  Co120  1  0.74885048  -0.00107469  0.75654048  1
  Co  Co121  1  0.62077965  0.36923074  0.37615978  1
  Co  Co122  1  0.25194973  0.75101235  -0.00102125  1
  Co  Co123  1  0.00325687  0.25364091  0.24452165  1
  Co  Co124  1  0.37536979  0.12421232  0.12822807  1
  Co  Co125  1  0.12917838  0.62397671  0.12446745  1
  Co  Co126  1  0.63042781  0.12407628  0.62430745  1
  Co  Co127  1  -0.00066205  0.50033624  0.00163069  1
