# generated using pymatgen
data_Fe45Co19
_symmetry_space_group_name_H-M   'P 1'
_cell_length_a   11.41476748
_cell_length_b   11.41482044
_cell_length_c   11.41388885
_cell_angle_alpha   89.99600044
_cell_angle_beta   89.99650951
_cell_angle_gamma   89.99643332
_symmetry_Int_Tables_number   1
_chemical_formula_structural   Fe45Co19
_chemical_formula_sum   'Fe90 Co38'
_cell_volume   1487.20141465
_cell_formula_units_Z   2
loop_
 _symmetry_equiv_pos_site_id
 _symmetry_equiv_pos_as_xyz
  1  'x, y, z'
loop_
 _atom_site_type_symbol
 _atom_site_label
 _atom_site_symmetry_multiplicity
 _atom_site_fract_x
 _atom_site_fract_y
 _atom_site_fract_z
 _atom_site_occupancy
  Fe  Fe0  1  0.00005150  0.49521164  0.50164670  1
  Fe  Fe1  1  0.24888643  0.00040818  0.00025444  1
  Fe  Fe2  1  0.62772807  0.87295077  0.12913035  1
  Fe  Fe3  1  0.37582147  0.37555208  0.87535403  1
  Fe  Fe4  1  0.12343793  0.12827350  0.37460367  1
  Fe  Fe5  1  0.25070976  -0.00072803  0.74894013  1
  Fe  Fe6  1  0.75012262  -0.00208540  0.25722768  1
  Fe  Fe7  1  0.50201534  -0.00120158  0.00190666  1
  Fe  Fe8  1  0.62740047  0.12465284  0.12662674  1
  Fe  Fe9  1  0.37864833  0.37608181  0.37792829  1
  Fe  Fe10  1  0.62362048  0.62480564  0.87392098  1
  Fe  Fe11  1  0.12306817  0.62614938  0.87318201  1
  Fe  Fe12  1  0.12200648  0.37486476  0.87201926  1
  Fe  Fe13  1  0.62702231  0.62197365  0.12864191  1
  Fe  Fe14  1  0.37223942  0.87419555  0.12645551  1
  Fe  Fe15  1  0.87782277  0.37579768  0.87114865  1
  Fe  Fe16  1  0.62789465  0.37503215  0.62408187  1
  Fe  Fe17  1  0.24930245  0.50135111  0.74882882  1
  Fe  Fe18  1  0.50003217  0.75027926  0.50308548  1
  Fe  Fe19  1  0.37144214  0.12592565  0.12518828  1
  Fe  Fe20  1  0.37602133  0.62456232  0.87323030  1
  Fe  Fe21  1  0.37327609  0.62522173  0.12448901  1
  Fe  Fe22  1  0.12232828  0.12368400  0.87251541  1
  Fe  Fe23  1  0.86980963  0.12471705  0.62095900  1
  Fe  Fe24  1  0.87437085  0.37630105  0.12771162  1
  Fe  Fe25  1  0.74905579  0.24708367  0.74942712  1
  Fe  Fe26  1  0.25011532  0.24892775  0.74922673  1
  Fe  Fe27  1  0.87234568  0.62537186  0.61950192  1
  Fe  Fe28  1  -0.00019559  0.00029962  0.25112697  1
  Fe  Fe29  1  0.75017901  0.49576731  0.49220257  1
  Fe  Fe30  1  0.50008123  0.50050307  0.74605179  1
  Fe  Fe31  1  0.62469333  0.37558041  0.87474753  1
  Fe  Fe32  1  0.00040636  0.24964288  0.00270982  1
  Fe  Fe33  1  0.24889152  0.74968677  -0.00143446  1
  Fe  Fe34  1  0.12281464  0.87523072  0.87283813  1
  Fe  Fe35  1  0.74976357  -0.00125411  -0.00100037  1
  Fe  Fe36  1  0.12609084  0.87467062  0.12904042  1
  Fe  Fe37  1  0.62806709  0.62446328  0.62137773  1
  Fe  Fe38  1  0.87738045  0.62492431  0.87533644  1
  Fe  Fe39  1  0.24917355  0.49926358  0.49904528  1
  Fe  Fe40  1  -0.00099084  0.24821800  0.74384589  1
  Fe  Fe41  1  0.50172389  0.25080408  0.00127674  1
  Fe  Fe42  1  0.75270697  0.74579618  0.25845738  1
  Fe  Fe43  1  0.50512788  0.24980410  0.50049712  1
  Fe  Fe44  1  0.75067180  0.25140399  -0.00027012  1
  Fe  Fe45  1  0.24838855  0.49939901  -0.00131164  1
  Fe  Fe46  1  0.50260867  0.24735224  0.74810143  1
  Fe  Fe47  1  0.49845073  0.25122312  0.24945794  1
  Fe  Fe48  1  0.49864778  0.75107870  0.74524235  1
  Fe  Fe49  1  0.50136353  0.74951603  0.00137887  1
  Fe  Fe50  1  0.37615312  0.87493942  0.87405729  1
  Fe  Fe51  1  0.37671825  0.12500935  0.37487531  1
  Fe  Fe52  1  -0.00058675  -0.00034772  0.00326474  1
  Fe  Fe53  1  0.12887135  0.12715894  0.12805734  1
  Fe  Fe54  1  0.24815954  0.25039645  0.49826096  1
  Fe  Fe55  1  0.12474577  0.62546297  0.12767127  1
  Fe  Fe56  1  0.62624194  0.37997448  0.12884359  1
  Fe  Fe57  1  0.00008296  0.49947217  0.00183637  1
  Fe  Fe58  1  0.24904531  0.00020149  0.49677481  1
  Fe  Fe59  1  0.74950423  0.25298686  0.25413001  1
  Fe  Fe60  1  0.87712692  0.12380791  0.87493789  1
  Fe  Fe61  1  0.62911038  0.87876413  0.62558461  1
  Fe  Fe62  1  0.87543031  0.12912293  0.37795795  1
  Fe  Fe63  1  -0.00085916  0.75117395  0.00259738  1
  Fe  Fe64  1  0.49925491  0.74808789  0.25022937  1
  Fe  Fe65  1  0.87463954  0.87544857  0.87218339  1
  Fe  Fe66  1  0.37304318  0.37525666  0.12262026  1
  Fe  Fe67  1  0.37502866  0.37453091  0.62423290  1
  Fe  Fe68  1  0.75121053  0.50058684  -0.00039030  1
  Fe  Fe69  1  0.12944889  0.87316806  0.62253158  1
  Fe  Fe70  1  0.12604130  0.37289190  0.12901792  1
  Fe  Fe71  1  0.87196603  0.12459819  0.12667006  1
  Fe  Fe72  1  0.37659505  0.87595423  0.37559496  1
  Fe  Fe73  1  -0.00379029  0.50235175  0.25244080  1
  Fe  Fe74  1  0.87367381  0.87248632  0.12863272  1
  Fe  Fe75  1  0.50051766  0.00035311  0.24912128  1
  Fe  Fe76  1  0.12518013  0.37422494  0.62531470  1
  Fe  Fe77  1  0.00038203  0.00040415  0.50171795  1
  Fe  Fe78  1  0.24741175  0.74962054  0.25695588  1
  Fe  Fe79  1  0.37855318  0.62284507  0.37905295  1
  Fe  Fe80  1  0.74976417  0.74905325  -0.00084119  1
  Fe  Fe81  1  0.62622221  0.87548217  0.87149546  1
  Fe  Fe82  1  0.50404770  0.00022226  0.49924719  1
  Fe  Fe83  1  -0.00249268  0.74994382  0.74512904  1
  Fe  Fe84  1  0.25027485  0.49913575  0.25451522  1
  Fe  Fe85  1  0.75175877  0.50158698  0.74991399  1
  Fe  Fe86  1  0.37638442  0.12511138  0.87554639  1
  Fe  Fe87  1  0.37579810  0.12332817  0.62370408  1
  Fe  Fe88  1  0.12804164  0.62852892  0.62188571  1
  Fe  Fe89  1  0.86929121  0.87578697  0.62215499  1
  Co  Co90  1  0.12065546  0.62391796  0.37852875  1
  Co  Co91  1  0.50067735  0.49953666  0.50501601  1
  Co  Co92  1  0.74698563  0.75171237  0.49444181  1
  Co  Co93  1  0.49562623  0.50000239  0.24817749  1
  Co  Co94  1  0.62760787  0.12170112  0.62273897  1
  Co  Co95  1  0.61978587  0.62217555  0.37551153  1
  Co  Co96  1  0.37196139  0.62438410  0.62375375  1
  Co  Co97  1  0.87934684  0.87368174  0.37695547  1
  Co  Co98  1  0.62055865  0.37837525  0.37188548  1
  Co  Co99  1  0.00160662  0.25052437  0.50497644  1
  Co  Co100  1  0.62471862  0.12503973  0.87750499  1
  Co  Co101  1  0.50022163  0.00067406  0.74918315  1
  Co  Co102  1  -0.00046713  0.50362252  0.74434110  1
  Co  Co103  1  0.87198976  0.37450733  0.62492557  1
  Co  Co104  1  0.12056921  0.37345107  0.37367036  1
  Co  Co105  1  -0.00122685  0.24738602  0.24764262  1
  Co  Co106  1  0.74579151  0.25293472  0.49712591  1
  Co  Co107  1  0.87392113  0.62680994  0.12439396  1
  Co  Co108  1  0.00028495  0.75353844  0.50239092  1
  Co  Co109  1  0.62435115  0.12689888  0.37269684  1
  Co  Co110  1  -0.00112763  -0.00183620  0.74386486  1
  Co  Co111  1  0.75108029  0.74717345  0.74862470  1
  Co  Co112  1  0.88058593  0.62721491  0.38213897  1
  Co  Co113  1  0.12208915  0.87531319  0.37646447  1
  Co  Co114  1  0.25325508  0.25229922  0.25475043  1
  Co  Co115  1  0.00017527  0.74912354  0.25056107  1
  Co  Co116  1  0.88000421  0.36988667  0.37608456  1
  Co  Co117  1  0.62112261  0.87251304  0.37372161  1
  Co  Co118  1  0.37266801  0.87807660  0.62198545  1
  Co  Co119  1  0.25290604  0.74974954  0.49443483  1
  Co  Co120  1  0.12794201  0.12405344  0.62430812  1
  Co  Co121  1  0.24994112  -0.00024222  0.25351757  1
  Co  Co122  1  0.74778821  -0.00116649  0.49264765  1
  Co  Co123  1  0.24746933  0.25047023  -0.00282162  1
  Co  Co124  1  0.50036077  0.50128015  0.00109761  1
  Co  Co125  1  0.75038287  0.00381125  0.75175823  1
  Co  Co126  1  0.75583219  0.50264907  0.25731432  1
  Co  Co127  1  0.25192687  0.75091020  0.75020879  1
