# generated using pymatgen
data_Fe45Co19
_symmetry_space_group_name_H-M   'P 1'
_cell_length_a   11.41607450
_cell_length_b   11.41455651
_cell_length_c   11.41555647
_cell_angle_alpha   89.99862596
_cell_angle_beta   89.99534633
_cell_angle_gamma   90.00098697
_symmetry_Int_Tables_number   1
_chemical_formula_structural   Fe45Co19
_chemical_formula_sum   'Fe90 Co38'
_cell_volume   1487.55462387
_cell_formula_units_Z   2
loop_
 _symmetry_equiv_pos_site_id
 _symmetry_equiv_pos_as_xyz
  1  'x, y, z'
loop_
 _atom_site_type_symbol
 _atom_site_label
 _atom_site_symmetry_multiplicity
 _atom_site_fract_x
 _atom_site_fract_y
 _atom_site_fract_z
 _atom_site_occupancy
  Fe  Fe0  1  0.50646789  0.74946253  0.24815576  1
  Fe  Fe1  1  0.00296012  0.24968801  0.74907944  1
  Fe  Fe2  1  0.49846579  0.49839772  0.75241856  1
  Fe  Fe3  1  0.24858110  0.50118721  0.24885568  1
  Fe  Fe4  1  0.62540136  0.62713482  0.62586701  1
  Fe  Fe5  1  0.49765741  0.00092572  -0.00198124  1
  Fe  Fe6  1  -0.00009416  0.50129290  0.50119939  1
  Fe  Fe7  1  0.74857554  -0.00109213  0.74879258  1
  Fe  Fe8  1  0.50139839  0.49824325  0.25205370  1
  Fe  Fe9  1  0.74964179  0.49978170  0.24932876  1
  Fe  Fe10  1  0.37543967  0.87265930  0.37358258  1
  Fe  Fe11  1  0.25068654  0.00042983  0.74678008  1
  Fe  Fe12  1  0.63134713  0.87477639  0.37745284  1
  Fe  Fe13  1  0.00116557  0.50025396  0.25253320  1
  Fe  Fe14  1  0.37552273  0.62662743  0.37246395  1
  Fe  Fe15  1  0.24976902  0.50139356  0.50192513  1
  Fe  Fe16  1  0.87486975  0.12515540  0.87266720  1
  Fe  Fe17  1  0.50043630  -0.00176070  0.75146384  1
  Fe  Fe18  1  0.12623472  0.37337611  0.37771652  1
  Fe  Fe19  1  -0.00124377  0.25105316  -0.00051235  1
  Fe  Fe20  1  0.12226610  0.12183280  0.62014480  1
  Fe  Fe21  1  0.25173055  0.50609543  0.00247494  1
  Fe  Fe22  1  -0.00270241  0.74949613  0.49939463  1
  Fe  Fe23  1  0.25051206  0.24848594  0.50280768  1
  Fe  Fe24  1  0.25232941  0.75022260  0.50131172  1
  Fe  Fe25  1  0.12850214  0.37381098  0.87466001  1
  Fe  Fe26  1  0.24975000  -0.00087409  0.24903969  1
  Fe  Fe27  1  0.12918108  0.62889061  0.87318457  1
  Fe  Fe28  1  0.49801149  0.25016504  -0.00096427  1
  Fe  Fe29  1  0.74884319  0.49847486  0.75015867  1
  Fe  Fe30  1  0.87399024  0.37480363  0.37502499  1
  Fe  Fe31  1  0.49918562  0.25112318  0.25062735  1
  Fe  Fe32  1  -0.00272028  -0.00161706  0.25558294  1
  Fe  Fe33  1  0.74906882  0.25299579  0.75131485  1
  Fe  Fe34  1  0.37197588  0.12593456  0.87389508  1
  Fe  Fe35  1  0.37431028  0.37527262  0.12559406  1
  Fe  Fe36  1  0.87078678  0.87403561  0.62231406  1
  Fe  Fe37  1  0.49997319  0.24987096  0.49900444  1
  Fe  Fe38  1  0.37392927  0.37548331  0.37687840  1
  Fe  Fe39  1  0.24988955  -0.00093981  0.00246147  1
  Fe  Fe40  1  0.12590840  0.62565649  0.37688578  1
  Fe  Fe41  1  0.74918722  0.25144540  0.24925938  1
  Fe  Fe42  1  0.37818276  0.87274702  0.12484048  1
  Fe  Fe43  1  0.62570688  0.87413984  0.87743416  1
  Fe  Fe44  1  0.62430506  0.12371854  0.12433058  1
  Fe  Fe45  1  -0.00122610  -0.00155003  0.74866323  1
  Fe  Fe46  1  0.75196673  0.24849653  0.50111142  1
  Fe  Fe47  1  -0.00066516  0.50040914  -0.00208631  1
  Fe  Fe48  1  0.87327745  0.62608882  0.87257740  1
  Fe  Fe49  1  0.87930139  0.62856850  0.12741582  1
  Fe  Fe50  1  0.12552234  0.87790597  0.37931696  1
  Fe  Fe51  1  0.62311343  0.12432445  0.62661412  1
  Fe  Fe52  1  0.12721576  0.87302895  0.87552868  1
  Fe  Fe53  1  0.12607933  0.12369545  0.87428799  1
  Fe  Fe54  1  0.87427268  0.87443513  0.87583779  1
  Fe  Fe55  1  -0.00119676  0.00041267  -0.00102342  1
  Fe  Fe56  1  0.62488749  0.37684081  0.12296555  1
  Fe  Fe57  1  0.12402885  0.87576567  0.62164147  1
  Fe  Fe58  1  0.12400000  0.12375344  0.12787513  1
  Fe  Fe59  1  0.74928981  0.75142685  0.00487097  1
  Fe  Fe60  1  0.75330103  0.25354616  -0.00124833  1
  Fe  Fe61  1  0.24591375  0.74922703  0.24718742  1
  Fe  Fe62  1  0.75023213  0.50121531  0.50040286  1
  Fe  Fe63  1  0.25017424  0.24796991  0.00319686  1
  Fe  Fe64  1  0.50190395  0.75090338  0.75093906  1
  Fe  Fe65  1  0.50088148  0.50181650  0.49862560  1
  Fe  Fe66  1  0.50139327  -0.00137272  0.49853612  1
  Fe  Fe67  1  0.37607332  0.62618208  0.62571375  1
  Fe  Fe68  1  0.62338189  0.37521835  0.62353092  1
  Fe  Fe69  1  0.62664402  0.62469221  0.87708659  1
  Fe  Fe70  1  0.00186850  0.24913871  0.25422826  1
  Fe  Fe71  1  0.62599586  0.12602097  0.87553609  1
  Fe  Fe72  1  0.25007331  0.49877980  0.74682981  1
  Fe  Fe73  1  0.49505875  0.50291092  -0.00283553  1
  Fe  Fe74  1  -0.00097338  0.74991002  0.74885510  1
  Fe  Fe75  1  0.37204989  0.87049341  0.87658954  1
  Fe  Fe76  1  0.11958322  0.87183781  0.12308274  1
  Fe  Fe77  1  0.37805784  0.87533300  0.62372104  1
  Fe  Fe78  1  0.00315133  0.50233986  0.74890923  1
  Fe  Fe79  1  0.87271724  0.62861986  0.37338890  1
  Fe  Fe80  1  0.50065051  0.00083352  0.25156870  1
  Fe  Fe81  1  0.62693481  0.62641815  0.37430342  1
  Fe  Fe82  1  0.75504355  0.49658361  -0.00007286  1
  Fe  Fe83  1  0.37183325  0.12408507  0.37440706  1
  Fe  Fe84  1  0.49692004  0.25316994  0.75164539  1
  Fe  Fe85  1  0.75246200  -0.00094102  0.00302491  1
  Fe  Fe86  1  0.12380584  0.37609521  0.12509530  1
  Fe  Fe87  1  0.62853894  0.12422605  0.37370604  1
  Fe  Fe88  1  0.87597446  0.12528440  0.12744221  1
  Fe  Fe89  1  0.87760567  0.37582730  0.62631939  1
  Co  Co90  1  0.36982788  0.37407579  0.87528493  1
  Co  Co91  1  0.75166568  -0.00336780  0.24581645  1
  Co  Co92  1  0.87510631  0.12631868  0.62911436  1
  Co  Co93  1  0.37962841  0.12286776  0.62424473  1
  Co  Co94  1  -0.00005931  0.74823127  -0.00560418  1
  Co  Co95  1  0.62037446  0.87984122  0.12255591  1
  Co  Co96  1  0.25019783  0.24729205  0.74492793  1
  Co  Co97  1  0.24965086  0.25026993  0.24974528  1
  Co  Co98  1  0.11850979  0.62560797  0.12587408  1
  Co  Co99  1  0.37616513  0.37670373  0.62294476  1
  Co  Co100  1  0.88118269  0.87158495  0.12600421  1
  Co  Co101  1  0.86774300  0.87237346  0.37632506  1
  Co  Co102  1  0.87139008  0.12396371  0.37243291  1
  Co  Co103  1  0.62590433  0.87463147  0.62264995  1
  Co  Co104  1  0.00230186  0.75227009  0.25683419  1
  Co  Co105  1  0.74917973  0.75105106  0.75043637  1
  Co  Co106  1  0.37588930  0.12347328  0.12655335  1
  Co  Co107  1  0.75069926  0.00430727  0.50272213  1
  Co  Co108  1  0.12512238  0.62774612  0.62353665  1
  Co  Co109  1  0.37165101  0.62918352  0.87118868  1
  Co  Co110  1  0.12781548  0.12235439  0.37759244  1
  Co  Co111  1  0.24977548  0.75302713  0.74455771  1
  Co  Co112  1  0.62528597  0.61894102  0.12208156  1
  Co  Co113  1  -0.00727347  0.00063004  0.49738285  1
  Co  Co114  1  0.87446477  0.62405931  0.62668981  1
  Co  Co115  1  0.25406300  -0.00137304  0.50133428  1
  Co  Co116  1  0.87782721  0.37517823  0.12888955  1
  Co  Co117  1  0.74616705  0.75199077  0.24372310  1
  Co  Co118  1  0.87874338  0.37518958  0.86974216  1
  Co  Co119  1  0.37813570  0.62712096  0.13047811  1
  Co  Co120  1  0.12339437  0.37400403  0.62329128  1
  Co  Co121  1  0.62361156  0.37667163  0.87769924  1
  Co  Co122  1  -0.00286483  0.24839511  0.49757714  1
  Co  Co123  1  0.50027000  0.74967582  0.49918460  1
  Co  Co124  1  0.24965097  0.74754390  0.00526524  1
  Co  Co125  1  0.62652765  0.37471890  0.37648923  1
  Co  Co126  1  0.74924024  0.74622181  0.50198478  1
  Co  Co127  1  0.50053072  0.74700118  -0.00036629  1
