# generated using pymatgen
data_Fe45Co19
_symmetry_space_group_name_H-M   'P 1'
_cell_length_a   11.41424296
_cell_length_b   11.41454376
_cell_length_c   11.41532570
_cell_angle_alpha   90.00286145
_cell_angle_beta   89.99448673
_cell_angle_gamma   89.99803244
_symmetry_Int_Tables_number   1
_chemical_formula_structural   Fe45Co19
_chemical_formula_sum   'Fe90 Co38'
_cell_volume   1487.28423465
_cell_formula_units_Z   2
loop_
 _symmetry_equiv_pos_site_id
 _symmetry_equiv_pos_as_xyz
  1  'x, y, z'
loop_
 _atom_site_type_symbol
 _atom_site_label
 _atom_site_symmetry_multiplicity
 _atom_site_fract_x
 _atom_site_fract_y
 _atom_site_fract_z
 _atom_site_occupancy
  Fe  Fe0  1  0.87524301  0.37106801  0.13097292  1
  Fe  Fe1  1  0.49806703  -0.00071256  0.00007906  1
  Fe  Fe2  1  0.62622744  0.37918478  0.62321517  1
  Fe  Fe3  1  -0.00090963  0.49849901  0.74996092  1
  Fe  Fe4  1  0.50443681  0.74893560  0.74884194  1
  Fe  Fe5  1  0.74922641  0.74986742  0.25031501  1
  Fe  Fe6  1  0.50126938  0.49970005  0.25161627  1
  Fe  Fe7  1  0.62395330  0.62582684  0.12319061  1
  Fe  Fe8  1  0.87523654  0.12752817  0.37493623  1
  Fe  Fe9  1  0.62583607  0.87546630  0.87466633  1
  Fe  Fe10  1  0.00177761  0.24948544  -0.00231449  1
  Fe  Fe11  1  0.37091547  0.87209098  0.12406472  1
  Fe  Fe12  1  0.87514438  0.87237019  0.62657989  1
  Fe  Fe13  1  0.63443154  0.37639670  0.37446002  1
  Fe  Fe14  1  0.74947619  0.50227663  0.75051839  1
  Fe  Fe15  1  0.75144557  0.00240084  0.75175308  1
  Fe  Fe16  1  0.24863690  0.75095125  0.50083084  1
  Fe  Fe17  1  0.50144718  0.25017975  0.75116660  1
  Fe  Fe18  1  0.50024431  0.00023105  0.24824028  1
  Fe  Fe19  1  0.37399730  0.62861384  0.12417788  1
  Fe  Fe20  1  0.12457871  0.37680450  0.62387825  1
  Fe  Fe21  1  -0.00064365  0.49873316  0.00310926  1
  Fe  Fe22  1  0.62606708  0.37510435  0.87737150  1
  Fe  Fe23  1  0.37622612  0.12446229  0.37463923  1
  Fe  Fe24  1  0.87748806  0.12914426  0.62737170  1
  Fe  Fe25  1  0.50512108  0.24712033  0.25168423  1
  Fe  Fe26  1  0.75195067  0.00137982  0.50102763  1
  Fe  Fe27  1  0.62625309  0.37409518  0.12451959  1
  Fe  Fe28  1  -0.00079624  0.75307707  0.25062413  1
  Fe  Fe29  1  0.24745685  0.74913775  0.74785716  1
  Fe  Fe30  1  -0.00540739  0.49475765  0.49591394  1
  Fe  Fe31  1  0.24742961  0.00226968  0.00272603  1
  Fe  Fe32  1  0.12553161  0.62134286  0.37336701  1
  Fe  Fe33  1  0.25014029  -0.00069139  0.50275233  1
  Fe  Fe34  1  0.12450887  0.37448695  0.12921533  1
  Fe  Fe35  1  0.37173987  0.37260804  0.37229900  1
  Fe  Fe36  1  0.24586874  0.24539716  0.24989019  1
  Fe  Fe37  1  0.49996321  0.24827037  -0.00064207  1
  Fe  Fe38  1  0.75295450  0.49876490  0.00203393  1
  Fe  Fe39  1  0.62538167  0.12358360  0.12105524  1
  Fe  Fe40  1  0.74683659  0.74790990  0.50219812  1
  Fe  Fe41  1  0.37569723  0.87387502  0.62634899  1
  Fe  Fe42  1  0.87322250  0.62426536  0.37291817  1
  Fe  Fe43  1  0.50286071  0.25169538  0.49807375  1
  Fe  Fe44  1  0.12481335  0.87713000  0.37482076  1
  Fe  Fe45  1  0.37555429  0.12648345  0.62430302  1
  Fe  Fe46  1  0.00062792  0.75115905  0.49927505  1
  Fe  Fe47  1  0.75524375  0.00145771  -0.00438002  1
  Fe  Fe48  1  -0.00002305  0.75542787  0.00052589  1
  Fe  Fe49  1  0.25119635  0.50144658  0.74948087  1
  Fe  Fe50  1  0.12252691  0.62423215  0.87535882  1
  Fe  Fe51  1  0.24727042  0.24854013  0.74979969  1
  Fe  Fe52  1  0.37660707  0.62669404  0.87584330  1
  Fe  Fe53  1  -0.00139246  0.25510752  0.49611799  1
  Fe  Fe54  1  0.87523517  0.37244490  0.87301055  1
  Fe  Fe55  1  -0.00153789  0.00024534  0.75279382  1
  Fe  Fe56  1  0.75090803  0.00240793  0.25147644  1
  Fe  Fe57  1  0.24991269  0.50049208  0.00268251  1
  Fe  Fe58  1  0.12353853  0.12388527  0.62486877  1
  Fe  Fe59  1  0.37301629  0.37403605  0.87578809  1
  Fe  Fe60  1  0.49969979  -0.00140003  0.50094121  1
  Fe  Fe61  1  0.25233572  0.49948694  0.49907449  1
  Fe  Fe62  1  0.50055462  0.75246066  0.24979929  1
  Fe  Fe63  1  0.49955201  0.00150022  0.75150156  1
  Fe  Fe64  1  0.12640684  0.37592258  0.87520401  1
  Fe  Fe65  1  0.37163666  0.12593488  0.87625782  1
  Fe  Fe66  1  0.37375632  0.87370390  0.87531639  1
  Fe  Fe67  1  0.24684397  0.24892956  0.49833775  1
  Fe  Fe68  1  0.87633386  0.62768518  0.12463860  1
  Fe  Fe69  1  0.37453584  0.87582445  0.37519073  1
  Fe  Fe70  1  0.12521307  0.87668936  0.87299656  1
  Fe  Fe71  1  0.62667699  0.87622620  0.37669245  1
  Fe  Fe72  1  0.74808580  0.24863483  0.75013263  1
  Fe  Fe73  1  0.38073162  0.62262769  0.62302280  1
  Fe  Fe74  1  0.12267342  0.62271574  0.62331137  1
  Fe  Fe75  1  0.24838583  0.00280868  0.24811356  1
  Fe  Fe76  1  0.49889198  0.50077126  -0.00049799  1
  Fe  Fe77  1  0.62810266  0.87668791  0.12373631  1
  Fe  Fe78  1  0.37661399  0.37560579  0.62531063  1
  Fe  Fe79  1  0.87775945  0.62481776  0.62622183  1
  Fe  Fe80  1  0.87806230  0.12590522  0.12349313  1
  Fe  Fe81  1  0.37773352  0.62604924  0.37594947  1
  Fe  Fe82  1  -0.00252804  -0.00144474  0.50048387  1
  Fe  Fe83  1  0.37495513  0.37164244  0.12655104  1
  Fe  Fe84  1  -0.00131629  -0.00180310  0.24841358  1
  Fe  Fe85  1  0.75027081  0.75118430  -0.00097908  1
  Fe  Fe86  1  0.87652053  0.62682963  0.87542461  1
  Fe  Fe87  1  0.12569541  0.62782245  0.12731658  1
  Fe  Fe88  1  0.62361745  0.12391563  0.62393119  1
  Fe  Fe89  1  0.74651067  0.74666250  0.74770864  1
  Co  Co90  1  0.50257408  0.75381960  0.50085486  1
  Co  Co91  1  0.74685343  0.24354251  0.24785482  1
  Co  Co92  1  0.00261006  0.75041482  0.74961601  1
  Co  Co93  1  0.12315681  0.12073425  0.37771964  1
  Co  Co94  1  -0.00280456  0.50053918  0.25024322  1
  Co  Co95  1  0.12676701  0.87356159  0.12684359  1
  Co  Co96  1  0.61965084  0.61811296  0.62103845  1
  Co  Co97  1  0.50071306  0.49887951  0.75402402  1
  Co  Co98  1  0.25081451  0.00023567  0.74811457  1
  Co  Co99  1  0.75011692  0.50380248  0.24547505  1
  Co  Co100  1  -0.00177373  -0.00366526  -0.00166113  1
  Co  Co101  1  0.75473996  0.50269666  0.50141672  1
  Co  Co102  1  0.11935476  0.12519981  0.12340742  1
  Co  Co103  1  0.49948174  0.49433027  0.49377921  1
  Co  Co104  1  0.62509082  0.12517213  0.87744928  1
  Co  Co105  1  0.12210246  0.87664869  0.62527670  1
  Co  Co106  1  0.12534417  0.12334452  0.87561001  1
  Co  Co107  1  0.87295960  0.37384134  0.62772719  1
  Co  Co108  1  0.62394975  0.62509193  0.37607100  1
  Co  Co109  1  0.75205425  0.25042671  0.00098393  1
  Co  Co110  1  0.00250563  0.24941952  0.25589744  1
  Co  Co111  1  0.25017174  0.74992795  0.25440802  1
  Co  Co112  1  0.86709959  0.37396409  0.36878780  1
  Co  Co113  1  0.24705513  0.74955587  -0.00332141  1
  Co  Co114  1  0.50168591  0.75241956  0.00084716  1
  Co  Co115  1  0.24743594  0.25032351  0.00219677  1
  Co  Co116  1  0.87377233  0.87091065  0.87148513  1
  Co  Co117  1  0.62561970  0.62413824  0.87849304  1
  Co  Co118  1  0.75148901  0.24802977  0.50191340  1
  Co  Co119  1  0.00436642  0.25150887  0.74961535  1
  Co  Co120  1  0.62674970  0.87919303  0.62551355  1
  Co  Co121  1  0.37611198  0.12772716  0.12569077  1
  Co  Co122  1  0.12799523  0.37922226  0.37177496  1
  Co  Co123  1  0.62448532  0.12190901  0.37842620  1
  Co  Co124  1  0.25298294  0.50179680  0.24728137  1
  Co  Co125  1  0.87308702  0.87397148  0.37628048  1
  Co  Co126  1  0.87198825  0.87584399  0.12577726  1
  Co  Co127  1  0.87730030  0.12986723  0.87422327  1
