# generated using pymatgen
data_Fe45Co19
_symmetry_space_group_name_H-M   'P 1'
_cell_length_a   11.41530662
_cell_length_b   11.41557080
_cell_length_c   11.41549223
_cell_angle_alpha   90.00097650
_cell_angle_beta   89.98947842
_cell_angle_gamma   90.01095535
_symmetry_Int_Tables_number   1
_chemical_formula_structural   Fe45Co19
_chemical_formula_sum   'Fe90 Co38'
_cell_volume   1487.57831987
_cell_formula_units_Z   2
loop_
 _symmetry_equiv_pos_site_id
 _symmetry_equiv_pos_as_xyz
  1  'x, y, z'
loop_
 _atom_site_type_symbol
 _atom_site_label
 _atom_site_symmetry_multiplicity
 _atom_site_fract_x
 _atom_site_fract_y
 _atom_site_fract_z
 _atom_site_occupancy
  Fe  Fe0  1  0.74574147  -0.00146562  0.49795494  1
  Fe  Fe1  1  0.62463322  0.87243719  0.87396899  1
  Fe  Fe2  1  0.62392450  0.62555214  0.62477178  1
  Fe  Fe3  1  0.00234002  0.75268247  0.74635137  1
  Fe  Fe4  1  0.49795931  0.75146567  0.74706709  1
  Fe  Fe5  1  0.00001834  0.50068964  0.75016849  1
  Fe  Fe6  1  0.62412398  0.37307090  0.62715328  1
  Fe  Fe7  1  0.00178871  0.24974815  0.50061762  1
  Fe  Fe8  1  0.49819940  0.49984233  0.74910392  1
  Fe  Fe9  1  0.00077534  -0.00058846  -0.00281849  1
  Fe  Fe10  1  0.37468044  0.37527387  0.87374300  1
  Fe  Fe11  1  0.00022668  0.24931638  0.00009746  1
  Fe  Fe12  1  0.12589841  0.12247560  0.62545108  1
  Fe  Fe13  1  0.24960801  0.50017343  0.00009795  1
  Fe  Fe14  1  0.24979674  -0.00039107  -0.00198392  1
  Fe  Fe15  1  0.50476386  0.00362170  0.49992223  1
  Fe  Fe16  1  0.62608293  0.12419427  0.12504551  1
  Fe  Fe17  1  0.87556216  0.12538076  0.37594190  1
  Fe  Fe18  1  0.00053771  0.50103338  0.00055673  1
  Fe  Fe19  1  0.12602403  0.62625931  0.12713082  1
  Fe  Fe20  1  0.12846667  0.62418380  0.62497529  1
  Fe  Fe21  1  0.12359602  0.87425659  0.37763693  1
  Fe  Fe22  1  -0.00035567  0.24936799  0.74822191  1
  Fe  Fe23  1  0.87524028  0.12428644  0.12436930  1
  Fe  Fe24  1  0.12651711  0.62737452  0.37229069  1
  Fe  Fe25  1  0.37747155  0.87463954  0.37604937  1
  Fe  Fe26  1  0.25404490  0.49907193  0.49612993  1
  Fe  Fe27  1  0.50375674  0.00113537  0.74592945  1
  Fe  Fe28  1  0.25026671  0.24737098  0.00031932  1
  Fe  Fe29  1  0.74849082  0.25031028  0.49927503  1
  Fe  Fe30  1  0.24847893  -0.00375594  0.74944044  1
  Fe  Fe31  1  0.12613719  0.37471574  0.87390897  1
  Fe  Fe32  1  0.74874638  0.24631929  0.75413341  1
  Fe  Fe33  1  0.37721077  0.12238476  0.87335773  1
  Fe  Fe34  1  0.12530372  0.87575444  0.12415525  1
  Fe  Fe35  1  0.12320873  0.12445688  0.12691925  1
  Fe  Fe36  1  0.50065990  -0.00263583  0.00053326  1
  Fe  Fe37  1  0.62557115  0.87534054  0.12584143  1
  Fe  Fe38  1  0.25202823  0.75346878  -0.00059267  1
  Fe  Fe39  1  0.74985103  -0.00182684  0.25360079  1
  Fe  Fe40  1  0.75180703  0.49692220  0.25141586  1
  Fe  Fe41  1  0.75010001  0.50229070  0.75038419  1
  Fe  Fe42  1  0.74959801  0.00011056  -0.00413431  1
  Fe  Fe43  1  0.37275204  0.37426086  0.12732892  1
  Fe  Fe44  1  0.87409494  0.37552814  0.62462093  1
  Fe  Fe45  1  0.62277837  0.37545469  0.87506587  1
  Fe  Fe46  1  0.50116981  0.00258836  0.25272950  1
  Fe  Fe47  1  0.12560367  0.62777471  0.87513269  1
  Fe  Fe48  1  0.25176864  0.75394458  0.74846108  1
  Fe  Fe49  1  0.75257133  0.25167737  0.25001295  1
  Fe  Fe50  1  0.74936571  0.75096597  0.49960736  1
  Fe  Fe51  1  0.62450822  0.62657833  0.37379260  1
  Fe  Fe52  1  0.87645779  0.62812709  0.87590132  1
  Fe  Fe53  1  0.37562379  0.62588462  0.87566791  1
  Fe  Fe54  1  0.75295382  0.75285917  0.24882034  1
  Fe  Fe55  1  0.87215931  0.12339669  0.62708359  1
  Fe  Fe56  1  0.74966904  0.24800660  -0.00240669  1
  Fe  Fe57  1  0.62526057  0.37619421  0.12393331  1
  Fe  Fe58  1  -0.00261162  0.75291417  0.24856060  1
  Fe  Fe59  1  0.37418245  0.87703188  0.12610834  1
  Fe  Fe60  1  0.25281342  0.24935759  0.74724095  1
  Fe  Fe61  1  0.87558912  0.37462527  0.87590416  1
  Fe  Fe62  1  0.49874228  0.75035103  0.24847105  1
  Fe  Fe63  1  0.62483167  0.62485456  0.12410376  1
  Fe  Fe64  1  0.25225149  0.74988715  0.49987483  1
  Fe  Fe65  1  0.49668721  0.49912053  0.25168207  1
  Fe  Fe66  1  0.62242307  0.62715526  0.87719687  1
  Fe  Fe67  1  -0.00234774  0.49672244  0.25038368  1
  Fe  Fe68  1  0.87485012  0.62473669  0.37521630  1
  Fe  Fe69  1  0.75068699  0.50238112  -0.00102529  1
  Fe  Fe70  1  0.12549724  0.37333437  0.12729086  1
  Fe  Fe71  1  0.87196334  0.87501722  0.62564432  1
  Fe  Fe72  1  0.00156871  0.50013577  0.49857750  1
  Fe  Fe73  1  0.12776788  0.37798009  0.62655424  1
  Fe  Fe74  1  0.37316407  0.62568376  0.12597950  1
  Fe  Fe75  1  0.49924767  0.74955075  0.50163742  1
  Fe  Fe76  1  0.87502233  0.62431662  0.62340367  1
  Fe  Fe77  1  0.87577866  0.87341200  0.87420040  1
  Fe  Fe78  1  0.74818768  0.49935589  0.49999845  1
  Fe  Fe79  1  0.49924213  0.25079496  0.00038655  1
  Fe  Fe80  1  0.62108198  0.37122342  0.37543825  1
  Fe  Fe81  1  0.24999360  0.00211500  0.49822471  1
  Fe  Fe82  1  0.12815232  0.37039103  0.37281664  1
  Fe  Fe83  1  -0.00057343  -0.00092018  0.25222177  1
  Fe  Fe84  1  -0.00037249  -0.00024376  0.50168292  1
  Fe  Fe85  1  0.37568885  0.12364010  0.12477365  1
  Fe  Fe86  1  0.24950605  0.00154402  0.25300699  1
  Fe  Fe87  1  0.49640063  0.49923003  0.49798012  1
  Fe  Fe88  1  0.12413509  0.12409234  0.87232250  1
  Fe  Fe89  1  0.37599611  0.13144176  0.37653138  1
  Co  Co90  1  0.24965926  0.24471801  0.24778642  1
  Co  Co91  1  0.12718253  0.87531090  0.62066109  1
  Co  Co92  1  0.37600393  0.87858382  0.62203289  1
  Co  Co93  1  0.37749897  0.87804567  0.87319914  1
  Co  Co94  1  -0.00007322  0.74815830  0.50175137  1
  Co  Co95  1  0.74989489  0.75020441  0.00180558  1
  Co  Co96  1  0.00060786  -0.00300666  0.74811590  1
  Co  Co97  1  0.25102610  0.50090292  0.75236329  1
  Co  Co98  1  0.25233297  0.49925408  0.25214985  1
  Co  Co99  1  -0.00271295  0.25055342  0.25113016  1
  Co  Co100  1  0.62641915  0.87430302  0.62520327  1
  Co  Co101  1  0.37407868  0.12168527  0.62510883  1
  Co  Co102  1  0.87443243  0.62260532  0.12656829  1
  Co  Co103  1  0.50067629  0.24905269  0.24573247  1
  Co  Co104  1  0.49857964  0.24880491  0.74874145  1
  Co  Co105  1  0.49782038  0.49981382  0.00143195  1
  Co  Co106  1  0.24843586  0.24957217  0.50387633  1
  Co  Co107  1  0.37523036  0.36791480  0.37435891  1
  Co  Co108  1  0.74958285  0.74758524  0.74955303  1
  Co  Co109  1  0.49975584  0.24810605  0.50601298  1
  Co  Co110  1  0.37349326  0.62331070  0.62525447  1
  Co  Co111  1  0.37474457  0.62817151  0.37310325  1
  Co  Co112  1  0.62258524  0.87199094  0.37452387  1
  Co  Co113  1  0.87459685  0.87920946  0.12203890  1
  Co  Co114  1  0.61928341  0.12437492  0.87667742  1
  Co  Co115  1  0.74845837  0.00188676  0.75372447  1
  Co  Co116  1  0.25009248  0.75459099  0.25019491  1
  Co  Co117  1  0.62863025  0.12682241  0.62558289  1
  Co  Co118  1  0.37464868  0.37659640  0.62464359  1
  Co  Co119  1  0.87634521  0.87458410  0.37850814  1
  Co  Co120  1  0.49863809  0.75212040  0.00236228  1
  Co  Co121  1  0.12303897  0.12602047  0.37526847  1
  Co  Co122  1  0.87490091  0.37494953  0.12122636  1
  Co  Co123  1  0.87905200  0.12413487  0.87434015  1
  Co  Co124  1  -0.00096431  0.75011107  0.00334910  1
  Co  Co125  1  0.87530054  0.37479640  0.37933415  1
  Co  Co126  1  0.62568622  0.12940641  0.37309484  1
  Co  Co127  1  0.12387203  0.87396547  0.87654611  1
