# generated using pymatgen
data_Fe45Co19
_symmetry_space_group_name_H-M   'P 1'
_cell_length_a   11.41452299
_cell_length_b   11.41474243
_cell_length_c   11.41491575
_cell_angle_alpha   90.00572871
_cell_angle_beta   89.99693307
_cell_angle_gamma   89.99762287
_symmetry_Int_Tables_number   1
_chemical_formula_structural   Fe45Co19
_chemical_formula_sum   'Fe90 Co38'
_cell_volume   1487.29319421
_cell_formula_units_Z   2
loop_
 _symmetry_equiv_pos_site_id
 _symmetry_equiv_pos_as_xyz
  1  'x, y, z'
loop_
 _atom_site_type_symbol
 _atom_site_label
 _atom_site_symmetry_multiplicity
 _atom_site_fract_x
 _atom_site_fract_y
 _atom_site_fract_z
 _atom_site_occupancy
  Fe  Fe0  1  0.00207163  0.24797078  0.00043390  1
  Fe  Fe1  1  0.00191110  0.50155959  0.25135888  1
  Fe  Fe2  1  0.00090469  0.00181521  0.75177323  1
  Fe  Fe3  1  0.87714463  0.87558485  0.62388537  1
  Fe  Fe4  1  0.12504869  0.87509676  0.62558469  1
  Fe  Fe5  1  0.37898733  0.37817899  0.62536942  1
  Fe  Fe6  1  0.12875218  0.62727917  0.37258005  1
  Fe  Fe7  1  0.62161759  0.86719295  0.87665707  1
  Fe  Fe8  1  0.87908263  0.62178090  0.62325368  1
  Fe  Fe9  1  0.49954350  0.50300573  0.75521914  1
  Fe  Fe10  1  0.75025147  0.74976390  0.24653800  1
  Fe  Fe11  1  0.87459776  0.62608003  0.37474750  1
  Fe  Fe12  1  0.50157723  0.50335344  -0.00328092  1
  Fe  Fe13  1  0.49962547  0.74738451  0.50163454  1
  Fe  Fe14  1  0.49923885  -0.00036168  0.75403055  1
  Fe  Fe15  1  0.37581959  0.87557929  0.62477945  1
  Fe  Fe16  1  0.74899232  0.25341209  0.50218505  1
  Fe  Fe17  1  0.12536229  0.87438061  0.87383094  1
  Fe  Fe18  1  0.49568138  0.75097011  0.24897868  1
  Fe  Fe19  1  0.37189006  0.62629904  0.37501843  1
  Fe  Fe20  1  0.74779053  -0.00230505  0.75213768  1
  Fe  Fe21  1  0.87253119  0.62573587  0.87668854  1
  Fe  Fe22  1  0.87473336  0.37427924  0.37475671  1
  Fe  Fe23  1  0.74677269  0.50472636  0.00296780  1
  Fe  Fe24  1  0.87378746  0.12386747  0.62493800  1
  Fe  Fe25  1  0.37445766  0.12498876  0.37589946  1
  Fe  Fe26  1  0.62397010  0.12565078  0.37222875  1
  Fe  Fe27  1  0.75030877  0.25374090  0.74750851  1
  Fe  Fe28  1  0.87502660  0.87385446  0.87688981  1
  Fe  Fe29  1  0.12707398  0.12282741  0.12519656  1
  Fe  Fe30  1  0.25415550  -0.00287552  0.25184629  1
  Fe  Fe31  1  0.74995810  0.50076296  0.24769522  1
  Fe  Fe32  1  0.25034033  0.25111551  0.74739858  1
  Fe  Fe33  1  0.87697500  0.12069639  0.12566295  1
  Fe  Fe34  1  0.74916925  -0.00196514  0.49840585  1
  Fe  Fe35  1  0.24888427  0.00043900  -0.00335611  1
  Fe  Fe36  1  0.87260112  0.12270481  0.37203932  1
  Fe  Fe37  1  0.25175635  0.00112347  0.75080474  1
  Fe  Fe38  1  0.37663441  0.87728925  0.11995182  1
  Fe  Fe39  1  0.74771130  0.49719208  0.50091659  1
  Fe  Fe40  1  0.87337371  0.37612385  0.87725102  1
  Fe  Fe41  1  0.25000222  0.49971820  0.74947975  1
  Fe  Fe42  1  0.12565923  0.87597718  0.12445215  1
  Fe  Fe43  1  0.74972003  0.49846105  0.74914161  1
  Fe  Fe44  1  0.87672560  0.87842934  0.12717588  1
  Fe  Fe45  1  0.74845161  0.24961777  0.24738811  1
  Fe  Fe46  1  0.49848636  0.49975626  0.25234585  1
  Fe  Fe47  1  0.75040812  0.74958858  0.74757192  1
  Fe  Fe48  1  0.62519599  0.62515544  0.37343633  1
  Fe  Fe49  1  0.62091991  0.87362856  0.12336545  1
  Fe  Fe50  1  0.00175556  0.50242673  -0.00003642  1
  Fe  Fe51  1  0.00131042  0.74956516  0.24910421  1
  Fe  Fe52  1  0.12655962  0.87363682  0.37610962  1
  Fe  Fe53  1  0.50066099  0.25237925  0.75420265  1
  Fe  Fe54  1  0.74799766  0.24955652  0.00275689  1
  Fe  Fe55  1  0.62212684  0.62306326  0.62602331  1
  Fe  Fe56  1  0.50166212  0.25340014  0.49782842  1
  Fe  Fe57  1  0.75095462  0.75023466  0.50082118  1
  Fe  Fe58  1  0.11959614  0.37532857  0.62271531  1
  Fe  Fe59  1  0.87676539  0.37628150  0.12453929  1
  Fe  Fe60  1  -0.00139257  0.25014167  0.75077554  1
  Fe  Fe61  1  0.00000823  0.24776832  0.24964747  1
  Fe  Fe62  1  0.37249232  0.12871195  0.87837817  1
  Fe  Fe63  1  0.37006949  0.62292078  0.12598297  1
  Fe  Fe64  1  0.00098952  0.74888044  0.00220286  1
  Fe  Fe65  1  0.12796883  0.62633184  0.87646306  1
  Fe  Fe66  1  0.24947084  0.49845110  0.00111566  1
  Fe  Fe67  1  0.00005234  -0.00015213  0.49658034  1
  Fe  Fe68  1  0.25614618  0.25173486  0.24402912  1
  Fe  Fe69  1  0.37638570  0.12557278  0.62324601  1
  Fe  Fe70  1  0.62448531  0.87367298  0.37365041  1
  Fe  Fe71  1  0.74732353  -0.00130482  0.00080732  1
  Fe  Fe72  1  0.13029026  0.12715369  0.37625688  1
  Fe  Fe73  1  0.12682370  0.37236476  0.87519869  1
  Fe  Fe74  1  0.87484478  0.12420902  0.87651950  1
  Fe  Fe75  1  0.50004340  -0.00057200  0.49810836  1
  Fe  Fe76  1  0.61753565  0.12436995  0.12645056  1
  Fe  Fe77  1  0.62117028  0.37561043  0.12595013  1
  Fe  Fe78  1  0.62200122  0.87468736  0.62638442  1
  Fe  Fe79  1  0.12585924  0.37116306  0.37496027  1
  Fe  Fe80  1  0.12592056  0.12595053  0.62191033  1
  Fe  Fe81  1  0.25422179  0.74904463  0.75058986  1
  Fe  Fe82  1  0.37519833  0.37541615  0.37442857  1
  Fe  Fe83  1  -0.00028750  0.74735956  0.75028804  1
  Fe  Fe84  1  0.12466761  0.37624605  0.12614740  1
  Fe  Fe85  1  0.24958553  0.49824179  0.49946332  1
  Fe  Fe86  1  0.12382116  0.62380295  0.62407385  1
  Fe  Fe87  1  0.62580257  0.12766357  0.87563960  1
  Fe  Fe88  1  0.25081220  0.75019896  0.50235918  1
  Fe  Fe89  1  0.62427333  0.12545813  0.62562971  1
  Co  Co90  1  0.62788117  0.63014970  0.87317213  1
  Co  Co91  1  0.62172658  0.62556314  0.12843129  1
  Co  Co92  1  0.25232217  0.75475786  0.24761050  1
  Co  Co93  1  0.25338026  0.25434858  0.50302022  1
  Co  Co94  1  0.00113375  0.50110781  0.75452487  1
  Co  Co95  1  0.37671625  0.87322803  0.87684777  1
  Co  Co96  1  0.88012572  0.37795067  0.62400316  1
  Co  Co97  1  0.24989337  0.75132856  0.00084046  1
  Co  Co98  1  0.24965276  0.49631264  0.25134018  1
  Co  Co99  1  0.37547893  0.87234891  0.37934009  1
  Co  Co100  1  0.37855350  0.37935177  0.12231720  1
  Co  Co101  1  0.49704286  0.74291349  0.00084766  1
  Co  Co102  1  -0.00292565  0.24737130  0.49798632  1
  Co  Co103  1  0.25049132  0.25098872  0.00524781  1
  Co  Co104  1  0.62729696  0.37555986  0.87670821  1
  Co  Co105  1  0.87365286  0.87496578  0.37132139  1
  Co  Co106  1  0.50199934  0.00106738  -0.00512178  1
  Co  Co107  1  -0.00007678  0.75018386  0.49901181  1
  Co  Co108  1  0.37454524  0.62192322  0.62283554  1
  Co  Co109  1  0.49882022  0.25238289  -0.00066837  1
  Co  Co110  1  0.87807767  0.62374365  0.12621789  1
  Co  Co111  1  0.37229937  0.37478350  0.87596840  1
  Co  Co112  1  0.49681869  -0.00263214  0.25248180  1
  Co  Co113  1  0.37736747  0.12076220  0.12210602  1
  Co  Co114  1  0.49522411  0.74687912  0.74900595  1
  Co  Co115  1  0.49584685  0.25112808  0.24975919  1
  Co  Co116  1  0.25069702  -0.00175744  0.50038273  1
  Co  Co117  1  0.74494396  -0.00051465  0.24731303  1
  Co  Co118  1  0.75095320  0.74921012  0.00543675  1
  Co  Co119  1  0.12737422  0.12756280  0.87467091  1
  Co  Co120  1  0.62022983  0.37659157  0.62661850  1
  Co  Co121  1  0.12887068  0.62468101  0.12666631  1
  Co  Co122  1  0.37097203  0.62475959  0.87676162  1
  Co  Co123  1  0.00185723  0.00020758  -0.00176278  1
  Co  Co124  1  0.62610709  0.37518146  0.37123148  1
  Co  Co125  1  0.00261376  0.50106205  0.49443701  1
  Co  Co126  1  0.50004034  0.50023919  0.49559800  1
  Co  Co127  1  0.00434132  0.00070558  0.25342583  1
