# generated using pymatgen
data_Fe45Co19
_symmetry_space_group_name_H-M   'P 1'
_cell_length_a   11.41502060
_cell_length_b   11.41491775
_cell_length_c   11.41549818
_cell_angle_alpha   89.99589934
_cell_angle_beta   89.99806946
_cell_angle_gamma   90.00952292
_symmetry_Int_Tables_number   1
_chemical_formula_structural   Fe45Co19
_chemical_formula_sum   'Fe90 Co38'
_cell_volume   1487.45675201
_cell_formula_units_Z   2
loop_
 _symmetry_equiv_pos_site_id
 _symmetry_equiv_pos_as_xyz
  1  'x, y, z'
loop_
 _atom_site_type_symbol
 _atom_site_label
 _atom_site_symmetry_multiplicity
 _atom_site_fract_x
 _atom_site_fract_y
 _atom_site_fract_z
 _atom_site_occupancy
  Fe  Fe0  1  0.24755375  0.25022208  -0.00266068  1
  Fe  Fe1  1  0.00362833  0.00208676  -0.00139037  1
  Fe  Fe2  1  0.75243329  0.74715352  -0.00220659  1
  Fe  Fe3  1  0.87530122  0.12331407  0.87299815  1
  Fe  Fe4  1  0.25041870  -0.00234646  0.75102412  1
  Fe  Fe5  1  0.87447239  0.37747220  0.87620832  1
  Fe  Fe6  1  0.37566379  0.87434677  0.87656768  1
  Fe  Fe7  1  0.12448281  0.12653469  0.62904162  1
  Fe  Fe8  1  0.37499708  0.62341127  0.12579105  1
  Fe  Fe9  1  0.12504632  0.62473357  0.87317233  1
  Fe  Fe10  1  0.74796185  0.00194311  -0.00093739  1
  Fe  Fe11  1  0.74451805  0.50603317  0.50284158  1
  Fe  Fe12  1  0.87139201  0.37539684  0.37747956  1
  Fe  Fe13  1  0.74998098  0.24798617  0.25002835  1
  Fe  Fe14  1  0.50217779  0.75287042  0.25343947  1
  Fe  Fe15  1  0.12635348  0.12436237  0.37315319  1
  Fe  Fe16  1  0.12504722  0.62700914  0.62457994  1
  Fe  Fe17  1  0.62423270  0.87459077  0.61982719  1
  Fe  Fe18  1  0.25292516  0.25503616  0.75301291  1
  Fe  Fe19  1  0.74943837  0.24888977  -0.00062421  1
  Fe  Fe20  1  0.12582211  0.87241080  0.62486754  1
  Fe  Fe21  1  0.00117619  0.50141117  0.49934226  1
  Fe  Fe22  1  0.12566636  0.62549638  0.12772620  1
  Fe  Fe23  1  0.24817043  0.00143428  -0.00205133  1
  Fe  Fe24  1  0.75017075  0.25181347  0.75009271  1
  Fe  Fe25  1  0.37598154  0.62219639  0.87508363  1
  Fe  Fe26  1  0.37802213  0.12497637  0.87272857  1
  Fe  Fe27  1  -0.00113469  0.75170983  0.25166506  1
  Fe  Fe28  1  0.62275969  0.12496076  0.12604803  1
  Fe  Fe29  1  -0.00143994  0.50320912  0.00032460  1
  Fe  Fe30  1  0.00108453  0.24689947  -0.00032867  1
  Fe  Fe31  1  0.12649981  0.37435716  0.37465314  1
  Fe  Fe32  1  0.50138027  0.24848845  0.50048926  1
  Fe  Fe33  1  0.37761589  0.62403830  0.62120420  1
  Fe  Fe34  1  0.37819695  0.12688519  0.62893450  1
  Fe  Fe35  1  0.74863636  -0.00135290  0.24916845  1
  Fe  Fe36  1  -0.00105234  0.50023827  0.25143210  1
  Fe  Fe37  1  0.87417707  0.37401496  0.12444851  1
  Fe  Fe38  1  0.00001523  0.24825672  0.50048198  1
  Fe  Fe39  1  0.87422662  0.37510473  0.62089151  1
  Fe  Fe40  1  0.87410753  0.12431667  0.62763419  1
  Fe  Fe41  1  0.87327576  0.87266014  0.62226334  1
  Fe  Fe42  1  0.62228634  0.12455803  0.86996341  1
  Fe  Fe43  1  0.75039137  0.49934245  0.24860287  1
  Fe  Fe44  1  0.25024845  0.74781122  -0.00027101  1
  Fe  Fe45  1  0.25461354  0.00194767  0.24917479  1
  Fe  Fe46  1  -0.00266172  0.74825696  -0.00259917  1
  Fe  Fe47  1  0.87096267  0.62650504  0.37479230  1
  Fe  Fe48  1  0.24919222  0.24940839  0.50153069  1
  Fe  Fe49  1  0.86930975  0.87299457  0.37825777  1
  Fe  Fe50  1  0.00148964  -0.00256793  0.75101168  1
  Fe  Fe51  1  0.62461080  0.37477492  0.12568328  1
  Fe  Fe52  1  0.74648343  -0.00407412  0.74965743  1
  Fe  Fe53  1  0.63013035  0.62263018  0.86975788  1
  Fe  Fe54  1  -0.00393677  0.75090002  0.75306597  1
  Fe  Fe55  1  0.50140650  0.25054408  -0.00180283  1
  Fe  Fe56  1  0.12406215  0.37383970  0.62643309  1
  Fe  Fe57  1  -0.00106437  -0.00056247  0.24981158  1
  Fe  Fe58  1  0.62611024  0.37858951  0.87577161  1
  Fe  Fe59  1  0.87449873  0.87539341  0.12222496  1
  Fe  Fe60  1  0.50033411  0.00016492  -0.00070990  1
  Fe  Fe61  1  0.25176907  0.74969698  0.74991802  1
  Fe  Fe62  1  0.62196728  0.12097062  0.37544699  1
  Fe  Fe63  1  0.12577628  0.37680565  0.12499973  1
  Fe  Fe64  1  0.00153267  0.75024659  0.49775998  1
  Fe  Fe65  1  0.62742104  0.62548271  0.12790400  1
  Fe  Fe66  1  0.12835412  0.62520637  0.37517678  1
  Fe  Fe67  1  0.49746577  0.24890149  0.25097500  1
  Fe  Fe68  1  0.62325223  0.37312638  0.62325634  1
  Fe  Fe69  1  0.37663110  0.87219473  0.62267557  1
  Fe  Fe70  1  0.12636469  0.87475290  0.12556787  1
  Fe  Fe71  1  -0.00281742  0.49922602  0.74822613  1
  Fe  Fe72  1  0.37574363  0.37835607  0.12015200  1
  Fe  Fe73  1  0.25026792  0.00023938  0.50179034  1
  Fe  Fe74  1  0.87493676  0.12471219  0.37440922  1
  Fe  Fe75  1  0.25197129  0.75114843  0.25325522  1
  Fe  Fe76  1  0.37642523  0.87428386  0.12298797  1
  Fe  Fe77  1  0.62390597  0.87413840  0.12310835  1
  Fe  Fe78  1  0.00047253  0.00015413  0.49988796  1
  Fe  Fe79  1  0.25368111  0.24958620  0.24824899  1
  Fe  Fe80  1  0.49782744  0.49508939  0.74947995  1
  Fe  Fe81  1  0.50147260  0.75312349  0.75152921  1
  Fe  Fe82  1  -0.00135251  0.24908694  0.24922206  1
  Fe  Fe83  1  0.37501769  0.62197485  0.37871048  1
  Fe  Fe84  1  0.37867771  0.87750188  0.37856359  1
  Fe  Fe85  1  0.50148341  0.74550020  -0.00149190  1
  Fe  Fe86  1  0.37492688  0.37705972  0.37985802  1
  Fe  Fe87  1  0.25162392  0.49747466  0.74958444  1
  Fe  Fe88  1  0.74790114  0.24582049  0.50040243  1
  Fe  Fe89  1  0.50021883  0.49850491  0.25157816  1
  Co  Co90  1  0.74864990  0.75420204  0.24920232  1
  Co  Co91  1  0.12614150  0.87215944  0.87512036  1
  Co  Co92  1  0.12435729  0.12686069  0.87010464  1
  Co  Co93  1  0.62680094  0.37402073  0.37500809  1
  Co  Co94  1  0.49883224  -0.00044783  0.24777943  1
  Co  Co95  1  0.50394695  0.74654992  0.49709005  1
  Co  Co96  1  -0.00426449  0.25229443  0.74910195  1
  Co  Co97  1  0.75030615  0.75511151  0.74866830  1
  Co  Co98  1  0.75018200  0.50086633  0.00410194  1
  Co  Co99  1  0.37691194  0.37780239  0.88121984  1
  Co  Co100  1  0.87002219  0.62169731  0.87036016  1
  Co  Co101  1  0.87619575  0.62751881  0.62560332  1
  Co  Co102  1  0.24664167  0.49959761  0.50257971  1
  Co  Co103  1  0.25132444  0.49914647  0.25032727  1
  Co  Co104  1  0.50622865  0.50112400  0.49942537  1
  Co  Co105  1  0.62036793  0.62568141  0.63309463  1
  Co  Co106  1  0.24751291  0.50191057  -0.00108631  1
  Co  Co107  1  0.87465818  0.62666671  0.12807755  1
  Co  Co108  1  0.49803768  0.00253937  0.50393529  1
  Co  Co109  1  0.50124527  -0.00535840  0.74929082  1
  Co  Co110  1  0.75107828  0.00368917  0.50151002  1
  Co  Co111  1  0.62685318  0.62519884  0.36970767  1
  Co  Co112  1  0.50430209  0.50407191  0.00073716  1
  Co  Co113  1  0.62471934  0.87300453  0.87850400  1
  Co  Co114  1  0.25008003  0.75094353  0.49853911  1
  Co  Co115  1  0.12668955  0.12500635  0.12769217  1
  Co  Co116  1  0.37680032  0.37525589  0.61972449  1
  Co  Co117  1  0.37537051  0.12540397  0.37788005  1
  Co  Co118  1  0.87430610  0.87785720  0.87656413  1
  Co  Co119  1  0.49954676  0.25560191  0.75111326  1
  Co  Co120  1  0.74447209  0.74369571  0.50287036  1
  Co  Co121  1  0.75145418  0.49614334  0.74355367  1
  Co  Co122  1  0.87451059  0.12406432  0.12412706  1
  Co  Co123  1  0.12166789  0.37628490  0.87434809  1
  Co  Co124  1  0.37568954  0.12611151  0.12043168  1
  Co  Co125  1  0.62590087  0.87867732  0.37934345  1
  Co  Co126  1  0.12682598  0.87806924  0.37384034  1
  Co  Co127  1  0.62286427  0.12558257  0.62852327  1
