# generated using pymatgen
data_Fe45Co19
_symmetry_space_group_name_H-M   'P 1'
_cell_length_a   11.41468805
_cell_length_b   11.41402762
_cell_length_c   11.41320648
_cell_angle_alpha   90.00075977
_cell_angle_beta   90.00796097
_cell_angle_gamma   90.00424111
_symmetry_Int_Tables_number   1
_chemical_formula_structural   Fe45Co19
_chemical_formula_sum   'Fe90 Co38'
_cell_volume   1486.99885872
_cell_formula_units_Z   2
loop_
 _symmetry_equiv_pos_site_id
 _symmetry_equiv_pos_as_xyz
  1  'x, y, z'
loop_
 _atom_site_type_symbol
 _atom_site_label
 _atom_site_symmetry_multiplicity
 _atom_site_fract_x
 _atom_site_fract_y
 _atom_site_fract_z
 _atom_site_occupancy
  Fe  Fe0  1  0.12383315  0.12563710  0.37448585  1
  Fe  Fe1  1  0.87507511  0.12622984  0.62345957  1
  Fe  Fe2  1  0.12565221  0.37502522  0.62685259  1
  Fe  Fe3  1  0.00141015  0.24778893  0.00125945  1
  Fe  Fe4  1  0.00073934  0.25092015  0.50039368  1
  Fe  Fe5  1  0.62665547  0.62649147  0.62460458  1
  Fe  Fe6  1  -0.00108352  0.49939765  0.24783572  1
  Fe  Fe7  1  0.87656090  0.87697413  0.87705335  1
  Fe  Fe8  1  0.74898185  0.50022113  0.49672424  1
  Fe  Fe9  1  0.50209643  0.25029389  0.49805081  1
  Fe  Fe10  1  0.62239826  0.12189630  0.87594673  1
  Fe  Fe11  1  0.37383251  0.62534363  0.62331123  1
  Fe  Fe12  1  -0.00098844  0.75067157  0.74931530  1
  Fe  Fe13  1  0.87870528  0.87621061  0.36895455  1
  Fe  Fe14  1  0.75237836  0.24633051  0.24919037  1
  Fe  Fe15  1  0.00015466  0.49968829  0.75061770  1
  Fe  Fe16  1  0.37515964  0.87511500  0.87453908  1
  Fe  Fe17  1  0.75131019  0.75229663  0.75065620  1
  Fe  Fe18  1  0.50280261  0.49744309  0.00469318  1
  Fe  Fe19  1  0.00088576  0.00254445  0.75159587  1
  Fe  Fe20  1  0.24650201  -0.00286399  -0.00084518  1
  Fe  Fe21  1  0.37352252  0.87519864  0.61875401  1
  Fe  Fe22  1  0.50027279  0.49960576  0.75032958  1
  Fe  Fe23  1  0.50079321  0.50148158  0.49731457  1
  Fe  Fe24  1  0.50020830  0.24857145  0.75020182  1
  Fe  Fe25  1  0.62447977  0.62583752  0.87690408  1
  Fe  Fe26  1  0.87614542  0.12190618  0.12547912  1
  Fe  Fe27  1  0.62269250  0.88034949  0.13077107  1
  Fe  Fe28  1  0.00523068  -0.00160174  0.00324448  1
  Fe  Fe29  1  0.49968806  -0.00125007  0.49585403  1
  Fe  Fe30  1  0.37337300  0.87694193  0.12662932  1
  Fe  Fe31  1  0.24849670  0.50214008  0.49973655  1
  Fe  Fe32  1  0.37671652  0.62554216  0.87574117  1
  Fe  Fe33  1  0.12379280  0.62521470  0.37456917  1
  Fe  Fe34  1  0.75098920  0.75142945  0.24792341  1
  Fe  Fe35  1  0.62199637  0.62699874  0.36945856  1
  Fe  Fe36  1  0.74808308  0.24878070  0.00171291  1
  Fe  Fe37  1  -0.00037423  0.00119015  0.49774888  1
  Fe  Fe38  1  0.12520067  0.87643146  0.62210869  1
  Fe  Fe39  1  0.62499503  0.12303663  0.62320503  1
  Fe  Fe40  1  0.87364723  0.62711300  0.87727028  1
  Fe  Fe41  1  0.74766987  0.49794179  0.00346053  1
  Fe  Fe42  1  0.37599618  0.12242784  0.87612387  1
  Fe  Fe43  1  0.37664812  0.62547649  0.12764655  1
  Fe  Fe44  1  0.37483337  0.37574555  0.62412668  1
  Fe  Fe45  1  0.87443245  0.37368339  0.37403725  1
  Fe  Fe46  1  0.37524808  0.37561016  0.87539798  1
  Fe  Fe47  1  0.37367521  0.12268250  0.12518309  1
  Fe  Fe48  1  0.24794290  -0.00242579  0.25473187  1
  Fe  Fe49  1  0.50014754  0.75190445  0.74752037  1
  Fe  Fe50  1  0.62226220  0.87715523  0.87419645  1
  Fe  Fe51  1  0.75041591  0.24779110  0.75175411  1
  Fe  Fe52  1  0.50017364  0.75234586  0.00379623  1
  Fe  Fe53  1  0.87265266  0.37353316  0.62433460  1
  Fe  Fe54  1  0.62588289  0.37479086  0.62484531  1
  Fe  Fe55  1  0.12533226  0.37375660  0.87555606  1
  Fe  Fe56  1  0.25063900  0.50097374  0.00059849  1
  Fe  Fe57  1  0.75144600  0.75201428  0.49782206  1
  Fe  Fe58  1  0.37578129  0.12354281  0.62210149  1
  Fe  Fe59  1  0.87308383  0.62655224  0.12409725  1
  Fe  Fe60  1  0.24897617  0.74956506  0.74867878  1
  Fe  Fe61  1  0.25017505  0.49769935  0.24943392  1
  Fe  Fe62  1  0.75136269  0.00034924  0.75032146  1
  Fe  Fe63  1  0.37304985  0.12569689  0.37579010  1
  Fe  Fe64  1  0.24887698  0.00153509  0.74883755  1
  Fe  Fe65  1  0.24971118  0.24771607  0.74927340  1
  Fe  Fe66  1  0.74743265  0.75345617  0.00280833  1
  Fe  Fe67  1  0.00194816  0.25043050  0.24768921  1
  Fe  Fe68  1  0.00164585  0.75260878  0.00285350  1
  Fe  Fe69  1  0.12735341  0.62708876  0.12520858  1
  Fe  Fe70  1  -0.00010533  0.50056731  0.00202924  1
  Fe  Fe71  1  0.62644701  0.12290655  0.37268745  1
  Fe  Fe72  1  0.62567186  0.87588516  0.62177191  1
  Fe  Fe73  1  0.12600595  0.62754587  0.87499398  1
  Fe  Fe74  1  0.24954661  0.24992744  0.00108520  1
  Fe  Fe75  1  0.00027737  0.49938073  0.49995147  1
  Fe  Fe76  1  0.24799560  0.24896826  0.50094639  1
  Fe  Fe77  1  0.49802398  0.24871440  0.24878626  1
  Fe  Fe78  1  0.00018051  0.74998418  0.50034646  1
  Fe  Fe79  1  0.75342049  0.00000731  0.49558985  1
  Fe  Fe80  1  0.75045271  0.50018326  0.75191757  1
  Fe  Fe81  1  0.25087173  0.75129330  0.25418832  1
  Fe  Fe82  1  0.37400613  0.37571510  0.37545093  1
  Fe  Fe83  1  0.62633378  0.37517424  0.37056010  1
  Fe  Fe84  1  0.50162786  0.25005312  0.00279376  1
  Fe  Fe85  1  0.87417584  0.62523866  0.62451344  1
  Fe  Fe86  1  0.87580165  0.62606985  0.37372351  1
  Fe  Fe87  1  0.24817076  0.25261597  0.24892125  1
  Fe  Fe88  1  0.87478186  0.37312663  0.87678468  1
  Fe  Fe89  1  0.74918511  -0.00018414  0.00263487  1
  Co  Co90  1  0.24710464  0.74775867  0.49762972  1
  Co  Co91  1  0.12521578  0.37540214  0.37504475  1
  Co  Co92  1  0.87867278  0.12664702  0.37405348  1
  Co  Co93  1  -0.00021065  0.74717449  0.24759952  1
  Co  Co94  1  0.24802044  0.00157460  0.49677978  1
  Co  Co95  1  0.24947755  0.50099952  0.75142172  1
  Co  Co96  1  0.12123537  0.87387136  0.37537671  1
  Co  Co97  1  0.62408062  0.62483364  0.12866542  1
  Co  Co98  1  0.37477617  0.87315711  0.37948898  1
  Co  Co99  1  0.75362448  0.50168109  0.24941599  1
  Co  Co100  1  0.37593460  0.62460928  0.37401939  1
  Co  Co101  1  0.62691479  0.37350822  0.13045145  1
  Co  Co102  1  0.25245515  0.75063285  0.00016797  1
  Co  Co103  1  0.87588578  0.87616470  0.62511769  1
  Co  Co104  1  0.12868141  0.12513455  0.12568258  1
  Co  Co105  1  0.62600135  0.87490977  0.37294376  1
  Co  Co106  1  0.37430522  0.37393038  0.12468176  1
  Co  Co107  1  0.87589063  0.12251697  0.87843770  1
  Co  Co108  1  0.12572538  0.12562794  0.87554210  1
  Co  Co109  1  0.12285646  0.12408250  0.62406109  1
  Co  Co110  1  0.62294569  0.12264810  0.12671261  1
  Co  Co111  1  0.87515608  0.37323786  0.12525373  1
  Co  Co112  1  0.00405993  0.00152299  0.24693254  1
  Co  Co113  1  0.12521736  0.87321919  0.87396222  1
  Co  Co114  1  0.49756281  0.49733916  0.24897945  1
  Co  Co115  1  0.12368859  0.62512539  0.62528388  1
  Co  Co116  1  0.12481615  0.37549830  0.12292725  1
  Co  Co117  1  -0.00139108  0.24921451  0.75079831  1
  Co  Co118  1  0.49860397  -0.00137415  0.00183974  1
  Co  Co119  1  0.49751524  0.75427780  0.24975237  1
  Co  Co120  1  0.74861303  0.24927614  0.49829429  1
  Co  Co121  1  0.49598369  0.00074460  0.25382703  1
  Co  Co122  1  0.75252284  0.00177254  0.25081886  1
  Co  Co123  1  0.87638749  0.87632964  0.12641407  1
  Co  Co124  1  0.50110197  0.74875823  0.49909043  1
  Co  Co125  1  0.49802630  -0.00109607  0.74740711  1
  Co  Co126  1  0.12690906  0.87161175  0.12848283  1
  Co  Co127  1  0.62495445  0.37428241  0.87508838  1
