# generated using pymatgen
data_Fe45Co19
_symmetry_space_group_name_H-M   'P 1'
_cell_length_a   11.41456122
_cell_length_b   11.41509656
_cell_length_c   11.41573676
_cell_angle_alpha   89.99839613
_cell_angle_beta   90.01023496
_cell_angle_gamma   89.99484919
_symmetry_Int_Tables_number   1
_chemical_formula_structural   Fe45Co19
_chemical_formula_sum   'Fe90 Co38'
_cell_volume   1487.45127446
_cell_formula_units_Z   2
loop_
 _symmetry_equiv_pos_site_id
 _symmetry_equiv_pos_as_xyz
  1  'x, y, z'
loop_
 _atom_site_type_symbol
 _atom_site_label
 _atom_site_symmetry_multiplicity
 _atom_site_fract_x
 _atom_site_fract_y
 _atom_site_fract_z
 _atom_site_occupancy
  Fe  Fe0  1  0.37355526  0.87547304  0.62265386  1
  Fe  Fe1  1  0.62067909  0.37618119  0.62524613  1
  Fe  Fe2  1  0.87395233  0.37234160  0.87487893  1
  Fe  Fe3  1  0.12735129  0.37523154  0.87246227  1
  Fe  Fe4  1  0.00405106  -0.00064456  0.50107883  1
  Fe  Fe5  1  0.87551824  0.87461656  0.62494514  1
  Fe  Fe6  1  0.12578326  0.87450534  0.87533463  1
  Fe  Fe7  1  -0.00079495  0.00027889  0.75199569  1
  Fe  Fe8  1  0.74868585  -0.00107476  0.50131658  1
  Fe  Fe9  1  0.62561473  0.87409821  0.37429350  1
  Fe  Fe10  1  0.12770518  0.37855698  0.62612509  1
  Fe  Fe11  1  0.37177172  0.87131784  0.37604059  1
  Fe  Fe12  1  0.87289480  0.62644445  0.87548887  1
  Fe  Fe13  1  0.87544089  0.62640311  0.62421188  1
  Fe  Fe14  1  0.74889159  0.00100396  0.75244189  1
  Fe  Fe15  1  0.00238929  0.24818287  0.50312743  1
  Fe  Fe16  1  0.24979712  0.75023399  0.74838701  1
  Fe  Fe17  1  0.49976363  0.24916705  0.24918550  1
  Fe  Fe18  1  0.87382653  0.37420886  0.37699699  1
  Fe  Fe19  1  0.87581797  0.87388723  0.37690809  1
  Fe  Fe20  1  0.62346657  0.37680884  0.12473012  1
  Fe  Fe21  1  0.25223954  0.50018881  0.00029496  1
  Fe  Fe22  1  0.37444890  0.87005869  0.87793578  1
  Fe  Fe23  1  0.00612711  0.75117256  0.50287533  1
  Fe  Fe24  1  0.00014629  0.50099595  0.75091212  1
  Fe  Fe25  1  0.49595175  -0.00037847  0.75264481  1
  Fe  Fe26  1  0.37385561  0.62547745  0.12375234  1
  Fe  Fe27  1  0.12897492  0.62496080  0.37598476  1
  Fe  Fe28  1  0.00254755  0.24800861  -0.00074554  1
  Fe  Fe29  1  0.50092541  0.75037727  0.25119264  1
  Fe  Fe30  1  0.49868039  0.50549176  0.49595707  1
  Fe  Fe31  1  0.12563905  0.12464232  0.37286207  1
  Fe  Fe32  1  0.74676050  0.24895262  0.75166431  1
  Fe  Fe33  1  0.62583723  0.12020694  0.12561549  1
  Fe  Fe34  1  0.37820152  0.37429152  0.62545638  1
  Fe  Fe35  1  0.50047402  -0.00096701  -0.00057215  1
  Fe  Fe36  1  0.87161456  0.12460356  0.12207243  1
  Fe  Fe37  1  0.49778093  -0.00107457  0.49800563  1
  Fe  Fe38  1  0.87343933  0.62516014  0.12535599  1
  Fe  Fe39  1  0.12892660  0.62499632  0.87534338  1
  Fe  Fe40  1  0.24906102  -0.00000470  -0.00148746  1
  Fe  Fe41  1  0.87438359  0.37442595  0.62485694  1
  Fe  Fe42  1  0.25222972  0.24952439  0.50269828  1
  Fe  Fe43  1  0.25143950  0.49877903  0.24889603  1
  Fe  Fe44  1  0.00104349  0.00218003  -0.00173547  1
  Fe  Fe45  1  0.37593999  0.37491761  0.37413597  1
  Fe  Fe46  1  0.00258656  0.74845678  0.00159315  1
  Fe  Fe47  1  0.50207016  0.74638493  -0.00145179  1
  Fe  Fe48  1  0.74848947  0.74890220  0.74842692  1
  Fe  Fe49  1  0.61922332  0.12550737  0.62660447  1
  Fe  Fe50  1  -0.00006271  0.00010360  0.24886447  1
  Fe  Fe51  1  0.24652096  0.75145345  0.24505564  1
  Fe  Fe52  1  0.62729785  0.62597627  0.12648191  1
  Fe  Fe53  1  0.87427439  0.87339503  0.87538860  1
  Fe  Fe54  1  0.87386930  0.87501774  0.12296444  1
  Fe  Fe55  1  0.00082828  0.50079597  -0.00144399  1
  Fe  Fe56  1  0.49786391  0.50538094  0.75366723  1
  Fe  Fe57  1  0.12548216  0.37586272  0.12510727  1
  Fe  Fe58  1  0.74911282  0.50059087  0.00006010  1
  Fe  Fe59  1  0.37512582  0.12448123  0.12430962  1
  Fe  Fe60  1  0.87458389  0.37497921  0.12339892  1
  Fe  Fe61  1  0.49828676  0.50238981  0.24986578  1
  Fe  Fe62  1  0.87139985  0.62727736  0.37491699  1
  Fe  Fe63  1  0.62426671  0.37714219  0.37400353  1
  Fe  Fe64  1  0.37662183  0.37534576  0.87707642  1
  Fe  Fe65  1  0.00353446  0.74897168  0.74792945  1
  Fe  Fe66  1  0.00041171  0.50074595  0.49979923  1
  Fe  Fe67  1  0.74929871  0.50168189  0.74862944  1
  Fe  Fe68  1  0.37531240  0.62771046  0.62372003  1
  Fe  Fe69  1  0.25056435  -0.00157159  0.24903649  1
  Fe  Fe70  1  0.00261258  0.74933108  0.24756480  1
  Fe  Fe71  1  0.24917444  0.24894929  -0.00066060  1
  Fe  Fe72  1  0.50161997  0.24950512  0.00020327  1
  Fe  Fe73  1  0.37558383  0.12510785  0.37545667  1
  Fe  Fe74  1  0.12615462  0.37517260  0.37679685  1
  Fe  Fe75  1  0.87357895  0.12443129  0.62620362  1
  Fe  Fe76  1  0.62409083  0.12267396  0.37343585  1
  Fe  Fe77  1  0.74655261  0.24955489  0.50108816  1
  Fe  Fe78  1  0.62457212  0.87225183  0.87485107  1
  Fe  Fe79  1  0.37617768  0.87406914  0.12356266  1
  Fe  Fe80  1  0.75001116  0.25056142  0.24959778  1
  Fe  Fe81  1  0.62158480  0.87184921  0.62516404  1
  Fe  Fe82  1  0.00158992  0.24894380  0.74941706  1
  Fe  Fe83  1  0.74794374  0.50282627  0.50122760  1
  Fe  Fe84  1  0.62285553  0.37749692  0.87561768  1
  Fe  Fe85  1  0.13192739  0.12054889  0.62980079  1
  Fe  Fe86  1  -0.00045853  0.25030904  0.24889691  1
  Fe  Fe87  1  -0.00012119  0.50031822  0.25087895  1
  Fe  Fe88  1  0.25096106  0.25085408  0.24839343  1
  Fe  Fe89  1  0.87439478  0.12445132  0.37673415  1
  Co  Co90  1  0.24788888  0.75096172  0.00310933  1
  Co  Co91  1  0.74808627  0.75098047  0.50185767  1
  Co  Co92  1  0.62800556  0.62597531  0.37253101  1
  Co  Co93  1  0.37631839  0.12676987  0.87748402  1
  Co  Co94  1  0.12365106  0.87828021  0.12390184  1
  Co  Co95  1  0.75155388  -0.00301164  0.25027814  1
  Co  Co96  1  0.25438189  0.49945972  0.50044256  1
  Co  Co97  1  0.74630626  0.25020513  -0.00077719  1
  Co  Co98  1  0.75110268  0.49856676  0.24887079  1
  Co  Co99  1  0.12637253  0.62038491  0.62526592  1
  Co  Co100  1  0.37652583  0.12322354  0.62411578  1
  Co  Co101  1  0.12507615  0.87460926  0.37213074  1
  Co  Co102  1  0.12621636  0.62123510  0.12395817  1
  Co  Co103  1  0.49733979  -0.00246252  0.25113411  1
  Co  Co104  1  0.25456243  0.25072495  0.74981138  1
  Co  Co105  1  0.50000946  0.24970733  0.49744966  1
  Co  Co106  1  0.37127142  0.62751771  0.87701182  1
  Co  Co107  1  0.62112997  0.62692770  0.62567314  1
  Co  Co108  1  0.74890341  -0.00202816  -0.00310346  1
  Co  Co109  1  0.87446160  0.12715153  0.87529438  1
  Co  Co110  1  0.12624861  0.12444811  0.87194988  1
  Co  Co111  1  0.62235418  0.12343480  0.87531402  1
  Co  Co112  1  0.37003144  0.62906496  0.37301991  1
  Co  Co113  1  0.74995967  0.75414019  0.24882535  1
  Co  Co114  1  0.62311292  0.87576309  0.12428263  1
  Co  Co115  1  0.49848962  0.24962861  0.75308052  1
  Co  Co116  1  0.24974403  -0.00006694  0.49648709  1
  Co  Co117  1  0.74870456  0.75122759  0.00065550  1
  Co  Co118  1  0.12655440  0.12432155  0.12617147  1
  Co  Co119  1  0.49743185  0.74954851  0.75171469  1
  Co  Co120  1  0.12824713  0.88042409  0.62853089  1
  Co  Co121  1  0.25420089  0.50006734  0.75015512  1
  Co  Co122  1  0.24574447  0.75114065  0.50348781  1
  Co  Co123  1  0.62688873  0.62567630  0.87374866  1
  Co  Co124  1  0.37601998  0.37429970  0.12362547  1
  Co  Co125  1  0.25717352  -0.00157161  0.75600093  1
  Co  Co126  1  0.49999141  0.74855701  0.49640694  1
  Co  Co127  1  0.49933951  0.50431937  0.00004719  1
