# generated using pymatgen
data_Fe45Co19
_symmetry_space_group_name_H-M   'P 1'
_cell_length_a   11.41647521
_cell_length_b   11.41588768
_cell_length_c   11.41543180
_cell_angle_alpha   89.99593311
_cell_angle_beta   89.99590819
_cell_angle_gamma   90.00546189
_symmetry_Int_Tables_number   1
_chemical_formula_structural   Fe45Co19
_chemical_formula_sum   'Fe90 Co38'
_cell_volume   1487.76406489
_cell_formula_units_Z   2
loop_
 _symmetry_equiv_pos_site_id
 _symmetry_equiv_pos_as_xyz
  1  'x, y, z'
loop_
 _atom_site_type_symbol
 _atom_site_label
 _atom_site_symmetry_multiplicity
 _atom_site_fract_x
 _atom_site_fract_y
 _atom_site_fract_z
 _atom_site_occupancy
  Fe  Fe0  1  0.24872453  -0.00002154  0.25256511  1
  Fe  Fe1  1  0.62462178  0.37485010  0.12483019  1
  Fe  Fe2  1  0.25163889  -0.00128427  -0.00054645  1
  Fe  Fe3  1  0.12478570  0.62505187  0.87471923  1
  Fe  Fe4  1  0.37707561  0.62704685  0.87386215  1
  Fe  Fe5  1  0.24877463  -0.00087419  0.75136740  1
  Fe  Fe6  1  0.75048080  0.25028353  0.00187939  1
  Fe  Fe7  1  0.75111990  0.25214457  0.49870161  1
  Fe  Fe8  1  0.62574778  0.12569251  0.87409851  1
  Fe  Fe9  1  0.50051138  -0.00030781  0.00130320  1
  Fe  Fe10  1  0.12369828  0.87502986  0.12343738  1
  Fe  Fe11  1  0.50294467  0.00197604  0.74811689  1
  Fe  Fe12  1  0.62449016  0.62303282  0.62390395  1
  Fe  Fe13  1  0.50137912  0.24915817  0.25057558  1
  Fe  Fe14  1  0.25043183  -0.00029530  0.49664867  1
  Fe  Fe15  1  0.00116614  0.74820735  0.24940728  1
  Fe  Fe16  1  0.12655774  0.12432411  0.62372159  1
  Fe  Fe17  1  0.74763048  0.75350615  0.75100047  1
  Fe  Fe18  1  0.25241610  0.25108031  0.50210329  1
  Fe  Fe19  1  0.36958733  0.62487619  0.37469326  1
  Fe  Fe20  1  -0.00289321  0.25068950  0.49905343  1
  Fe  Fe21  1  0.12598344  0.62488776  0.62412908  1
  Fe  Fe22  1  0.12277997  0.37648151  0.62525471  1
  Fe  Fe23  1  0.87350416  0.62525483  0.62494785  1
  Fe  Fe24  1  0.25075731  0.75075537  0.00177139  1
  Fe  Fe25  1  0.37483155  0.87726101  0.62478070  1
  Fe  Fe26  1  0.37515246  0.37481824  0.37570776  1
  Fe  Fe27  1  0.62598686  0.12476123  0.12594501  1
  Fe  Fe28  1  0.75122424  0.75349635  0.49562725  1
  Fe  Fe29  1  0.62269557  0.62916075  0.87499279  1
  Fe  Fe30  1  0.87487344  0.37371426  0.12938019  1
  Fe  Fe31  1  0.37575952  0.12562932  0.87379897  1
  Fe  Fe32  1  0.37238571  0.62443603  0.12805039  1
  Fe  Fe33  1  0.87592474  0.87182406  0.12520534  1
  Fe  Fe34  1  0.25339902  0.25251306  0.74829728  1
  Fe  Fe35  1  0.12318924  0.87388663  0.87669147  1
  Fe  Fe36  1  0.62052021  0.37671656  0.62555343  1
  Fe  Fe37  1  0.37596691  0.37498485  0.12456506  1
  Fe  Fe38  1  0.50054564  0.50054265  -0.00129617  1
  Fe  Fe39  1  0.74861606  0.25077802  0.74886544  1
  Fe  Fe40  1  0.87120597  0.62212409  0.37307179  1
  Fe  Fe41  1  0.37813266  0.87411836  0.37329086  1
  Fe  Fe42  1  0.24877877  0.24964543  0.00165914  1
  Fe  Fe43  1  0.49858681  0.24694832  0.50244585  1
  Fe  Fe44  1  0.87507934  0.12659505  0.37236542  1
  Fe  Fe45  1  0.87445388  0.12475597  0.87545418  1
  Fe  Fe46  1  0.12303418  0.37330657  0.37368449  1
  Fe  Fe47  1  0.12418401  0.12482782  0.87662961  1
  Fe  Fe48  1  -0.00057307  0.00065983  0.75004675  1
  Fe  Fe49  1  0.87733816  0.87359548  0.87652883  1
  Fe  Fe50  1  0.00066920  0.50142053  0.24822242  1
  Fe  Fe51  1  0.62829517  0.62853529  0.12685458  1
  Fe  Fe52  1  0.74856138  -0.00458168  -0.00148714  1
  Fe  Fe53  1  0.24708741  0.24956934  0.24852594  1
  Fe  Fe54  1  0.12362518  0.37594558  0.87628720  1
  Fe  Fe55  1  0.62247326  0.87053592  0.12725502  1
  Fe  Fe56  1  0.62909018  0.62497789  0.37433748  1
  Fe  Fe57  1  0.87385974  0.87652541  0.62331157  1
  Fe  Fe58  1  0.49883234  0.00403551  0.49940675  1
  Fe  Fe59  1  0.87519662  0.62615368  0.87519724  1
  Fe  Fe60  1  0.87071529  0.12221558  0.62489859  1
  Fe  Fe61  1  0.37979196  0.87234627  0.87350124  1
  Fe  Fe62  1  -0.00017135  0.74817333  0.49846321  1
  Fe  Fe63  1  -0.00050748  0.24940442  0.74957288  1
  Fe  Fe64  1  0.37523832  0.12525339  0.12683148  1
  Fe  Fe65  1  0.00031312  0.24798026  0.00397150  1
  Fe  Fe66  1  0.00332664  0.00202396  0.25072162  1
  Fe  Fe67  1  0.25169864  0.75022785  0.74715588  1
  Fe  Fe68  1  0.87511503  0.37607870  0.87525720  1
  Fe  Fe69  1  -0.00030337  0.50088368  0.49893404  1
  Fe  Fe70  1  0.25104312  0.49778581  0.74915225  1
  Fe  Fe71  1  0.12437002  0.87460412  0.62210515  1
  Fe  Fe72  1  0.49842023  0.74769952  0.50027933  1
  Fe  Fe73  1  0.62472239  0.12421463  0.37565954  1
  Fe  Fe74  1  0.50051876  0.25084163  -0.00255094  1
  Fe  Fe75  1  0.74895970  0.50032937  0.75023310  1
  Fe  Fe76  1  0.75032703  0.50111008  0.00190727  1
  Fe  Fe77  1  -0.00101779  0.50345263  0.00351936  1
  Fe  Fe78  1  0.62751443  0.87853361  0.62154357  1
  Fe  Fe79  1  0.87586865  0.37795999  0.62558046  1
  Fe  Fe80  1  0.00072025  0.74970104  0.74946669  1
  Fe  Fe81  1  0.13052866  0.62709378  0.37345797  1
  Fe  Fe82  1  0.37591058  0.61892399  0.62317303  1
  Fe  Fe83  1  0.37849015  0.87506157  0.12813354  1
  Fe  Fe84  1  0.50013649  0.50149642  0.25208054  1
  Fe  Fe85  1  0.62695407  0.37626541  0.37503284  1
  Fe  Fe86  1  -0.00022514  0.00126137  0.49866679  1
  Fe  Fe87  1  0.87265381  0.12350634  0.12752254  1
  Fe  Fe88  1  0.24973366  0.50015097  0.00175987  1
  Fe  Fe89  1  0.74697631  -0.00481469  0.25416282  1
  Co  Co90  1  -0.00223412  0.00135188  0.00043413  1
  Co  Co91  1  0.75013740  0.75476242  0.25473383  1
  Co  Co92  1  0.12532131  0.12715280  0.37752066  1
  Co  Co93  1  0.25244033  0.75129153  0.50176091  1
  Co  Co94  1  0.38010733  0.37961224  0.62257076  1
  Co  Co95  1  0.37337793  0.37513045  0.87763708  1
  Co  Co96  1  0.49870559  0.25039141  0.75021378  1
  Co  Co97  1  0.74935711  0.75229471  -0.00238150  1
  Co  Co98  1  0.88066581  0.87523365  0.37363998  1
  Co  Co99  1  0.61849140  0.87210337  0.87531571  1
  Co  Co100  1  0.12899945  0.62520732  0.12730833  1
  Co  Co101  1  0.87537984  0.37675298  0.37128152  1
  Co  Co102  1  0.74954142  -0.00252016  0.75452058  1
  Co  Co103  1  0.25061437  0.49554164  0.25053906  1
  Co  Co104  1  0.74755476  0.25020820  0.25150658  1
  Co  Co105  1  -0.00044486  0.50110370  0.74949414  1
  Co  Co106  1  0.12436944  0.37691792  0.12436092  1
  Co  Co107  1  0.00263977  0.24760159  0.24755005  1
  Co  Co108  1  0.62899013  0.12353169  0.62399871  1
  Co  Co109  1  0.49900894  0.74484139  0.25199487  1
  Co  Co110  1  0.12704568  0.12173172  0.12299096  1
  Co  Co111  1  0.62770926  0.37433381  0.87599514  1
  Co  Co112  1  0.50121883  0.50230150  0.49396667  1
  Co  Co113  1  0.75183020  -0.00123534  0.49265632  1
  Co  Co114  1  0.49767484  0.74836083  0.00421010  1
  Co  Co115  1  0.49981979  0.75010639  0.74319843  1
  Co  Co116  1  0.37439841  0.12635467  0.37280370  1
  Co  Co117  1  0.00174945  0.74606125  0.00147831  1
  Co  Co118  1  0.24713114  0.49699804  0.49951221  1
  Co  Co119  1  0.50169610  0.00268623  0.24975226  1
  Co  Co120  1  0.87057405  0.62933046  0.12698744  1
  Co  Co121  1  0.75080838  0.49751831  0.50175107  1
  Co  Co122  1  0.74884881  0.49828015  0.24690450  1
  Co  Co123  1  0.37282158  0.12374535  0.62662902  1
  Co  Co124  1  0.12420841  0.87231758  0.37649339  1
  Co  Co125  1  0.50007951  0.49827876  0.75497207  1
  Co  Co126  1  0.25050027  0.75476460  0.24818994  1
  Co  Co127  1  0.61814283  0.87402621  0.37651704  1
