# generated using pymatgen
data_Fe45Co19
_symmetry_space_group_name_H-M   'P 1'
_cell_length_a   11.41586497
_cell_length_b   11.41550742
_cell_length_c   11.41545406
_cell_angle_alpha   90.00150516
_cell_angle_beta   89.99951362
_cell_angle_gamma   89.99903548
_symmetry_Int_Tables_number   1
_chemical_formula_structural   Fe45Co19
_chemical_formula_sum   'Fe90 Co38'
_cell_volume   1487.63790016
_cell_formula_units_Z   2
loop_
 _symmetry_equiv_pos_site_id
 _symmetry_equiv_pos_as_xyz
  1  'x, y, z'
loop_
 _atom_site_type_symbol
 _atom_site_label
 _atom_site_symmetry_multiplicity
 _atom_site_fract_x
 _atom_site_fract_y
 _atom_site_fract_z
 _atom_site_occupancy
  Fe  Fe0  1  0.12463028  0.62443966  0.12829426  1
  Fe  Fe1  1  0.24884781  0.25124510  0.25096741  1
  Fe  Fe2  1  0.87573307  0.87510380  0.62190337  1
  Fe  Fe3  1  0.25337430  0.50250225  0.75042022  1
  Fe  Fe4  1  0.74964747  -0.00170887  0.74743877  1
  Fe  Fe5  1  0.50047273  0.00041052  0.25029160  1
  Fe  Fe6  1  0.25196626  -0.00216602  0.49949276  1
  Fe  Fe7  1  0.49926121  0.50037490  0.00057312  1
  Fe  Fe8  1  0.49609894  0.00019641  0.74745665  1
  Fe  Fe9  1  0.87533681  0.12563585  0.62310985  1
  Fe  Fe10  1  0.62397499  0.62541864  0.87633618  1
  Fe  Fe11  1  0.00052116  0.00364681  0.49585849  1
  Fe  Fe12  1  0.62416079  0.37560575  0.37780793  1
  Fe  Fe13  1  0.24901417  0.24949661  0.49889297  1
  Fe  Fe14  1  0.37400687  0.37334891  0.12385101  1
  Fe  Fe15  1  0.37502647  0.87581358  0.12523203  1
  Fe  Fe16  1  0.62300473  0.62496894  0.62348994  1
  Fe  Fe17  1  0.74876570  0.50021021  0.74774521  1
  Fe  Fe18  1  0.74907329  0.00089552  0.49895912  1
  Fe  Fe19  1  0.87469149  0.62541103  0.87427211  1
  Fe  Fe20  1  0.62671379  0.87743993  0.12407935  1
  Fe  Fe21  1  0.75241856  0.24783978  0.00064203  1
  Fe  Fe22  1  0.00048890  0.75074786  0.00125993  1
  Fe  Fe23  1  0.00361013  0.74530350  0.49822234  1
  Fe  Fe24  1  0.49898171  0.75042642  0.75083508  1
  Fe  Fe25  1  0.24942219  0.00177157  0.00079233  1
  Fe  Fe26  1  0.87365332  0.87447897  0.37433637  1
  Fe  Fe27  1  0.74907516  0.75135478  0.74796693  1
  Fe  Fe28  1  0.12707488  0.12292086  0.62512916  1
  Fe  Fe29  1  0.12604593  0.37335259  0.87641030  1
  Fe  Fe30  1  0.37524769  0.12619668  0.12515110  1
  Fe  Fe31  1  0.12484645  0.62466492  0.87376448  1
  Fe  Fe32  1  0.25061309  0.50009456  -0.00028290  1
  Fe  Fe33  1  0.12399502  0.87731998  0.87353391  1
  Fe  Fe34  1  0.87548732  0.87729036  0.87526725  1
  Fe  Fe35  1  0.62341089  0.12528696  0.62413132  1
  Fe  Fe36  1  0.74997808  0.24993746  0.74821699  1
  Fe  Fe37  1  0.12733222  0.87357082  0.62493174  1
  Fe  Fe38  1  0.24989523  -0.00000272  0.25049788  1
  Fe  Fe39  1  0.12200430  0.12606726  0.12632533  1
  Fe  Fe40  1  0.49603706  0.24913573  0.74924242  1
  Fe  Fe41  1  -0.00072566  0.74974123  0.25132425  1
  Fe  Fe42  1  0.49729512  0.50053075  0.74885714  1
  Fe  Fe43  1  0.49932188  0.25314778  0.25287836  1
  Fe  Fe44  1  0.87310902  0.62551888  0.12776404  1
  Fe  Fe45  1  0.87770854  0.37289156  0.12560015  1
  Fe  Fe46  1  0.12389266  0.12416625  0.87457108  1
  Fe  Fe47  1  0.49792127  0.25013742  -0.00138614  1
  Fe  Fe48  1  0.62340433  0.12347507  0.87541394  1
  Fe  Fe49  1  0.00057946  0.49982095  0.74850075  1
  Fe  Fe50  1  0.00082353  0.25045558  0.74769573  1
  Fe  Fe51  1  0.62421600  0.87752290  0.87655571  1
  Fe  Fe52  1  0.25024768  0.74892651  -0.00099481  1
  Fe  Fe53  1  0.12475405  0.87520005  0.12692227  1
  Fe  Fe54  1  0.49849219  0.00066309  0.49993923  1
  Fe  Fe55  1  0.25186829  0.50729799  0.49876949  1
  Fe  Fe56  1  0.87664432  0.12334577  0.13076618  1
  Fe  Fe57  1  0.74834335  0.74808564  0.49903826  1
  Fe  Fe58  1  0.75164317  0.49836617  0.25248755  1
  Fe  Fe59  1  0.62396559  0.87514034  0.37570251  1
  Fe  Fe60  1  0.62370198  0.37483871  0.62213829  1
  Fe  Fe61  1  0.12528557  0.37697009  0.62289047  1
  Fe  Fe62  1  0.37229357  0.87146067  0.62347024  1
  Fe  Fe63  1  0.74823107  0.75029902  0.00160119  1
  Fe  Fe64  1  0.50167747  0.75034851  0.24716503  1
  Fe  Fe65  1  0.12703697  0.87442520  0.37483239  1
  Fe  Fe66  1  0.87545488  0.62403449  0.62346074  1
  Fe  Fe67  1  0.37366449  0.12581357  0.37549795  1
  Fe  Fe68  1  0.00035312  0.75085223  0.74886606  1
  Fe  Fe69  1  0.87711792  0.12237932  0.87407045  1
  Fe  Fe70  1  0.00026393  0.50068022  0.00066475  1
  Fe  Fe71  1  0.75043299  0.50016133  -0.00025214  1
  Fe  Fe72  1  0.87443930  0.87779070  0.12835685  1
  Fe  Fe73  1  0.62693432  0.12741671  0.37476928  1
  Fe  Fe74  1  0.25325811  0.24820120  0.75106078  1
  Fe  Fe75  1  0.87488803  0.37478646  0.87452668  1
  Fe  Fe76  1  0.62542221  0.37545291  0.12431231  1
  Fe  Fe77  1  0.87704978  0.37222969  0.37906427  1
  Fe  Fe78  1  0.62283102  0.62236446  0.37285192  1
  Fe  Fe79  1  0.37566498  0.87584507  0.87793561  1
  Fe  Fe80  1  0.12264784  0.37342266  0.12485128  1
  Fe  Fe81  1  0.62474930  0.37410417  0.87448546  1
  Fe  Fe82  1  0.25306365  0.49937043  0.25101428  1
  Fe  Fe83  1  0.62577757  0.12597433  0.12587681  1
  Fe  Fe84  1  0.12406018  0.37784898  0.37570380  1
  Fe  Fe85  1  0.25271025  0.74936315  0.25300446  1
  Fe  Fe86  1  0.37654487  0.62495952  0.12552032  1
  Fe  Fe87  1  0.87645262  0.37526365  0.62135181  1
  Fe  Fe88  1  0.49743366  0.74930798  0.49854669  1
  Fe  Fe89  1  0.37517085  0.37425728  0.62130388  1
  Co  Co90  1  0.00048032  -0.00069146  0.00233785  1
  Co  Co91  1  0.49956633  0.00044705  0.00318603  1
  Co  Co92  1  0.75101040  0.00160067  0.00143581  1
  Co  Co93  1  0.49828583  0.49556499  0.25002930  1
  Co  Co94  1  0.87120017  0.12716028  0.37279713  1
  Co  Co95  1  0.37884152  0.62560864  0.37186793  1
  Co  Co96  1  0.74947719  0.50053278  0.49971406  1
  Co  Co97  1  0.49721034  0.50046725  0.49992785  1
  Co  Co98  1  0.74739261  -0.00130621  0.25201521  1
  Co  Co99  1  -0.00302102  0.49905216  0.25068883  1
  Co  Co100  1  0.37593444  0.12343173  0.87744821  1
  Co  Co101  1  0.74860817  0.25003441  0.50189947  1
  Co  Co102  1  0.12481734  0.62334564  0.36937386  1
  Co  Co103  1  0.62593551  0.62088271  0.12726316  1
  Co  Co104  1  0.12673592  0.62658021  0.62812516  1
  Co  Co105  1  0.37254592  0.37417847  0.37806440  1
  Co  Co106  1  0.87432740  0.62645323  0.37446067  1
  Co  Co107  1  0.00214190  0.50396934  0.49949262  1
  Co  Co108  1  0.37367365  0.12589478  0.62079970  1
  Co  Co109  1  0.25050645  0.75009244  0.75333075  1
  Co  Co110  1  0.00306944  0.24684715  0.49912816  1
  Co  Co111  1  0.37606768  0.87579675  0.37386829  1
  Co  Co112  1  0.74733665  0.75058187  0.25066085  1
  Co  Co113  1  -0.00158927  0.24870269  -0.00046135  1
  Co  Co114  1  0.74916394  0.25363082  0.24976497  1
  Co  Co115  1  0.12985316  0.12385350  0.37537276  1
  Co  Co116  1  0.24931841  0.74629535  0.49573021  1
  Co  Co117  1  0.00281857  0.24913857  0.25485722  1
  Co  Co118  1  0.25274654  0.00013320  0.74984524  1
  Co  Co119  1  0.37458843  0.37504484  0.87615878  1
  Co  Co120  1  0.24982269  0.24840987  -0.00035329  1
  Co  Co121  1  0.50168232  0.74980338  0.00336660  1
  Co  Co122  1  0.37446094  0.62900024  0.62518107  1
  Co  Co123  1  0.62351217  0.87477267  0.62357932  1
  Co  Co124  1  0.00218403  -0.00010046  0.25464953  1
  Co  Co125  1  0.00011386  -0.00086669  0.74692002  1
  Co  Co126  1  0.50030082  0.24961494  0.49827963  1
  Co  Co127  1  0.37682139  0.62533767  0.87700006  1
