# generated using pymatgen
data_Fe45Co19
_symmetry_space_group_name_H-M   'P 1'
_cell_length_a   11.41364961
_cell_length_b   11.41449126
_cell_length_c   11.41468969
_cell_angle_alpha   90.00513208
_cell_angle_beta   90.00684872
_cell_angle_gamma   89.99396220
_symmetry_Int_Tables_number   1
_chemical_formula_structural   Fe45Co19
_chemical_formula_sum   'Fe90 Co38'
_cell_volume   1487.11720471
_cell_formula_units_Z   2
loop_
 _symmetry_equiv_pos_site_id
 _symmetry_equiv_pos_as_xyz
  1  'x, y, z'
loop_
 _atom_site_type_symbol
 _atom_site_label
 _atom_site_symmetry_multiplicity
 _atom_site_fract_x
 _atom_site_fract_y
 _atom_site_fract_z
 _atom_site_occupancy
  Fe  Fe0  1  0.37148956  0.13058226  0.12471152  1
  Fe  Fe1  1  0.49859335  0.75090801  0.74905349  1
  Fe  Fe2  1  0.74674338  0.24972518  0.25141036  1
  Fe  Fe3  1  0.49585633  -0.00015991  0.25031316  1
  Fe  Fe4  1  0.74832273  0.25030779  0.00103372  1
  Fe  Fe5  1  0.37717665  0.37499041  0.62583365  1
  Fe  Fe6  1  0.00201012  -0.00136001  0.00264861  1
  Fe  Fe7  1  0.00374987  0.24833113  0.25036488  1
  Fe  Fe8  1  0.62353021  0.87369614  0.12554343  1
  Fe  Fe9  1  -0.00092133  0.50043605  0.50032634  1
  Fe  Fe10  1  0.00163552  0.25155220  -0.00071430  1
  Fe  Fe11  1  0.74947047  -0.00029300  0.74917303  1
  Fe  Fe12  1  0.74634731  0.25518916  0.49984187  1
  Fe  Fe13  1  0.74595438  0.50167547  0.25191897  1
  Fe  Fe14  1  0.62183647  0.37563091  0.87705411  1
  Fe  Fe15  1  0.49948853  0.24986245  0.49746590  1
  Fe  Fe16  1  0.37373824  0.12554858  0.62464287  1
  Fe  Fe17  1  0.62434978  0.12223459  0.87719550  1
  Fe  Fe18  1  0.87346422  0.37499166  0.12705748  1
  Fe  Fe19  1  0.25229398  0.00205070  0.49786701  1
  Fe  Fe20  1  0.12919418  0.62412035  0.62528573  1
  Fe  Fe21  1  0.87461216  0.87541806  0.87476445  1
  Fe  Fe22  1  0.74767108  0.25229276  0.74792112  1
  Fe  Fe23  1  0.74884317  0.75234718  -0.00122855  1
  Fe  Fe24  1  0.87304813  0.62610588  0.12536406  1
  Fe  Fe25  1  0.00099497  0.00033830  0.74913702  1
  Fe  Fe26  1  0.00321711  0.24888442  0.75053347  1
  Fe  Fe27  1  0.87373495  0.12362538  0.87625029  1
  Fe  Fe28  1  0.87522074  0.12453372  0.12465992  1
  Fe  Fe29  1  0.62075663  0.87721212  0.62412788  1
  Fe  Fe30  1  0.00054065  0.50130850  0.25058848  1
  Fe  Fe31  1  0.37157416  0.86658926  0.12610168  1
  Fe  Fe32  1  0.74710861  0.74967296  0.74753674  1
  Fe  Fe33  1  0.50241649  0.24860716  0.24988226  1
  Fe  Fe34  1  0.74683360  0.74926890  0.25352575  1
  Fe  Fe35  1  0.49505603  0.75118197  0.49894602  1
  Fe  Fe36  1  0.87367354  0.62401738  0.87437145  1
  Fe  Fe37  1  0.75104030  -0.00242932  0.49798189  1
  Fe  Fe38  1  0.49631604  -0.00153841  0.00206510  1
  Fe  Fe39  1  0.24928122  0.25217001  0.75150008  1
  Fe  Fe40  1  0.62208253  0.62087899  0.61822250  1
  Fe  Fe41  1  0.12873515  0.87500518  0.62348619  1
  Fe  Fe42  1  0.74804149  0.49879253  0.00196631  1
  Fe  Fe43  1  0.87606981  0.87374245  0.62450488  1
  Fe  Fe44  1  0.37516420  0.37185679  0.37038960  1
  Fe  Fe45  1  0.12741148  0.37344591  0.12451811  1
  Fe  Fe46  1  0.37516415  0.62857074  0.37146164  1
  Fe  Fe47  1  0.37799721  0.37526216  0.87754117  1
  Fe  Fe48  1  0.12736499  0.62621799  0.12524379  1
  Fe  Fe49  1  -0.00110156  0.50010670  0.74806203  1
  Fe  Fe50  1  0.50098131  0.24711477  0.75080277  1
  Fe  Fe51  1  0.12837943  0.87609815  0.87716501  1
  Fe  Fe52  1  0.87497901  0.12631479  0.62404596  1
  Fe  Fe53  1  0.87607679  0.37416643  0.37473667  1
  Fe  Fe54  1  0.49861519  0.50158037  0.75039729  1
  Fe  Fe55  1  0.62398073  0.62404259  0.87745370  1
  Fe  Fe56  1  0.87274091  0.62602425  0.62252039  1
  Fe  Fe57  1  0.37599010  0.62624470  0.87751583  1
  Fe  Fe58  1  0.00287206  0.74819251  0.25220532  1
  Fe  Fe59  1  0.25333533  0.49875839  0.00162421  1
  Fe  Fe60  1  0.12817228  0.12359901  0.87780799  1
  Fe  Fe61  1  0.25325745  0.75056137  0.74957117  1
  Fe  Fe62  1  0.87492726  0.12580090  0.37597270  1
  Fe  Fe63  1  0.00315710  0.00150375  0.24969047  1
  Fe  Fe64  1  0.74897369  0.49773655  0.74524726  1
  Fe  Fe65  1  0.00129624  0.00059019  0.49916617  1
  Fe  Fe66  1  0.62158418  0.87570476  0.37480820  1
  Fe  Fe67  1  0.25161762  0.50121489  0.24822278  1
  Fe  Fe68  1  0.62155268  0.87783869  0.87452049  1
  Fe  Fe69  1  0.50179624  0.50481507  0.24574899  1
  Fe  Fe70  1  0.00502084  0.24838839  0.50102081  1
  Fe  Fe71  1  0.87658070  0.87327862  0.12684093  1
  Fe  Fe72  1  0.62435531  0.12421839  0.62297608  1
  Fe  Fe73  1  0.87229308  0.62562870  0.37787854  1
  Fe  Fe74  1  0.25304667  -0.00127458  0.75018307  1
  Fe  Fe75  1  0.24907210  0.00202859  0.24786283  1
  Fe  Fe76  1  0.00260878  0.74966668  0.49840185  1
  Fe  Fe77  1  0.12742420  0.37643392  0.37613088  1
  Fe  Fe78  1  0.37433283  0.12393994  0.87733485  1
  Fe  Fe79  1  0.75091187  -0.00055979  0.25136458  1
  Fe  Fe80  1  0.00207797  0.74882554  -0.00099851  1
  Fe  Fe81  1  0.87566165  0.37595554  0.87389737  1
  Fe  Fe82  1  -0.00005124  0.50001122  0.00168967  1
  Fe  Fe83  1  0.49602893  0.00159799  0.49741638  1
  Fe  Fe84  1  0.62493506  0.12334219  0.12454026  1
  Fe  Fe85  1  0.12761366  0.37726917  0.62567212  1
  Fe  Fe86  1  0.12704703  0.62113081  0.87304997  1
  Fe  Fe87  1  0.00139513  0.75000369  0.75066109  1
  Fe  Fe88  1  0.25489978  0.50146973  0.49984748  1
  Fe  Fe89  1  0.12837656  0.87468038  0.37448411  1
  Co  Co90  1  0.25262181  0.74738390  0.49988018  1
  Co  Co91  1  0.12643087  0.62238094  0.37645219  1
  Co  Co92  1  0.37357063  0.12769024  0.37312954  1
  Co  Co93  1  0.24637572  0.24953813  0.25118412  1
  Co  Co94  1  0.25014992  0.25394274  -0.00255554  1
  Co  Co95  1  0.62440774  0.62422376  0.38170737  1
  Co  Co96  1  0.37648300  0.62475036  0.62641676  1
  Co  Co97  1  0.61727570  0.37810910  0.62395064  1
  Co  Co98  1  0.37636091  0.37181308  0.12741298  1
  Co  Co99  1  0.24816656  0.74822038  -0.00328207  1
  Co  Co100  1  0.12672573  0.87187552  0.12558040  1
  Co  Co101  1  0.74986315  -0.00213887  0.00173518  1
  Co  Co102  1  0.62548561  0.62804230  0.12205218  1
  Co  Co103  1  0.25465802  0.49871770  0.75050680  1
  Co  Co104  1  0.12768156  0.12474258  0.37543406  1
  Co  Co105  1  0.75155946  0.49351976  0.50045889  1
  Co  Co106  1  0.37248084  0.87403534  0.37234839  1
  Co  Co107  1  0.37575091  0.87500549  0.87541000  1
  Co  Co108  1  0.87727356  0.87408708  0.37346023  1
  Co  Co109  1  0.49802432  0.00218841  0.75000050  1
  Co  Co110  1  0.74817907  0.75403016  0.50016723  1
  Co  Co111  1  0.50030734  0.24813742  0.00082485  1
  Co  Co112  1  0.37383575  0.63077804  0.12474427  1
  Co  Co113  1  0.87877346  0.37199003  0.62536597  1
  Co  Co114  1  0.50317281  0.74809425  0.25143380  1
  Co  Co115  1  0.12688342  0.12780871  0.12176088  1
  Co  Co116  1  0.50062806  0.75109722  -0.00096651  1
  Co  Co117  1  0.49801351  0.50091118  0.00555391  1
  Co  Co118  1  0.62354230  0.37479768  0.12538036  1
  Co  Co119  1  0.24608824  0.74737064  0.25322992  1
  Co  Co120  1  0.62443090  0.12280636  0.37496148  1
  Co  Co121  1  0.37446343  0.87716319  0.62436398  1
  Co  Co122  1  0.49230032  0.49941440  0.49543760  1
  Co  Co123  1  0.25266522  -0.00150994  0.00432224  1
  Co  Co124  1  0.12421128  0.37894691  0.87429078  1
  Co  Co125  1  0.62099422  0.37775420  0.37393923  1
  Co  Co126  1  0.25072787  0.25158564  0.50076912  1
  Co  Co127  1  0.12832734  0.12325295  0.62620771  1
