# generated using pymatgen
data_Fe45Co19
_symmetry_space_group_name_H-M   'P 1'
_cell_length_a   11.41394804
_cell_length_b   11.41538888
_cell_length_c   11.41512243
_cell_angle_alpha   89.99881926
_cell_angle_beta   89.98617611
_cell_angle_gamma   90.00387026
_symmetry_Int_Tables_number   1
_chemical_formula_structural   Fe45Co19
_chemical_formula_sum   'Fe90 Co38'
_cell_volume   1487.32939808
_cell_formula_units_Z   2
loop_
 _symmetry_equiv_pos_site_id
 _symmetry_equiv_pos_as_xyz
  1  'x, y, z'
loop_
 _atom_site_type_symbol
 _atom_site_label
 _atom_site_symmetry_multiplicity
 _atom_site_fract_x
 _atom_site_fract_y
 _atom_site_fract_z
 _atom_site_occupancy
  Fe  Fe0  1  0.87792709  0.12704235  0.12746099  1
  Fe  Fe1  1  0.62656780  0.12367259  0.37457212  1
  Fe  Fe2  1  0.49581423  0.74851587  0.75005498  1
  Fe  Fe3  1  0.37197367  0.62676107  0.37833357  1
  Fe  Fe4  1  0.62561808  0.12543933  0.87549003  1
  Fe  Fe5  1  0.49765208  0.74715774  0.24987887  1
  Fe  Fe6  1  -0.00164176  0.49793808  0.25296720  1
  Fe  Fe7  1  0.87883647  0.62547840  0.87438866  1
  Fe  Fe8  1  0.12713282  0.12403926  0.62414352  1
  Fe  Fe9  1  0.87645414  0.62565545  0.12557844  1
  Fe  Fe10  1  0.12811936  0.62278903  0.62785379  1
  Fe  Fe11  1  0.62307697  0.62321005  0.62496537  1
  Fe  Fe12  1  0.49913981  0.25053848  0.75111976  1
  Fe  Fe13  1  0.87625634  0.87203655  0.37540982  1
  Fe  Fe14  1  0.12286456  0.12315643  0.12984317  1
  Fe  Fe15  1  0.75049444  0.00114030  0.74853643  1
  Fe  Fe16  1  0.24980330  -0.00357305  0.49527102  1
  Fe  Fe17  1  -0.00031310  0.24885499  0.74799277  1
  Fe  Fe18  1  0.75172919  -0.00162487  0.00178863  1
  Fe  Fe19  1  0.62817064  0.37723934  0.37198782  1
  Fe  Fe20  1  0.49719400  -0.00057382  0.24976216  1
  Fe  Fe21  1  0.49775673  0.49785718  0.49802222  1
  Fe  Fe22  1  0.74790853  0.24962521  0.50123064  1
  Fe  Fe23  1  0.87587206  0.12496167  0.87568774  1
  Fe  Fe24  1  0.24967618  0.25460729  0.75025651  1
  Fe  Fe25  1  0.50012984  0.25146915  0.24934855  1
  Fe  Fe26  1  0.37342780  0.37496426  0.12262671  1
  Fe  Fe27  1  0.50109810  0.50045056  -0.00148425  1
  Fe  Fe28  1  0.75075810  0.25114332  0.74778123  1
  Fe  Fe29  1  0.24526054  0.25147334  0.00102112  1
  Fe  Fe30  1  0.00151524  0.25056863  0.49791393  1
  Fe  Fe31  1  0.37410209  0.12661727  0.12449053  1
  Fe  Fe32  1  0.37273898  0.62427156  0.12164418  1
  Fe  Fe33  1  0.75105886  0.74802207  0.74840671  1
  Fe  Fe34  1  0.49625001  0.00020102  0.75092653  1
  Fe  Fe35  1  -0.00058078  -0.00174492  0.00147128  1
  Fe  Fe36  1  0.62496238  0.87396617  0.87376338  1
  Fe  Fe37  1  0.12463992  0.87489752  0.87123646  1
  Fe  Fe38  1  0.24968905  0.50030749  0.24920978  1
  Fe  Fe39  1  0.24886727  -0.00022090  -0.00042659  1
  Fe  Fe40  1  0.49436335  0.50129121  0.75272725  1
  Fe  Fe41  1  0.62589318  0.87254347  0.12531765  1
  Fe  Fe42  1  0.87531136  0.87695875  0.62418824  1
  Fe  Fe43  1  0.37347549  0.12623917  0.37430093  1
  Fe  Fe44  1  0.12575719  0.37513121  0.37611916  1
  Fe  Fe45  1  0.24246872  0.50047395  -0.00306938  1
  Fe  Fe46  1  0.74912945  0.74750491  -0.00144087  1
  Fe  Fe47  1  0.62491233  0.12457218  0.12500882  1
  Fe  Fe48  1  0.25465163  0.74930496  0.74925262  1
  Fe  Fe49  1  0.50033959  0.74809001  -0.00196288  1
  Fe  Fe50  1  0.75083995  0.50207467  0.00025558  1
  Fe  Fe51  1  0.87711862  0.87439138  0.87361692  1
  Fe  Fe52  1  0.87728713  0.37423984  0.12614682  1
  Fe  Fe53  1  0.74968449  0.74746490  0.50034512  1
  Fe  Fe54  1  0.00254673  -0.00151830  0.49695321  1
  Fe  Fe55  1  0.25014286  0.49776881  0.50320674  1
  Fe  Fe56  1  0.75129046  0.49981886  0.75047014  1
  Fe  Fe57  1  0.87986437  0.37451867  0.87773200  1
  Fe  Fe58  1  0.62354720  0.37639045  0.62478008  1
  Fe  Fe59  1  0.37313888  0.87491010  0.12520159  1
  Fe  Fe60  1  0.37389176  0.12546715  0.62400209  1
  Fe  Fe61  1  0.62514034  0.37520462  0.87520282  1
  Fe  Fe62  1  0.25094264  0.25328459  0.50000456  1
  Fe  Fe63  1  0.00227466  0.75104300  0.24838354  1
  Fe  Fe64  1  0.87543281  0.12713386  0.37379535  1
  Fe  Fe65  1  0.62445230  0.87475347  0.37551562  1
  Fe  Fe66  1  0.75280431  -0.00164495  0.24995949  1
  Fe  Fe67  1  0.12577731  0.87706779  0.13027391  1
  Fe  Fe68  1  0.12686775  0.62757829  0.37427994  1
  Fe  Fe69  1  0.62704558  0.37768585  0.12731380  1
  Fe  Fe70  1  0.00435576  0.74994231  0.50284775  1
  Fe  Fe71  1  0.75229826  0.50287783  0.49569181  1
  Fe  Fe72  1  0.74970783  0.25048450  0.00132016  1
  Fe  Fe73  1  0.49710210  0.75119366  0.50203201  1
  Fe  Fe74  1  0.87769172  0.62304466  0.62372052  1
  Fe  Fe75  1  0.24628117  0.74913869  0.00170602  1
  Fe  Fe76  1  0.37426342  0.12764762  0.87826078  1
  Fe  Fe77  1  0.00309225  0.49966063  0.75020475  1
  Fe  Fe78  1  0.87479100  0.12300818  0.62267185  1
  Fe  Fe79  1  0.62526667  0.87711234  0.62491844  1
  Fe  Fe80  1  0.74798623  0.74575958  0.25180518  1
  Fe  Fe81  1  0.87850030  0.37732400  0.62089972  1
  Fe  Fe82  1  0.49890233  -0.00036722  0.50009500  1
  Fe  Fe83  1  0.12300802  0.12500451  0.87366142  1
  Fe  Fe84  1  0.49873172  0.50215857  0.25026416  1
  Fe  Fe85  1  0.12748435  0.87770430  0.62889308  1
  Fe  Fe86  1  0.49904959  -0.00064358  -0.00024186  1
  Fe  Fe87  1  0.50064598  0.25134145  0.49818931  1
  Fe  Fe88  1  0.24776784  0.25095829  0.24964328  1
  Fe  Fe89  1  0.00329671  0.74878706  0.00063840  1
  Co  Co90  1  0.37106079  0.62430533  0.87781955  1
  Co  Co91  1  0.87432684  0.87053432  0.12583468  1
  Co  Co92  1  0.62493854  0.62447190  0.87290290  1
  Co  Co93  1  0.62494701  0.62438422  0.12479118  1
  Co  Co94  1  0.12366608  0.62383975  0.12925556  1
  Co  Co95  1  0.37490509  0.87248622  0.37378357  1
  Co  Co96  1  -0.00018616  0.00171065  0.74886136  1
  Co  Co97  1  0.12574985  0.87198947  0.37024355  1
  Co  Co98  1  0.00213744  0.24749740  0.00175574  1
  Co  Co99  1  0.12023262  0.37373685  0.87538837  1
  Co  Co100  1  0.75059696  0.00028298  0.49833544  1
  Co  Co101  1  0.00267305  0.50356679  0.00045042  1
  Co  Co102  1  0.62334038  0.12436471  0.62536326  1
  Co  Co103  1  0.12207590  0.37479711  0.62411040  1
  Co  Co104  1  0.37720718  0.37414335  0.62510512  1
  Co  Co105  1  0.87297185  0.37239757  0.37602080  1
  Co  Co106  1  0.25227008  0.00054023  0.25205826  1
  Co  Co107  1  0.75309306  0.50450279  0.25196778  1
  Co  Co108  1  0.00353585  0.25317489  0.25287056  1
  Co  Co109  1  0.25072658  0.49494275  0.75108210  1
  Co  Co110  1  0.12602346  0.12552180  0.37458893  1
  Co  Co111  1  0.24772227  0.75324123  0.50171924  1
  Co  Co112  1  0.37318546  0.87350475  0.87755390  1
  Co  Co113  1  0.62160144  0.62478971  0.37691812  1
  Co  Co114  1  0.37357510  0.37433337  0.87956274  1
  Co  Co115  1  0.37306906  0.37514267  0.37270185  1
  Co  Co116  1  0.37315205  0.87767345  0.62492505  1
  Co  Co117  1  0.74879877  0.24937478  0.24877765  1
  Co  Co118  1  -0.00115446  0.74997167  0.74610527  1
  Co  Co119  1  0.00231822  0.50240127  0.49683216  1
  Co  Co120  1  0.88011438  0.62938464  0.37434318  1
  Co  Co121  1  0.25275919  0.00191041  0.75291457  1
  Co  Co122  1  0.50269415  0.25149078  0.00190395  1
  Co  Co123  1  0.12252526  0.37611256  0.12473608  1
  Co  Co124  1  0.12518428  0.62704235  0.86984134  1
  Co  Co125  1  0.37341018  0.62263870  0.62254603  1
  Co  Co126  1  -0.00260914  -0.00087322  0.25218045  1
  Co  Co127  1  0.25274465  0.74845811  0.24822044  1
