# generated using pymatgen
data_Fe45Co19
_symmetry_space_group_name_H-M   'P 1'
_cell_length_a   11.41566152
_cell_length_b   11.41597122
_cell_length_c   11.41437845
_cell_angle_alpha   90.00097736
_cell_angle_beta   90.00310341
_cell_angle_gamma   89.99714071
_symmetry_Int_Tables_number   1
_chemical_formula_structural   Fe45Co19
_chemical_formula_sum   'Fe90 Co38'
_cell_volume   1487.53165011
_cell_formula_units_Z   2
loop_
 _symmetry_equiv_pos_site_id
 _symmetry_equiv_pos_as_xyz
  1  'x, y, z'
loop_
 _atom_site_type_symbol
 _atom_site_label
 _atom_site_symmetry_multiplicity
 _atom_site_fract_x
 _atom_site_fract_y
 _atom_site_fract_z
 _atom_site_occupancy
  Fe  Fe0  1  -0.00331142  0.00255623  -0.00431245  1
  Fe  Fe1  1  0.50304596  0.25332495  0.74982358  1
  Fe  Fe2  1  0.74616901  0.00137697  0.50063592  1
  Fe  Fe3  1  0.62626004  0.62188519  0.87613999  1
  Fe  Fe4  1  0.87326587  0.62343066  0.37467342  1
  Fe  Fe5  1  -0.00240948  0.74755946  0.50181969  1
  Fe  Fe6  1  0.24951914  0.25139275  0.25122782  1
  Fe  Fe7  1  0.37536265  0.12356347  0.87188438  1
  Fe  Fe8  1  0.74875350  -0.00289417  0.25031720  1
  Fe  Fe9  1  0.24978849  -0.00059695  0.50154146  1
  Fe  Fe10  1  0.62877294  0.63017243  0.37819491  1
  Fe  Fe11  1  0.12551097  0.12482080  0.62683215  1
  Fe  Fe12  1  -0.00031467  0.00009549  0.25002444  1
  Fe  Fe13  1  0.25015180  0.25059286  -0.00189782  1
  Fe  Fe14  1  0.37543628  0.37527776  0.37612355  1
  Fe  Fe15  1  0.49985753  0.24940166  -0.00043384  1
  Fe  Fe16  1  0.62273430  0.87162421  0.62140034  1
  Fe  Fe17  1  0.38006452  0.87558502  0.37493296  1
  Fe  Fe18  1  0.75101383  0.49755025  0.50239248  1
  Fe  Fe19  1  -0.00703533  0.24947322  0.49940116  1
  Fe  Fe20  1  0.62394564  0.87264626  0.87739133  1
  Fe  Fe21  1  0.87448059  0.87609858  0.62581616  1
  Fe  Fe22  1  0.87537399  0.37870924  0.12811616  1
  Fe  Fe23  1  -0.00215510  0.24865783  -0.00069500  1
  Fe  Fe24  1  0.24595948  0.50026017  0.49824029  1
  Fe  Fe25  1  0.12203660  0.37451789  0.62211389  1
  Fe  Fe26  1  0.25161599  0.24929130  0.50071787  1
  Fe  Fe27  1  0.00395461  0.50044625  0.75098908  1
  Fe  Fe28  1  0.62539671  0.37589523  0.12356072  1
  Fe  Fe29  1  0.37168700  0.62608848  0.37096992  1
  Fe  Fe30  1  0.50322253  0.50225863  0.25045065  1
  Fe  Fe31  1  0.62677394  0.12598598  0.12688847  1
  Fe  Fe32  1  0.49717907  0.74547158  -0.00083802  1
  Fe  Fe33  1  0.25154419  -0.00107879  -0.00324734  1
  Fe  Fe34  1  0.62594796  0.37316078  0.37768843  1
  Fe  Fe35  1  0.87510045  0.87610596  0.37677015  1
  Fe  Fe36  1  0.00530911  0.49995435  0.25516269  1
  Fe  Fe37  1  0.74899802  0.75131017  0.74923556  1
  Fe  Fe38  1  0.75186305  0.25242679  -0.00142587  1
  Fe  Fe39  1  0.50141338  0.00251959  -0.00036335  1
  Fe  Fe40  1  -0.00184979  0.24982305  0.25151171  1
  Fe  Fe41  1  0.37147217  0.62384398  0.12828088  1
  Fe  Fe42  1  0.25021358  0.25350773  0.74934423  1
  Fe  Fe43  1  0.37719653  0.87637639  0.62495410  1
  Fe  Fe44  1  0.87388079  0.12409492  0.12593189  1
  Fe  Fe45  1  0.00041227  0.50425195  -0.00285493  1
  Fe  Fe46  1  0.12452808  0.37530549  0.12385577  1
  Fe  Fe47  1  0.25242597  0.75318295  0.75215877  1
  Fe  Fe48  1  0.87394809  0.62309577  0.12840888  1
  Fe  Fe49  1  0.12389746  0.12626868  0.37616969  1
  Fe  Fe50  1  0.49914474  0.24840826  0.25097514  1
  Fe  Fe51  1  0.50319610  0.49931506  0.74804176  1
  Fe  Fe52  1  0.75152309  0.00013793  -0.00310602  1
  Fe  Fe53  1  0.37753496  0.37703582  0.62226631  1
  Fe  Fe54  1  0.12283927  0.87299413  0.37730996  1
  Fe  Fe55  1  0.87318012  0.62170347  0.62727829  1
  Fe  Fe56  1  0.62426010  0.87277898  0.12400873  1
  Fe  Fe57  1  0.62766511  0.62478492  0.12355710  1
  Fe  Fe58  1  0.37669112  0.37814411  0.87488235  1
  Fe  Fe59  1  0.12536263  0.12434199  0.12462934  1
  Fe  Fe60  1  0.62200521  0.87160700  0.37687117  1
  Fe  Fe61  1  0.12721488  0.62736513  0.12733515  1
  Fe  Fe62  1  0.12541387  0.12463025  0.87313399  1
  Fe  Fe63  1  0.00057842  0.00109147  0.50458644  1
  Fe  Fe64  1  0.37283204  0.62291899  0.62784008  1
  Fe  Fe65  1  0.37836092  0.87523488  0.12495270  1
  Fe  Fe66  1  0.87592926  0.87435041  0.12238414  1
  Fe  Fe67  1  0.25167532  0.75107252  0.50009234  1
  Fe  Fe68  1  0.37547333  0.12325925  0.62689830  1
  Fe  Fe69  1  0.86770770  0.12514529  0.63043474  1
  Fe  Fe70  1  0.12254276  0.87421229  0.12237148  1
  Fe  Fe71  1  0.50329069  -0.00047598  0.74893247  1
  Fe  Fe72  1  0.75470400  0.74719224  -0.00118486  1
  Fe  Fe73  1  0.87624445  0.37649496  0.87434288  1
  Fe  Fe74  1  0.75329520  0.25106369  0.25384761  1
  Fe  Fe75  1  0.50064995  0.50515564  0.49895111  1
  Fe  Fe76  1  0.24987768  -0.00197261  0.25096308  1
  Fe  Fe77  1  0.74614583  0.49412732  0.74849711  1
  Fe  Fe78  1  0.25137639  0.75057549  -0.00304177  1
  Fe  Fe79  1  -0.00121525  0.24942204  0.75043686  1
  Fe  Fe80  1  -0.00202353  0.75046476  0.74969048  1
  Fe  Fe81  1  0.12660473  0.62697126  0.62592494  1
  Fe  Fe82  1  0.50073523  0.74707994  0.74924838  1
  Fe  Fe83  1  0.24866135  0.50059147  -0.00367759  1
  Fe  Fe84  1  0.37439634  0.12415735  0.12639359  1
  Fe  Fe85  1  -0.00137026  0.75064796  0.25026487  1
  Fe  Fe86  1  0.50165674  0.24316408  0.49926765  1
  Fe  Fe87  1  0.62919679  0.12711511  0.87126905  1
  Fe  Fe88  1  0.37472265  0.37700971  0.12546215  1
  Fe  Fe89  1  0.12131639  0.87460280  0.87380377  1
  Co  Co90  1  0.74688759  0.26022276  0.74914245  1
  Co  Co91  1  0.12326082  0.36974325  0.37897133  1
  Co  Co92  1  0.25010425  0.75584107  0.24934386  1
  Co  Co93  1  -0.00145911  0.00073633  0.74925560  1
  Co  Co94  1  0.86993365  0.12744434  0.86996883  1
  Co  Co95  1  0.50188972  0.74676886  0.24882840  1
  Co  Co96  1  0.50232940  0.00399157  0.50126176  1
  Co  Co97  1  0.24680466  0.49498784  0.74885980  1
  Co  Co98  1  0.75112226  0.75211361  0.24979395  1
  Co  Co99  1  -0.00179255  0.74485587  -0.00072230  1
  Co  Co100  1  0.24896809  -0.00176767  0.74967434  1
  Co  Co101  1  0.12476155  0.87251418  0.62583720  1
  Co  Co102  1  0.87864823  0.37801338  0.62585644  1
  Co  Co103  1  0.87216868  0.62346402  0.86980575  1
  Co  Co104  1  0.87691630  0.87283788  0.87559945  1
  Co  Co105  1  0.24644056  0.49599936  0.25365658  1
  Co  Co106  1  0.87436685  0.12074848  0.37527633  1
  Co  Co107  1  0.62265548  0.37804959  0.88110465  1
  Co  Co108  1  0.49785829  0.50266926  0.00316548  1
  Co  Co109  1  0.49608615  0.74572197  0.50141704  1
  Co  Co110  1  0.62123347  0.37353194  0.61792560  1
  Co  Co111  1  0.12316463  0.37342215  0.87603336  1
  Co  Co112  1  0.37924776  0.87588449  0.87424071  1
  Co  Co113  1  0.37476247  0.62159399  0.87142809  1
  Co  Co114  1  0.12689298  0.63108493  0.37459451  1
  Co  Co115  1  0.62758067  0.62550560  0.62364852  1
  Co  Co116  1  0.62721035  0.12545665  0.37279077  1
  Co  Co117  1  0.00275713  0.50398548  0.49827067  1
  Co  Co118  1  0.87496999  0.37994238  0.37477837  1
  Co  Co119  1  0.74825437  -0.00629784  0.75107688  1
  Co  Co120  1  0.50169721  0.00060705  0.24922748  1
  Co  Co121  1  0.75352148  0.25050952  0.49924168  1
  Co  Co122  1  0.75397891  0.49950830  0.00014483  1
  Co  Co123  1  0.75416704  0.75062135  0.50221157  1
  Co  Co124  1  0.37337595  0.12332643  0.37428307  1
  Co  Co125  1  0.12700755  0.62803994  0.87157795  1
  Co  Co126  1  0.74527538  0.50028735  0.25148068  1
  Co  Co127  1  0.62914714  0.12744558  0.62878894  1
