# generated using pymatgen
data_Fe45Co19
_symmetry_space_group_name_H-M   'P 1'
_cell_length_a   11.41406517
_cell_length_b   11.41507235
_cell_length_c   11.41505508
_cell_angle_alpha   89.99375580
_cell_angle_beta   90.00657994
_cell_angle_gamma   89.99794069
_symmetry_Int_Tables_number   1
_chemical_formula_structural   Fe45Co19
_chemical_formula_sum   'Fe90 Co38'
_cell_volume   1487.29467329
_cell_formula_units_Z   2
loop_
 _symmetry_equiv_pos_site_id
 _symmetry_equiv_pos_as_xyz
  1  'x, y, z'
loop_
 _atom_site_type_symbol
 _atom_site_label
 _atom_site_symmetry_multiplicity
 _atom_site_fract_x
 _atom_site_fract_y
 _atom_site_fract_z
 _atom_site_occupancy
  Fe  Fe0  1  0.24828118  0.75040420  0.75293417  1
  Fe  Fe1  1  -0.00229168  0.50283212  0.00329585  1
  Fe  Fe2  1  0.75293849  -0.00416746  0.49961816  1
  Fe  Fe3  1  0.37131038  0.62920193  0.12950206  1
  Fe  Fe4  1  0.00172069  0.75137160  0.75214946  1
  Fe  Fe5  1  0.87682770  0.12545013  0.12702115  1
  Fe  Fe6  1  0.00386737  0.74636781  -0.00107234  1
  Fe  Fe7  1  -0.00277425  -0.00309695  0.50026566  1
  Fe  Fe8  1  0.37292875  0.37321266  0.12791291  1
  Fe  Fe9  1  -0.00058706  0.50019203  0.74757974  1
  Fe  Fe10  1  0.62435251  0.87321272  0.12195564  1
  Fe  Fe11  1  0.75112179  0.24921818  0.49702530  1
  Fe  Fe12  1  0.62530511  0.37538869  0.62241250  1
  Fe  Fe13  1  0.50120063  -0.00099119  0.75029778  1
  Fe  Fe14  1  -0.00102181  0.25174176  -0.00046021  1
  Fe  Fe15  1  0.75136183  -0.00162574  -0.00043139  1
  Fe  Fe16  1  0.87689550  0.86875106  0.12668300  1
  Fe  Fe17  1  0.87272062  0.37445077  0.62492444  1
  Fe  Fe18  1  0.12674202  0.37707216  0.12605974  1
  Fe  Fe19  1  0.00043724  0.25073977  0.75007493  1
  Fe  Fe20  1  0.50164498  0.75144605  0.75015447  1
  Fe  Fe21  1  0.25102840  0.25164753  0.75211292  1
  Fe  Fe22  1  0.25601074  0.50192970  0.49963441  1
  Fe  Fe23  1  0.87536888  0.37676371  0.37173654  1
  Fe  Fe24  1  0.12450452  0.37949964  0.37581323  1
  Fe  Fe25  1  0.37360326  0.87374965  0.62577801  1
  Fe  Fe26  1  0.37324301  0.12733890  0.13078434  1
  Fe  Fe27  1  0.49821769  0.00036729  0.00221365  1
  Fe  Fe28  1  0.87434363  0.12266474  0.62701902  1
  Fe  Fe29  1  0.87709274  0.12224706  0.37186285  1
  Fe  Fe30  1  0.74722279  0.75118515  0.75120079  1
  Fe  Fe31  1  0.75145021  0.25132759  0.00021445  1
  Fe  Fe32  1  -0.00137210  0.75281200  0.49635352  1
  Fe  Fe33  1  0.62601463  0.12290594  0.62538088  1
  Fe  Fe34  1  0.49807511  0.49851909  0.74472850  1
  Fe  Fe35  1  0.38126344  0.62511770  0.37126805  1
  Fe  Fe36  1  0.00145505  0.50554976  0.24616943  1
  Fe  Fe37  1  0.12629586  0.62533230  0.62337005  1
  Fe  Fe38  1  0.50072874  0.24967779  -0.00064984  1
  Fe  Fe39  1  0.74639046  0.74661839  -0.00205402  1
  Fe  Fe40  1  0.36769537  0.87087271  0.12880822  1
  Fe  Fe41  1  0.24946243  0.25081126  0.00004353  1
  Fe  Fe42  1  0.37489883  0.12466402  0.87538411  1
  Fe  Fe43  1  0.37813847  0.37408480  0.37204374  1
  Fe  Fe44  1  0.74875807  0.24957157  0.25053222  1
  Fe  Fe45  1  0.25223085  0.49885672  0.74801917  1
  Fe  Fe46  1  0.62336316  0.12261994  0.37453447  1
  Fe  Fe47  1  0.74897144  0.50406155  0.24693778  1
  Fe  Fe48  1  0.25036973  0.24753386  0.49500709  1
  Fe  Fe49  1  0.25206320  0.74731862  0.49705225  1
  Fe  Fe50  1  0.00385696  0.25014679  0.25042703  1
  Fe  Fe51  1  0.37173993  0.87624230  0.37121658  1
  Fe  Fe52  1  0.87555875  0.62895227  0.62498297  1
  Fe  Fe53  1  0.62610367  0.37567380  0.12465869  1
  Fe  Fe54  1  0.50010552  0.25141131  0.75241642  1
  Fe  Fe55  1  0.87224712  0.38006795  0.87471092  1
  Fe  Fe56  1  0.74865426  -0.00234353  0.24881335  1
  Fe  Fe57  1  0.74933806  -0.00577647  0.75317667  1
  Fe  Fe58  1  0.50095858  0.24942020  0.49801505  1
  Fe  Fe59  1  0.37576645  0.87575304  0.87554810  1
  Fe  Fe60  1  -0.00002898  -0.00187581  0.00185497  1
  Fe  Fe61  1  0.00675290  -0.00584277  0.24720268  1
  Fe  Fe62  1  0.75070636  0.50369496  0.49940775  1
  Fe  Fe63  1  0.62241008  0.62908751  0.61965974  1
  Fe  Fe64  1  0.62521358  0.12486093  0.12405460  1
  Fe  Fe65  1  0.87610452  0.62761904  0.37243284  1
  Fe  Fe66  1  0.50050113  -0.00262260  0.24870684  1
  Fe  Fe67  1  0.12511228  0.37880246  0.87578812  1
  Fe  Fe68  1  0.74843748  0.25109815  0.75142075  1
  Fe  Fe69  1  0.37579358  0.12673351  0.62565237  1
  Fe  Fe70  1  0.87443653  0.12387997  0.87448386  1
  Fe  Fe71  1  0.12578356  0.87677669  0.87659001  1
  Fe  Fe72  1  0.62458528  0.87173329  0.37826609  1
  Fe  Fe73  1  0.37633561  0.62355647  0.87216000  1
  Fe  Fe74  1  0.12469599  0.12347249  0.62606430  1
  Fe  Fe75  1  0.49813044  -0.00224909  0.50006824  1
  Fe  Fe76  1  -0.00335429  0.49991296  0.50221248  1
  Fe  Fe77  1  0.87224848  0.62342760  0.87464104  1
  Fe  Fe78  1  0.12593099  0.87548182  0.62424095  1
  Fe  Fe79  1  0.62329674  0.37962553  0.37468227  1
  Fe  Fe80  1  0.25203311  0.00342580  0.49884208  1
  Fe  Fe81  1  0.74553812  0.74853347  0.25189774  1
  Fe  Fe82  1  -0.00147551  0.25012520  0.49979595  1
  Fe  Fe83  1  0.25027613  -0.00008393  0.00254201  1
  Fe  Fe84  1  0.12553249  0.12329847  0.87530886  1
  Fe  Fe85  1  0.62621823  0.38102841  0.87622941  1
  Fe  Fe86  1  0.25117201  0.50324272  0.00014804  1
  Fe  Fe87  1  0.12771314  0.37550972  0.62258302  1
  Fe  Fe88  1  0.49847954  0.74839195  0.00069573  1
  Fe  Fe89  1  0.49942114  0.50281615  0.00356780  1
  Co  Co90  1  0.37443803  0.62881075  0.62796349  1
  Co  Co91  1  0.12963241  0.86836491  0.12203310  1
  Co  Co92  1  0.12276154  0.62006321  0.38060190  1
  Co  Co93  1  0.25093811  0.50188590  0.25240301  1
  Co  Co94  1  0.12459440  0.12693878  0.12279885  1
  Co  Co95  1  0.37623930  0.37748923  0.87764057  1
  Co  Co96  1  0.87564655  0.87328426  0.62708468  1
  Co  Co97  1  0.37339533  0.36997994  0.62236060  1
  Co  Co98  1  0.62163458  0.87511188  0.87871828  1
  Co  Co99  1  0.62047376  0.62486439  0.37716388  1
  Co  Co100  1  -0.00021666  -0.00214373  0.75210441  1
  Co  Co101  1  0.74896016  0.50317656  0.74447086  1
  Co  Co102  1  0.62551070  0.12324452  0.87637966  1
  Co  Co103  1  0.24504103  0.00283244  0.24914978  1
  Co  Co104  1  0.50058674  0.49983803  0.24524066  1
  Co  Co105  1  0.62497691  0.87321595  0.62196111  1
  Co  Co106  1  0.37836321  0.12418584  0.37040666  1
  Co  Co107  1  0.62335019  0.62120212  0.87428831  1
  Co  Co108  1  0.87570043  0.37381061  0.12777986  1
  Co  Co109  1  0.24584897  0.24918860  0.25340696  1
  Co  Co110  1  0.12538027  0.62052107  0.87300447  1
  Co  Co111  1  0.00850415  0.74983325  0.25364562  1
  Co  Co112  1  0.12829217  0.87760430  0.37918214  1
  Co  Co113  1  0.49642332  0.50027747  0.50321518  1
  Co  Co114  1  0.87589694  0.63239356  0.12677613  1
  Co  Co115  1  0.62290482  0.62733997  0.12603559  1
  Co  Co116  1  0.12944407  0.62696788  0.12379646  1
  Co  Co117  1  0.87563960  0.87112171  0.87798565  1
  Co  Co118  1  0.75186017  0.50281855  0.00586115  1
  Co  Co119  1  0.49503020  0.75203651  0.49867790  1
  Co  Co120  1  0.24381837  0.74648936  0.25725259  1
  Co  Co121  1  0.12110474  0.12201630  0.37685436  1
  Co  Co122  1  0.50351510  0.25074009  0.24949644  1
  Co  Co123  1  0.50170502  0.75367709  0.24938446  1
  Co  Co124  1  0.25080652  -0.00085358  0.75034695  1
  Co  Co125  1  0.75298167  0.75046217  0.49786556  1
  Co  Co126  1  0.87525190  0.87392102  0.36893712  1
  Co  Co127  1  0.25136465  0.74745902  -0.00664316  1
