# generated using pymatgen
data_Fe45Co19
_symmetry_space_group_name_H-M   'P 1'
_cell_length_a   11.41551241
_cell_length_b   11.41467211
_cell_length_c   11.41524158
_cell_angle_alpha   90.00125949
_cell_angle_beta   89.99635674
_cell_angle_gamma   89.99666354
_symmetry_Int_Tables_number   1
_chemical_formula_structural   Fe45Co19
_chemical_formula_sum   'Fe90 Co38'
_cell_volume   1487.45541298
_cell_formula_units_Z   2
loop_
 _symmetry_equiv_pos_site_id
 _symmetry_equiv_pos_as_xyz
  1  'x, y, z'
loop_
 _atom_site_type_symbol
 _atom_site_label
 _atom_site_symmetry_multiplicity
 _atom_site_fract_x
 _atom_site_fract_y
 _atom_site_fract_z
 _atom_site_occupancy
  Fe  Fe0  1  0.87604676  0.87161705  0.87590734  1
  Fe  Fe1  1  0.62231000  0.12436269  0.87232939  1
  Fe  Fe2  1  0.87389805  0.87390152  0.37654741  1
  Fe  Fe3  1  0.12982296  0.87668207  0.62541195  1
  Fe  Fe4  1  0.25367881  0.74753101  0.74970961  1
  Fe  Fe5  1  -0.00080336  0.74987719  0.50282464  1
  Fe  Fe6  1  0.12849116  0.37648120  0.62678300  1
  Fe  Fe7  1  0.37534613  0.87739233  0.12535599  1
  Fe  Fe8  1  0.25395213  0.74789051  0.25075014  1
  Fe  Fe9  1  0.74857703  0.75012700  0.74822740  1
  Fe  Fe10  1  -0.00172029  0.74963523  0.24825847  1
  Fe  Fe11  1  0.37468416  0.11746670  0.62693585  1
  Fe  Fe12  1  0.00184813  0.25312346  0.00195240  1
  Fe  Fe13  1  0.12746259  0.12953859  0.87643015  1
  Fe  Fe14  1  0.12515199  0.62682327  0.37514157  1
  Fe  Fe15  1  0.00157037  -0.00073640  0.49984988  1
  Fe  Fe16  1  0.87546252  0.12356426  0.62580112  1
  Fe  Fe17  1  0.37649182  0.62320578  0.12368828  1
  Fe  Fe18  1  0.00184028  0.49695542  -0.00162774  1
  Fe  Fe19  1  0.49687197  0.75357720  0.74688398  1
  Fe  Fe20  1  0.75023190  0.24926298  0.24896354  1
  Fe  Fe21  1  0.12648498  0.12246996  0.62574550  1
  Fe  Fe22  1  0.00064640  0.25287791  0.75007658  1
  Fe  Fe23  1  0.37992942  0.12241938  0.37480979  1
  Fe  Fe24  1  0.25302561  0.74952486  0.49967848  1
  Fe  Fe25  1  0.12597861  0.62457028  0.62598428  1
  Fe  Fe26  1  0.00086602  0.25170091  0.50052077  1
  Fe  Fe27  1  0.00026376  0.50059862  0.24973860  1
  Fe  Fe28  1  0.74870818  0.50101376  0.75026365  1
  Fe  Fe29  1  0.25132951  0.50175606  0.49797369  1
  Fe  Fe30  1  0.62609893  0.87067288  0.12538900  1
  Fe  Fe31  1  -0.00129335  0.24899990  0.24679831  1
  Fe  Fe32  1  0.49843857  0.75304607  0.50497166  1
  Fe  Fe33  1  0.87730345  0.62746450  0.87423375  1
  Fe  Fe34  1  0.37478783  0.87386908  0.87553486  1
  Fe  Fe35  1  0.00083317  -0.00159484  0.75176026  1
  Fe  Fe36  1  0.25183147  0.24781819  0.50076109  1
  Fe  Fe37  1  0.62428251  0.37341669  0.87265960  1
  Fe  Fe38  1  0.74756708  0.24890519  0.50231162  1
  Fe  Fe39  1  0.87454225  0.12544052  0.37559534  1
  Fe  Fe40  1  0.62377080  0.12578925  0.12471177  1
  Fe  Fe41  1  0.74679635  0.50145459  -0.00106872  1
  Fe  Fe42  1  0.00043530  0.49794251  0.75182096  1
  Fe  Fe43  1  0.50045841  0.24968328  0.50395442  1
  Fe  Fe44  1  0.74817296  0.25103733  -0.00053862  1
  Fe  Fe45  1  0.12846594  0.37338485  0.37049569  1
  Fe  Fe46  1  0.00004296  0.00011171  0.00062764  1
  Fe  Fe47  1  0.12578542  0.62466064  0.12484787  1
  Fe  Fe48  1  0.12668757  0.87573326  0.12545186  1
  Fe  Fe49  1  -0.00177184  0.00156229  0.24730977  1
  Fe  Fe50  1  0.49881492  0.49953551  0.74903546  1
  Fe  Fe51  1  0.74618784  0.00153771  0.49808273  1
  Fe  Fe52  1  0.62330452  0.12059862  0.62920921  1
  Fe  Fe53  1  0.25067453  0.74813881  0.00047373  1
  Fe  Fe54  1  0.74728448  0.00072017  0.25082911  1
  Fe  Fe55  1  0.62441410  0.37230793  0.37543287  1
  Fe  Fe56  1  0.12475315  0.87433018  0.37345144  1
  Fe  Fe57  1  0.87545760  0.12658929  0.87571916  1
  Fe  Fe58  1  0.12415756  0.12620122  0.37359999  1
  Fe  Fe59  1  0.74931192  0.25019411  0.74971405  1
  Fe  Fe60  1  0.00062864  0.49941222  0.49985593  1
  Fe  Fe61  1  0.25166773  0.00275545  0.25065258  1
  Fe  Fe62  1  0.62095556  0.62776339  0.87434508  1
  Fe  Fe63  1  0.50115325  0.49755523  0.00074860  1
  Fe  Fe64  1  0.50059545  0.75040435  0.00101975  1
  Fe  Fe65  1  0.37395824  0.37592291  0.37287439  1
  Fe  Fe66  1  0.62414295  0.87201540  0.37500786  1
  Fe  Fe67  1  0.87470243  0.62555680  0.37769734  1
  Fe  Fe68  1  0.87291283  0.37666617  0.62494230  1
  Fe  Fe69  1  0.37717772  0.87735530  0.37567548  1
  Fe  Fe70  1  0.50088040  0.50149530  0.25012172  1
  Fe  Fe71  1  0.87237601  0.87303855  0.12317565  1
  Fe  Fe72  1  0.37167227  0.37413039  0.87187801  1
  Fe  Fe73  1  0.37496535  0.12634110  0.87416232  1
  Fe  Fe74  1  0.12491159  0.87174232  0.87572020  1
  Fe  Fe75  1  0.87320259  0.37535001  0.37589792  1
  Fe  Fe76  1  0.37505756  0.37855360  0.62586787  1
  Fe  Fe77  1  0.87288365  0.62661867  0.12271998  1
  Fe  Fe78  1  0.24965295  0.49805201  -0.00104439  1
  Fe  Fe79  1  0.49799658  0.25016211  0.24675186  1
  Fe  Fe80  1  0.74830304  -0.00116414  -0.00299473  1
  Fe  Fe81  1  0.74606390  0.50225338  0.50208280  1
  Fe  Fe82  1  0.50187058  -0.00157288  -0.00107888  1
  Fe  Fe83  1  0.12419128  0.62638574  0.87432683  1
  Fe  Fe84  1  0.49706808  0.25306131  0.00106722  1
  Fe  Fe85  1  0.25007799  0.00133726  -0.00131965  1
  Fe  Fe86  1  0.87260152  0.87579897  0.62411981  1
  Fe  Fe87  1  0.62165662  0.62891108  0.37622240  1
  Fe  Fe88  1  0.87270740  0.37576671  0.12353152  1
  Fe  Fe89  1  0.74675534  0.50228035  0.24901848  1
  Co  Co90  1  0.49825286  -0.00457907  0.75222081  1
  Co  Co91  1  0.25362707  0.25236507  0.00415976  1
  Co  Co92  1  0.12666170  0.12418769  0.12316898  1
  Co  Co93  1  0.62520894  0.37385290  0.12540501  1
  Co  Co94  1  0.25404207  0.24458941  0.24807224  1
  Co  Co95  1  0.37871891  0.62483382  0.37792278  1
  Co  Co96  1  0.62476474  0.37595148  0.62687140  1
  Co  Co97  1  0.74897177  0.74801042  0.50248204  1
  Co  Co98  1  0.37775346  0.12087471  0.12269239  1
  Co  Co99  1  0.49806818  0.25023972  0.74782683  1
  Co  Co100  1  0.00133998  0.74963102  0.00257378  1
  Co  Co101  1  0.75125191  0.74838387  0.25162771  1
  Co  Co102  1  0.50388000  -0.00027951  0.50017704  1
  Co  Co103  1  0.25110186  0.50568815  0.25204190  1
  Co  Co104  1  0.50206645  0.49734076  0.49845752  1
  Co  Co105  1  0.37826062  0.62493793  0.87696965  1
  Co  Co106  1  0.12808235  0.37559105  0.12930899  1
  Co  Co107  1  0.62372265  0.87265036  0.87394895  1
  Co  Co108  1  0.75176780  -0.00130182  0.75402663  1
  Co  Co109  1  0.62673666  0.87802243  0.62611576  1
  Co  Co110  1  0.62240445  0.12847885  0.37358486  1
  Co  Co111  1  0.25162423  0.24832681  0.74597138  1
  Co  Co112  1  0.00088900  0.75160628  0.74685385  1
  Co  Co113  1  0.24866152  0.00174119  0.49499006  1
  Co  Co114  1  0.49613380  0.74990462  0.24836763  1
  Co  Co115  1  0.37735785  0.62229671  0.62295991  1
  Co  Co116  1  0.87559267  0.62345141  0.62607926  1
  Co  Co117  1  0.74822063  0.74808751  -0.00334942  1
  Co  Co118  1  0.62349441  0.62801031  0.12456270  1
  Co  Co119  1  0.24895378  -0.00013452  0.75576382  1
  Co  Co120  1  0.87209380  0.12477057  0.12271362  1
  Co  Co121  1  0.25129670  0.50383270  0.75149231  1
  Co  Co122  1  0.62050436  0.62506588  0.62603558  1
  Co  Co123  1  0.50365337  -0.00139300  0.24908199  1
  Co  Co124  1  0.13038359  0.37236713  0.87331052  1
  Co  Co125  1  0.37052585  0.88074028  0.62406548  1
  Co  Co126  1  0.87249125  0.37422570  0.87546738  1
  Co  Co127  1  0.37260523  0.37891985  0.12884107  1
