# generated using pymatgen
data_Fe45Co19
_symmetry_space_group_name_H-M   'P 1'
_cell_length_a   11.41424429
_cell_length_b   11.41434944
_cell_length_c   11.41551490
_cell_angle_alpha   90.00040523
_cell_angle_beta   89.99973095
_cell_angle_gamma   89.99401697
_symmetry_Int_Tables_number   1
_chemical_formula_structural   Fe45Co19
_chemical_formula_sum   'Fe90 Co38'
_cell_volume   1487.28373995
_cell_formula_units_Z   2
loop_
 _symmetry_equiv_pos_site_id
 _symmetry_equiv_pos_as_xyz
  1  'x, y, z'
loop_
 _atom_site_type_symbol
 _atom_site_label
 _atom_site_symmetry_multiplicity
 _atom_site_fract_x
 _atom_site_fract_y
 _atom_site_fract_z
 _atom_site_occupancy
  Fe  Fe0  1  0.25083819  0.49898067  -0.00256805  1
  Fe  Fe1  1  0.12607053  0.37297804  0.37424345  1
  Fe  Fe2  1  0.24983092  0.00204349  0.25257053  1
  Fe  Fe3  1  0.12592702  0.87543357  0.62758670  1
  Fe  Fe4  1  0.24845144  0.00138061  -0.00348707  1
  Fe  Fe5  1  0.62405864  0.37369646  0.87556584  1
  Fe  Fe6  1  0.13276721  0.12556417  0.62814613  1
  Fe  Fe7  1  -0.00328268  0.49697088  -0.00009622  1
  Fe  Fe8  1  -0.00165164  0.25127907  0.74466859  1
  Fe  Fe9  1  0.87274515  0.62246693  0.62366083  1
  Fe  Fe10  1  0.87546382  0.62369796  0.87354752  1
  Fe  Fe11  1  0.74896435  0.00205408  -0.00036658  1
  Fe  Fe12  1  0.49876162  0.25186359  0.00370537  1
  Fe  Fe13  1  0.74555911  0.74716400  -0.00208089  1
  Fe  Fe14  1  0.87693084  0.12733168  0.87472916  1
  Fe  Fe15  1  0.25144978  0.75044478  0.49735253  1
  Fe  Fe16  1  0.50277776  0.50067573  0.49761301  1
  Fe  Fe17  1  0.00078160  0.00134765  -0.00036057  1
  Fe  Fe18  1  0.12295397  0.87360569  0.87428037  1
  Fe  Fe19  1  0.37600349  0.62388519  0.62409876  1
  Fe  Fe20  1  0.12491836  0.87255305  0.37234038  1
  Fe  Fe21  1  0.74780964  0.24706679  0.50100289  1
  Fe  Fe22  1  0.74946772  0.49823589  0.75133593  1
  Fe  Fe23  1  0.87484327  0.37282913  0.37795685  1
  Fe  Fe24  1  0.00312637  0.24967371  0.50326574  1
  Fe  Fe25  1  -0.00039839  0.74883085  0.00067931  1
  Fe  Fe26  1  0.87500112  0.87598506  0.37771024  1
  Fe  Fe27  1  0.49963650  0.00079224  0.25210844  1
  Fe  Fe28  1  0.37538397  0.12596041  0.87433649  1
  Fe  Fe29  1  0.25261483  0.75074334  0.74936426  1
  Fe  Fe30  1  0.75012426  0.74964710  0.25061455  1
  Fe  Fe31  1  0.74564931  0.00335837  0.49877074  1
  Fe  Fe32  1  0.24970027  0.49907852  0.49891211  1
  Fe  Fe33  1  0.62343850  0.87382085  0.12327303  1
  Fe  Fe34  1  0.75191839  0.25057761  0.74786493  1
  Fe  Fe35  1  0.37603963  0.62287607  0.12647918  1
  Fe  Fe36  1  0.62430766  0.12512621  0.12625909  1
  Fe  Fe37  1  0.62441857  0.87366955  0.37573834  1
  Fe  Fe38  1  0.62898065  0.37859317  0.12674997  1
  Fe  Fe39  1  0.37795212  0.62454209  0.87395025  1
  Fe  Fe40  1  0.00418577  0.00219568  0.50096939  1
  Fe  Fe41  1  0.12793525  0.37461910  0.12720812  1
  Fe  Fe42  1  0.50001187  0.24477866  0.50227661  1
  Fe  Fe43  1  -0.00062732  0.25042792  0.24919587  1
  Fe  Fe44  1  0.87112769  0.62158760  0.12532346  1
  Fe  Fe45  1  0.00224201  0.49894361  0.50153865  1
  Fe  Fe46  1  0.49623259  0.24895539  0.74696826  1
  Fe  Fe47  1  0.62532648  0.37367339  0.62333703  1
  Fe  Fe48  1  0.37644574  0.37474137  0.37460691  1
  Fe  Fe49  1  0.87380066  0.12634182  0.12500063  1
  Fe  Fe50  1  0.12668778  0.62373180  0.62571676  1
  Fe  Fe51  1  0.87441758  0.87445161  0.12287523  1
  Fe  Fe52  1  0.12426200  0.62436126  0.87310870  1
  Fe  Fe53  1  0.87506604  0.87867594  0.62455371  1
  Fe  Fe54  1  0.37347986  0.12355629  0.37827013  1
  Fe  Fe55  1  0.50156928  0.50052775  0.00163289  1
  Fe  Fe56  1  0.37402573  0.87592585  0.12568986  1
  Fe  Fe57  1  0.74979848  -0.00056592  0.24979341  1
  Fe  Fe58  1  0.87523512  0.87576201  0.87462752  1
  Fe  Fe59  1  0.00046393  0.74997547  0.50171670  1
  Fe  Fe60  1  0.62359726  0.87880556  0.62575076  1
  Fe  Fe61  1  0.74982188  0.00163178  0.75120614  1
  Fe  Fe62  1  0.12791339  0.12701038  0.12513954  1
  Fe  Fe63  1  -0.00015562  0.00092450  0.24887877  1
  Fe  Fe64  1  0.25279531  0.25224498  -0.00064918  1
  Fe  Fe65  1  0.12531106  0.62403786  0.12533296  1
  Fe  Fe66  1  0.37334712  0.37328085  0.62305271  1
  Fe  Fe67  1  0.49606259  0.25093594  0.24690679  1
  Fe  Fe68  1  0.25078349  0.50160280  0.25286343  1
  Fe  Fe69  1  0.87587667  0.12447965  0.37626396  1
  Fe  Fe70  1  -0.00045384  0.74831410  0.24937203  1
  Fe  Fe71  1  0.25151597  0.74894397  0.00068955  1
  Fe  Fe72  1  -0.00167645  0.25216321  0.00278205  1
  Fe  Fe73  1  0.74742650  0.74936525  0.74859712  1
  Fe  Fe74  1  0.50054584  0.74988613  0.50044177  1
  Fe  Fe75  1  -0.00233293  0.49931143  0.25125942  1
  Fe  Fe76  1  0.50169450  0.75108028  0.74962205  1
  Fe  Fe77  1  0.12658079  0.87398008  0.12623038  1
  Fe  Fe78  1  0.50098479  -0.00026305  -0.00166182  1
  Fe  Fe79  1  0.75083177  0.25113247  0.25022750  1
  Fe  Fe80  1  0.74539702  0.49983121  0.49623506  1
  Fe  Fe81  1  0.37593981  0.88220528  0.62216662  1
  Fe  Fe82  1  -0.00142950  0.74897470  0.74812618  1
  Fe  Fe83  1  0.37751006  0.87384195  0.87605689  1
  Fe  Fe84  1  0.62395639  0.12700677  0.87386481  1
  Fe  Fe85  1  0.49796317  0.74822441  0.24982120  1
  Fe  Fe86  1  0.12269504  0.37404516  0.87172349  1
  Fe  Fe87  1  0.50010771  0.49792081  0.74758163  1
  Fe  Fe88  1  0.87404347  0.62709150  0.37782489  1
  Fe  Fe89  1  0.25178721  0.49744672  0.75083093  1
  Co  Co90  1  0.37625982  0.87659962  0.37627902  1
  Co  Co91  1  0.25159340  0.74741695  0.25094505  1
  Co  Co92  1  0.37891623  0.37596157  0.87622480  1
  Co  Co93  1  0.49833324  0.00101607  0.75131063  1
  Co  Co94  1  0.62403297  0.62317757  0.62499588  1
  Co  Co95  1  0.12789187  0.37596108  0.62700282  1
  Co  Co96  1  0.37316950  0.37962116  0.12648903  1
  Co  Co97  1  0.50055456  0.74871774  0.00083273  1
  Co  Co98  1  0.74929298  0.49948349  0.25729075  1
  Co  Co99  1  0.62529497  0.87582752  0.87476910  1
  Co  Co100  1  0.62414460  0.62967725  0.37516013  1
  Co  Co101  1  0.25446569  0.24872668  0.25052567  1
  Co  Co102  1  0.37420328  0.12178192  0.12294678  1
  Co  Co103  1  0.62253097  0.36953925  0.37481574  1
  Co  Co104  1  0.50459236  0.00469247  0.49829309  1
  Co  Co105  1  0.37610642  0.62388992  0.37656529  1
  Co  Co106  1  0.62149016  0.62297639  0.87314385  1
  Co  Co107  1  -0.00154125  0.49882727  0.74795609  1
  Co  Co108  1  0.24618353  -0.00171417  0.49707047  1
  Co  Co109  1  0.87213760  0.37690504  0.62130466  1
  Co  Co110  1  0.25029021  -0.00145185  0.75415968  1
  Co  Co111  1  0.87083307  0.37655480  0.12673109  1
  Co  Co112  1  0.74831775  0.75133792  0.50349560  1
  Co  Co113  1  0.50294203  0.50036605  0.25278992  1
  Co  Co114  1  0.62451595  0.12454488  0.62914959  1
  Co  Co115  1  0.12466123  0.12781166  0.37380736  1
  Co  Co116  1  0.37027086  0.12127335  0.62363621  1
  Co  Co117  1  0.75149337  0.49885833  -0.00441495  1
  Co  Co118  1  0.12445106  0.62547707  0.37650858  1
  Co  Co119  1  0.62485256  0.12788368  0.37022756  1
  Co  Co120  1  0.87640942  0.37162678  0.87331478  1
  Co  Co121  1  0.62711728  0.62220992  0.12660023  1
  Co  Co122  1  0.24958190  0.25158141  0.49871736  1
  Co  Co123  1  0.74935116  0.25005488  0.00067789  1
  Co  Co124  1  0.12375629  0.12981376  0.87352661  1
  Co  Co125  1  0.25441611  0.25318727  0.75188977  1
  Co  Co126  1  0.00219416  0.00189480  0.74974376  1
  Co  Co127  1  0.87443184  0.12294297  0.62304781  1
