# generated using pymatgen
data_Fe45Co19
_symmetry_space_group_name_H-M   'P 1'
_cell_length_a   11.41415662
_cell_length_b   11.41570175
_cell_length_c   11.41510169
_cell_angle_alpha   90.00319672
_cell_angle_beta   89.99803341
_cell_angle_gamma   89.99162016
_symmetry_Int_Tables_number   1
_chemical_formula_structural   Fe45Co19
_chemical_formula_sum   'Fe90 Co38'
_cell_volume   1487.39466719
_cell_formula_units_Z   2
loop_
 _symmetry_equiv_pos_site_id
 _symmetry_equiv_pos_as_xyz
  1  'x, y, z'
loop_
 _atom_site_type_symbol
 _atom_site_label
 _atom_site_symmetry_multiplicity
 _atom_site_fract_x
 _atom_site_fract_y
 _atom_site_fract_z
 _atom_site_occupancy
  Fe  Fe0  1  -0.00209837  -0.00268436  0.74878957  1
  Fe  Fe1  1  0.25012242  0.25189898  0.25226723  1
  Fe  Fe2  1  0.00069283  0.25088200  0.49777086  1
  Fe  Fe3  1  0.38026096  0.62651543  0.12385257  1
  Fe  Fe4  1  0.74925720  0.74768932  0.00238491  1
  Fe  Fe5  1  0.38108935  0.12707330  0.37509333  1
  Fe  Fe6  1  0.12711970  0.37463820  0.62651444  1
  Fe  Fe7  1  0.50138714  0.00021255  0.75031551  1
  Fe  Fe8  1  0.88027471  0.62512534  0.87362080  1
  Fe  Fe9  1  0.74697016  0.24666537  0.49636938  1
  Fe  Fe10  1  0.25057286  0.24993466  0.49852182  1
  Fe  Fe11  1  0.62903258  0.37594908  0.87356071  1
  Fe  Fe12  1  0.87396028  0.12445162  0.87628906  1
  Fe  Fe13  1  0.49962148  0.49886284  -0.00223141  1
  Fe  Fe14  1  0.62421873  0.62350094  0.87466439  1
  Fe  Fe15  1  0.25124553  0.50023997  0.25074804  1
  Fe  Fe16  1  0.25026245  0.74728210  -0.00195772  1
  Fe  Fe17  1  -0.00102033  -0.00073297  0.00243474  1
  Fe  Fe18  1  0.37415724  0.87365833  0.37552129  1
  Fe  Fe19  1  -0.00494286  0.49860775  0.50433935  1
  Fe  Fe20  1  0.49991193  0.50033272  0.74896762  1
  Fe  Fe21  1  0.37512317  0.87571725  0.87629058  1
  Fe  Fe22  1  0.37626407  0.12666013  0.12381914  1
  Fe  Fe23  1  0.00082127  0.25118938  0.25216091  1
  Fe  Fe24  1  0.75455870  0.50453312  0.74338218  1
  Fe  Fe25  1  0.50041654  -0.00175105  0.50125304  1
  Fe  Fe26  1  -0.00135903  0.49854222  0.24950715  1
  Fe  Fe27  1  0.37598589  0.62492620  0.37593661  1
  Fe  Fe28  1  0.74698953  0.24802123  0.25298774  1
  Fe  Fe29  1  0.00239996  0.75460459  0.49878521  1
  Fe  Fe30  1  0.87449987  0.12730044  0.12520322  1
  Fe  Fe31  1  0.74800744  0.00205522  0.00367205  1
  Fe  Fe32  1  0.24672647  0.75013104  0.49990798  1
  Fe  Fe33  1  -0.00097502  0.75147373  0.00120112  1
  Fe  Fe34  1  0.12422457  0.12258555  0.37504605  1
  Fe  Fe35  1  0.25016820  0.00380539  0.75385705  1
  Fe  Fe36  1  0.50056554  0.75071340  0.75239902  1
  Fe  Fe37  1  0.24819015  0.24719478  -0.00457177  1
  Fe  Fe38  1  0.50223078  0.49915692  0.25094576  1
  Fe  Fe39  1  -0.00111708  -0.00025516  0.24900863  1
  Fe  Fe40  1  0.62571720  0.87697554  0.37295449  1
  Fe  Fe41  1  0.75007137  0.24733835  0.75084104  1
  Fe  Fe42  1  0.37435843  0.12500543  0.62508383  1
  Fe  Fe43  1  0.50219929  0.00086165  0.00111807  1
  Fe  Fe44  1  0.50317678  0.74943529  0.49765825  1
  Fe  Fe45  1  0.12330413  0.62319612  0.37526570  1
  Fe  Fe46  1  0.87085871  0.87033261  0.62447939  1
  Fe  Fe47  1  0.12579799  0.87491682  0.12657573  1
  Fe  Fe48  1  0.00017474  0.24989285  0.75025536  1
  Fe  Fe49  1  0.12072603  0.62545718  0.62820063  1
  Fe  Fe50  1  0.87061529  0.37715952  0.37623529  1
  Fe  Fe51  1  0.87461130  0.12531865  0.62186520  1
  Fe  Fe52  1  0.87325814  0.37531079  0.87375274  1
  Fe  Fe53  1  0.37874858  0.87215727  0.12422751  1
  Fe  Fe54  1  0.37301874  0.37496871  0.62722485  1
  Fe  Fe55  1  -0.00013111  -0.00415409  0.50041761  1
  Fe  Fe56  1  0.24964993  0.50057189  0.50082909  1
  Fe  Fe57  1  0.12601154  0.12485131  0.12405079  1
  Fe  Fe58  1  0.62551513  0.12396609  0.62399428  1
  Fe  Fe59  1  0.74803867  0.74668582  0.24628555  1
  Fe  Fe60  1  0.75279798  0.50236480  0.00274916  1
  Fe  Fe61  1  0.24999817  0.50382645  -0.00343184  1
  Fe  Fe62  1  0.25319640  -0.00021238  0.25038744  1
  Fe  Fe63  1  0.12574345  0.12292800  0.62438898  1
  Fe  Fe64  1  0.12577185  0.87676081  0.87611426  1
  Fe  Fe65  1  0.50445967  0.50094170  0.50097861  1
  Fe  Fe66  1  0.37151291  0.87462732  0.62490868  1
  Fe  Fe67  1  -0.00161607  0.75044221  0.25044138  1
  Fe  Fe68  1  0.87099071  0.62325393  0.37664029  1
  Fe  Fe69  1  0.25064467  0.74835996  0.25008787  1
  Fe  Fe70  1  0.37710104  0.62601727  0.62549147  1
  Fe  Fe71  1  -0.00045888  0.25240468  -0.00108521  1
  Fe  Fe72  1  0.62696569  0.87594412  0.87570633  1
  Fe  Fe73  1  0.75076447  0.00005468  0.74850312  1
  Fe  Fe74  1  0.12240657  0.62391746  0.12429422  1
  Fe  Fe75  1  0.37315080  0.37403813  0.87199403  1
  Fe  Fe76  1  0.74758777  0.00349117  0.24956534  1
  Fe  Fe77  1  0.12543598  0.37882771  0.87124726  1
  Fe  Fe78  1  0.62760514  0.37444733  0.62478063  1
  Fe  Fe79  1  0.87195017  0.87614939  0.37329112  1
  Fe  Fe80  1  0.62665207  0.37509676  0.12417078  1
  Fe  Fe81  1  0.37400971  0.37460961  0.12302256  1
  Fe  Fe82  1  0.37827732  0.37429317  0.37674905  1
  Fe  Fe83  1  0.24834918  0.74655448  0.75282983  1
  Fe  Fe84  1  0.87352650  0.37391884  0.12631671  1
  Fe  Fe85  1  0.62766858  0.87152320  0.62605048  1
  Fe  Fe86  1  0.50347950  0.25009998  -0.00201921  1
  Fe  Fe87  1  0.87231719  0.87517834  0.87674965  1
  Fe  Fe88  1  0.12651308  0.37628984  0.12500012  1
  Fe  Fe89  1  0.50101883  0.24856368  0.75054717  1
  Co  Co90  1  0.62687914  0.12410516  0.87454099  1
  Co  Co91  1  0.11796301  0.62275653  0.87365149  1
  Co  Co92  1  0.75017942  0.50230650  0.50702225  1
  Co  Co93  1  0.74867213  -0.00022216  0.49994748  1
  Co  Co94  1  0.87811408  0.62421746  0.12544736  1
  Co  Co95  1  0.24916487  0.24564694  0.75206870  1
  Co  Co96  1  0.25183226  0.00141047  0.49624990  1
  Co  Co97  1  -0.00160590  0.49607966  0.00099816  1
  Co  Co98  1  -0.00573225  0.49673066  0.74442452  1
  Co  Co99  1  0.62320257  0.87295448  0.12560423  1
  Co  Co100  1  0.87658517  0.12314702  0.37643955  1
  Co  Co101  1  0.61868448  0.12435971  0.37538515  1
  Co  Co102  1  0.87744702  0.63431900  0.62378057  1
  Co  Co103  1  0.61927178  0.62504959  0.12331020  1
  Co  Co104  1  0.12041893  0.12225131  0.87594850  1
  Co  Co105  1  0.37953369  0.12490733  0.87630060  1
  Co  Co106  1  0.25132537  0.00001954  0.00069114  1
  Co  Co107  1  0.49888256  -0.00113264  0.24853868  1
  Co  Co108  1  0.13023518  0.87780081  0.62672009  1
  Co  Co109  1  0.50164568  0.25375695  0.24698831  1
  Co  Co110  1  0.37854408  0.62528868  0.87450434  1
  Co  Co111  1  0.62388919  0.12699329  0.12590546  1
  Co  Co112  1  0.74799649  0.50129303  0.24561759  1
  Co  Co113  1  0.87293135  0.87592091  0.12631482  1
  Co  Co114  1  0.87157337  0.36763485  0.62285670  1
  Co  Co115  1  0.74992867  0.74770564  0.75429400  1
  Co  Co116  1  0.25076320  0.50485117  0.75055762  1
  Co  Co117  1  0.62605793  0.37653890  0.37691914  1
  Co  Co118  1  0.50089393  0.25114864  0.50419201  1
  Co  Co119  1  0.50184687  0.74880692  0.25442305  1
  Co  Co120  1  0.12633249  0.87639141  0.37132168  1
  Co  Co121  1  0.50214810  0.75097623  -0.00375808  1
  Co  Co122  1  0.62372252  0.62902044  0.62668412  1
  Co  Co123  1  0.00120641  0.75647001  0.75112645  1
  Co  Co124  1  0.12427515  0.37824201  0.37608783  1
  Co  Co125  1  0.62909871  0.62144097  0.37443946  1
  Co  Co126  1  0.74681192  0.74922553  0.49793704  1
  Co  Co127  1  0.74992204  0.24991904  0.00010505  1
