# generated using pymatgen
data_Fe45Co19
_symmetry_space_group_name_H-M   'P 1'
_cell_length_a   11.41518130
_cell_length_b   11.41484208
_cell_length_c   11.41427960
_cell_angle_alpha   90.00570603
_cell_angle_beta   89.99892237
_cell_angle_gamma   90.01386791
_symmetry_Int_Tables_number   1
_chemical_formula_structural   Fe45Co19
_chemical_formula_sum   'Fe90 Co38'
_cell_volume   1487.30902324
_cell_formula_units_Z   2
loop_
 _symmetry_equiv_pos_site_id
 _symmetry_equiv_pos_as_xyz
  1  'x, y, z'
loop_
 _atom_site_type_symbol
 _atom_site_label
 _atom_site_symmetry_multiplicity
 _atom_site_fract_x
 _atom_site_fract_y
 _atom_site_fract_z
 _atom_site_occupancy
  Fe  Fe0  1  0.49765042  0.25267234  -0.00216908  1
  Fe  Fe1  1  0.50203249  0.49868347  -0.00022106  1
  Fe  Fe2  1  0.75195577  0.24943125  0.75046839  1
  Fe  Fe3  1  0.37574947  0.12443813  0.12453433  1
  Fe  Fe4  1  0.62325889  0.12664452  0.37498151  1
  Fe  Fe5  1  0.37642305  0.62294525  0.87518730  1
  Fe  Fe6  1  0.62446119  0.37419269  0.87291461  1
  Fe  Fe7  1  0.25066624  0.00254558  0.74956377  1
  Fe  Fe8  1  0.25231259  0.25406596  0.49746779  1
  Fe  Fe9  1  0.62595240  0.87242215  0.12645156  1
  Fe  Fe10  1  0.74658436  0.49755036  0.49894737  1
  Fe  Fe11  1  -0.00277324  0.75035970  0.75073154  1
  Fe  Fe12  1  0.25222683  0.74692054  0.24934783  1
  Fe  Fe13  1  0.37449689  0.87650934  0.87525549  1
  Fe  Fe14  1  0.49960476  0.00006819  0.74878448  1
  Fe  Fe15  1  0.62713642  0.37417430  0.12647068  1
  Fe  Fe16  1  0.62567212  0.87436121  0.62612456  1
  Fe  Fe17  1  0.87624316  0.87744680  0.62465948  1
  Fe  Fe18  1  0.25077342  0.24893956  -0.00070208  1
  Fe  Fe19  1  0.87650131  0.62255501  0.62487436  1
  Fe  Fe20  1  0.62301848  0.12864308  0.62472068  1
  Fe  Fe21  1  0.87390976  0.37536401  0.88201061  1
  Fe  Fe22  1  0.12238992  0.12449850  0.62592541  1
  Fe  Fe23  1  -0.00291573  0.74686692  0.25003539  1
  Fe  Fe24  1  0.25026939  0.74707449  0.74725467  1
  Fe  Fe25  1  0.49995562  0.75164012  -0.00093801  1
  Fe  Fe26  1  -0.00110380  -0.00053246  0.25181875  1
  Fe  Fe27  1  0.12599788  0.87274812  0.12686632  1
  Fe  Fe28  1  0.75086977  0.00232630  0.74905981  1
  Fe  Fe29  1  0.24981548  0.74478264  0.50415325  1
  Fe  Fe30  1  0.75080623  0.50217319  0.75414093  1
  Fe  Fe31  1  0.75005154  0.00130277  0.24958111  1
  Fe  Fe32  1  0.62695198  0.87275779  0.37327918  1
  Fe  Fe33  1  0.87791097  0.62163059  0.11823371  1
  Fe  Fe34  1  0.50071293  -0.00263966  0.00108301  1
  Fe  Fe35  1  0.74981862  0.74791643  0.50197850  1
  Fe  Fe36  1  0.37771395  0.38053113  0.62491383  1
  Fe  Fe37  1  0.62682747  0.62422722  0.37226747  1
  Fe  Fe38  1  0.25187165  0.00170618  0.25142025  1
  Fe  Fe39  1  0.12560075  0.87518395  0.87324415  1
  Fe  Fe40  1  -0.00211905  0.24955404  0.75113790  1
  Fe  Fe41  1  0.37442807  0.62272991  0.12502486  1
  Fe  Fe42  1  0.74963842  0.00118897  0.50034026  1
  Fe  Fe43  1  -0.00067076  0.49797671  0.75342917  1
  Fe  Fe44  1  0.49487963  0.25351907  0.25299726  1
  Fe  Fe45  1  0.37872351  0.12515526  0.62046753  1
  Fe  Fe46  1  0.74907739  0.74714926  -0.00289809  1
  Fe  Fe47  1  0.62186219  0.12631069  0.87465916  1
  Fe  Fe48  1  0.49767081  0.74851061  0.25071129  1
  Fe  Fe49  1  0.87286597  0.87281655  0.37553861  1
  Fe  Fe50  1  0.50050009  0.74779319  0.49856416  1
  Fe  Fe51  1  0.62307670  0.62265679  0.62831099  1
  Fe  Fe52  1  0.24991922  0.74986031  0.00054402  1
  Fe  Fe53  1  0.37573254  0.87381151  0.62386103  1
  Fe  Fe54  1  0.62358305  0.12726400  0.12627078  1
  Fe  Fe55  1  0.24922047  0.00062347  0.00035962  1
  Fe  Fe56  1  0.87676938  0.12722334  0.87900681  1
  Fe  Fe57  1  0.12192561  0.87695974  0.62513050  1
  Fe  Fe58  1  0.24963778  0.50322763  0.74725701  1
  Fe  Fe59  1  0.12506975  0.37298464  0.12722250  1
  Fe  Fe60  1  0.74792388  0.00240681  0.00070210  1
  Fe  Fe61  1  0.62461502  0.62598650  0.12520323  1
  Fe  Fe62  1  0.25533915  0.24793924  0.75047973  1
  Fe  Fe63  1  0.12566160  0.87190566  0.37503869  1
  Fe  Fe64  1  -0.00007979  0.74809531  0.49911351  1
  Fe  Fe65  1  0.74920530  0.25258820  0.50011583  1
  Fe  Fe66  1  0.87171706  0.87379090  0.87429565  1
  Fe  Fe67  1  0.12424620  0.37397407  0.62664043  1
  Fe  Fe68  1  0.50099140  0.25795250  0.49680629  1
  Fe  Fe69  1  0.37450272  0.87531203  0.37662938  1
  Fe  Fe70  1  0.49883784  -0.00143577  0.25129404  1
  Fe  Fe71  1  0.12205405  0.62678269  0.87565324  1
  Fe  Fe72  1  0.37335734  0.61553645  0.37729662  1
  Fe  Fe73  1  0.00430612  0.49946393  0.49673917  1
  Fe  Fe74  1  0.50055271  0.75011729  0.75176722  1
  Fe  Fe75  1  0.12373654  0.12553963  0.12546937  1
  Fe  Fe76  1  -0.00121637  0.25025263  0.50082638  1
  Fe  Fe77  1  0.75465695  0.25067680  0.24701444  1
  Fe  Fe78  1  -0.00384577  0.25176008  0.24704514  1
  Fe  Fe79  1  0.37273837  0.37787191  0.12700154  1
  Fe  Fe80  1  0.24620420  0.50095219  0.00111080  1
  Fe  Fe81  1  0.24874665  0.00051108  0.49921883  1
  Fe  Fe82  1  0.87389811  0.37601719  0.62362948  1
  Fe  Fe83  1  0.12853152  0.37195919  0.87362647  1
  Fe  Fe84  1  0.12565256  0.12870247  0.37428457  1
  Fe  Fe85  1  0.75290057  0.50058947  0.24858929  1
  Fe  Fe86  1  0.00125720  0.50099994  0.25136471  1
  Fe  Fe87  1  0.87324991  0.87541987  0.12444200  1
  Fe  Fe88  1  0.00144774  -0.00077775  -0.00149245  1
  Fe  Fe89  1  0.87492822  0.12598034  0.37604579  1
  Co  Co90  1  0.00068063  0.00088387  0.49624800  1
  Co  Co91  1  0.24368349  0.50127869  0.24743463  1
  Co  Co92  1  0.87563711  0.37575585  0.37649070  1
  Co  Co93  1  0.50002527  0.49841694  0.75254037  1
  Co  Co94  1  0.37430849  0.87491291  0.12539660  1
  Co  Co95  1  0.75169965  0.74706103  0.74961785  1
  Co  Co96  1  0.87600823  0.12525058  0.62370508  1
  Co  Co97  1  0.00192808  0.25173720  0.00128922  1
  Co  Co98  1  0.50670865  0.49609688  0.49780143  1
  Co  Co99  1  0.87465590  0.37919891  0.12064286  1
  Co  Co100  1  0.11907312  0.62465630  0.62747089  1
  Co  Co101  1  0.87833302  0.62409999  0.87872810  1
  Co  Co102  1  0.75347902  0.74669855  0.24722335  1
  Co  Co103  1  0.12281932  0.62851438  0.12342240  1
  Co  Co104  1  0.74814363  0.24953398  0.00153637  1
  Co  Co105  1  -0.00179085  0.00140644  0.75310817  1
  Co  Co106  1  0.12512084  0.12764192  0.87431597  1
  Co  Co107  1  0.50239059  -0.00248140  0.49950863  1
  Co  Co108  1  0.49550232  0.25123810  0.75147404  1
  Co  Co109  1  0.12584619  0.37256143  0.37314403  1
  Co  Co110  1  0.87628443  0.12361729  0.12227189  1
  Co  Co111  1  0.12776106  0.62635471  0.37513618  1
  Co  Co112  1  0.24470999  0.50007702  0.50513084  1
  Co  Co113  1  0.38051835  0.62206219  0.62381257  1
  Co  Co114  1  0.37640244  0.12230561  0.87746117  1
  Co  Co115  1  0.62859341  0.37476159  0.36838591  1
  Co  Co116  1  0.74471759  0.50052965  -0.00176154  1
  Co  Co117  1  0.25438591  0.24911169  0.25080791  1
  Co  Co118  1  0.62649730  0.37448248  0.63133964  1
  Co  Co119  1  0.62224358  0.62560287  0.87349730  1
  Co  Co120  1  -0.00036430  0.75402042  -0.00030275  1
  Co  Co121  1  0.37189600  0.37912627  0.87519631  1
  Co  Co122  1  0.37710519  0.12481497  0.37790881  1
  Co  Co123  1  0.00605696  0.49627638  -0.00157176  1
  Co  Co124  1  0.37112031  0.38405329  0.37342892  1
  Co  Co125  1  0.87325008  0.62354298  0.37747211  1
  Co  Co126  1  0.50237305  0.49976739  0.24797288  1
  Co  Co127  1  0.62688676  0.87571636  0.87410625  1
