# generated using pymatgen
data_Fe45Co19
_symmetry_space_group_name_H-M   'P 1'
_cell_length_a   11.41477970
_cell_length_b   11.41516207
_cell_length_c   11.41549720
_cell_angle_alpha   90.00527405
_cell_angle_beta   90.00340896
_cell_angle_gamma   89.99296788
_symmetry_Int_Tables_number   1
_chemical_formula_structural   Fe45Co19
_chemical_formula_sum   'Fe90 Co38'
_cell_volume   1487.45707624
_cell_formula_units_Z   2
loop_
 _symmetry_equiv_pos_site_id
 _symmetry_equiv_pos_as_xyz
  1  'x, y, z'
loop_
 _atom_site_type_symbol
 _atom_site_label
 _atom_site_symmetry_multiplicity
 _atom_site_fract_x
 _atom_site_fract_y
 _atom_site_fract_z
 _atom_site_occupancy
  Fe  Fe0  1  0.62461635  0.37805480  0.37049050  1
  Fe  Fe1  1  0.49927369  0.25051239  0.74890730  1
  Fe  Fe2  1  -0.00240690  0.25003565  0.75271115  1
  Fe  Fe3  1  0.25481727  0.50343105  0.25315277  1
  Fe  Fe4  1  0.37386889  0.87296343  0.37569370  1
  Fe  Fe5  1  0.74932129  0.49756129  0.00273871  1
  Fe  Fe6  1  0.50416984  0.75040551  0.50130053  1
  Fe  Fe7  1  0.12584644  0.62475398  0.12582020  1
  Fe  Fe8  1  0.62652685  0.62366730  0.37166716  1
  Fe  Fe9  1  0.24774569  -0.00125161  0.49764136  1
  Fe  Fe10  1  0.49969823  0.74809727  0.24781584  1
  Fe  Fe11  1  -0.00184214  0.00112254  0.24866134  1
  Fe  Fe12  1  0.87338944  0.62627992  0.62492156  1
  Fe  Fe13  1  0.12406546  0.12478261  0.12657322  1
  Fe  Fe14  1  0.12446649  0.87651667  0.62667721  1
  Fe  Fe15  1  0.87376424  0.62672501  0.87657680  1
  Fe  Fe16  1  0.62400590  0.12454950  0.12481305  1
  Fe  Fe17  1  0.25227541  0.00049710  -0.00108206  1
  Fe  Fe18  1  0.75104458  0.49838402  0.74966410  1
  Fe  Fe19  1  0.25121756  0.74953675  0.25000367  1
  Fe  Fe20  1  0.24964493  0.24876272  -0.00067482  1
  Fe  Fe21  1  0.00259450  0.75129034  -0.00092623  1
  Fe  Fe22  1  -0.00056037  -0.00056753  0.49873475  1
  Fe  Fe23  1  0.49846262  0.00056207  -0.00125276  1
  Fe  Fe24  1  0.75156286  0.25151673  0.24825154  1
  Fe  Fe25  1  0.12804848  0.37319905  0.37592246  1
  Fe  Fe26  1  -0.00006281  0.49810107  0.25198004  1
  Fe  Fe27  1  0.37384553  0.62703144  0.62159139  1
  Fe  Fe28  1  0.12331925  0.87884079  0.87280574  1
  Fe  Fe29  1  0.75079561  0.49976470  0.50026407  1
  Fe  Fe30  1  -0.00051952  0.74982170  0.25020254  1
  Fe  Fe31  1  0.49924166  -0.00205110  0.75293369  1
  Fe  Fe32  1  0.87342014  0.87354202  0.37437082  1
  Fe  Fe33  1  0.24961594  0.24738586  0.24957454  1
  Fe  Fe34  1  0.37444356  0.87514053  0.62596476  1
  Fe  Fe35  1  -0.00155777  0.49938206  0.75022562  1
  Fe  Fe36  1  0.37585982  0.37408278  0.87578211  1
  Fe  Fe37  1  0.62677813  0.12360416  0.62586509  1
  Fe  Fe38  1  0.37500481  0.12218939  0.62548056  1
  Fe  Fe39  1  0.62489044  0.37642699  0.62610727  1
  Fe  Fe40  1  0.87381207  0.12608397  0.62419244  1
  Fe  Fe41  1  0.87127847  0.87364624  0.62403726  1
  Fe  Fe42  1  0.50066941  0.50015654  0.00293987  1
  Fe  Fe43  1  0.49836402  0.50173935  0.75093569  1
  Fe  Fe44  1  0.87253332  0.62487203  0.37313367  1
  Fe  Fe45  1  0.87477063  0.12562198  0.37311071  1
  Fe  Fe46  1  0.62665357  0.12231178  0.37288296  1
  Fe  Fe47  1  0.50021359  0.25119247  0.00080796  1
  Fe  Fe48  1  0.62839378  0.87334524  0.87847476  1
  Fe  Fe49  1  0.74881186  0.25107297  0.49879647  1
  Fe  Fe50  1  0.62752674  0.62431921  0.87517786  1
  Fe  Fe51  1  0.12570950  0.62540648  0.62469914  1
  Fe  Fe52  1  0.12347995  0.12189822  0.87407425  1
  Fe  Fe53  1  0.12588073  0.87563263  0.12848052  1
  Fe  Fe54  1  0.37256109  0.37561701  0.62249282  1
  Fe  Fe55  1  0.37401044  0.62965158  0.87947591  1
  Fe  Fe56  1  -0.00292292  0.75201502  0.75199951  1
  Fe  Fe57  1  0.62404331  0.12578299  0.87538334  1
  Fe  Fe58  1  0.87776679  0.11984752  0.88077832  1
  Fe  Fe59  1  0.74962114  0.25151334  -0.00053085  1
  Fe  Fe60  1  0.62623795  0.62427698  0.12808678  1
  Fe  Fe61  1  0.37524746  0.37542075  0.12698116  1
  Fe  Fe62  1  0.75207555  -0.00068754  0.75207117  1
  Fe  Fe63  1  0.00004638  0.49905254  0.49943184  1
  Fe  Fe64  1  0.87601679  0.62693453  0.12564322  1
  Fe  Fe65  1  0.49929641  0.24926941  0.24999866  1
  Fe  Fe66  1  0.50077341  0.24922360  0.49911970  1
  Fe  Fe67  1  0.12396618  0.12330850  0.62578880  1
  Fe  Fe68  1  0.12354993  0.37602488  0.87447359  1
  Fe  Fe69  1  0.12587255  0.37522410  0.62452439  1
  Fe  Fe70  1  0.50172397  0.00008602  0.49928534  1
  Fe  Fe71  1  0.50300684  0.74939932  0.75014625  1
  Fe  Fe72  1  0.62903183  0.87608752  0.62411161  1
  Fe  Fe73  1  0.12686271  0.62777997  0.37700667  1
  Fe  Fe74  1  0.62721109  0.87564323  0.37356969  1
  Fe  Fe75  1  0.37533817  0.87128171  0.12087446  1
  Fe  Fe76  1  0.49690290  0.49961709  0.49632952  1
  Fe  Fe77  1  0.37333560  0.12465333  0.37498589  1
  Fe  Fe78  1  0.25055611  0.24803443  0.75012019  1
  Fe  Fe79  1  -0.00020126  0.25046357  0.49728538  1
  Fe  Fe80  1  0.25049927  0.50205095  0.75151647  1
  Fe  Fe81  1  0.75223840  -0.00229973  0.24414745  1
  Fe  Fe82  1  0.12532726  0.37545959  0.12598029  1
  Fe  Fe83  1  0.24917233  0.75057220  0.75171333  1
  Fe  Fe84  1  0.49715498  -0.00042827  0.24815410  1
  Fe  Fe85  1  0.75223394  0.25181047  0.75337203  1
  Fe  Fe86  1  0.87841686  0.37236518  0.12424768  1
  Fe  Fe87  1  0.24894927  0.50171720  -0.00099146  1
  Fe  Fe88  1  0.00147779  0.50027961  -0.00005510  1
  Fe  Fe89  1  -0.00008293  0.75123610  0.49935456  1
  Co  Co90  1  0.62292880  0.37453905  0.12769240  1
  Co  Co91  1  0.87625843  0.37752577  0.87756704  1
  Co  Co92  1  0.37577581  0.87030061  0.87787462  1
  Co  Co93  1  0.74929065  0.75042758  0.00458677  1
  Co  Co94  1  0.87672719  0.12835606  0.12305822  1
  Co  Co95  1  0.00280619  -0.00192043  0.00484672  1
  Co  Co96  1  0.25296047  0.00016681  0.75206907  1
  Co  Co97  1  0.37576137  0.12580993  0.12449197  1
  Co  Co98  1  0.75092903  0.00060214  0.49870804  1
  Co  Co99  1  0.25080344  0.50074449  0.49757288  1
  Co  Co100  1  0.00072793  0.25129789  0.25115739  1
  Co  Co101  1  0.74854646  -0.00027125  0.00479686  1
  Co  Co102  1  -0.00444414  -0.00062989  0.74774755  1
  Co  Co103  1  0.62099053  0.87642610  0.12455277  1
  Co  Co104  1  0.74903008  0.75015756  0.75004234  1
  Co  Co105  1  0.62467738  0.62178144  0.62456414  1
  Co  Co106  1  0.74970475  0.75289369  0.24754181  1
  Co  Co107  1  0.87536195  0.37393210  0.62429206  1
  Co  Co108  1  0.87777053  0.87249517  0.12241366  1
  Co  Co109  1  0.87381757  0.87620111  0.87935663  1
  Co  Co110  1  0.87400461  0.37573072  0.37470122  1
  Co  Co111  1  0.00310238  0.25018296  -0.00120926  1
  Co  Co112  1  0.12513605  0.12333043  0.37268699  1
  Co  Co113  1  0.50545256  0.74735038  0.00093458  1
  Co  Co114  1  0.12285397  0.62436061  0.87351582  1
  Co  Co115  1  0.25314245  -0.00082290  0.24924025  1
  Co  Co116  1  0.24250835  0.75140967  -0.00122132  1
  Co  Co117  1  0.74790609  0.74800508  0.49881549  1
  Co  Co118  1  0.24987720  0.24646656  0.50142694  1
  Co  Co119  1  0.49427831  0.50325568  0.24972063  1
  Co  Co120  1  0.37353186  0.37058464  0.37338181  1
  Co  Co121  1  0.75325631  0.49811882  0.24617859  1
  Co  Co122  1  0.62354836  0.37599921  0.87390252  1
  Co  Co123  1  0.37198082  0.62829288  0.12024119  1
  Co  Co124  1  0.12411364  0.87515852  0.37155261  1
  Co  Co125  1  0.24690615  0.75358008  0.50142450  1
  Co  Co126  1  0.37692870  0.12693456  0.87436908  1
  Co  Co127  1  0.37494020  0.63099145  0.37883779  1
