# generated using pymatgen
data_Fe45Co19
_symmetry_space_group_name_H-M   'P 1'
_cell_length_a   11.41432562
_cell_length_b   11.41529316
_cell_length_c   11.41505189
_cell_angle_alpha   89.99850560
_cell_angle_beta   89.98968869
_cell_angle_gamma   89.99168407
_symmetry_Int_Tables_number   1
_chemical_formula_structural   Fe45Co19
_chemical_formula_sum   'Fe90 Co38'
_cell_volume   1487.35694387
_cell_formula_units_Z   2
loop_
 _symmetry_equiv_pos_site_id
 _symmetry_equiv_pos_as_xyz
  1  'x, y, z'
loop_
 _atom_site_type_symbol
 _atom_site_label
 _atom_site_symmetry_multiplicity
 _atom_site_fract_x
 _atom_site_fract_y
 _atom_site_fract_z
 _atom_site_occupancy
  Fe  Fe0  1  0.50154052  0.50139070  -0.00076486  1
  Fe  Fe1  1  0.87571932  0.37928680  0.87288830  1
  Fe  Fe2  1  0.87327050  0.37776298  0.37629991  1
  Fe  Fe3  1  0.75062670  -0.00161179  -0.00151902  1
  Fe  Fe4  1  0.25043759  0.00134500  0.49771402  1
  Fe  Fe5  1  0.37391249  0.87588722  0.12472477  1
  Fe  Fe6  1  0.12272287  0.12716404  0.37388892  1
  Fe  Fe7  1  0.00042026  0.50150582  0.25221819  1
  Fe  Fe8  1  0.50029450  -0.00109503  -0.00045649  1
  Fe  Fe9  1  0.87082508  0.62615193  0.12238373  1
  Fe  Fe10  1  0.24956977  0.49936287  0.75145641  1
  Fe  Fe11  1  0.62569585  0.12304611  0.12712801  1
  Fe  Fe12  1  0.25127249  -0.00005704  0.75263575  1
  Fe  Fe13  1  0.24949374  0.50058838  0.49795875  1
  Fe  Fe14  1  0.74942982  0.75008100  0.49605254  1
  Fe  Fe15  1  -0.00264805  0.74747134  0.25106437  1
  Fe  Fe16  1  0.49798990  0.24966179  0.74853819  1
  Fe  Fe17  1  0.37848953  0.37315062  0.37608766  1
  Fe  Fe18  1  0.12447333  0.37562739  0.62521292  1
  Fe  Fe19  1  0.12662834  0.62507325  0.12724548  1
  Fe  Fe20  1  0.50568523  0.50002056  0.50151437  1
  Fe  Fe21  1  -0.00208081  0.25303416  0.24885658  1
  Fe  Fe22  1  0.12262571  0.87343594  0.87665948  1
  Fe  Fe23  1  0.24925599  0.00184113  0.00141737  1
  Fe  Fe24  1  0.50125906  0.49907121  0.24984341  1
  Fe  Fe25  1  0.75088906  -0.00026198  0.75044338  1
  Fe  Fe26  1  0.25138825  0.24993078  0.74999738  1
  Fe  Fe27  1  0.24928433  0.74850129  0.00053832  1
  Fe  Fe28  1  0.37401719  0.37457540  0.87735241  1
  Fe  Fe29  1  0.75056387  0.25076186  0.00029893  1
  Fe  Fe30  1  0.62696374  0.37774671  0.12471577  1
  Fe  Fe31  1  -0.00051583  0.25273274  0.74974719  1
  Fe  Fe32  1  0.25111303  0.74990534  0.74872397  1
  Fe  Fe33  1  0.50266050  0.75081061  0.24886933  1
  Fe  Fe34  1  0.87171821  0.61633296  0.62104270  1
  Fe  Fe35  1  0.50439972  0.50046427  0.74901336  1
  Fe  Fe36  1  0.25210206  0.24851479  0.24738008  1
  Fe  Fe37  1  0.37327360  0.87730765  0.62535588  1
  Fe  Fe38  1  0.87221692  0.87612843  0.62183156  1
  Fe  Fe39  1  0.12388489  0.12613128  0.87648010  1
  Fe  Fe40  1  0.37666761  0.37649874  0.62356337  1
  Fe  Fe41  1  0.37787297  0.62520605  0.37639615  1
  Fe  Fe42  1  0.62880243  0.87427756  0.12777054  1
  Fe  Fe43  1  0.49962692  -0.00140520  0.74977337  1
  Fe  Fe44  1  0.12581837  0.62358732  0.62252033  1
  Fe  Fe45  1  -0.00270553  -0.00055199  0.75017069  1
  Fe  Fe46  1  0.75004073  0.25130686  0.24932508  1
  Fe  Fe47  1  0.87364126  0.12652944  0.62377730  1
  Fe  Fe48  1  0.74559695  0.50352066  -0.00643702  1
  Fe  Fe49  1  -0.00310068  0.00057643  0.49885467  1
  Fe  Fe50  1  0.74922592  0.25235716  0.49951016  1
  Fe  Fe51  1  0.87552021  0.12424188  0.12583697  1
  Fe  Fe52  1  0.87466399  0.12520688  0.87550238  1
  Fe  Fe53  1  0.75239451  -0.00215937  0.25498645  1
  Fe  Fe54  1  0.25141980  0.74932828  0.50062766  1
  Fe  Fe55  1  0.50285975  0.75079790  0.00220517  1
  Fe  Fe56  1  -0.00182823  0.25179322  0.00039104  1
  Fe  Fe57  1  0.62514302  0.87198402  0.87211050  1
  Fe  Fe58  1  0.50078318  0.75061412  0.50366711  1
  Fe  Fe59  1  0.87217242  0.37986396  0.12436832  1
  Fe  Fe60  1  0.37703818  0.62637902  0.87418408  1
  Fe  Fe61  1  0.37225356  0.37632846  0.12272925  1
  Fe  Fe62  1  0.25078513  0.75016789  0.25101655  1
  Fe  Fe63  1  0.62620925  0.12541345  0.62608688  1
  Fe  Fe64  1  0.49937224  0.24849649  0.00374773  1
  Fe  Fe65  1  0.37623499  0.62481142  0.12531296  1
  Fe  Fe66  1  0.87672013  0.87179895  0.87776170  1
  Fe  Fe67  1  0.87489594  0.87207958  0.12351572  1
  Fe  Fe68  1  0.37955245  0.12551887  0.37189849  1
  Fe  Fe69  1  -0.00250967  0.74727864  0.74642307  1
  Fe  Fe70  1  0.12760519  0.37547332  0.12263317  1
  Fe  Fe71  1  0.49848515  0.75027981  0.74560842  1
  Fe  Fe72  1  0.62475868  0.12650883  0.87484992  1
  Fe  Fe73  1  0.12198739  0.87147233  0.37626724  1
  Fe  Fe74  1  0.12468493  0.12399769  0.62490321  1
  Fe  Fe75  1  0.24830241  -0.00034002  0.24931250  1
  Fe  Fe76  1  0.00195079  0.50159772  -0.00067321  1
  Fe  Fe77  1  0.50301486  -0.00042195  0.50153440  1
  Fe  Fe78  1  -0.00066995  -0.00046490  0.25054280  1
  Fe  Fe79  1  -0.00177723  0.25313114  0.50030767  1
  Fe  Fe80  1  0.12666536  0.37429421  0.37385665  1
  Fe  Fe81  1  0.25307076  0.24804430  0.50111620  1
  Fe  Fe82  1  0.12335826  0.62520472  0.87347616  1
  Fe  Fe83  1  0.75064642  0.25380609  0.75027080  1
  Fe  Fe84  1  0.37748844  0.87476833  0.37498437  1
  Fe  Fe85  1  0.62307656  0.12674603  0.37232779  1
  Fe  Fe86  1  0.12430231  0.87607324  0.62379325  1
  Fe  Fe87  1  0.25142838  0.50147044  0.25201085  1
  Fe  Fe88  1  0.75259151  0.74621680  0.75164217  1
  Fe  Fe89  1  0.74739061  0.50444433  0.25463419  1
  Co  Co90  1  0.49999812  0.24852436  0.50216264  1
  Co  Co91  1  0.00378421  0.49790730  0.49765428  1
  Co  Co92  1  0.62560751  0.37325943  0.62609808  1
  Co  Co93  1  0.75057636  0.74858827  0.25288350  1
  Co  Co94  1  0.87557548  0.62243315  0.37949334  1
  Co  Co95  1  0.62131507  0.62947873  0.87240553  1
  Co  Co96  1  0.37449678  0.62219290  0.62485906  1
  Co  Co97  1  0.37617383  0.12515492  0.87555209  1
  Co  Co98  1  0.50111136  -0.00382311  0.24926564  1
  Co  Co99  1  -0.00142684  0.74800152  0.50379526  1
  Co  Co100  1  0.74476596  0.49959214  0.75378381  1
  Co  Co101  1  0.62253571  0.37126644  0.87617441  1
  Co  Co102  1  0.37703986  0.12197351  0.12741344  1
  Co  Co103  1  0.37476059  0.12207885  0.62581431  1
  Co  Co104  1  0.12548138  0.62754897  0.37572809  1
  Co  Co105  1  0.74887960  0.00184404  0.49697673  1
  Co  Co106  1  0.12140694  0.12678079  0.12540082  1
  Co  Co107  1  0.00156691  0.74682635  0.00116367  1
  Co  Co108  1  0.74236807  0.49657429  0.49725061  1
  Co  Co109  1  -0.00131802  0.00015454  -0.00016781  1
  Co  Co110  1  0.37516608  0.87287051  0.87610869  1
  Co  Co111  1  0.62312417  0.37191959  0.37256963  1
  Co  Co112  1  0.87703053  0.87282708  0.37618978  1
  Co  Co113  1  0.12361796  0.87396900  0.12524780  1
  Co  Co114  1  0.62426838  0.87360486  0.37596369  1
  Co  Co115  1  0.87377037  0.38022086  0.62520683  1
  Co  Co116  1  0.74709160  0.74987195  -0.00118912  1
  Co  Co117  1  0.12601546  0.37486015  0.87709494  1
  Co  Co118  1  0.25119453  0.24650325  0.00131106  1
  Co  Co119  1  0.50031598  0.25360914  0.24474202  1
  Co  Co120  1  0.00122258  0.50135364  0.74887686  1
  Co  Co121  1  0.62637075  0.62416606  0.12597343  1
  Co  Co122  1  0.24981985  0.50437278  -0.00146282  1
  Co  Co123  1  0.62216859  0.62758787  0.37536050  1
  Co  Co124  1  0.87619973  0.62365407  0.87648838  1
  Co  Co125  1  0.87554426  0.12810543  0.37465722  1
  Co  Co126  1  0.62899372  0.87408088  0.62620540  1
  Co  Co127  1  0.62898873  0.62713785  0.62511390  1
