# generated using pymatgen
data_Fe45Co19
_symmetry_space_group_name_H-M   'P 1'
_cell_length_a   11.41525303
_cell_length_b   11.41434773
_cell_length_c   11.41533465
_cell_angle_alpha   90.01066706
_cell_angle_beta   90.00672546
_cell_angle_gamma   89.99529122
_symmetry_Int_Tables_number   1
_chemical_formula_structural   Fe45Co19
_chemical_formula_sum   'Fe90 Co38'
_cell_volume   1487.39143785
_cell_formula_units_Z   2
loop_
 _symmetry_equiv_pos_site_id
 _symmetry_equiv_pos_as_xyz
  1  'x, y, z'
loop_
 _atom_site_type_symbol
 _atom_site_label
 _atom_site_symmetry_multiplicity
 _atom_site_fract_x
 _atom_site_fract_y
 _atom_site_fract_z
 _atom_site_occupancy
  Fe  Fe0  1  -0.00391030  -0.00203130  0.75233920  1
  Fe  Fe1  1  0.24881127  0.49922385  0.24914051  1
  Fe  Fe2  1  0.37522347  0.87435498  0.37520210  1
  Fe  Fe3  1  0.12540483  0.87414392  0.37444697  1
  Fe  Fe4  1  -0.00545701  0.49930022  0.24725709  1
  Fe  Fe5  1  0.50102195  0.00103278  0.49855293  1
  Fe  Fe6  1  0.00136196  0.75284335  -0.00079254  1
  Fe  Fe7  1  0.75036294  0.50154039  0.00204260  1
  Fe  Fe8  1  0.12653719  0.62285701  0.62930678  1
  Fe  Fe9  1  0.49866421  0.75038320  0.75178229  1
  Fe  Fe10  1  0.62730934  0.37669083  0.12723846  1
  Fe  Fe11  1  0.75027963  0.49824632  0.49671820  1
  Fe  Fe12  1  0.12569121  0.12601216  0.37146888  1
  Fe  Fe13  1  0.37977595  0.12638980  0.87801192  1
  Fe  Fe14  1  0.74576380  0.75230548  0.00193541  1
  Fe  Fe15  1  0.24661329  0.49737182  -0.00165814  1
  Fe  Fe16  1  0.24973531  0.25089458  0.75345909  1
  Fe  Fe17  1  0.75247986  0.74587584  0.24773766  1
  Fe  Fe18  1  0.25143915  0.75200762  0.75266253  1
  Fe  Fe19  1  0.37275975  0.37683975  0.62552889  1
  Fe  Fe20  1  0.38093931  0.87241063  0.12321682  1
  Fe  Fe21  1  0.75733350  0.75307054  0.74713606  1
  Fe  Fe22  1  0.12377373  0.87562893  0.62774827  1
  Fe  Fe23  1  0.00144436  0.00117569  0.49761663  1
  Fe  Fe24  1  0.12335564  0.62450749  0.37276924  1
  Fe  Fe25  1  0.37602790  0.37457895  0.87718295  1
  Fe  Fe26  1  0.24965646  0.00145352  0.49991758  1
  Fe  Fe27  1  0.87355547  0.87634376  0.12248453  1
  Fe  Fe28  1  0.37548278  0.87586242  0.62545158  1
  Fe  Fe29  1  0.24939605  0.00079403  -0.00054322  1
  Fe  Fe30  1  0.25186949  0.24934612  0.24850905  1
  Fe  Fe31  1  0.50044964  0.49939466  0.75041681  1
  Fe  Fe32  1  0.50070328  0.00145454  0.25165673  1
  Fe  Fe33  1  0.75202704  0.74862112  0.50180968  1
  Fe  Fe34  1  0.37505826  0.62416563  0.87650316  1
  Fe  Fe35  1  0.50342327  0.25175963  0.75201733  1
  Fe  Fe36  1  0.49953356  0.50157735  0.50177983  1
  Fe  Fe37  1  0.37611938  0.12641706  0.62523635  1
  Fe  Fe38  1  0.87404750  0.12453068  0.62281028  1
  Fe  Fe39  1  -0.00180001  0.74775251  0.50329076  1
  Fe  Fe40  1  0.12587776  0.87690384  0.12503434  1
  Fe  Fe41  1  0.37452422  0.37629198  0.37592870  1
  Fe  Fe42  1  0.37492328  0.37499753  0.12195878  1
  Fe  Fe43  1  0.50054669  0.74821295  0.50018996  1
  Fe  Fe44  1  0.87434808  0.37528244  0.62400594  1
  Fe  Fe45  1  -0.00180621  0.00103804  0.24878912  1
  Fe  Fe46  1  0.50322162  0.50057002  0.00018623  1
  Fe  Fe47  1  0.62554688  0.12832508  0.37520874  1
  Fe  Fe48  1  0.62555768  0.87259553  0.37210567  1
  Fe  Fe49  1  0.12299260  0.37084013  0.12380701  1
  Fe  Fe50  1  0.25081643  0.75202716  -0.00066189  1
  Fe  Fe51  1  0.50133223  0.25062376  0.49946832  1
  Fe  Fe52  1  0.00127881  0.49949219  0.49866644  1
  Fe  Fe53  1  0.49862440  0.25100819  0.25007700  1
  Fe  Fe54  1  0.74887108  0.24838380  0.74850542  1
  Fe  Fe55  1  0.12266895  0.12835496  0.87602883  1
  Fe  Fe56  1  0.24985677  0.74796829  0.50157120  1
  Fe  Fe57  1  0.12349501  0.62632728  0.87353109  1
  Fe  Fe58  1  0.75253637  0.25171192  0.25226163  1
  Fe  Fe59  1  0.00061313  0.00207223  0.00162645  1
  Fe  Fe60  1  -0.00206178  0.75087740  0.24831893  1
  Fe  Fe61  1  0.62609484  0.37482953  0.62414500  1
  Fe  Fe62  1  0.25193232  0.74956208  0.24749200  1
  Fe  Fe63  1  0.75164612  0.49841006  0.75173059  1
  Fe  Fe64  1  0.62692074  0.62447291  0.62717314  1
  Fe  Fe65  1  0.62714411  0.62560344  0.87351520  1
  Fe  Fe66  1  0.87103059  0.12317810  0.87850986  1
  Fe  Fe67  1  0.62731416  0.62305139  0.37262895  1
  Fe  Fe68  1  0.62583483  0.87592386  0.62686228  1
  Fe  Fe69  1  -0.00452853  0.24740265  0.24740302  1
  Fe  Fe70  1  0.50934916  -0.00241467  0.00000352  1
  Fe  Fe71  1  0.87450128  0.37110126  0.87727959  1
  Fe  Fe72  1  -0.00121251  0.49827716  0.75259865  1
  Fe  Fe73  1  0.12400653  0.62495854  0.12404404  1
  Fe  Fe74  1  0.25092952  0.00092218  0.75296806  1
  Fe  Fe75  1  0.49975832  0.50241024  0.24826269  1
  Fe  Fe76  1  0.25257930  0.00060974  0.24864192  1
  Fe  Fe77  1  0.12408987  0.12529970  0.62771412  1
  Fe  Fe78  1  -0.00023140  0.25010764  0.49956753  1
  Fe  Fe79  1  0.74917787  0.00094530  0.24745578  1
  Fe  Fe80  1  0.74579639  0.24813109  0.00101332  1
  Fe  Fe81  1  0.87465746  0.87493889  0.37618285  1
  Fe  Fe82  1  0.12609220  0.37573886  0.62783683  1
  Fe  Fe83  1  -0.00091307  0.49733260  -0.00029897  1
  Fe  Fe84  1  0.50223379  0.00051137  0.75081819  1
  Fe  Fe85  1  0.87577632  0.62743225  0.87661188  1
  Fe  Fe86  1  0.37881333  0.12629123  0.12107631  1
  Fe  Fe87  1  0.37279058  0.62343296  0.37562725  1
  Fe  Fe88  1  0.24824563  0.25113825  0.49840688  1
  Fe  Fe89  1  0.74817656  0.00155109  0.50049053  1
  Co  Co90  1  0.37411142  0.62431926  0.12092290  1
  Co  Co91  1  0.87368963  0.12409298  0.37601889  1
  Co  Co92  1  0.12356515  0.87583668  0.87384636  1
  Co  Co93  1  0.50540931  0.25300156  -0.00051554  1
  Co  Co94  1  0.87208282  0.87710586  0.88027686  1
  Co  Co95  1  0.37432909  0.12603650  0.37639104  1
  Co  Co96  1  0.87438274  0.61941654  0.62495373  1
  Co  Co97  1  0.74998457  0.25087765  0.49979655  1
  Co  Co98  1  0.87597798  0.62469059  0.37579443  1
  Co  Co99  1  -0.00146533  0.24756890  0.00245720  1
  Co  Co100  1  0.24810128  0.49950001  0.49791818  1
  Co  Co101  1  -0.00345013  0.24967141  0.74907016  1
  Co  Co102  1  0.50372112  0.74960819  -0.00346958  1
  Co  Co103  1  0.62412016  0.12905236  0.12847772  1
  Co  Co104  1  0.25013056  0.49784786  0.75428885  1
  Co  Co105  1  0.74159010  -0.00182806  0.00450415  1
  Co  Co106  1  0.37736681  0.87753202  0.87734042  1
  Co  Co107  1  0.62163435  0.87007567  0.13111488  1
  Co  Co108  1  0.62381934  0.12564505  0.62465301  1
  Co  Co109  1  0.12222537  0.37351027  0.37109762  1
  Co  Co110  1  0.75209602  0.00094384  0.74781214  1
  Co  Co111  1  0.12128086  0.37097697  0.87502052  1
  Co  Co112  1  0.37345744  0.62424957  0.62729915  1
  Co  Co113  1  0.87656989  0.87919977  0.62108943  1
  Co  Co114  1  0.87077637  0.12396497  0.12255774  1
  Co  Co115  1  -0.00433019  0.75123275  0.74854743  1
  Co  Co116  1  0.12651894  0.12602730  0.12606377  1
  Co  Co117  1  0.87676980  0.62704866  0.12081289  1
  Co  Co118  1  0.49752269  0.74465592  0.25188442  1
  Co  Co119  1  0.62393283  0.37640244  0.37298394  1
  Co  Co120  1  0.24967395  0.24949326  -0.00128620  1
  Co  Co121  1  0.62755418  0.37662470  0.87573005  1
  Co  Co122  1  0.87274629  0.37298129  0.12204687  1
  Co  Co123  1  0.62926918  0.87428051  0.86971216  1
  Co  Co124  1  0.62627525  0.12423305  0.87343521  1
  Co  Co125  1  0.87605320  0.37551672  0.37570576  1
  Co  Co126  1  0.75427667  0.50151651  0.24844307  1
  Co  Co127  1  0.62419555  0.62490812  0.12544373  1
