# generated using pymatgen
data_Fe45Co19
_symmetry_space_group_name_H-M   'P 1'
_cell_length_a   11.41496385
_cell_length_b   11.41611491
_cell_length_c   11.41550478
_cell_angle_alpha   89.99803678
_cell_angle_beta   89.99438956
_cell_angle_gamma   90.01311539
_symmetry_Int_Tables_number   1
_chemical_formula_structural   Fe45Co19
_chemical_formula_sum   'Fe90 Co38'
_cell_volume   1487.60619588
_cell_formula_units_Z   2
loop_
 _symmetry_equiv_pos_site_id
 _symmetry_equiv_pos_as_xyz
  1  'x, y, z'
loop_
 _atom_site_type_symbol
 _atom_site_label
 _atom_site_symmetry_multiplicity
 _atom_site_fract_x
 _atom_site_fract_y
 _atom_site_fract_z
 _atom_site_occupancy
  Fe  Fe0  1  0.50172736  0.00096443  -0.00315879  1
  Fe  Fe1  1  0.87278870  0.37348510  0.37247215  1
  Fe  Fe2  1  0.37687261  0.12618879  0.87346987  1
  Fe  Fe3  1  0.00152754  0.25060993  -0.00010183  1
  Fe  Fe4  1  0.24958745  -0.00225407  0.50305459  1
  Fe  Fe5  1  0.50192656  0.74986520  0.50050166  1
  Fe  Fe6  1  0.25031462  0.24854085  0.24927138  1
  Fe  Fe7  1  0.75142327  0.50100923  0.75041901  1
  Fe  Fe8  1  0.24840035  0.49816384  -0.00227473  1
  Fe  Fe9  1  0.50121829  0.49883820  -0.00018537  1
  Fe  Fe10  1  0.87299849  0.87643339  0.37607402  1
  Fe  Fe11  1  0.12535251  0.87429735  0.87294774  1
  Fe  Fe12  1  0.12465071  0.62510410  0.12464976  1
  Fe  Fe13  1  0.50090809  0.49817564  0.49851337  1
  Fe  Fe14  1  -0.00343603  0.24979955  0.74579829  1
  Fe  Fe15  1  0.87396181  0.12640611  0.38313732  1
  Fe  Fe16  1  0.37293388  0.62168447  0.62216179  1
  Fe  Fe17  1  0.00233220  0.75078583  -0.00102274  1
  Fe  Fe18  1  0.62377710  0.12316152  0.12828844  1
  Fe  Fe19  1  0.87281793  0.87725944  0.62269472  1
  Fe  Fe20  1  0.62548590  0.12449826  0.37296474  1
  Fe  Fe21  1  0.37416013  0.62388172  0.37649724  1
  Fe  Fe22  1  0.25017828  0.00010029  -0.00081263  1
  Fe  Fe23  1  0.62628785  0.37438934  0.87442736  1
  Fe  Fe24  1  0.62500566  0.87687316  0.12751223  1
  Fe  Fe25  1  0.87678872  0.12642056  0.12301927  1
  Fe  Fe26  1  0.74936224  0.24921802  0.00081200  1
  Fe  Fe27  1  0.49776096  0.25093074  0.74887313  1
  Fe  Fe28  1  0.37502151  0.62436954  0.12448107  1
  Fe  Fe29  1  0.00057667  0.00549188  0.25309800  1
  Fe  Fe30  1  0.24996656  0.49940130  0.25174009  1
  Fe  Fe31  1  0.87308361  0.62361271  0.37501274  1
  Fe  Fe32  1  0.87401844  0.62590480  0.87794990  1
  Fe  Fe33  1  0.62619581  0.37427565  0.12859924  1
  Fe  Fe34  1  0.62771116  0.62548029  0.62542829  1
  Fe  Fe35  1  0.75178471  0.00284785  0.75243513  1
  Fe  Fe36  1  0.12463970  0.37459565  0.87245922  1
  Fe  Fe37  1  0.62528858  0.12499227  0.62607159  1
  Fe  Fe38  1  0.62642896  0.87667715  0.37235022  1
  Fe  Fe39  1  0.12356561  0.37295122  0.37309448  1
  Fe  Fe40  1  0.25025098  0.75018246  0.24898038  1
  Fe  Fe41  1  0.25011261  0.25054830  -0.00020565  1
  Fe  Fe42  1  0.49842562  0.50045461  0.75158203  1
  Fe  Fe43  1  0.37654309  0.87442892  0.87153729  1
  Fe  Fe44  1  0.25236108  0.25143461  0.74800620  1
  Fe  Fe45  1  0.74935453  0.00157085  -0.00261658  1
  Fe  Fe46  1  0.12587017  0.37876875  0.62641995  1
  Fe  Fe47  1  0.50132849  0.25220660  0.49972032  1
  Fe  Fe48  1  0.00023066  0.74925136  0.25063348  1
  Fe  Fe49  1  0.12386674  0.62438817  0.37577137  1
  Fe  Fe50  1  0.49812202  0.49705185  0.25023390  1
  Fe  Fe51  1  0.62621828  0.37624353  0.62616060  1
  Fe  Fe52  1  0.25008378  0.74822196  0.74931410  1
  Fe  Fe53  1  0.12231857  0.12422787  0.62197162  1
  Fe  Fe54  1  -0.00116248  0.49701188  0.49864778  1
  Fe  Fe55  1  0.25092026  0.25366100  0.50263717  1
  Fe  Fe56  1  0.24822071  0.75090474  0.50162113  1
  Fe  Fe57  1  0.75086159  0.50124171  0.00521339  1
  Fe  Fe58  1  0.49883056  0.75100723  0.25083632  1
  Fe  Fe59  1  0.37612714  0.87509418  0.12413898  1
  Fe  Fe60  1  0.12479916  0.62290253  0.62462345  1
  Fe  Fe61  1  0.62491853  0.87261319  0.62882279  1
  Fe  Fe62  1  0.87544547  0.87559236  0.12493586  1
  Fe  Fe63  1  -0.00046147  0.75214838  0.50032354  1
  Fe  Fe64  1  0.12449917  0.12564675  0.87346008  1
  Fe  Fe65  1  0.50021768  0.25109625  0.00094986  1
  Fe  Fe66  1  0.75368863  0.24822174  0.74733080  1
  Fe  Fe67  1  0.37573554  0.12601811  0.37676975  1
  Fe  Fe68  1  0.62890743  0.37467156  0.37194385  1
  Fe  Fe69  1  0.87405875  0.37385720  0.87564945  1
  Fe  Fe70  1  0.50169822  0.74884974  -0.00167221  1
  Fe  Fe71  1  0.75002877  0.74869712  0.24875919  1
  Fe  Fe72  1  -0.00134170  0.50090994  0.75161305  1
  Fe  Fe73  1  0.62734170  0.62320687  0.37281897  1
  Fe  Fe74  1  0.50112752  -0.00112043  0.50199304  1
  Fe  Fe75  1  0.37454563  0.87515757  0.37705165  1
  Fe  Fe76  1  0.74749483  0.74828336  0.00072845  1
  Fe  Fe77  1  0.37682254  0.12526565  0.12571708  1
  Fe  Fe78  1  0.12556179  0.87592650  0.37440273  1
  Fe  Fe79  1  0.87292828  0.62374138  0.62156711  1
  Fe  Fe80  1  0.12274402  0.37368690  0.12803415  1
  Fe  Fe81  1  0.12463253  0.87711698  0.12592554  1
  Fe  Fe82  1  0.25204983  0.00053613  0.74658361  1
  Fe  Fe83  1  0.24971414  0.00246088  0.25007546  1
  Fe  Fe84  1  -0.00294183  0.75010607  0.75032562  1
  Fe  Fe85  1  0.37375365  0.62434540  0.87692098  1
  Fe  Fe86  1  0.62485542  0.87294371  0.87064322  1
  Fe  Fe87  1  0.00080532  0.00054319  -0.00230302  1
  Fe  Fe88  1  -0.00076490  0.49939170  0.00142623  1
  Fe  Fe89  1  -0.00265172  0.00040580  0.75042369  1
  Co  Co90  1  0.24978745  0.75177325  -0.00013726  1
  Co  Co91  1  0.37565617  0.37847244  0.62382696  1
  Co  Co92  1  0.87694668  0.37097887  0.12729609  1
  Co  Co93  1  0.74935289  0.49828658  0.49947262  1
  Co  Co94  1  -0.00118973  0.25514135  0.50274008  1
  Co  Co95  1  0.75331532  0.74847156  0.75007455  1
  Co  Co96  1  0.49820897  0.74423761  0.74993144  1
  Co  Co97  1  0.00005021  0.24442775  0.25255739  1
  Co  Co98  1  0.87637794  0.12156118  0.61949781  1
  Co  Co99  1  0.49983049  0.00222036  0.74909556  1
  Co  Co100  1  0.12447742  0.12512115  0.12279156  1
  Co  Co101  1  0.62147354  0.62494344  0.12779262  1
  Co  Co102  1  0.37377712  0.37549362  0.12500466  1
  Co  Co103  1  0.37615167  0.37365539  0.87486310  1
  Co  Co104  1  0.37637850  0.12590240  0.62244236  1
  Co  Co105  1  0.87376410  0.87383553  0.87729571  1
  Co  Co106  1  0.24778900  0.49792607  0.49697715  1
  Co  Co107  1  0.37452964  0.37352555  0.37593602  1
  Co  Co108  1  0.12383836  0.62626553  0.87490785  1
  Co  Co109  1  0.75279786  0.50160532  0.24555726  1
  Co  Co110  1  0.87666026  0.12808981  0.87671864  1
  Co  Co111  1  0.74842283  0.75053434  0.49896216  1
  Co  Co112  1  -0.00166483  0.50077458  0.24982326  1
  Co  Co113  1  0.49937402  0.25139891  0.25033578  1
  Co  Co114  1  0.00252594  -0.00307398  0.49854871  1
  Co  Co115  1  0.74817940  0.25159661  0.50250200  1
  Co  Co116  1  0.62405925  0.12828563  0.87306664  1
  Co  Co117  1  0.12731974  0.12706915  0.38137065  1
  Co  Co118  1  0.74499918  -0.00105894  0.50073088  1
  Co  Co119  1  0.87749844  0.62842700  0.12444068  1
  Co  Co120  1  0.62710039  0.62348647  0.87408984  1
  Co  Co121  1  0.12315553  0.87464360  0.62690704  1
  Co  Co122  1  0.49739647  -0.00023269  0.25103957  1
  Co  Co123  1  0.25068448  0.50022683  0.75333072  1
  Co  Co124  1  0.87289840  0.37772606  0.62525461  1
  Co  Co125  1  0.75420134  0.00272513  0.25018138  1
  Co  Co126  1  0.75146202  0.24578220  0.24992825  1
  Co  Co127  1  0.37792169  0.87319996  0.62567391  1
