# generated using pymatgen
data_Fe45Co19
_symmetry_space_group_name_H-M   'P 1'
_cell_length_a   11.41581358
_cell_length_b   11.41475814
_cell_length_c   11.41488485
_cell_angle_alpha   89.99659331
_cell_angle_beta   90.00466003
_cell_angle_gamma   90.00145284
_symmetry_Int_Tables_number   1
_chemical_formula_structural   Fe45Co19
_chemical_formula_sum   'Fe90 Co38'
_cell_volume   1487.45937944
_cell_formula_units_Z   2
loop_
 _symmetry_equiv_pos_site_id
 _symmetry_equiv_pos_as_xyz
  1  'x, y, z'
loop_
 _atom_site_type_symbol
 _atom_site_label
 _atom_site_symmetry_multiplicity
 _atom_site_fract_x
 _atom_site_fract_y
 _atom_site_fract_z
 _atom_site_occupancy
  Fe  Fe0  1  0.00231164  0.24605875  0.25120787  1
  Fe  Fe1  1  0.12020830  0.62371477  0.62415609  1
  Fe  Fe2  1  0.12525200  0.12008693  0.12392684  1
  Fe  Fe3  1  0.62541651  0.37173816  0.37625299  1
  Fe  Fe4  1  0.87756394  0.12091391  0.62547810  1
  Fe  Fe5  1  0.74928531  0.49981960  0.00137975  1
  Fe  Fe6  1  0.25165638  0.50035782  0.25175224  1
  Fe  Fe7  1  0.62293248  0.62545296  0.12675582  1
  Fe  Fe8  1  0.12553971  0.12318963  0.87575093  1
  Fe  Fe9  1  0.12490481  0.87607184  0.37491984  1
  Fe  Fe10  1  0.87720488  0.12070080  0.12562813  1
  Fe  Fe11  1  0.25241641  -0.00122289  0.25124077  1
  Fe  Fe12  1  0.50092851  0.75185848  0.74831125  1
  Fe  Fe13  1  0.87410483  0.87847190  0.62752430  1
  Fe  Fe14  1  0.37487460  0.12441428  0.12242942  1
  Fe  Fe15  1  0.37483513  0.62712033  0.87500588  1
  Fe  Fe16  1  0.62312198  0.12417005  0.12702203  1
  Fe  Fe17  1  0.12627430  0.37348851  0.37484950  1
  Fe  Fe18  1  0.50104486  0.75715159  0.50032798  1
  Fe  Fe19  1  0.62487530  0.12525827  0.62148963  1
  Fe  Fe20  1  0.00193029  0.24768606  0.00107622  1
  Fe  Fe21  1  0.50029485  0.49803432  -0.00027124  1
  Fe  Fe22  1  0.00114879  0.50057687  -0.00075004  1
  Fe  Fe23  1  0.62780909  0.87485724  0.87160294  1
  Fe  Fe24  1  0.00235546  0.24812440  0.74751048  1
  Fe  Fe25  1  0.75117461  0.24708819  0.25095288  1
  Fe  Fe26  1  0.87977040  0.37790624  0.62315074  1
  Fe  Fe27  1  0.37481787  0.37350011  0.12434494  1
  Fe  Fe28  1  0.87620716  0.12294359  0.37536847  1
  Fe  Fe29  1  0.12568326  0.62717723  0.12514709  1
  Fe  Fe30  1  0.62302052  0.62771449  0.37407191  1
  Fe  Fe31  1  0.49598595  0.24698627  0.25427975  1
  Fe  Fe32  1  0.12504917  0.37460569  0.87399236  1
  Fe  Fe33  1  0.12532123  0.37445283  0.12620510  1
  Fe  Fe34  1  0.37364373  0.87435989  0.87395370  1
  Fe  Fe35  1  0.62485939  0.62666795  0.62429684  1
  Fe  Fe36  1  0.75010743  0.75040066  0.24878079  1
  Fe  Fe37  1  0.75021769  0.24974414  0.74559846  1
  Fe  Fe38  1  0.87098217  0.87526021  0.87331156  1
  Fe  Fe39  1  0.12692774  0.87340915  0.87793844  1
  Fe  Fe40  1  0.37231475  0.11944149  0.61925793  1
  Fe  Fe41  1  0.75027236  0.49966926  0.50023011  1
  Fe  Fe42  1  0.74962764  0.24798560  0.00193298  1
  Fe  Fe43  1  0.00043731  0.75381296  0.24784416  1
  Fe  Fe44  1  0.75020541  -0.00083759  0.00078957  1
  Fe  Fe45  1  0.12561558  0.62856564  0.37475622  1
  Fe  Fe46  1  0.75126726  0.50082747  0.74685556  1
  Fe  Fe47  1  0.49978225  0.49927730  0.74912123  1
  Fe  Fe48  1  0.87530745  0.62617744  0.12486497  1
  Fe  Fe49  1  0.37611013  0.62702295  0.62437183  1
  Fe  Fe50  1  0.24834387  0.74977644  0.74736719  1
  Fe  Fe51  1  0.25318764  0.75407000  0.24753605  1
  Fe  Fe52  1  0.49877457  0.00057017  -0.00154670  1
  Fe  Fe53  1  0.37614399  0.62716601  0.37508722  1
  Fe  Fe54  1  0.24904506  0.50164454  -0.00125757  1
  Fe  Fe55  1  0.25160036  0.24678299  0.25312076  1
  Fe  Fe56  1  0.62548068  0.12650812  0.87432007  1
  Fe  Fe57  1  0.24784218  0.24935257  0.74486270  1
  Fe  Fe58  1  0.37416091  0.37607004  0.62360517  1
  Fe  Fe59  1  0.62652082  0.62630522  0.87447515  1
  Fe  Fe60  1  0.00083618  0.50109998  0.25241682  1
  Fe  Fe61  1  0.37356358  0.12628940  0.87463479  1
  Fe  Fe62  1  0.87665827  0.37423527  0.12604675  1
  Fe  Fe63  1  -0.00186017  0.74981576  0.74942964  1
  Fe  Fe64  1  0.87338895  0.62767610  0.87703954  1
  Fe  Fe65  1  0.49678889  0.24954733  0.49881358  1
  Fe  Fe66  1  0.62277075  0.87768637  0.13002463  1
  Fe  Fe67  1  -0.00239248  0.75231343  0.49983056  1
  Fe  Fe68  1  0.87492029  0.62600102  0.37473261  1
  Fe  Fe69  1  0.00397673  0.24736417  0.50053969  1
  Fe  Fe70  1  0.24839129  0.50211729  0.75006071  1
  Fe  Fe71  1  0.25082680  0.75411816  0.50232594  1
  Fe  Fe72  1  0.50129250  0.00021384  0.74765699  1
  Fe  Fe73  1  0.24717789  -0.00214045  0.74754551  1
  Fe  Fe74  1  0.74676638  -0.00057046  0.49793607  1
  Fe  Fe75  1  0.87372572  0.87779103  0.37160289  1
  Fe  Fe76  1  0.50011177  0.75207357  0.00066297  1
  Fe  Fe77  1  0.62554697  0.37265863  0.87338127  1
  Fe  Fe78  1  0.37418804  0.37200749  0.87570337  1
  Fe  Fe79  1  0.87506325  0.12418273  0.87440377  1
  Fe  Fe80  1  0.37672273  0.62488215  0.12566331  1
  Fe  Fe81  1  0.74955122  0.49991115  0.25117518  1
  Fe  Fe82  1  0.87469958  0.37271324  0.87574748  1
  Fe  Fe83  1  0.50017056  0.49982997  0.49824868  1
  Fe  Fe84  1  0.62360359  0.37287116  0.12699509  1
  Fe  Fe85  1  0.75019820  0.75203256  0.50143943  1
  Fe  Fe86  1  0.24861190  0.50028627  0.49944582  1
  Fe  Fe87  1  -0.00046664  0.75424252  0.00300312  1
  Fe  Fe88  1  0.87581244  0.37316493  0.37510563  1
  Fe  Fe89  1  0.49909222  0.24857784  0.74753328  1
  Co  Co90  1  0.62509753  0.12747481  0.37722089  1
  Co  Co91  1  0.37115239  0.12030831  0.38343995  1
  Co  Co92  1  0.87313368  0.87803934  0.12842769  1
  Co  Co93  1  0.74901882  0.00330476  0.25173713  1
  Co  Co94  1  0.24705256  0.25232394  0.50196372  1
  Co  Co95  1  0.87861545  0.62274622  0.62232472  1
  Co  Co96  1  0.37586263  0.87700304  0.37650477  1
  Co  Co97  1  0.75181924  0.74651082  0.74630475  1
  Co  Co98  1  0.62345784  0.37406895  0.62336517  1
  Co  Co99  1  0.50041832  0.24918163  -0.00079016  1
  Co  Co100  1  0.25301229  0.00024056  -0.00192618  1
  Co  Co101  1  0.00045430  -0.00111460  0.49831400  1
  Co  Co102  1  0.12237864  0.37941353  0.62531198  1
  Co  Co103  1  0.62782413  0.87546094  0.62857775  1
  Co  Co104  1  0.12566134  0.12043461  0.62263714  1
  Co  Co105  1  -0.00130100  0.50190059  0.75494386  1
  Co  Co106  1  0.25285708  0.74958665  0.00276359  1
  Co  Co107  1  0.12432824  0.62891606  0.87603075  1
  Co  Co108  1  0.12078080  0.87422317  0.62550219  1
  Co  Co109  1  0.37580795  0.87706384  0.62630499  1
  Co  Co110  1  0.49647808  0.00449185  0.25448781  1
  Co  Co111  1  0.37379199  0.37546998  0.37651727  1
  Co  Co112  1  0.00174765  0.50079858  0.49316499  1
  Co  Co113  1  0.00253207  -0.00160803  0.75293545  1
  Co  Co114  1  0.24615133  -0.00788147  0.50174968  1
  Co  Co115  1  0.00246862  -0.00098315  0.25142670  1
  Co  Co116  1  0.74842532  0.00380908  0.74955517  1
  Co  Co117  1  0.75392857  0.24878928  0.50244115  1
  Co  Co118  1  -0.00189319  -0.00227592  -0.00194697  1
  Co  Co119  1  0.49984610  0.49830852  0.25212226  1
  Co  Co120  1  0.12748889  0.87840469  0.12251812  1
  Co  Co121  1  0.74769397  0.75287498  0.00337408  1
  Co  Co122  1  0.49613033  0.75100311  0.24981244  1
  Co  Co123  1  0.50526852  -0.00511280  0.49863797  1
  Co  Co124  1  0.24790238  0.24898121  0.00028740  1
  Co  Co125  1  0.37718051  0.87797213  0.12404672  1
  Co  Co126  1  0.12855677  0.12189181  0.37791280  1
  Co  Co127  1  0.62503358  0.87448676  0.36928785  1
