# generated using pymatgen
data_Fe45Co19
_symmetry_space_group_name_H-M   'P 1'
_cell_length_a   11.41559077
_cell_length_b   11.41352806
_cell_length_c   11.41634162
_cell_angle_alpha   90.00227316
_cell_angle_beta   90.00168193
_cell_angle_gamma   90.00487688
_symmetry_Int_Tables_number   1
_chemical_formula_structural   Fe45Co19
_chemical_formula_sum   'Fe90 Co38'
_cell_volume   1487.45986572
_cell_formula_units_Z   2
loop_
 _symmetry_equiv_pos_site_id
 _symmetry_equiv_pos_as_xyz
  1  'x, y, z'
loop_
 _atom_site_type_symbol
 _atom_site_label
 _atom_site_symmetry_multiplicity
 _atom_site_fract_x
 _atom_site_fract_y
 _atom_site_fract_z
 _atom_site_occupancy
  Fe  Fe0  1  0.00037316  0.24692142  0.50200545  1
  Fe  Fe1  1  0.62137273  0.37478313  0.87741823  1
  Fe  Fe2  1  0.37249845  0.87462065  0.12188390  1
  Fe  Fe3  1  0.38014843  0.12071137  0.88108034  1
  Fe  Fe4  1  0.87616404  0.37247491  0.87568429  1
  Fe  Fe5  1  0.37521603  0.12449531  0.12286262  1
  Fe  Fe6  1  0.25016255  0.24901090  0.25093150  1
  Fe  Fe7  1  0.50105770  0.24918506  0.50001763  1
  Fe  Fe8  1  0.25041416  0.00032875  0.24925159  1
  Fe  Fe9  1  -0.00112906  0.00196679  0.50205312  1
  Fe  Fe10  1  0.62556060  0.37212930  0.62689559  1
  Fe  Fe11  1  -0.00122679  0.50006089  0.74801150  1
  Fe  Fe12  1  -0.00078106  0.50013611  0.50349101  1
  Fe  Fe13  1  0.50048055  0.24742358  0.75014313  1
  Fe  Fe14  1  0.25014872  0.74895089  0.49900609  1
  Fe  Fe15  1  0.37851720  0.62382289  0.87940983  1
  Fe  Fe16  1  -0.00028400  0.49960094  0.00185246  1
  Fe  Fe17  1  0.50105285  0.75318305  0.50172748  1
  Fe  Fe18  1  0.12111097  0.12233188  0.37215558  1
  Fe  Fe19  1  0.25142915  0.24797720  0.75340845  1
  Fe  Fe20  1  -0.00012801  0.75033175  0.50232688  1
  Fe  Fe21  1  0.25315088  0.74673484  0.25120705  1
  Fe  Fe22  1  0.12452525  0.62489813  0.87586477  1
  Fe  Fe23  1  0.74669536  0.24479868  0.75387427  1
  Fe  Fe24  1  0.49690830  0.50032099  0.24334285  1
  Fe  Fe25  1  0.87033262  0.37313053  0.12441344  1
  Fe  Fe26  1  0.62607038  0.62566249  0.62715498  1
  Fe  Fe27  1  0.87583757  0.62756546  0.87792326  1
  Fe  Fe28  1  0.12782184  0.87282948  0.12535847  1
  Fe  Fe29  1  0.37573459  0.37632959  0.37241943  1
  Fe  Fe30  1  0.49902717  0.75235252  0.74954707  1
  Fe  Fe31  1  0.49883959  0.75111976  0.24749217  1
  Fe  Fe32  1  0.62923914  0.62952096  0.12517148  1
  Fe  Fe33  1  0.87225692  0.62687260  0.62515116  1
  Fe  Fe34  1  0.50093887  0.25230795  0.24507461  1
  Fe  Fe35  1  0.12568006  0.12547203  0.12376381  1
  Fe  Fe36  1  0.00188277  0.24667883  0.74819087  1
  Fe  Fe37  1  0.50047355  0.49790617  0.50313898  1
  Fe  Fe38  1  0.75052742  0.75274016  0.75372442  1
  Fe  Fe39  1  0.12474179  0.37676528  0.37308814  1
  Fe  Fe40  1  0.37946460  0.37710773  0.87894862  1
  Fe  Fe41  1  0.74746472  -0.00126404  -0.00339414  1
  Fe  Fe42  1  0.12877111  0.37565610  0.12578038  1
  Fe  Fe43  1  0.37343037  0.87659857  0.62653594  1
  Fe  Fe44  1  0.62540908  0.37489431  0.37079749  1
  Fe  Fe45  1  0.25072761  0.00043508  0.49722051  1
  Fe  Fe46  1  0.37708023  0.87610805  0.37356668  1
  Fe  Fe47  1  0.74847258  0.49971276  -0.00129577  1
  Fe  Fe48  1  0.37963120  0.12304600  0.37188098  1
  Fe  Fe49  1  0.24951981  0.24941571  -0.00167245  1
  Fe  Fe50  1  0.50268925  0.75415767  0.00102056  1
  Fe  Fe51  1  0.25253162  0.49935457  0.75095312  1
  Fe  Fe52  1  0.87135188  0.87922873  0.62654394  1
  Fe  Fe53  1  0.12357952  0.62478708  0.37454047  1
  Fe  Fe54  1  0.62541721  0.12620901  0.12313716  1
  Fe  Fe55  1  0.74962401  0.49889865  0.75159501  1
  Fe  Fe56  1  0.25094880  0.00215669  0.75374881  1
  Fe  Fe57  1  0.37637087  0.62446091  0.62533890  1
  Fe  Fe58  1  0.12709419  0.87643416  0.62590572  1
  Fe  Fe59  1  0.25000441  0.24882678  0.49721681  1
  Fe  Fe60  1  0.87194960  0.37103234  0.62560827  1
  Fe  Fe61  1  0.87800770  0.12545169  0.87761477  1
  Fe  Fe62  1  0.62150412  0.88082389  0.87179201  1
  Fe  Fe63  1  0.87476484  0.37315026  0.37444382  1
  Fe  Fe64  1  0.74902832  0.49956564  0.50021107  1
  Fe  Fe65  1  0.12288200  0.87549764  0.37224745  1
  Fe  Fe66  1  0.00127262  -0.00165887  0.00347136  1
  Fe  Fe67  1  0.12485097  0.87609703  0.87667198  1
  Fe  Fe68  1  0.12826449  0.37330807  0.62625491  1
  Fe  Fe69  1  0.87677527  0.87685976  0.37339992  1
  Fe  Fe70  1  0.00041366  0.00174834  0.74985648  1
  Fe  Fe71  1  0.25124465  0.74955634  0.75287900  1
  Fe  Fe72  1  0.87319675  0.12667500  0.12352312  1
  Fe  Fe73  1  0.25174191  0.50091271  0.49970794  1
  Fe  Fe74  1  0.37456198  0.12558937  0.62391576  1
  Fe  Fe75  1  0.62784481  0.88254884  0.62634163  1
  Fe  Fe76  1  -0.00371837  0.50288218  0.24742938  1
  Fe  Fe77  1  0.74845917  0.75213786  0.49710948  1
  Fe  Fe78  1  0.12323740  0.37326866  0.87542431  1
  Fe  Fe79  1  0.62145057  0.62296669  0.87385383  1
  Fe  Fe80  1  0.62258041  0.88009215  0.37319604  1
  Fe  Fe81  1  0.75245099  0.50367859  0.25066486  1
  Fe  Fe82  1  0.86887766  0.86892477  0.12205637  1
  Fe  Fe83  1  0.75018239  0.00291548  0.25182076  1
  Fe  Fe84  1  -0.00386636  0.74742492  0.24682528  1
  Fe  Fe85  1  0.62190218  0.62484670  0.37422767  1
  Fe  Fe86  1  0.12889854  0.62446099  0.12343482  1
  Fe  Fe87  1  0.74826552  0.24284809  0.49533590  1
  Fe  Fe88  1  -0.00054436  0.25045738  0.24717570  1
  Fe  Fe89  1  -0.00019198  0.75091182  0.75013920  1
  Co  Co90  1  0.88092976  0.12460836  0.37121598  1
  Co  Co91  1  0.24965384  0.75151327  -0.00313043  1
  Co  Co92  1  0.74908420  0.24574993  0.25285839  1
  Co  Co93  1  0.50072190  0.25256306  0.00386422  1
  Co  Co94  1  0.37983493  0.62500974  0.37699224  1
  Co  Co95  1  0.87157018  0.12470400  0.62771748  1
  Co  Co96  1  0.24910953  0.49810067  -0.00201155  1
  Co  Co97  1  0.87832454  0.87572325  0.87724216  1
  Co  Co98  1  0.00302404  0.75056735  0.00173060  1
  Co  Co99  1  0.50309100  -0.00529750  0.00545312  1
  Co  Co100  1  0.36998983  0.37422670  0.12355014  1
  Co  Co101  1  0.49974149  0.49832695  0.74745549  1
  Co  Co102  1  0.37620026  0.87729293  0.87719966  1
  Co  Co103  1  0.74411028  0.75259868  -0.00865446  1
  Co  Co104  1  0.12194748  0.12463500  0.87805813  1
  Co  Co105  1  0.61932871  0.12314719  0.87869612  1
  Co  Co106  1  0.00018538  0.25166267  0.00337474  1
  Co  Co107  1  0.50296340  0.49908973  0.00780427  1
  Co  Co108  1  0.24817161  0.00026253  0.00034107  1
  Co  Co109  1  0.86891511  0.63003544  0.11884956  1
  Co  Co110  1  0.49719768  0.00186080  0.74795842  1
  Co  Co111  1  0.25372300  0.50324666  0.25104339  1
  Co  Co112  1  0.87666702  0.62451616  0.37922247  1
  Co  Co113  1  0.37411198  0.37252988  0.62537593  1
  Co  Co114  1  0.49944966  -0.00199022  0.24293146  1
  Co  Co115  1  0.75080037  0.00311038  0.75633680  1
  Co  Co116  1  0.49773682  -0.00029346  0.50239214  1
  Co  Co117  1  0.12895512  0.12420160  0.62490304  1
  Co  Co118  1  -0.00128006  -0.00249530  0.24277626  1
  Co  Co119  1  0.37326756  0.62714718  0.11898148  1
  Co  Co120  1  0.61768668  0.12215629  0.37208024  1
  Co  Co121  1  0.75160136  0.00464814  0.49447635  1
  Co  Co122  1  0.63151192  0.87257878  0.12883799  1
  Co  Co123  1  0.63096833  0.37397521  0.12603655  1
  Co  Co124  1  0.62554204  0.12121362  0.62481257  1
  Co  Co125  1  0.12628678  0.62509156  0.62632152  1
  Co  Co126  1  0.74851732  0.24973873  -0.00319819  1
  Co  Co127  1  0.75164600  0.74859192  0.25758489  1
