# generated using pymatgen
data_Fe45Co19
_symmetry_space_group_name_H-M   'P 1'
_cell_length_a   11.41538782
_cell_length_b   11.41615907
_cell_length_c   11.41484966
_cell_angle_alpha   90.00151685
_cell_angle_beta   89.99547775
_cell_angle_gamma   90.00510513
_symmetry_Int_Tables_number   1
_chemical_formula_structural   Fe45Co19
_chemical_formula_sum   'Fe90 Co38'
_cell_volume   1487.58186389
_cell_formula_units_Z   2
loop_
 _symmetry_equiv_pos_site_id
 _symmetry_equiv_pos_as_xyz
  1  'x, y, z'
loop_
 _atom_site_type_symbol
 _atom_site_label
 _atom_site_symmetry_multiplicity
 _atom_site_fract_x
 _atom_site_fract_y
 _atom_site_fract_z
 _atom_site_occupancy
  Fe  Fe0  1  0.75022644  0.49814751  0.25205407  1
  Fe  Fe1  1  0.74483462  0.24987426  0.49739220  1
  Fe  Fe2  1  0.75078591  0.75773378  0.25014612  1
  Fe  Fe3  1  0.50465961  0.24770668  0.50112335  1
  Fe  Fe4  1  0.12414820  0.62357851  0.62544740  1
  Fe  Fe5  1  0.37532572  0.37270694  0.37617687  1
  Fe  Fe6  1  0.62429070  0.37573662  0.87467541  1
  Fe  Fe7  1  0.24889596  0.25008017  0.24519691  1
  Fe  Fe8  1  0.37503016  0.87297355  0.37884117  1
  Fe  Fe9  1  0.87411052  0.62827233  0.12580035  1
  Fe  Fe10  1  0.62415776  0.87877156  0.62594527  1
  Fe  Fe11  1  0.12328396  0.87776001  0.12758366  1
  Fe  Fe12  1  0.37431834  0.12750701  0.37571562  1
  Fe  Fe13  1  -0.00205518  0.50130616  0.25143261  1
  Fe  Fe14  1  0.12546051  0.62381228  0.12666450  1
  Fe  Fe15  1  0.37535840  0.62311570  0.87763264  1
  Fe  Fe16  1  0.37710848  0.37408534  0.62422695  1
  Fe  Fe17  1  0.75263226  0.49937577  0.74915831  1
  Fe  Fe18  1  0.49970495  0.25098163  0.24893229  1
  Fe  Fe19  1  0.62832832  0.12329865  0.12996713  1
  Fe  Fe20  1  0.87575560  0.37460734  0.87689293  1
  Fe  Fe21  1  0.50231898  0.75114521  0.75054487  1
  Fe  Fe22  1  -0.00069436  0.75044657  0.74942553  1
  Fe  Fe23  1  0.74988822  0.00112293  0.49508510  1
  Fe  Fe24  1  0.50020722  0.75113450  0.25278931  1
  Fe  Fe25  1  0.24805338  0.00241209  0.50109889  1
  Fe  Fe26  1  0.87362709  0.62805026  0.37507554  1
  Fe  Fe27  1  0.12834446  0.12627568  0.87328547  1
  Fe  Fe28  1  -0.00130568  0.49938002  0.49919210  1
  Fe  Fe29  1  0.49775506  -0.00217343  0.24945592  1
  Fe  Fe30  1  0.74876369  0.75141250  0.75119168  1
  Fe  Fe31  1  0.62608725  0.62733944  0.12617669  1
  Fe  Fe32  1  0.74967602  -0.00296488  0.00358978  1
  Fe  Fe33  1  0.74997504  0.24917304  0.75099784  1
  Fe  Fe34  1  0.12558679  0.37494175  0.37227292  1
  Fe  Fe35  1  0.87392806  0.37257965  0.37632234  1
  Fe  Fe36  1  0.24804216  0.75028819  0.25350877  1
  Fe  Fe37  1  0.87402394  0.87370475  0.87747221  1
  Fe  Fe38  1  0.37520158  0.62611133  0.62236059  1
  Fe  Fe39  1  0.00042952  0.74979021  0.00091631  1
  Fe  Fe40  1  0.87480314  0.37352541  0.12297159  1
  Fe  Fe41  1  0.87661745  0.87441815  0.62088408  1
  Fe  Fe42  1  0.49932856  0.50033980  0.25028777  1
  Fe  Fe43  1  0.37591906  0.87368986  0.62253190  1
  Fe  Fe44  1  -0.00284012  0.00166162  0.75009962  1
  Fe  Fe45  1  0.25252187  0.50020371  0.24943270  1
  Fe  Fe46  1  0.49930026  -0.00192937  0.00120258  1
  Fe  Fe47  1  0.62538007  0.12128780  0.87363271  1
  Fe  Fe48  1  0.00143396  0.00078995  -0.00147804  1
  Fe  Fe49  1  0.24626403  0.24850433  0.50261453  1
  Fe  Fe50  1  0.00251137  0.24753060  0.00182892  1
  Fe  Fe51  1  0.24918797  0.50017413  0.75148528  1
  Fe  Fe52  1  0.87562456  0.37237644  0.62409716  1
  Fe  Fe53  1  0.12405949  0.87697226  0.62510239  1
  Fe  Fe54  1  0.87278015  0.12519507  0.87795517  1
  Fe  Fe55  1  0.00005499  0.24874054  0.24992013  1
  Fe  Fe56  1  0.87494975  0.62581657  0.87476145  1
  Fe  Fe57  1  0.24837805  0.75209565  -0.00005237  1
  Fe  Fe58  1  0.87603798  0.12790590  0.62216160  1
  Fe  Fe59  1  0.37413781  0.37695418  0.12096353  1
  Fe  Fe60  1  0.37474181  0.62581822  0.12227749  1
  Fe  Fe61  1  0.37255323  0.12572377  0.87715518  1
  Fe  Fe62  1  0.50401382  0.75128463  -0.00206110  1
  Fe  Fe63  1  0.37421740  0.62630523  0.37862180  1
  Fe  Fe64  1  0.00129424  0.00437112  0.49661741  1
  Fe  Fe65  1  0.12519442  0.87530515  0.87286945  1
  Fe  Fe66  1  0.87564794  0.62576164  0.62337804  1
  Fe  Fe67  1  0.62575468  0.62221986  0.62579307  1
  Fe  Fe68  1  0.62639343  0.37400002  0.12600827  1
  Fe  Fe69  1  0.00569876  0.74964781  0.49567478  1
  Fe  Fe70  1  0.37291042  0.12420271  0.12224739  1
  Fe  Fe71  1  0.50254713  0.24913869  0.00127870  1
  Fe  Fe72  1  0.37432580  0.37430408  0.87859124  1
  Fe  Fe73  1  0.25046320  0.74890704  0.74841898  1
  Fe  Fe74  1  0.75355828  -0.00072869  0.74889605  1
  Fe  Fe75  1  0.87244953  0.12500737  0.12677739  1
  Fe  Fe76  1  0.74803536  0.50110504  0.00021439  1
  Fe  Fe77  1  0.49928551  0.49977865  0.75057233  1
  Fe  Fe78  1  0.50102724  0.00319296  0.50034019  1
  Fe  Fe79  1  0.12075412  0.37206081  0.62878927  1
  Fe  Fe80  1  0.74534656  0.75041899  0.49878483  1
  Fe  Fe81  1  0.00225790  0.50166125  -0.00091032  1
  Fe  Fe82  1  0.24890120  0.49856975  0.50083344  1
  Fe  Fe83  1  -0.00529795  -0.00030190  0.25413201  1
  Fe  Fe84  1  0.50027061  0.24706193  0.74786450  1
  Fe  Fe85  1  0.12500262  0.37276478  0.87393279  1
  Fe  Fe86  1  0.37547285  0.87645783  0.87460562  1
  Fe  Fe87  1  0.25353553  -0.00084917  0.24933948  1
  Fe  Fe88  1  0.25235032  0.00209639  0.74753470  1
  Fe  Fe89  1  0.50368760  0.50071884  0.49784499  1
  Co  Co90  1  0.00345548  0.24853455  0.49636294  1
  Co  Co91  1  0.74854560  0.75044905  -0.00131125  1
  Co  Co92  1  0.87876804  0.87500473  0.12246004  1
  Co  Co93  1  0.75421042  -0.00612351  0.25211728  1
  Co  Co94  1  0.24982488  -0.00243227  0.00092385  1
  Co  Co95  1  -0.00435543  0.24697097  0.75354679  1
  Co  Co96  1  0.12263257  0.37816696  0.12709418  1
  Co  Co97  1  0.50419531  0.74840981  0.50086416  1
  Co  Co98  1  0.75069556  0.25269825  0.25076271  1
  Co  Co99  1  0.24572677  0.75020904  0.49969790  1
  Co  Co100  1  0.62200280  0.87771740  0.37527859  1
  Co  Co101  1  0.24702603  0.49950686  -0.00084267  1
  Co  Co102  1  0.00190944  0.74996418  0.25194082  1
  Co  Co103  1  0.87735829  0.87116521  0.37933758  1
  Co  Co104  1  0.37506456  0.87173769  0.12472105  1
  Co  Co105  1  0.24678698  0.25028230  0.00450271  1
  Co  Co106  1  0.62559822  0.37662091  0.62606516  1
  Co  Co107  1  0.62529882  0.62262420  0.87390680  1
  Co  Co108  1  0.62487786  0.12372248  0.36888648  1
  Co  Co109  1  0.12772040  0.12549852  0.37095762  1
  Co  Co110  1  0.87188130  0.12850333  0.37455200  1
  Co  Co111  1  0.62608120  0.87951971  0.87369813  1
  Co  Co112  1  0.74806361  0.24929394  -0.00000556  1
  Co  Co113  1  0.12403729  0.11950943  0.12785144  1
  Co  Co114  1  0.50319519  0.50006360  0.00247794  1
  Co  Co115  1  0.75064148  0.49996631  0.49865786  1
  Co  Co116  1  0.62307765  0.37532278  0.37351244  1
  Co  Co117  1  -0.00109066  0.50029196  0.75029251  1
  Co  Co118  1  0.62749403  0.12201921  0.62720507  1
  Co  Co119  1  0.49638100  0.00125673  0.74891225  1
  Co  Co120  1  0.37526358  0.12604911  0.62264865  1
  Co  Co121  1  0.12600075  0.87936037  0.37297867  1
  Co  Co122  1  0.12150493  0.12622367  0.62861564  1
  Co  Co123  1  0.62715962  0.62516020  0.37171825  1
  Co  Co124  1  0.12588894  0.62015543  0.37444536  1
  Co  Co125  1  0.12442099  0.62739153  0.87423439  1
  Co  Co126  1  0.62381344  0.87498147  0.12498531  1
  Co  Co127  1  0.25372944  0.25034485  0.74735420  1
