# generated using pymatgen
data_Fe45Co19
_symmetry_space_group_name_H-M   'P 1'
_cell_length_a   11.41579441
_cell_length_b   11.41410450
_cell_length_c   11.41580091
_cell_angle_alpha   90.00578699
_cell_angle_beta   90.00866390
_cell_angle_gamma   90.00710636
_symmetry_Int_Tables_number   1
_chemical_formula_structural   Fe45Co19
_chemical_formula_sum   'Fe90 Co38'
_cell_volume   1487.49104047
_cell_formula_units_Z   2
loop_
 _symmetry_equiv_pos_site_id
 _symmetry_equiv_pos_as_xyz
  1  'x, y, z'
loop_
 _atom_site_type_symbol
 _atom_site_label
 _atom_site_symmetry_multiplicity
 _atom_site_fract_x
 _atom_site_fract_y
 _atom_site_fract_z
 _atom_site_occupancy
  Fe  Fe0  1  0.50418622  0.25202751  0.75183563  1
  Fe  Fe1  1  0.12606790  0.87663912  0.12394168  1
  Fe  Fe2  1  0.25033155  0.49896832  0.25086079  1
  Fe  Fe3  1  0.50002363  0.75028371  0.50069371  1
  Fe  Fe4  1  0.87454999  0.62300836  0.87216112  1
  Fe  Fe5  1  0.74855300  0.49908723  0.25091640  1
  Fe  Fe6  1  -0.00062127  0.75003923  -0.00050420  1
  Fe  Fe7  1  0.25506448  0.00453790  0.50252543  1
  Fe  Fe8  1  0.25010841  0.49787884  0.49968970  1
  Fe  Fe9  1  0.37631033  0.62450761  0.62706056  1
  Fe  Fe10  1  0.24971738  0.75060407  0.74985466  1
  Fe  Fe11  1  0.62164876  0.61984522  0.87274712  1
  Fe  Fe12  1  0.12604458  0.62464777  0.12452932  1
  Fe  Fe13  1  0.62481689  0.12434672  0.62360459  1
  Fe  Fe14  1  0.37621295  0.87629469  0.12488088  1
  Fe  Fe15  1  0.12606040  0.87749420  0.87534958  1
  Fe  Fe16  1  0.37520445  0.37230022  0.37227813  1
  Fe  Fe17  1  0.50367874  0.25007428  -0.00153237  1
  Fe  Fe18  1  0.00142879  0.00161846  0.74926767  1
  Fe  Fe19  1  0.12685367  0.12305836  0.87795737  1
  Fe  Fe20  1  0.87485517  0.87635479  0.87393160  1
  Fe  Fe21  1  0.74853641  0.75003187  -0.00217833  1
  Fe  Fe22  1  0.37323472  0.87839959  0.87422834  1
  Fe  Fe23  1  0.62409418  0.62410522  0.12478780  1
  Fe  Fe24  1  0.62432135  0.87895651  0.38029916  1
  Fe  Fe25  1  0.74717084  0.24942560  -0.00129528  1
  Fe  Fe26  1  0.37434770  0.37141107  0.62582008  1
  Fe  Fe27  1  -0.00008078  0.49970608  0.24977762  1
  Fe  Fe28  1  0.12600586  0.37427208  0.12458477  1
  Fe  Fe29  1  0.87297175  0.36996870  0.12871042  1
  Fe  Fe30  1  0.74729798  0.75082673  0.25051959  1
  Fe  Fe31  1  -0.00148925  0.74858898  0.74727187  1
  Fe  Fe32  1  0.74936637  -0.00048494  0.74774718  1
  Fe  Fe33  1  -0.00263693  0.00103937  0.00182077  1
  Fe  Fe34  1  0.37673293  0.62499448  0.37491087  1
  Fe  Fe35  1  0.50184196  0.49863112  0.24968368  1
  Fe  Fe36  1  0.24907569  0.00408525  0.24920297  1
  Fe  Fe37  1  0.87270007  0.12420208  0.87478919  1
  Fe  Fe38  1  0.62521953  0.12254496  0.12488965  1
  Fe  Fe39  1  0.74876724  0.00070407  0.24976291  1
  Fe  Fe40  1  0.50108241  0.49937861  0.50185550  1
  Fe  Fe41  1  0.62459065  0.37374783  0.37578122  1
  Fe  Fe42  1  0.87459642  0.62683266  0.12596294  1
  Fe  Fe43  1  0.49901294  0.00209950  0.74789347  1
  Fe  Fe44  1  0.12482092  0.12781649  0.62348804  1
  Fe  Fe45  1  0.00070605  0.49804513  0.50124252  1
  Fe  Fe46  1  0.87399482  0.62543256  0.37699979  1
  Fe  Fe47  1  0.75152707  0.24862189  0.49882038  1
  Fe  Fe48  1  0.87800543  0.12740464  0.37187653  1
  Fe  Fe49  1  0.37426466  0.12491755  0.87260607  1
  Fe  Fe50  1  0.87693487  0.37131278  0.37207881  1
  Fe  Fe51  1  0.50165710  0.75091262  0.74970795  1
  Fe  Fe52  1  0.49767435  0.24709841  0.49868003  1
  Fe  Fe53  1  0.12566405  0.62427371  0.87599035  1
  Fe  Fe54  1  0.74689926  0.49764587  0.74564339  1
  Fe  Fe55  1  -0.00247238  0.00102690  0.50065905  1
  Fe  Fe56  1  0.87893590  0.37281485  0.62730845  1
  Fe  Fe57  1  0.25405248  0.49926594  -0.00297694  1
  Fe  Fe58  1  0.24572482  0.25192883  0.75239534  1
  Fe  Fe59  1  0.25006304  0.75030988  0.25179436  1
  Fe  Fe60  1  0.37604328  0.62600881  0.12530218  1
  Fe  Fe61  1  0.25107962  0.24950707  0.00014598  1
  Fe  Fe62  1  0.12480038  0.87451908  0.62227329  1
  Fe  Fe63  1  0.87601368  0.37468671  0.87219563  1
  Fe  Fe64  1  0.62122210  0.12257833  0.37642273  1
  Fe  Fe65  1  0.25131642  0.75082412  -0.00087588  1
  Fe  Fe66  1  0.37702546  0.12581892  0.12823775  1
  Fe  Fe67  1  0.12553267  0.62583960  0.37680972  1
  Fe  Fe68  1  0.50232858  0.75268147  0.25159270  1
  Fe  Fe69  1  -0.00159385  0.24869142  0.00012940  1
  Fe  Fe70  1  0.87592378  0.12614898  0.62619917  1
  Fe  Fe71  1  0.75034758  0.75025147  0.50429218  1
  Fe  Fe72  1  0.00110838  0.75060226  0.25161325  1
  Fe  Fe73  1  0.75061163  0.49879382  0.00179084  1
  Fe  Fe74  1  0.24920200  0.24947401  0.49600435  1
  Fe  Fe75  1  0.87251449  0.87473218  0.12444122  1
  Fe  Fe76  1  0.12676219  0.87629077  0.37833194  1
  Fe  Fe77  1  0.50005744  0.75046093  -0.00140566  1
  Fe  Fe78  1  0.74762593  0.25068479  0.75039392  1
  Fe  Fe79  1  -0.00209744  0.49904602  -0.00004715  1
  Fe  Fe80  1  0.74851276  0.49857565  0.50172700  1
  Fe  Fe81  1  0.12587485  0.62498555  0.62336845  1
  Fe  Fe82  1  0.25073477  0.49666419  0.75256855  1
  Fe  Fe83  1  0.62465307  0.87947343  0.87635375  1
  Fe  Fe84  1  0.74918831  0.75129309  0.74703817  1
  Fe  Fe85  1  0.37464626  0.87797960  0.37596097  1
  Fe  Fe86  1  0.37501341  0.87517648  0.62568848  1
  Fe  Fe87  1  0.87450830  0.87569697  0.37645470  1
  Fe  Fe88  1  0.00091397  0.00246846  0.24789852  1
  Fe  Fe89  1  0.37662774  0.37224667  0.12635270  1
  Co  Co90  1  0.62537942  0.37930856  0.87626368  1
  Co  Co91  1  0.62560379  0.87625333  0.12191779  1
  Co  Co92  1  0.62571056  0.37592832  0.12436077  1
  Co  Co93  1  0.12420323  0.37299474  0.62583171  1
  Co  Co94  1  0.12277094  0.37437489  0.87793098  1
  Co  Co95  1  0.75114386  0.00059901  0.00104568  1
  Co  Co96  1  0.12362430  0.37493150  0.37374306  1
  Co  Co97  1  0.50150090  -0.00270379  0.24941013  1
  Co  Co98  1  -0.00226963  0.75006311  0.50068821  1
  Co  Co99  1  0.62558043  0.62532941  0.37674545  1
  Co  Co100  1  0.24927850  0.00069701  0.74647066  1
  Co  Co101  1  0.62373267  0.37082805  0.62149629  1
  Co  Co102  1  0.24623904  0.24823517  0.25145825  1
  Co  Co103  1  0.25330090  0.74931216  0.49983315  1
  Co  Co104  1  0.75303258  0.00341654  0.49973212  1
  Co  Co105  1  0.25367221  0.00062167  0.00140706  1
  Co  Co106  1  0.50372029  0.25112938  0.24975051  1
  Co  Co107  1  0.12373653  0.12409171  0.37767022  1
  Co  Co108  1  0.00200168  0.24719546  0.75280765  1
  Co  Co109  1  0.49822512  0.49493885  0.74760264  1
  Co  Co110  1  0.62290237  0.62501972  0.62623177  1
  Co  Co111  1  0.87422803  0.62261792  0.62490958  1
  Co  Co112  1  0.37744293  0.37142176  0.87482036  1
  Co  Co113  1  0.49704473  0.49881617  0.00081939  1
  Co  Co114  1  0.12568002  0.12508963  0.12129646  1
  Co  Co115  1  0.00318334  0.50078222  0.74989163  1
  Co  Co116  1  -0.00046299  0.25126719  0.49977502  1
  Co  Co117  1  0.87504186  0.87722454  0.62554426  1
  Co  Co118  1  0.74486925  0.24760137  0.25221904  1
  Co  Co119  1  0.49808990  0.00228705  -0.00097276  1
  Co  Co120  1  0.62602830  0.12165380  0.87347366  1
  Co  Co121  1  0.37423382  0.13105941  0.63009948  1
  Co  Co122  1  0.37675559  0.62540149  0.87294678  1
  Co  Co123  1  0.49368463  0.00379514  0.50351240  1
  Co  Co124  1  0.37641851  0.12592673  0.36972917  1
  Co  Co125  1  0.00533629  0.24776860  0.24814957  1
  Co  Co126  1  0.87229874  0.12767481  0.12663817  1
  Co  Co127  1  0.62423110  0.87893445  0.62230125  1
