# generated using pymatgen
data_Fe45Co19
_symmetry_space_group_name_H-M   'P 1'
_cell_length_a   11.41475070
_cell_length_b   11.41455182
_cell_length_c   11.41434707
_cell_angle_alpha   90.00525781
_cell_angle_beta   90.00704540
_cell_angle_gamma   90.00305340
_symmetry_Int_Tables_number   1
_chemical_formula_structural   Fe45Co19
_chemical_formula_sum   'Fe90 Co38'
_cell_volume   1487.22392467
_cell_formula_units_Z   2
loop_
 _symmetry_equiv_pos_site_id
 _symmetry_equiv_pos_as_xyz
  1  'x, y, z'
loop_
 _atom_site_type_symbol
 _atom_site_label
 _atom_site_symmetry_multiplicity
 _atom_site_fract_x
 _atom_site_fract_y
 _atom_site_fract_z
 _atom_site_occupancy
  Fe  Fe0  1  0.50118933  0.24928382  0.25282857  1
  Fe  Fe1  1  -0.00013026  0.25148244  0.49812075  1
  Fe  Fe2  1  0.75018844  0.75006586  0.75055638  1
  Fe  Fe3  1  0.62727012  0.87675252  0.87458073  1
  Fe  Fe4  1  0.12595310  0.62542571  0.37471701  1
  Fe  Fe5  1  0.37504314  0.12384191  0.12659929  1
  Fe  Fe6  1  -0.00207436  -0.00179449  0.74872443  1
  Fe  Fe7  1  0.62547886  0.62476226  0.12453260  1
  Fe  Fe8  1  0.12615332  0.87707324  0.87468729  1
  Fe  Fe9  1  0.62555826  0.37773008  0.37765104  1
  Fe  Fe10  1  0.00044596  0.24971083  0.24822360  1
  Fe  Fe11  1  0.24930832  0.25152273  0.00025030  1
  Fe  Fe12  1  0.62237311  0.62581247  0.62164845  1
  Fe  Fe13  1  0.62183620  0.62204758  0.37795818  1
  Fe  Fe14  1  0.37441441  0.87309656  0.62583561  1
  Fe  Fe15  1  0.87429094  0.62262418  0.37640834  1
  Fe  Fe16  1  0.25017577  0.00244203  0.74889381  1
  Fe  Fe17  1  0.49934137  0.49951969  0.74916200  1
  Fe  Fe18  1  0.87194039  0.87447739  0.87629410  1
  Fe  Fe19  1  0.25095378  0.24891450  0.49709530  1
  Fe  Fe20  1  0.87480253  0.12426755  0.37224156  1
  Fe  Fe21  1  0.00054219  0.75192443  0.49701605  1
  Fe  Fe22  1  0.24986954  -0.00300601  0.00503735  1
  Fe  Fe23  1  0.75039405  0.49996057  0.24987199  1
  Fe  Fe24  1  0.12540894  0.87351243  0.62392774  1
  Fe  Fe25  1  0.87572354  0.12656054  0.87403030  1
  Fe  Fe26  1  0.12458480  0.37618839  0.37350270  1
  Fe  Fe27  1  0.25260055  0.50158177  0.49945475  1
  Fe  Fe28  1  0.12690724  0.62234216  0.88003433  1
  Fe  Fe29  1  0.24857539  0.24867186  0.75143828  1
  Fe  Fe30  1  0.50098743  0.74898643  0.25132571  1
  Fe  Fe31  1  0.62632836  0.12392169  0.87447372  1
  Fe  Fe32  1  0.00061001  0.50096860  0.24807965  1
  Fe  Fe33  1  0.24886715  0.50034019  0.75031658  1
  Fe  Fe34  1  0.37448343  0.87483191  0.87599981  1
  Fe  Fe35  1  0.75336203  0.00390847  0.50586139  1
  Fe  Fe36  1  0.62685378  0.37499555  0.87521920  1
  Fe  Fe37  1  0.87584023  0.62334469  0.87591323  1
  Fe  Fe38  1  0.49893360  0.74927186  0.75056143  1
  Fe  Fe39  1  -0.00048745  0.25318968  0.00176542  1
  Fe  Fe40  1  0.37419449  0.37576243  0.87429785  1
  Fe  Fe41  1  0.49917833  0.24885577  -0.00214215  1
  Fe  Fe42  1  0.25276390  0.74851843  0.49856378  1
  Fe  Fe43  1  0.62611637  0.87409829  0.12506950  1
  Fe  Fe44  1  0.87687814  0.62594557  0.62512103  1
  Fe  Fe45  1  0.25029608  0.00113557  0.50023816  1
  Fe  Fe46  1  0.12587187  0.12147727  0.37281945  1
  Fe  Fe47  1  0.62566805  0.87655954  0.62547006  1
  Fe  Fe48  1  -0.00011582  -0.00164234  0.50037714  1
  Fe  Fe49  1  -0.00226978  -0.00010499  0.00378659  1
  Fe  Fe50  1  0.24791327  0.75079318  0.24825705  1
  Fe  Fe51  1  0.75146216  0.24967575  0.00154749  1
  Fe  Fe52  1  0.37471054  0.37268148  0.62543084  1
  Fe  Fe53  1  0.12435617  0.62430593  0.62491720  1
  Fe  Fe54  1  0.87420446  0.87797384  0.37154775  1
  Fe  Fe55  1  0.12288082  0.12604338  0.62471251  1
  Fe  Fe56  1  0.74990437  0.75008786  0.49947005  1
  Fe  Fe57  1  0.75072880  0.49973669  0.00045865  1
  Fe  Fe58  1  0.49987783  0.00144747  0.00040680  1
  Fe  Fe59  1  0.49872233  0.49978878  0.00086999  1
  Fe  Fe60  1  0.37327076  0.87591964  0.37208578  1
  Fe  Fe61  1  0.87730878  0.62828120  0.12265096  1
  Fe  Fe62  1  0.62451553  0.62437942  0.87520443  1
  Fe  Fe63  1  0.12492862  0.12419770  0.87770467  1
  Fe  Fe64  1  0.11926256  0.87128750  0.12780758  1
  Fe  Fe65  1  0.24935772  0.24762800  0.25068117  1
  Fe  Fe66  1  0.00343818  0.25481092  0.75133883  1
  Fe  Fe67  1  0.74843821  0.24693086  0.74647561  1
  Fe  Fe68  1  0.24957847  0.74835027  0.75269405  1
  Fe  Fe69  1  0.24870741  0.50199795  0.24690181  1
  Fe  Fe70  1  0.37331524  0.62648856  0.12309706  1
  Fe  Fe71  1  0.49885560  0.00259005  0.75172276  1
  Fe  Fe72  1  0.37547843  0.37426077  0.12700529  1
  Fe  Fe73  1  0.74962780  0.25031272  0.25064847  1
  Fe  Fe74  1  0.49770082  0.00000973  0.49903985  1
  Fe  Fe75  1  0.75067386  0.74909700  0.25005686  1
  Fe  Fe76  1  0.62500968  0.37431044  0.12481847  1
  Fe  Fe77  1  0.00115097  0.75005033  0.75280096  1
  Fe  Fe78  1  0.00096848  0.49465263  0.00034385  1
  Fe  Fe79  1  0.00021900  0.49822527  0.50025115  1
  Fe  Fe80  1  0.37814972  0.12817675  0.62494108  1
  Fe  Fe81  1  0.75101158  0.00083717  0.00429694  1
  Fe  Fe82  1  0.87563666  0.37481185  0.62479000  1
  Fe  Fe83  1  0.50005792  0.74953919  -0.00097000  1
  Fe  Fe84  1  0.62642631  0.12484276  0.37781937  1
  Fe  Fe85  1  0.37599202  0.37799012  0.37266518  1
  Fe  Fe86  1  0.50221225  0.00158043  0.24986593  1
  Fe  Fe87  1  0.62283566  0.37137755  0.62106024  1
  Fe  Fe88  1  0.62681819  0.87665925  0.37601845  1
  Fe  Fe89  1  0.75020072  0.50045221  0.74753308  1
  Co  Co90  1  0.49582978  0.49947731  0.50119410  1
  Co  Co91  1  0.88089876  0.12838406  0.62715787  1
  Co  Co92  1  0.37381794  0.12092503  0.37148917  1
  Co  Co93  1  0.12342121  0.62670338  0.12139198  1
  Co  Co94  1  0.24929092  0.75492867  0.00126822  1
  Co  Co95  1  0.87557641  0.87124770  0.62483468  1
  Co  Co96  1  -0.00124020  0.74824069  0.25442980  1
  Co  Co97  1  0.87166339  0.37467339  0.87306855  1
  Co  Co98  1  0.62341867  0.12749245  0.12478533  1
  Co  Co99  1  0.50085685  0.50030407  0.24757058  1
  Co  Co100  1  0.75110110  0.49924694  0.50141894  1
  Co  Co101  1  0.37536772  0.62604745  0.62711399  1
  Co  Co102  1  0.12718179  0.37530469  0.62220859  1
  Co  Co103  1  0.12649786  0.87617405  0.37520501  1
  Co  Co104  1  0.87332440  0.37508586  0.12661995  1
  Co  Co105  1  0.00154110  0.00085403  0.24783364  1
  Co  Co106  1  0.37612295  0.62509509  0.37151967  1
  Co  Co107  1  0.25035186  0.49688542  0.00314655  1
  Co  Co108  1  0.12587642  0.37382216  0.12733610  1
  Co  Co109  1  0.37970062  0.87493014  0.12708235  1
  Co  Co110  1  0.75279821  0.00230358  0.74703353  1
  Co  Co111  1  0.00102702  0.75227802  -0.00390108  1
  Co  Co112  1  0.87513005  0.87183757  0.12723566  1
  Co  Co113  1  0.74850754  0.74951371  0.00005888  1
  Co  Co114  1  0.50039527  0.24954888  0.75409912  1
  Co  Co115  1  0.61965201  0.12537283  0.62338075  1
  Co  Co116  1  0.49706183  0.25052634  0.49467800  1
  Co  Co117  1  0.24692777  -0.00210154  0.24566271  1
  Co  Co118  1  0.37162585  0.12372969  0.87750250  1
  Co  Co119  1  0.74819190  0.00097032  0.24632156  1
  Co  Co120  1  0.00119652  0.49837814  0.75065495  1
  Co  Co121  1  0.87528273  0.37567544  0.37373175  1
  Co  Co122  1  0.49794571  0.75113405  0.49878139  1
  Co  Co123  1  0.75241751  0.24794982  0.50072200  1
  Co  Co124  1  0.87475520  0.12630493  0.12722257  1
  Co  Co125  1  0.12747572  0.37569304  0.87594109  1
  Co  Co126  1  0.12589898  0.12679701  0.12342137  1
  Co  Co127  1  0.37372358  0.62452335  0.87736963  1
