# generated using pymatgen
data_Fe45Co19
_symmetry_space_group_name_H-M   'P 1'
_cell_length_a   11.41507608
_cell_length_b   11.41441354
_cell_length_c   11.41498365
_cell_angle_alpha   89.99251580
_cell_angle_beta   90.00165739
_cell_angle_gamma   89.99346131
_symmetry_Int_Tables_number   1
_chemical_formula_structural   Fe45Co19
_chemical_formula_sum   'Fe90 Co38'
_cell_volume   1487.33124081
_cell_formula_units_Z   2
loop_
 _symmetry_equiv_pos_site_id
 _symmetry_equiv_pos_as_xyz
  1  'x, y, z'
loop_
 _atom_site_type_symbol
 _atom_site_label
 _atom_site_symmetry_multiplicity
 _atom_site_fract_x
 _atom_site_fract_y
 _atom_site_fract_z
 _atom_site_occupancy
  Fe  Fe0  1  0.62490879  0.37487138  0.62773313  1
  Fe  Fe1  1  0.37292313  0.62564964  0.62114503  1
  Fe  Fe2  1  0.62559370  0.62463457  0.12365794  1
  Fe  Fe3  1  0.74986169  0.00036103  0.75242011  1
  Fe  Fe4  1  0.37543458  0.87391531  0.62440661  1
  Fe  Fe5  1  0.24493861  0.49803988  0.49821856  1
  Fe  Fe6  1  0.62789143  0.87338217  0.36992544  1
  Fe  Fe7  1  0.75123429  0.49818465  0.75285774  1
  Fe  Fe8  1  0.49965650  0.74746224  0.24737575  1
  Fe  Fe9  1  0.87602296  0.12359295  0.62359447  1
  Fe  Fe10  1  0.50154876  0.49607928  0.00294555  1
  Fe  Fe11  1  0.50344431  -0.00351021  0.00147277  1
  Fe  Fe12  1  0.74921127  0.25266574  -0.00145506  1
  Fe  Fe13  1  0.37063542  0.12537077  0.61872924  1
  Fe  Fe14  1  0.12462589  0.62608346  0.62401027  1
  Fe  Fe15  1  0.37242105  0.37394228  0.87622230  1
  Fe  Fe16  1  0.12561801  0.87441418  0.62683843  1
  Fe  Fe17  1  0.87656545  0.12102773  0.88011959  1
  Fe  Fe18  1  0.74959787  0.75032484  0.74819740  1
  Fe  Fe19  1  0.49728964  0.24762337  0.24855452  1
  Fe  Fe20  1  0.37519138  0.62586928  0.37566895  1
  Fe  Fe21  1  0.25227025  0.24666971  0.24604968  1
  Fe  Fe22  1  0.75659189  0.24432440  0.25024191  1
  Fe  Fe23  1  0.62570437  0.12523181  0.37532814  1
  Fe  Fe24  1  0.12758297  0.37415309  0.87247124  1
  Fe  Fe25  1  0.00172950  -0.00218467  0.49884510  1
  Fe  Fe26  1  0.87334163  0.88015002  0.12258250  1
  Fe  Fe27  1  0.24712195  -0.00225735  0.00446911  1
  Fe  Fe28  1  0.62263054  0.62622231  0.87603877  1
  Fe  Fe29  1  0.75028481  0.49946868  0.49949412  1
  Fe  Fe30  1  0.12776018  0.12436522  0.62269958  1
  Fe  Fe31  1  0.87481349  0.62638068  0.87887657  1
  Fe  Fe32  1  0.87404734  0.87289175  0.37292094  1
  Fe  Fe33  1  0.00266083  0.25124813  0.00142866  1
  Fe  Fe34  1  0.12487275  0.62810010  0.87832248  1
  Fe  Fe35  1  0.49744226  0.00365144  0.25052282  1
  Fe  Fe36  1  0.50069908  0.50099062  0.24883978  1
  Fe  Fe37  1  0.62852549  0.62774546  0.37489427  1
  Fe  Fe38  1  -0.00311908  0.50649528  0.24775960  1
  Fe  Fe39  1  0.00068862  0.24834082  0.75076919  1
  Fe  Fe40  1  0.74739850  0.75442834  0.00245353  1
  Fe  Fe41  1  0.00162689  -0.00240702  0.75434340  1
  Fe  Fe42  1  0.75312655  0.50364957  0.24941598  1
  Fe  Fe43  1  0.49847349  0.25190880  0.49858632  1
  Fe  Fe44  1  0.62579274  0.12482351  0.62489597  1
  Fe  Fe45  1  0.25024766  0.75030026  0.00476850  1
  Fe  Fe46  1  0.50078764  0.25316224  0.00443870  1
  Fe  Fe47  1  0.00326698  0.49930089  0.00195644  1
  Fe  Fe48  1  0.50281013  0.75174071  0.50039862  1
  Fe  Fe49  1  0.25142660  0.74770123  0.75049775  1
  Fe  Fe50  1  0.00469630  0.25257148  0.49865920  1
  Fe  Fe51  1  0.37721630  0.62697234  0.87918934  1
  Fe  Fe52  1  0.87937175  0.37651525  0.62460656  1
  Fe  Fe53  1  0.12663919  0.12368788  0.87716104  1
  Fe  Fe54  1  -0.00038020  0.75226002  0.75492471  1
  Fe  Fe55  1  0.62491280  0.62393666  0.62490130  1
  Fe  Fe56  1  0.49744026  0.00080495  0.75010987  1
  Fe  Fe57  1  0.25097748  0.00099865  0.74992071  1
  Fe  Fe58  1  0.12212625  0.87070481  0.13195341  1
  Fe  Fe59  1  0.50037038  0.49761171  0.49848369  1
  Fe  Fe60  1  -0.00027140  0.75105008  0.49793636  1
  Fe  Fe61  1  0.24773770  0.49915513  0.00382087  1
  Fe  Fe62  1  0.87525685  0.87555673  0.62639844  1
  Fe  Fe63  1  0.24980093  0.50514182  0.24612602  1
  Fe  Fe64  1  0.12857194  0.12180618  0.37506798  1
  Fe  Fe65  1  0.62656754  0.37379722  0.37104181  1
  Fe  Fe66  1  0.87687625  0.37391308  0.12568798  1
  Fe  Fe67  1  0.37353890  0.12491261  0.88144756  1
  Fe  Fe68  1  0.37649085  0.87471228  0.12779788  1
  Fe  Fe69  1  0.75290380  0.25120156  0.75255709  1
  Fe  Fe70  1  0.74755121  0.49468889  -0.00177986  1
  Fe  Fe71  1  0.62766222  0.12375834  0.12545700  1
  Fe  Fe72  1  0.87791313  0.37622329  0.37443615  1
  Fe  Fe73  1  0.62311768  0.12726090  0.87501205  1
  Fe  Fe74  1  0.24757559  0.75549345  0.49358222  1
  Fe  Fe75  1  0.12344659  0.37503685  0.36729027  1
  Fe  Fe76  1  0.49598753  0.24870902  0.74888900  1
  Fe  Fe77  1  0.36864625  0.37553498  0.62598528  1
  Fe  Fe78  1  -0.00524491  0.00549276  0.24994945  1
  Fe  Fe79  1  0.74904705  -0.00232184  0.49890893  1
  Fe  Fe80  1  0.49941282  -0.00090123  0.49793624  1
  Fe  Fe81  1  0.87707346  0.62432555  0.62295802  1
  Fe  Fe82  1  0.12219524  0.62889766  0.37113390  1
  Fe  Fe83  1  0.75071561  0.25150365  0.49995304  1
  Fe  Fe84  1  0.49689775  0.50159507  0.75007081  1
  Fe  Fe85  1  0.12350406  0.12514313  0.12561662  1
  Fe  Fe86  1  0.37400487  0.87342348  0.87567051  1
  Fe  Fe87  1  0.62249557  0.87282158  0.87129059  1
  Fe  Fe88  1  0.00196776  0.50150985  0.75114849  1
  Fe  Fe89  1  0.37354341  0.37515754  0.37109306  1
  Co  Co90  1  0.49896172  0.74822626  0.74786065  1
  Co  Co91  1  0.24754055  0.25130534  0.00366220  1
  Co  Co92  1  0.87338567  0.62630070  0.38036007  1
  Co  Co93  1  0.37082774  0.12511255  0.37774393  1
  Co  Co94  1  0.37352231  0.37654008  0.12669036  1
  Co  Co95  1  0.75476624  0.00477968  0.25155949  1
  Co  Co96  1  0.87611332  0.12472449  0.38290030  1
  Co  Co97  1  0.25319135  0.74975906  0.25130767  1
  Co  Co98  1  0.25171082  -0.00068842  0.24904377  1
  Co  Co99  1  0.75479222  0.74678979  0.24485819  1
  Co  Co100  1  0.74951040  0.75176503  0.50305073  1
  Co  Co101  1  -0.00037667  0.75487025  -0.00060466  1
  Co  Co102  1  0.25086102  0.24559142  0.75249417  1
  Co  Co103  1  -0.00968936  0.74513934  0.24661877  1
  Co  Co104  1  0.37860751  0.87473717  0.37178600  1
  Co  Co105  1  0.74328110  -0.00194421  -0.00241967  1
  Co  Co106  1  0.87485864  0.12257432  0.11510901  1
  Co  Co107  1  0.13078847  0.87308087  0.87410292  1
  Co  Co108  1  0.87250221  0.87618238  0.87723995  1
  Co  Co109  1  0.87949968  0.37577099  0.87623842  1
  Co  Co110  1  0.50217837  0.75387484  0.00361129  1
  Co  Co111  1  0.24638094  0.25535219  0.49689630  1
  Co  Co112  1  -0.00368943  0.24347202  0.25058161  1
  Co  Co113  1  0.11907217  0.87506946  0.36635803  1
  Co  Co114  1  0.24910160  -0.00739006  0.49700053  1
  Co  Co115  1  0.12262191  0.37435480  0.13021905  1
  Co  Co116  1  0.00597159  -0.00504374  -0.00098960  1
  Co  Co117  1  0.62829977  0.37351849  0.13087014  1
  Co  Co118  1  0.12657966  0.37496396  0.63078510  1
  Co  Co119  1  0.25011756  0.50501526  0.75186297  1
  Co  Co120  1  0.62389683  0.87798280  0.62679331  1
  Co  Co121  1  0.87385538  0.62288315  0.11511497  1
  Co  Co122  1  0.37649702  0.62457909  0.12371094  1
  Co  Co123  1  0.62617604  0.87776238  0.13269046  1
  Co  Co124  1  0.62080755  0.37354647  0.87080306  1
  Co  Co125  1  0.12368949  0.62994892  0.12552728  1
  Co  Co126  1  0.37542689  0.12292970  0.12107468  1
  Co  Co127  1  0.00478417  0.49931926  0.49814565  1
