# generated using pymatgen
data_Fe45Co19
_symmetry_space_group_name_H-M   'P 1'
_cell_length_a   11.41486112
_cell_length_b   11.41577343
_cell_length_c   11.41495000
_cell_angle_alpha   89.99855199
_cell_angle_beta   89.98943841
_cell_angle_gamma   89.99804895
_symmetry_Int_Tables_number   1
_chemical_formula_structural   Fe45Co19
_chemical_formula_sum   'Fe90 Co38'
_cell_volume   1487.47603865
_cell_formula_units_Z   2
loop_
 _symmetry_equiv_pos_site_id
 _symmetry_equiv_pos_as_xyz
  1  'x, y, z'
loop_
 _atom_site_type_symbol
 _atom_site_label
 _atom_site_symmetry_multiplicity
 _atom_site_fract_x
 _atom_site_fract_y
 _atom_site_fract_z
 _atom_site_occupancy
  Fe  Fe0  1  0.62847340  0.62384250  0.88055138  1
  Fe  Fe1  1  0.37267479  0.37229704  0.87581351  1
  Fe  Fe2  1  0.37476396  0.12592855  0.87349265  1
  Fe  Fe3  1  0.62531825  0.12648919  0.37103288  1
  Fe  Fe4  1  0.00457431  0.75325345  0.24877377  1
  Fe  Fe5  1  0.37501212  0.62515429  0.37590967  1
  Fe  Fe6  1  0.88148138  0.87790465  0.12038869  1
  Fe  Fe7  1  0.50488330  0.25262643  0.49916393  1
  Fe  Fe8  1  -0.00077614  0.25228136  0.49784211  1
  Fe  Fe9  1  0.75037616  0.00092506  0.75091999  1
  Fe  Fe10  1  0.50000753  0.24876072  0.00315400  1
  Fe  Fe11  1  0.62285630  0.37577330  0.12667330  1
  Fe  Fe12  1  0.62620139  0.62311931  0.62475436  1
  Fe  Fe13  1  0.12545701  0.87566752  0.87487695  1
  Fe  Fe14  1  0.24798774  0.24976352  0.00148128  1
  Fe  Fe15  1  0.50126519  0.49809202  0.75359824  1
  Fe  Fe16  1  0.24963150  0.74766141  0.50171640  1
  Fe  Fe17  1  0.74946528  0.74905130  0.24417707  1
  Fe  Fe18  1  0.24669196  0.74974694  0.24699244  1
  Fe  Fe19  1  0.74854182  0.74930110  0.50162881  1
  Fe  Fe20  1  0.87828904  0.62611576  0.12098189  1
  Fe  Fe21  1  0.12438611  0.87740141  0.62589860  1
  Fe  Fe22  1  0.87339348  0.87547575  0.62449366  1
  Fe  Fe23  1  0.00008120  0.49832400  0.25262674  1
  Fe  Fe24  1  0.37266626  0.87513320  0.37560051  1
  Fe  Fe25  1  0.24630726  0.74798933  0.00192101  1
  Fe  Fe26  1  -0.00348618  0.49820378  0.75218767  1
  Fe  Fe27  1  -0.00283581  0.74900493  0.75091826  1
  Fe  Fe28  1  0.87428180  0.12473416  0.62249764  1
  Fe  Fe29  1  0.87089128  0.37460496  0.37441040  1
  Fe  Fe30  1  0.37281397  0.87632808  0.12343961  1
  Fe  Fe31  1  0.37485074  0.87719684  0.62636218  1
  Fe  Fe32  1  0.12074017  0.12281714  0.12789817  1
  Fe  Fe33  1  -0.00355481  0.25166717  0.74984745  1
  Fe  Fe34  1  0.62598163  0.12452063  0.62434802  1
  Fe  Fe35  1  0.86985948  0.37527215  0.62360875  1
  Fe  Fe36  1  0.37719755  0.62238142  0.62550035  1
  Fe  Fe37  1  0.63040852  0.37284814  0.87718032  1
  Fe  Fe38  1  0.49757771  0.00196357  0.24820992  1
  Fe  Fe39  1  0.62345654  0.87721878  0.12483656  1
  Fe  Fe40  1  0.50177482  0.75209991  0.50126919  1
  Fe  Fe41  1  0.75312768  0.50088754  0.75224619  1
  Fe  Fe42  1  0.37541262  0.62134839  0.12329294  1
  Fe  Fe43  1  0.37414916  0.37638643  0.12387788  1
  Fe  Fe44  1  0.24787741  -0.00103588  0.25081811  1
  Fe  Fe45  1  0.87391817  0.62656183  0.37551689  1
  Fe  Fe46  1  0.12543154  0.62302529  0.37324902  1
  Fe  Fe47  1  0.50033732  0.50053173  0.25268853  1
  Fe  Fe48  1  -0.00111484  0.49990484  0.49957494  1
  Fe  Fe49  1  0.75198991  0.24743277  0.24494935  1
  Fe  Fe50  1  0.49971891  -0.00123283  0.75106760  1
  Fe  Fe51  1  0.24917437  0.00177325  -0.00222459  1
  Fe  Fe52  1  0.49979023  0.74922594  0.24908624  1
  Fe  Fe53  1  0.49833405  0.00290321  0.00139917  1
  Fe  Fe54  1  0.87462319  0.87279147  0.87908921  1
  Fe  Fe55  1  -0.00071912  0.49798832  -0.00494705  1
  Fe  Fe56  1  0.25098576  0.24727113  0.74374268  1
  Fe  Fe57  1  0.37193467  0.37409829  0.37764946  1
  Fe  Fe58  1  0.25201931  0.75125721  0.75087335  1
  Fe  Fe59  1  0.62543865  0.87550279  0.87686441  1
  Fe  Fe60  1  0.12543093  0.12799167  0.87067517  1
  Fe  Fe61  1  0.00021184  0.25077637  0.00041552  1
  Fe  Fe62  1  0.50075463  0.75045362  0.75092056  1
  Fe  Fe63  1  0.12534249  0.37852541  0.12543263  1
  Fe  Fe64  1  0.74854345  0.50407325  0.24876138  1
  Fe  Fe65  1  0.50597733  0.49785785  0.49732747  1
  Fe  Fe66  1  -0.00113798  -0.00154123  0.49698464  1
  Fe  Fe67  1  0.75097824  0.74849559  0.75073262  1
  Fe  Fe68  1  0.37596895  0.37526939  0.62256531  1
  Fe  Fe69  1  0.24857049  0.25221070  0.25074826  1
  Fe  Fe70  1  0.50308801  0.25135714  0.74977789  1
  Fe  Fe71  1  0.12540871  0.37411537  0.62315126  1
  Fe  Fe72  1  0.24896298  0.00513009  0.50384104  1
  Fe  Fe73  1  -0.00194158  0.00077186  0.75255376  1
  Fe  Fe74  1  0.12341053  0.62391209  0.62738769  1
  Fe  Fe75  1  0.87584072  0.12664305  0.37258281  1
  Fe  Fe76  1  0.87645304  0.37473468  0.12462428  1
  Fe  Fe77  1  0.50065433  0.74959374  0.00075709  1
  Fe  Fe78  1  0.75339822  0.00073457  0.24671299  1
  Fe  Fe79  1  0.87096750  0.12918980  0.87901528  1
  Fe  Fe80  1  0.37480302  0.62434451  0.87689611  1
  Fe  Fe81  1  0.50294971  -0.00192378  0.49963649  1
  Fe  Fe82  1  0.62671418  0.87440168  0.37262458  1
  Fe  Fe83  1  0.25041491  0.49795149  0.75054802  1
  Fe  Fe84  1  0.12389918  0.62312852  0.87403478  1
  Fe  Fe85  1  0.00102938  0.74984776  0.50015474  1
  Fe  Fe86  1  0.37581730  0.12681031  0.37501936  1
  Fe  Fe87  1  0.62790129  0.12628868  0.87854452  1
  Fe  Fe88  1  0.87333283  0.87285670  0.37543612  1
  Fe  Fe89  1  0.12214000  0.12710174  0.37403891  1
  Co  Co90  1  -0.00025966  -0.00452857  0.25487958  1
  Co  Co91  1  0.62893048  0.37659102  0.62794124  1
  Co  Co92  1  0.12264058  0.61861147  0.12587486  1
  Co  Co93  1  0.00104644  0.25447562  0.24997498  1
  Co  Co94  1  0.37096371  0.12500905  0.12600752  1
  Co  Co95  1  0.24908183  0.24582872  0.50196718  1
  Co  Co96  1  0.74773005  0.24933350  0.49943102  1
  Co  Co97  1  0.00106311  0.00434281  -0.00628661  1
  Co  Co98  1  0.62419711  0.12443123  0.12618838  1
  Co  Co99  1  0.87385521  0.62626209  0.87939115  1
  Co  Co100  1  0.62775442  0.87560796  0.62668335  1
  Co  Co101  1  0.62602445  0.62900443  0.37436732  1
  Co  Co102  1  0.62903443  0.37222428  0.36821121  1
  Co  Co103  1  0.12261722  0.88012205  0.12159286  1
  Co  Co104  1  0.62264764  0.62246958  0.12272229  1
  Co  Co105  1  0.25060757  0.00160281  0.74917205  1
  Co  Co106  1  0.74898461  0.75235326  0.00378943  1
  Co  Co107  1  0.00450902  0.74789676  0.00015834  1
  Co  Co108  1  0.12594929  0.37188892  0.87233735  1
  Co  Co109  1  0.11826770  0.12519773  0.62588948  1
  Co  Co110  1  0.49641439  0.25030879  0.24804665  1
  Co  Co111  1  0.75193029  0.49789913  0.00292439  1
  Co  Co112  1  0.75008041  0.24729049  0.74749116  1
  Co  Co113  1  0.87451312  0.62432226  0.62357128  1
  Co  Co114  1  0.75049158  -0.00009265  0.00250779  1
  Co  Co115  1  0.24887343  0.50257873  0.50109978  1
  Co  Co116  1  0.24893411  0.49943009  -0.00276346  1
  Co  Co117  1  0.38229107  0.12559874  0.62487222  1
  Co  Co118  1  0.49957976  0.49677849  -0.00274461  1
  Co  Co119  1  0.12882532  0.87458151  0.37833083  1
  Co  Co120  1  0.87096801  0.37100692  0.87593087  1
  Co  Co121  1  0.12716303  0.37608828  0.37745713  1
  Co  Co122  1  0.37518424  0.87553818  0.87697696  1
  Co  Co123  1  0.74757060  0.50024412  0.49678244  1
  Co  Co124  1  0.25189462  0.49938242  0.25127504  1
  Co  Co125  1  0.75002578  0.24983029  0.00741527  1
  Co  Co126  1  0.88147895  0.12260746  0.12514201  1
  Co  Co127  1  0.74985448  0.00121701  0.49769729  1
