# generated using pymatgen
data_Fe45Co19
_symmetry_space_group_name_H-M   'P 1'
_cell_length_a   11.41651645
_cell_length_b   11.41411389
_cell_length_c   11.41409245
_cell_angle_alpha   89.99768306
_cell_angle_beta   90.00185787
_cell_angle_gamma   89.98866682
_symmetry_Int_Tables_number   1
_chemical_formula_structural   Fe45Co19
_chemical_formula_sum   'Fe90 Co38'
_cell_volume   1487.36372497
_cell_formula_units_Z   2
loop_
 _symmetry_equiv_pos_site_id
 _symmetry_equiv_pos_as_xyz
  1  'x, y, z'
loop_
 _atom_site_type_symbol
 _atom_site_label
 _atom_site_symmetry_multiplicity
 _atom_site_fract_x
 _atom_site_fract_y
 _atom_site_fract_z
 _atom_site_occupancy
  Fe  Fe0  1  0.87440112  0.12546328  0.12271318  1
  Fe  Fe1  1  0.37274410  0.62318070  0.62788303  1
  Fe  Fe2  1  0.12436251  0.87400807  0.37334480  1
  Fe  Fe3  1  0.25187291  0.25139603  0.74880055  1
  Fe  Fe4  1  0.87372723  0.62364002  0.37256109  1
  Fe  Fe5  1  0.74956865  -0.00371182  0.50101043  1
  Fe  Fe6  1  0.12081843  0.37628612  0.87183800  1
  Fe  Fe7  1  0.87326210  0.62333626  0.62401152  1
  Fe  Fe8  1  0.74980977  0.25451175  -0.00064218  1
  Fe  Fe9  1  0.12647159  0.62570596  0.37339091  1
  Fe  Fe10  1  0.50194283  0.50190261  0.50123540  1
  Fe  Fe11  1  0.62156836  0.37508274  0.37366927  1
  Fe  Fe12  1  0.00202682  0.50180379  0.50045422  1
  Fe  Fe13  1  0.75080498  0.49601966  0.75308451  1
  Fe  Fe14  1  0.62671542  0.12623594  0.12603305  1
  Fe  Fe15  1  0.87781494  0.87462684  0.11997899  1
  Fe  Fe16  1  0.37461567  0.62505083  0.37446013  1
  Fe  Fe17  1  0.12438722  0.12559086  0.87433547  1
  Fe  Fe18  1  0.24814194  -0.00140222  -0.00297632  1
  Fe  Fe19  1  0.37666498  0.37664052  0.37636505  1
  Fe  Fe20  1  0.00017658  0.24894736  -0.00024677  1
  Fe  Fe21  1  0.62409535  0.12537558  0.37237088  1
  Fe  Fe22  1  0.37740593  0.37431872  0.87774013  1
  Fe  Fe23  1  -0.00098057  0.74973778  0.49963137  1
  Fe  Fe24  1  0.25108631  0.75166253  0.50090713  1
  Fe  Fe25  1  0.12249141  0.87389795  0.12057426  1
  Fe  Fe26  1  0.49602753  0.24974088  0.24671149  1
  Fe  Fe27  1  0.25010017  -0.00213518  0.49964728  1
  Fe  Fe28  1  0.37471093  0.62396148  0.12075941  1
  Fe  Fe29  1  0.50280445  0.00236742  -0.00105070  1
  Fe  Fe30  1  0.12631894  0.62576891  0.62977201  1
  Fe  Fe31  1  0.12234476  0.87331780  0.62857883  1
  Fe  Fe32  1  -0.00039817  -0.00138122  0.49865169  1
  Fe  Fe33  1  0.50158376  -0.00018891  0.75188724  1
  Fe  Fe34  1  -0.00409891  -0.00148551  0.75532263  1
  Fe  Fe35  1  0.62268963  0.87635129  0.12536208  1
  Fe  Fe36  1  0.37731121  0.87402931  0.12088783  1
  Fe  Fe37  1  0.37520926  0.12489531  0.37563707  1
  Fe  Fe38  1  0.00061128  0.24907860  0.50124709  1
  Fe  Fe39  1  -0.00238206  0.74733286  0.24797061  1
  Fe  Fe40  1  0.49943926  0.74893852  0.50090658  1
  Fe  Fe41  1  0.25186536  0.49845262  0.24877713  1
  Fe  Fe42  1  0.50049155  -0.00068562  0.49992671  1
  Fe  Fe43  1  0.00016817  0.24983702  0.25052988  1
  Fe  Fe44  1  0.25179502  0.75084271  0.24835755  1
  Fe  Fe45  1  -0.00012005  0.00131188  0.24932041  1
  Fe  Fe46  1  0.75125024  0.25302365  0.24895930  1
  Fe  Fe47  1  0.75256649  0.25487504  0.74919619  1
  Fe  Fe48  1  0.49974209  0.74777007  0.24889844  1
  Fe  Fe49  1  0.24846431  0.50149735  0.50243018  1
  Fe  Fe50  1  0.12530515  0.62549577  0.12478374  1
  Fe  Fe51  1  0.87344545  0.12384496  0.62513327  1
  Fe  Fe52  1  0.75088756  -0.00370840  0.74975586  1
  Fe  Fe53  1  0.49794893  0.74813758  0.75364672  1
  Fe  Fe54  1  0.62311015  0.87414930  0.37245208  1
  Fe  Fe55  1  0.25066182  0.24865187  0.50225857  1
  Fe  Fe56  1  0.62188559  0.37609239  0.12612932  1
  Fe  Fe57  1  0.87462156  0.12453880  0.37490519  1
  Fe  Fe58  1  0.25108516  -0.00196981  0.75237790  1
  Fe  Fe59  1  0.25338589  0.75266161  0.75480982  1
  Fe  Fe60  1  0.12750131  0.12691471  0.12523103  1
  Fe  Fe61  1  -0.00423818  0.25037561  0.74863405  1
  Fe  Fe62  1  0.62696399  0.87000260  0.87520455  1
  Fe  Fe63  1  0.12653366  0.37308127  0.12611618  1
  Fe  Fe64  1  0.49981035  0.50039828  0.75138654  1
  Fe  Fe65  1  0.62494965  0.12546637  0.62489415  1
  Fe  Fe66  1  0.12599199  0.37414133  0.37441803  1
  Fe  Fe67  1  0.86926356  0.62324582  0.88241808  1
  Fe  Fe68  1  -0.00501192  0.74855565  0.75480526  1
  Fe  Fe69  1  0.50421826  0.50188371  -0.00272577  1
  Fe  Fe70  1  0.75035579  0.75327299  0.50174929  1
  Fe  Fe71  1  0.62711483  0.12972110  0.87422028  1
  Fe  Fe72  1  0.12509551  0.12283269  0.62634184  1
  Fe  Fe73  1  0.62703105  0.62572206  0.62821476  1
  Fe  Fe74  1  0.12388463  0.37799489  0.62810081  1
  Fe  Fe75  1  0.74962146  0.00027365  -0.00143227  1
  Fe  Fe76  1  0.74764718  0.49909517  0.49811563  1
  Fe  Fe77  1  0.87662275  0.38182761  0.12341480  1
  Fe  Fe78  1  0.25095530  -0.00135973  0.25069751  1
  Fe  Fe79  1  0.24774428  0.49843557  -0.00196514  1
  Fe  Fe80  1  0.75176240  0.74872075  0.24689522  1
  Fe  Fe81  1  0.49816956  0.25115946  0.74514667  1
  Fe  Fe82  1  0.74853915  0.25151059  0.50068233  1
  Fe  Fe83  1  0.75139979  -0.00129882  0.24945345  1
  Fe  Fe84  1  0.87644892  0.37701138  0.37513653  1
  Fe  Fe85  1  0.37701668  0.87614835  0.62682167  1
  Fe  Fe86  1  0.62658221  0.62199771  0.12575837  1
  Fe  Fe87  1  0.12799776  0.62497478  0.87394433  1
  Fe  Fe88  1  0.37152693  0.12736188  0.12161092  1
  Fe  Fe89  1  0.37574132  0.12624954  0.87543590  1
  Co  Co90  1  -0.00013678  0.00412167  -0.00220794  1
  Co  Co91  1  0.87397153  0.61878216  0.12326532  1
  Co  Co92  1  0.50156232  0.24741936  0.00253177  1
  Co  Co93  1  -0.00440305  0.50450196  0.75065258  1
  Co  Co94  1  0.37539081  0.12216227  0.62530486  1
  Co  Co95  1  0.49770150  0.00269075  0.24747957  1
  Co  Co96  1  0.62970514  0.62857608  0.87179776  1
  Co  Co97  1  0.49894676  0.50175085  0.24965814  1
  Co  Co98  1  0.24961504  0.75095096  -0.00156105  1
  Co  Co99  1  0.62605449  0.62773344  0.37553509  1
  Co  Co100  1  0.25240060  0.49766808  0.75205484  1
  Co  Co101  1  0.87853104  0.37657245  0.87850795  1
  Co  Co102  1  0.00013802  0.74496378  -0.00166934  1
  Co  Co103  1  0.37549969  0.37658511  0.12001169  1
  Co  Co104  1  0.74805471  0.49961062  0.25149680  1
  Co  Co105  1  0.12230416  0.87386677  0.87653636  1
  Co  Co106  1  0.12542873  0.12444252  0.37406756  1
  Co  Co107  1  0.87150344  0.12750326  0.87558985  1
  Co  Co108  1  0.24752414  0.25183850  -0.00473558  1
  Co  Co109  1  0.50060451  0.24973198  0.50208763  1
  Co  Co110  1  0.37688134  0.87340257  0.37364473  1
  Co  Co111  1  0.87263217  0.87314527  0.88109824  1
  Co  Co112  1  0.87523317  0.87440217  0.37305876  1
  Co  Co113  1  0.87563183  0.37729801  0.62288333  1
  Co  Co114  1  0.62535024  0.37696861  0.62569759  1
  Co  Co115  1  0.37482977  0.37745056  0.62324514  1
  Co  Co116  1  0.00465667  0.50227837  -0.00049749  1
  Co  Co117  1  0.74742078  0.74918129  0.00614293  1
  Co  Co118  1  0.62178858  0.87238645  0.62666010  1
  Co  Co119  1  0.50357081  0.74741217  -0.00073564  1
  Co  Co120  1  0.74371152  0.49530614  -0.00187284  1
  Co  Co121  1  0.75508838  0.75187779  0.74796936  1
  Co  Co122  1  0.25318001  0.25157416  0.25192758  1
  Co  Co123  1  0.62129490  0.37114449  0.87356870  1
  Co  Co124  1  0.37381610  0.62335035  0.87871159  1
  Co  Co125  1  0.00303677  0.50006406  0.25083599  1
  Co  Co126  1  0.37842635  0.87536143  0.87928900  1
  Co  Co127  1  0.87898461  0.87548837  0.62577660  1
