# generated using pymatgen
data_Fe45Co19
_symmetry_space_group_name_H-M   'P 1'
_cell_length_a   11.41595369
_cell_length_b   11.41459720
_cell_length_c   11.41590846
_cell_angle_alpha   89.99813083
_cell_angle_beta   89.99753534
_cell_angle_gamma   89.99649491
_symmetry_Int_Tables_number   1
_chemical_formula_structural   Fe45Co19
_chemical_formula_sum   'Fe90 Co38'
_cell_volume   1487.59005146
_cell_formula_units_Z   2
loop_
 _symmetry_equiv_pos_site_id
 _symmetry_equiv_pos_as_xyz
  1  'x, y, z'
loop_
 _atom_site_type_symbol
 _atom_site_label
 _atom_site_symmetry_multiplicity
 _atom_site_fract_x
 _atom_site_fract_y
 _atom_site_fract_z
 _atom_site_occupancy
  Fe  Fe0  1  -0.00191443  -0.00143249  0.50219321  1
  Fe  Fe1  1  0.62450938  0.37577660  0.87290375  1
  Fe  Fe2  1  0.87224671  0.37597006  0.12447101  1
  Fe  Fe3  1  0.62439139  0.62182540  0.62505780  1
  Fe  Fe4  1  -0.00073850  0.74941832  0.50232995  1
  Fe  Fe5  1  0.62665609  0.12536394  0.62359458  1
  Fe  Fe6  1  0.24940833  0.24878576  0.24964526  1
  Fe  Fe7  1  0.62222349  0.62761096  0.12208919  1
  Fe  Fe8  1  0.37483742  0.87520668  0.62634564  1
  Fe  Fe9  1  0.37429104  0.12768956  0.62264135  1
  Fe  Fe10  1  0.49961536  0.75534016  -0.00204163  1
  Fe  Fe11  1  0.12601645  0.62471183  0.37657049  1
  Fe  Fe12  1  0.87547090  0.62290347  0.37784833  1
  Fe  Fe13  1  0.00103443  0.50066664  0.74933857  1
  Fe  Fe14  1  0.25158656  0.75392898  -0.00136241  1
  Fe  Fe15  1  0.12674690  0.62611595  0.12395293  1
  Fe  Fe16  1  0.37721103  0.62894210  0.87408484  1
  Fe  Fe17  1  0.62329094  0.62455281  0.37738408  1
  Fe  Fe18  1  0.87296934  0.61858838  0.62323219  1
  Fe  Fe19  1  0.37714207  0.12914102  0.37699481  1
  Fe  Fe20  1  0.50005132  0.75125647  0.50210922  1
  Fe  Fe21  1  0.25188213  -0.00003818  0.25125990  1
  Fe  Fe22  1  0.74897174  0.50316342  -0.00427765  1
  Fe  Fe23  1  -0.00014286  0.74931745  0.24934985  1
  Fe  Fe24  1  -0.00134570  0.24847279  0.74735369  1
  Fe  Fe25  1  0.50054342  -0.00135325  0.24969993  1
  Fe  Fe26  1  0.87451329  0.12414117  0.12379047  1
  Fe  Fe27  1  0.12679634  0.87501545  0.12613496  1
  Fe  Fe28  1  0.12554724  0.12497513  0.87898343  1
  Fe  Fe29  1  0.50029604  0.50115616  0.24883369  1
  Fe  Fe30  1  0.87531417  0.12432030  0.87564728  1
  Fe  Fe31  1  0.25297169  0.49420063  0.50193759  1
  Fe  Fe32  1  0.62364166  0.87348219  0.37406674  1
  Fe  Fe33  1  0.87433426  0.37631209  0.87361308  1
  Fe  Fe34  1  0.50175266  -0.00034864  0.50048930  1
  Fe  Fe35  1  0.62581571  0.12753154  0.37675425  1
  Fe  Fe36  1  0.00037980  0.25195300  0.00020568  1
  Fe  Fe37  1  0.12580388  0.12531230  0.62240643  1
  Fe  Fe38  1  0.12055657  0.62947938  0.87625053  1
  Fe  Fe39  1  0.37395270  0.37536747  0.12527374  1
  Fe  Fe40  1  0.12547937  0.37571736  0.37422098  1
  Fe  Fe41  1  0.24958004  0.74952319  0.74817493  1
  Fe  Fe42  1  0.12784973  0.37397922  0.87134911  1
  Fe  Fe43  1  0.74713389  0.25514351  0.50285500  1
  Fe  Fe44  1  0.00138617  0.49925448  0.00045341  1
  Fe  Fe45  1  0.24704150  -0.00024576  0.75229511  1
  Fe  Fe46  1  0.75266614  0.75188339  -0.00400599  1
  Fe  Fe47  1  0.87525813  0.62497819  0.12360919  1
  Fe  Fe48  1  0.49996904  0.00064511  0.75010275  1
  Fe  Fe49  1  0.74866242  0.00093324  0.25001464  1
  Fe  Fe50  1  0.12577030  0.12466858  0.12240621  1
  Fe  Fe51  1  0.62630542  0.87504710  0.62848761  1
  Fe  Fe52  1  0.49743364  0.50259522  0.74917975  1
  Fe  Fe53  1  0.74757796  0.24994719  0.00153669  1
  Fe  Fe54  1  0.50036020  0.25099810  -0.00008391  1
  Fe  Fe55  1  0.87507291  0.87490954  0.37498864  1
  Fe  Fe56  1  0.74975576  -0.00455205  -0.00068828  1
  Fe  Fe57  1  0.74977163  0.74404831  0.75346677  1
  Fe  Fe58  1  0.75112966  0.25038478  0.74872389  1
  Fe  Fe59  1  0.25074874  0.50058804  -0.00310121  1
  Fe  Fe60  1  0.37399380  0.12358194  0.12195710  1
  Fe  Fe61  1  0.74779199  0.50114644  0.25005700  1
  Fe  Fe62  1  -0.00055014  -0.00555240  -0.00154190  1
  Fe  Fe63  1  0.50381316  0.25098654  0.24693856  1
  Fe  Fe64  1  0.25137283  0.75161230  0.50053096  1
  Fe  Fe65  1  0.87234671  0.12591257  0.37909860  1
  Fe  Fe66  1  0.75029607  0.75033582  0.50106087  1
  Fe  Fe67  1  0.37309829  0.12350399  0.87793875  1
  Fe  Fe68  1  0.00079697  0.25485483  0.50342129  1
  Fe  Fe69  1  0.12408294  0.12571381  0.37680776  1
  Fe  Fe70  1  0.37636280  0.62365555  0.37863753  1
  Fe  Fe71  1  0.62571002  0.12364459  0.87654174  1
  Fe  Fe72  1  0.25249417  0.50156579  0.24982966  1
  Fe  Fe73  1  -0.00071131  0.00052311  0.25070195  1
  Fe  Fe74  1  0.87294307  0.37722861  0.37638375  1
  Fe  Fe75  1  0.25512529  0.74960713  0.25156726  1
  Fe  Fe76  1  0.37180662  0.37278466  0.86984177  1
  Fe  Fe77  1  0.75162975  0.00223381  0.75064889  1
  Fe  Fe78  1  0.49905379  0.49256267  0.50266030  1
  Fe  Fe79  1  0.12645886  0.37488925  0.12533205  1
  Fe  Fe80  1  -0.00237624  0.24994272  0.25011075  1
  Fe  Fe81  1  0.12723016  0.62242593  0.62259182  1
  Fe  Fe82  1  0.74915203  0.74894325  0.25028497  1
  Fe  Fe83  1  0.49829461  0.49869630  -0.00131489  1
  Fe  Fe84  1  0.12493950  0.87438444  0.37663977  1
  Fe  Fe85  1  0.50060405  -0.00426685  -0.00093807  1
  Fe  Fe86  1  0.50041366  0.24699256  0.74977166  1
  Fe  Fe87  1  -0.00002016  0.50127485  0.24989824  1
  Fe  Fe88  1  0.87504987  0.87696553  0.62907852  1
  Fe  Fe89  1  0.25138703  -0.00010369  0.49808256  1
  Co  Co90  1  0.62520111  0.37416448  0.37147948  1
  Co  Co91  1  0.87341292  0.38003641  0.62646068  1
  Co  Co92  1  0.00207626  0.00547699  0.74948924  1
  Co  Co93  1  0.62445606  0.12306861  0.12297018  1
  Co  Co94  1  0.74544778  0.49781610  0.49929507  1
  Co  Co95  1  0.12952756  0.37554735  0.63008765  1
  Co  Co96  1  0.00330184  0.49895477  0.50057545  1
  Co  Co97  1  0.25098425  0.25226123  0.00013323  1
  Co  Co98  1  0.49687204  0.74748071  0.25210753  1
  Co  Co99  1  0.24955026  -0.00518020  -0.00247307  1
  Co  Co100  1  0.25156189  0.50680725  0.75238720  1
  Co  Co101  1  0.87285604  0.87555058  0.12815564  1
  Co  Co102  1  -0.00002233  0.74560546  0.74231458  1
  Co  Co103  1  0.74922266  0.50402170  0.75540321  1
  Co  Co104  1  0.87889986  0.87353312  0.86835623  1
  Co  Co105  1  0.24838355  0.24319768  0.75127033  1
  Co  Co106  1  0.37665320  0.87528662  0.37702057  1
  Co  Co107  1  0.11958624  0.87056548  0.87129557  1
  Co  Co108  1  0.37571128  0.87434826  0.86944854  1
  Co  Co109  1  0.50217076  0.25370278  0.50314570  1
  Co  Co110  1  0.88165851  0.62589441  0.87607857  1
  Co  Co111  1  0.37608769  0.62571925  0.12173647  1
  Co  Co112  1  -0.00317220  0.75391256  0.00483073  1
  Co  Co113  1  0.62592721  0.87533248  0.87085175  1
  Co  Co114  1  0.61962862  0.62592148  0.87670501  1
  Co  Co115  1  0.50129352  0.74919792  0.74742383  1
  Co  Co116  1  0.75024242  0.24892903  0.24826918  1
  Co  Co117  1  0.37645334  0.37233275  0.37247931  1
  Co  Co118  1  0.62480707  0.87211731  0.12635501  1
  Co  Co119  1  0.87310224  0.12502977  0.62211683  1
  Co  Co120  1  0.12554503  0.87661995  0.62479850  1
  Co  Co121  1  0.62472389  0.37702803  0.63182896  1
  Co  Co122  1  0.62646118  0.37741988  0.12324615  1
  Co  Co123  1  0.37606328  0.87551892  0.12693337  1
  Co  Co124  1  0.24951023  0.25264117  0.49916650  1
  Co  Co125  1  0.74824540  -0.00346482  0.50039278  1
  Co  Co126  1  0.37556156  0.62551057  0.62285633  1
  Co  Co127  1  0.37183402  0.37077817  0.63124716  1
