# generated using pymatgen
data_Fe45Co19
_symmetry_space_group_name_H-M   'P 1'
_cell_length_a   11.41488327
_cell_length_b   11.41504722
_cell_length_c   11.41433043
_cell_angle_alpha   90.00736292
_cell_angle_beta   90.00828881
_cell_angle_gamma   90.00359690
_symmetry_Int_Tables_number   1
_chemical_formula_structural   Fe45Co19
_chemical_formula_sum   'Fe90 Co38'
_cell_volume   1487.30356410
_cell_formula_units_Z   2
loop_
 _symmetry_equiv_pos_site_id
 _symmetry_equiv_pos_as_xyz
  1  'x, y, z'
loop_
 _atom_site_type_symbol
 _atom_site_label
 _atom_site_symmetry_multiplicity
 _atom_site_fract_x
 _atom_site_fract_y
 _atom_site_fract_z
 _atom_site_occupancy
  Fe  Fe0  1  0.87521189  0.12681845  0.62440729  1
  Fe  Fe1  1  0.49939956  0.49882083  0.00006386  1
  Fe  Fe2  1  0.74915276  0.00208724  0.75171356  1
  Fe  Fe3  1  -0.00098044  0.25132232  -0.00020493  1
  Fe  Fe4  1  0.87775996  0.62454599  0.37769745  1
  Fe  Fe5  1  0.12819504  0.37499900  0.62622316  1
  Fe  Fe6  1  0.87330263  0.37437842  0.62519059  1
  Fe  Fe7  1  0.50228578  0.74978818  0.74807223  1
  Fe  Fe8  1  0.74922562  0.00110393  0.50126049  1
  Fe  Fe9  1  0.50074210  -0.00074942  0.49950938  1
  Fe  Fe10  1  0.50221702  0.25007083  0.25180035  1
  Fe  Fe11  1  0.24892692  0.24840337  0.24960630  1
  Fe  Fe12  1  0.12385711  0.12244138  0.62299261  1
  Fe  Fe13  1  0.75203883  0.74628241  -0.00206912  1
  Fe  Fe14  1  0.87379577  0.87426312  0.37659458  1
  Fe  Fe15  1  0.74879654  0.74684982  0.25203605  1
  Fe  Fe16  1  0.87178277  0.87459105  0.62501587  1
  Fe  Fe17  1  -0.00266309  0.74877068  -0.00249013  1
  Fe  Fe18  1  0.87288830  0.12523747  0.12183516  1
  Fe  Fe19  1  -0.00322075  -0.00117538  -0.00292532  1
  Fe  Fe20  1  0.87546977  0.62410582  0.62447071  1
  Fe  Fe21  1  0.87734262  0.37639871  0.37266072  1
  Fe  Fe22  1  0.00226396  0.75006286  0.25033114  1
  Fe  Fe23  1  0.50116527  0.00103870  0.75143943  1
  Fe  Fe24  1  0.74890663  0.49847709  0.50061852  1
  Fe  Fe25  1  0.12423241  0.12436790  0.12543289  1
  Fe  Fe26  1  0.12850426  0.87548103  0.38023818  1
  Fe  Fe27  1  0.74698817  0.74736466  0.74890387  1
  Fe  Fe28  1  0.87454749  0.87368171  0.12510274  1
  Fe  Fe29  1  0.37336828  0.87555724  0.12616921  1
  Fe  Fe30  1  0.49785373  0.75036253  -0.00090449  1
  Fe  Fe31  1  0.25167117  0.75016224  -0.00181025  1
  Fe  Fe32  1  0.62635078  0.87551163  0.37716564  1
  Fe  Fe33  1  0.49630731  0.25586311  0.74923390  1
  Fe  Fe34  1  0.12489539  0.62623465  0.37711492  1
  Fe  Fe35  1  0.37457703  0.13085087  0.87847674  1
  Fe  Fe36  1  0.62532888  0.87219409  0.12360102  1
  Fe  Fe37  1  0.12810746  0.37218126  0.87242919  1
  Fe  Fe38  1  0.87550930  0.37567315  0.87354550  1
  Fe  Fe39  1  0.50104186  -0.00016276  0.25008011  1
  Fe  Fe40  1  0.62137114  0.62151605  0.37655264  1
  Fe  Fe41  1  0.25126836  0.50267635  0.25097304  1
  Fe  Fe42  1  0.00077313  0.00032743  0.25216280  1
  Fe  Fe43  1  0.62496149  0.37624447  0.12694719  1
  Fe  Fe44  1  0.37173462  0.87207738  0.37665124  1
  Fe  Fe45  1  0.25077054  0.24825671  0.49998796  1
  Fe  Fe46  1  0.12306401  0.37560094  0.12807120  1
  Fe  Fe47  1  0.12411052  0.62445107  0.87285342  1
  Fe  Fe48  1  0.12249300  0.37375277  0.37257552  1
  Fe  Fe49  1  0.75210190  0.24948329  0.75250508  1
  Fe  Fe50  1  0.74923401  0.24958415  0.25171205  1
  Fe  Fe51  1  0.49857408  0.74781681  0.25148800  1
  Fe  Fe52  1  0.37605586  0.37690880  0.37552639  1
  Fe  Fe53  1  0.25002703  0.49896401  -0.00134643  1
  Fe  Fe54  1  0.25230414  0.00145265  -0.00113065  1
  Fe  Fe55  1  0.37632589  0.62082050  0.62527469  1
  Fe  Fe56  1  -0.00303222  -0.00032223  0.75113603  1
  Fe  Fe57  1  0.00242580  0.75159408  0.50408799  1
  Fe  Fe58  1  0.62635207  0.12573335  0.12274729  1
  Fe  Fe59  1  0.75075883  0.50286526  0.00033401  1
  Fe  Fe60  1  0.12673099  0.87542694  0.87370959  1
  Fe  Fe61  1  0.37479251  0.37166478  0.12357454  1
  Fe  Fe62  1  0.37792068  0.12715172  0.62266725  1
  Fe  Fe63  1  0.74560388  0.50204001  0.74847815  1
  Fe  Fe64  1  0.24939571  0.00072601  0.25132305  1
  Fe  Fe65  1  0.62402618  0.13026181  0.62170118  1
  Fe  Fe66  1  0.74854361  -0.00043747  0.24954711  1
  Fe  Fe67  1  0.12629726  0.87454833  0.12380363  1
  Fe  Fe68  1  0.24856574  0.74890043  0.74650879  1
  Fe  Fe69  1  0.87687538  0.37666116  0.12800118  1
  Fe  Fe70  1  0.62422972  0.37577391  0.87505127  1
  Fe  Fe71  1  0.00152775  0.75168014  0.74807919  1
  Fe  Fe72  1  0.12495149  0.62545793  0.12465173  1
  Fe  Fe73  1  0.37740511  0.62260261  0.87142814  1
  Fe  Fe74  1  0.37475154  0.87647492  0.62623195  1
  Fe  Fe75  1  0.62533105  0.87411551  0.87482701  1
  Fe  Fe76  1  0.37460116  0.62526048  0.12638997  1
  Fe  Fe77  1  0.62638013  0.12828725  0.87784543  1
  Fe  Fe78  1  0.50350031  0.49362719  0.50438060  1
  Fe  Fe79  1  0.24750720  0.50249949  0.49904322  1
  Fe  Fe80  1  0.00158498  0.49827874  0.74823106  1
  Fe  Fe81  1  0.49885356  0.00026368  -0.00042667  1
  Fe  Fe82  1  0.25252562  0.00255297  0.75041592  1
  Fe  Fe83  1  0.37631610  0.12541978  0.37426806  1
  Fe  Fe84  1  -0.00083295  0.50090364  -0.00027311  1
  Fe  Fe85  1  0.87531906  0.12485891  0.37540768  1
  Fe  Fe86  1  0.50124973  0.75114233  0.50194820  1
  Fe  Fe87  1  0.12394635  0.12788714  0.87322071  1
  Fe  Fe88  1  -0.00063394  0.25112946  0.50015901  1
  Fe  Fe89  1  0.74949008  0.50381241  0.24940244  1
  Co  Co90  1  0.49953547  0.25388211  0.49830941  1
  Co  Co91  1  0.75096966  0.25522461  0.00007800  1
  Co  Co92  1  0.62470343  0.12448222  0.37759390  1
  Co  Co93  1  0.62374152  0.62429438  0.62316026  1
  Co  Co94  1  0.24608243  0.24968174  0.00265252  1
  Co  Co95  1  0.37212039  0.37348902  0.87726498  1
  Co  Co96  1  0.87436388  0.12742063  0.87766740  1
  Co  Co97  1  0.87655682  0.62576104  0.12634196  1
  Co  Co98  1  0.74814391  0.74790239  0.49921474  1
  Co  Co99  1  0.87585673  0.62310978  0.87034379  1
  Co  Co100  1  0.62926144  0.36812363  0.62528754  1
  Co  Co101  1  0.00120834  0.49711449  0.50108334  1
  Co  Co102  1  0.25127227  0.49968949  0.75197202  1
  Co  Co103  1  0.49777857  0.49993938  0.24745555  1
  Co  Co104  1  0.50241674  0.25141532  0.00057023  1
  Co  Co105  1  0.87251833  0.87311593  0.87236269  1
  Co  Co106  1  0.25433819  0.00171428  0.50021665  1
  Co  Co107  1  0.74963114  -0.00241259  -0.00157381  1
  Co  Co108  1  0.62198529  0.62411884  0.87531069  1
  Co  Co109  1  0.12491029  0.12498844  0.37785140  1
  Co  Co110  1  0.75212753  0.25153565  0.49554784  1
  Co  Co111  1  0.62630651  0.87721103  0.62503313  1
  Co  Co112  1  0.37481696  0.87445510  0.87202152  1
  Co  Co113  1  0.00173910  0.50428505  0.25040874  1
  Co  Co114  1  -0.00112862  0.24608147  0.24990594  1
  Co  Co115  1  0.37609695  0.12637686  0.12592128  1
  Co  Co116  1  0.25002683  0.74800481  0.25103081  1
  Co  Co117  1  0.62519966  0.37701493  0.37313163  1
  Co  Co118  1  0.25222643  0.24801850  0.74679599  1
  Co  Co119  1  0.12723216  0.88138438  0.62465517  1
  Co  Co120  1  0.24948493  0.74732968  0.50545195  1
  Co  Co121  1  0.37018628  0.37753600  0.62305938  1
  Co  Co122  1  0.50142334  0.49434920  0.74725224  1
  Co  Co123  1  -0.00345571  -0.00101367  0.49917328  1
  Co  Co124  1  0.12358827  0.62128174  0.62647188  1
  Co  Co125  1  0.37814441  0.62327461  0.37951457  1
  Co  Co126  1  0.62337002  0.62631632  0.12415867  1
  Co  Co127  1  -0.00035618  0.25047100  0.74796783  1
