# generated using pymatgen
data_Fe45Co19
_symmetry_space_group_name_H-M   'P 1'
_cell_length_a   11.41579469
_cell_length_b   11.41479675
_cell_length_c   11.41536111
_cell_angle_alpha   89.99728310
_cell_angle_beta   90.00445544
_cell_angle_gamma   89.99480010
_symmetry_Int_Tables_number   1
_chemical_formula_structural   Fe45Co19
_chemical_formula_sum   'Fe90 Co38'
_cell_volume   1487.52400503
_cell_formula_units_Z   2
loop_
 _symmetry_equiv_pos_site_id
 _symmetry_equiv_pos_as_xyz
  1  'x, y, z'
loop_
 _atom_site_type_symbol
 _atom_site_label
 _atom_site_symmetry_multiplicity
 _atom_site_fract_x
 _atom_site_fract_y
 _atom_site_fract_z
 _atom_site_occupancy
  Fe  Fe0  1  0.25018673  0.75012019  0.25171221  1
  Fe  Fe1  1  0.25098939  0.25077144  0.75191090  1
  Fe  Fe2  1  0.49933868  0.75190051  0.00127049  1
  Fe  Fe3  1  0.50186533  0.50093449  0.74851292  1
  Fe  Fe4  1  0.87710809  0.37827609  0.37158673  1
  Fe  Fe5  1  0.24851072  0.49917316  0.00096346  1
  Fe  Fe6  1  0.87435977  0.62243581  0.12969694  1
  Fe  Fe7  1  0.49698045  0.24863340  0.25023811  1
  Fe  Fe8  1  0.37538695  0.37464935  0.62475609  1
  Fe  Fe9  1  0.75388154  0.24804947  -0.00081886  1
  Fe  Fe10  1  0.37633960  0.62657548  0.87341940  1
  Fe  Fe11  1  0.62589418  0.87601694  0.87709883  1
  Fe  Fe12  1  0.12314671  0.87487375  0.37649314  1
  Fe  Fe13  1  0.62462829  0.37370955  0.87675796  1
  Fe  Fe14  1  0.62713578  0.12542014  0.62314412  1
  Fe  Fe15  1  0.49619153  0.25142372  0.49816838  1
  Fe  Fe16  1  0.37748526  0.62209870  0.37222566  1
  Fe  Fe17  1  0.24608408  0.50118589  0.24694963  1
  Fe  Fe18  1  -0.00304364  0.75127923  0.00234442  1
  Fe  Fe19  1  0.87535970  0.37440790  0.12744801  1
  Fe  Fe20  1  0.49909055  0.00183045  0.25004046  1
  Fe  Fe21  1  0.62718325  0.62754211  0.62376090  1
  Fe  Fe22  1  0.74943849  0.49942451  0.75000676  1
  Fe  Fe23  1  0.87410782  0.12341692  0.37272038  1
  Fe  Fe24  1  0.87530826  0.37720808  0.87570321  1
  Fe  Fe25  1  0.50260773  -0.00062672  0.74816629  1
  Fe  Fe26  1  0.49580922  0.24882272  -0.00077120  1
  Fe  Fe27  1  0.62642336  0.87596394  0.12600100  1
  Fe  Fe28  1  0.24673325  -0.00183043  0.75047198  1
  Fe  Fe29  1  0.87372975  0.87837341  0.12968367  1
  Fe  Fe30  1  0.24996178  -0.00009611  0.49969663  1
  Fe  Fe31  1  0.50073932  0.49972791  0.00318724  1
  Fe  Fe32  1  0.49912523  0.74951596  0.49827375  1
  Fe  Fe33  1  0.12695554  0.12524972  0.37761005  1
  Fe  Fe34  1  0.24891767  0.74930612  0.50003201  1
  Fe  Fe35  1  0.62338290  0.62397838  0.37080611  1
  Fe  Fe36  1  -0.00020784  0.50323501  0.49964824  1
  Fe  Fe37  1  0.12646875  0.12636438  0.62431076  1
  Fe  Fe38  1  0.62397782  0.12291677  0.37851283  1
  Fe  Fe39  1  0.25016844  0.75263759  -0.00285909  1
  Fe  Fe40  1  0.87199428  0.12493046  0.62675716  1
  Fe  Fe41  1  0.62625181  0.12465004  0.12287686  1
  Fe  Fe42  1  0.24891605  0.49919811  0.75221061  1
  Fe  Fe43  1  0.37403327  0.12510256  0.62263956  1
  Fe  Fe44  1  -0.00171478  0.24994859  0.75171723  1
  Fe  Fe45  1  0.37384063  0.87293763  0.62712630  1
  Fe  Fe46  1  0.74808656  0.25052910  0.25138557  1
  Fe  Fe47  1  0.75474894  0.75001945  0.49393253  1
  Fe  Fe48  1  0.62680655  0.87466594  0.62250978  1
  Fe  Fe49  1  0.12402898  0.37254279  0.87769796  1
  Fe  Fe50  1  0.62431319  0.62573711  0.87622004  1
  Fe  Fe51  1  0.37373087  0.62779436  0.62838361  1
  Fe  Fe52  1  0.00265949  0.49857281  0.00457934  1
  Fe  Fe53  1  0.75169617  0.25135234  0.49817584  1
  Fe  Fe54  1  0.37358338  0.37362961  0.12488074  1
  Fe  Fe55  1  0.00321236  0.00288880  0.24812606  1
  Fe  Fe56  1  0.74829945  0.50031836  0.00363629  1
  Fe  Fe57  1  0.12585623  0.37473053  0.37421159  1
  Fe  Fe58  1  0.62496005  0.62864451  0.12883091  1
  Fe  Fe59  1  0.75292394  0.75183093  0.00085552  1
  Fe  Fe60  1  0.87609925  0.62462389  0.87435136  1
  Fe  Fe61  1  0.37332342  0.87891449  0.12514805  1
  Fe  Fe62  1  -0.00066546  0.74655201  0.25212656  1
  Fe  Fe63  1  0.25320837  0.24628299  0.25211345  1
  Fe  Fe64  1  0.87553213  0.87549491  0.62574406  1
  Fe  Fe65  1  -0.00064658  0.24984834  0.49994722  1
  Fe  Fe66  1  0.00114768  0.24901867  0.24852816  1
  Fe  Fe67  1  0.37417127  0.87840253  0.37464236  1
  Fe  Fe68  1  0.75067643  0.75151411  0.75225038  1
  Fe  Fe69  1  -0.00163336  0.00186265  0.50131662  1
  Fe  Fe70  1  0.49906280  0.24952891  0.75162966  1
  Fe  Fe71  1  0.12817229  0.12759588  0.11949131  1
  Fe  Fe72  1  0.12355919  0.62529228  0.87612961  1
  Fe  Fe73  1  -0.00167096  0.74589912  0.49996367  1
  Fe  Fe74  1  0.62692208  0.12398723  0.87546913  1
  Fe  Fe75  1  0.87547094  0.37621228  0.62596657  1
  Fe  Fe76  1  0.25079389  0.49952653  0.49944812  1
  Fe  Fe77  1  0.11923350  0.87675839  0.87510794  1
  Fe  Fe78  1  0.75016280  0.50048057  0.49848867  1
  Fe  Fe79  1  0.37709784  0.87512274  0.87283255  1
  Fe  Fe80  1  0.62074734  0.37770433  0.37511217  1
  Fe  Fe81  1  0.12348666  0.12478573  0.87857051  1
  Fe  Fe82  1  0.12375498  0.37480412  0.62538986  1
  Fe  Fe83  1  0.62520587  0.37299953  0.62495555  1
  Fe  Fe84  1  0.87562814  0.11908161  0.87414236  1
  Fe  Fe85  1  0.37434462  0.62722047  0.12499636  1
  Fe  Fe86  1  0.00243554  0.74746484  0.74596263  1
  Fe  Fe87  1  0.62553573  0.87671971  0.37472096  1
  Fe  Fe88  1  0.12591661  0.87351708  0.12586900  1
  Fe  Fe89  1  0.37374925  0.12105704  0.87705548  1
  Co  Co90  1  0.37507379  0.12264304  0.37822412  1
  Co  Co91  1  0.75183870  0.25075976  0.75143215  1
  Co  Co92  1  0.62479541  0.36859683  0.12165930  1
  Co  Co93  1  0.24695720  -0.00407967  -0.00157710  1
  Co  Co94  1  0.75312665  -0.00195215  0.00041952  1
  Co  Co95  1  0.00037917  0.49992859  0.75074381  1
  Co  Co96  1  0.74748585  0.00156249  0.25144428  1
  Co  Co97  1  0.12569683  0.62614354  0.37568805  1
  Co  Co98  1  0.12756009  0.62252768  0.62483501  1
  Co  Co99  1  0.25030225  0.25195096  0.49904239  1
  Co  Co100  1  0.25445643  0.25082395  -0.00295033  1
  Co  Co101  1  0.50125577  0.49791719  0.24483144  1
  Co  Co102  1  0.49791797  0.75326508  0.25015730  1
  Co  Co103  1  0.49950600  0.50214910  0.50265889  1
  Co  Co104  1  0.74534754  0.49665982  0.24805807  1
  Co  Co105  1  0.24450771  0.75191157  0.75207651  1
  Co  Co106  1  0.87284602  0.62470034  0.62682683  1
  Co  Co107  1  0.87945621  0.87858969  0.37247339  1
  Co  Co108  1  0.87278968  0.12500994  0.12800928  1
  Co  Co109  1  0.12672629  0.36823162  0.12430090  1
  Co  Co110  1  0.12426155  0.87565855  0.62113459  1
  Co  Co111  1  0.00205976  0.00156973  0.74697878  1
  Co  Co112  1  0.74796625  -0.00226324  0.74989157  1
  Co  Co113  1  0.49877144  -0.00225281  0.50198922  1
  Co  Co114  1  0.37326952  0.12155346  0.12197918  1
  Co  Co115  1  0.75218971  0.75180708  0.25268299  1
  Co  Co116  1  0.87415932  0.61996430  0.36988832  1
  Co  Co117  1  0.75311507  -0.00044028  0.49906460  1
  Co  Co118  1  -0.00178694  -0.00020608  0.00481167  1
  Co  Co119  1  0.50115536  -0.00079823  -0.00013375  1
  Co  Co120  1  0.12633915  0.63054098  0.12309765  1
  Co  Co121  1  0.87885574  0.87585768  0.87185626  1
  Co  Co122  1  0.00661234  0.50080149  0.24683527  1
  Co  Co123  1  0.37455762  0.37810379  0.37284667  1
  Co  Co124  1  0.37755233  0.37794257  0.87535298  1
  Co  Co125  1  0.50347187  0.75054573  0.74993314  1
  Co  Co126  1  -0.00472858  0.24921478  -0.00007007  1
  Co  Co127  1  0.24735286  0.00186819  0.25040280  1
