# generated using pymatgen
data_Fe45Co19
_symmetry_space_group_name_H-M   'P 1'
_cell_length_a   11.41430522
_cell_length_b   11.41544882
_cell_length_c   11.41544885
_cell_angle_alpha   89.99350634
_cell_angle_beta   90.00162114
_cell_angle_gamma   89.99450384
_symmetry_Int_Tables_number   1
_chemical_formula_structural   Fe45Co19
_chemical_formula_sum   'Fe90 Co38'
_cell_volume   1487.42631344
_cell_formula_units_Z   2
loop_
 _symmetry_equiv_pos_site_id
 _symmetry_equiv_pos_as_xyz
  1  'x, y, z'
loop_
 _atom_site_type_symbol
 _atom_site_label
 _atom_site_symmetry_multiplicity
 _atom_site_fract_x
 _atom_site_fract_y
 _atom_site_fract_z
 _atom_site_occupancy
  Fe  Fe0  1  0.37645196  0.37134056  0.37355989  1
  Fe  Fe1  1  0.75000551  0.00111073  -0.00071397  1
  Fe  Fe2  1  0.62778428  0.87658771  0.62383952  1
  Fe  Fe3  1  0.50093797  0.49935762  0.25029769  1
  Fe  Fe4  1  0.37592709  0.87466964  0.62558675  1
  Fe  Fe5  1  0.00149019  0.74820983  0.25150896  1
  Fe  Fe6  1  0.24927577  0.50038254  0.50040450  1
  Fe  Fe7  1  0.75356892  0.74948062  0.50095965  1
  Fe  Fe8  1  0.12623335  0.37507019  0.87355977  1
  Fe  Fe9  1  0.37461439  0.87468024  0.87612716  1
  Fe  Fe10  1  0.50141565  0.74931209  0.75150189  1
  Fe  Fe11  1  0.87430340  0.62609175  0.87560187  1
  Fe  Fe12  1  0.00037932  0.25075163  0.00096014  1
  Fe  Fe13  1  0.37451469  0.62459774  0.37585013  1
  Fe  Fe14  1  0.61877489  0.12854033  0.37701240  1
  Fe  Fe15  1  0.38011197  0.12348431  0.62136982  1
  Fe  Fe16  1  0.62263808  0.12455373  0.12381941  1
  Fe  Fe17  1  0.00087791  0.50071639  0.25156560  1
  Fe  Fe18  1  0.24791080  0.74978458  0.75021221  1
  Fe  Fe19  1  0.37650011  0.62525777  0.62332990  1
  Fe  Fe20  1  0.74874400  0.00254558  0.25095166  1
  Fe  Fe21  1  0.24839890  0.50143774  0.25072174  1
  Fe  Fe22  1  0.12040477  0.87393101  0.62628474  1
  Fe  Fe23  1  0.87746771  0.12868314  0.37545369  1
  Fe  Fe24  1  0.75013315  0.00134634  0.75327793  1
  Fe  Fe25  1  0.75229773  0.75060739  0.74931754  1
  Fe  Fe26  1  0.00001188  0.49908613  -0.00136011  1
  Fe  Fe27  1  0.12310381  0.12434514  0.62387508  1
  Fe  Fe28  1  0.50218206  -0.00095891  0.75105472  1
  Fe  Fe29  1  -0.00134171  -0.00112860  -0.00377890  1
  Fe  Fe30  1  0.62585700  0.87266505  0.87862327  1
  Fe  Fe31  1  -0.00360333  0.50332713  0.49741818  1
  Fe  Fe32  1  0.50110034  0.75281282  0.49933094  1
  Fe  Fe33  1  0.12604684  0.87467932  0.37462031  1
  Fe  Fe34  1  0.87631259  0.62536526  0.12385283  1
  Fe  Fe35  1  0.25308427  0.00097195  0.00290579  1
  Fe  Fe36  1  0.74851568  0.24753194  0.74911138  1
  Fe  Fe37  1  0.87316690  0.12227496  0.62491436  1
  Fe  Fe38  1  0.50085817  0.50025331  -0.00186446  1
  Fe  Fe39  1  0.24949740  0.50071830  0.74929993  1
  Fe  Fe40  1  0.24816508  0.74940193  0.50155060  1
  Fe  Fe41  1  0.50305665  0.49604987  0.49864233  1
  Fe  Fe42  1  0.62575872  0.37444053  0.87365135  1
  Fe  Fe43  1  0.11849849  0.62616115  0.62778826  1
  Fe  Fe44  1  0.00175672  0.75161545  -0.00375172  1
  Fe  Fe45  1  0.87418111  0.87398685  0.37352386  1
  Fe  Fe46  1  0.49944612  0.25122681  0.00048078  1
  Fe  Fe47  1  0.12354399  0.37640416  0.62454335  1
  Fe  Fe48  1  0.25025593  0.74743016  0.24672079  1
  Fe  Fe49  1  -0.00091224  -0.00108187  0.49995648  1
  Fe  Fe50  1  0.87696786  0.12513285  0.12479172  1
  Fe  Fe51  1  0.87570400  0.87609997  0.12538564  1
  Fe  Fe52  1  0.37271666  0.87502961  0.37244302  1
  Fe  Fe53  1  0.25134940  0.24892081  0.50055206  1
  Fe  Fe54  1  0.87326369  0.37754637  0.62462266  1
  Fe  Fe55  1  0.49763095  0.00024116  0.25052903  1
  Fe  Fe56  1  0.37296306  0.37472225  0.12561247  1
  Fe  Fe57  1  0.62749188  0.62572334  0.37585951  1
  Fe  Fe58  1  0.75198402  0.50172135  0.75208901  1
  Fe  Fe59  1  0.50001718  0.50230879  0.75217934  1
  Fe  Fe60  1  0.24898046  0.50096254  0.00002423  1
  Fe  Fe61  1  0.25054254  0.74831530  0.00241453  1
  Fe  Fe62  1  0.12357450  0.12383314  0.87440766  1
  Fe  Fe63  1  0.74544562  0.25238907  0.50122863  1
  Fe  Fe64  1  -0.00081842  0.24944107  0.74763496  1
  Fe  Fe65  1  0.49928280  0.74859966  0.24824118  1
  Fe  Fe66  1  0.87411115  0.37330663  0.12726855  1
  Fe  Fe67  1  0.12568168  0.37420149  0.12589222  1
  Fe  Fe68  1  0.24975786  0.00085167  0.74829914  1
  Fe  Fe69  1  0.25113716  0.00059783  0.49832780  1
  Fe  Fe70  1  0.74926377  0.75082211  0.24644100  1
  Fe  Fe71  1  0.50178947  0.24910234  0.74780656  1
  Fe  Fe72  1  0.62726106  0.37449543  0.12640891  1
  Fe  Fe73  1  0.12621040  0.87693522  0.12535658  1
  Fe  Fe74  1  0.25088363  0.24916324  0.74934654  1
  Fe  Fe75  1  0.74760163  -0.00056744  0.49586284  1
  Fe  Fe76  1  0.37353207  0.62480097  0.87601056  1
  Fe  Fe77  1  0.75005710  0.50095229  0.24925253  1
  Fe  Fe78  1  0.00285021  0.00312177  0.25128886  1
  Fe  Fe79  1  0.37584958  0.37624451  0.62698961  1
  Fe  Fe80  1  0.62636165  0.62287804  0.62421958  1
  Fe  Fe81  1  0.37741763  0.12512635  0.87533292  1
  Fe  Fe82  1  0.24765754  0.24252817  0.25047992  1
  Fe  Fe83  1  0.87383276  0.37209946  0.87545196  1
  Fe  Fe84  1  0.62554820  0.62506184  0.12094459  1
  Fe  Fe85  1  0.25064402  0.24892330  -0.00066912  1
  Fe  Fe86  1  0.12264984  0.37171338  0.37650844  1
  Fe  Fe87  1  0.75008553  0.24877150  0.00116706  1
  Fe  Fe88  1  0.62279578  0.87539853  0.12334898  1
  Fe  Fe89  1  0.87269727  0.37233640  0.37296414  1
  Co  Co90  1  0.87827142  0.62545030  0.62888227  1
  Co  Co91  1  0.12514925  0.62402560  0.87329829  1
  Co  Co92  1  0.12159730  0.12674737  0.37983233  1
  Co  Co93  1  -0.00301948  0.74832269  0.49772232  1
  Co  Co94  1  0.49802290  0.74824345  -0.00031454  1
  Co  Co95  1  0.62446802  0.12052152  0.62304125  1
  Co  Co96  1  0.62423201  0.12651217  0.87640389  1
  Co  Co97  1  -0.00176024  0.49680363  0.75301514  1
  Co  Co98  1  -0.00092038  -0.00114165  0.75182596  1
  Co  Co99  1  0.49949872  0.25108904  0.24638818  1
  Co  Co100  1  0.12275754  0.12319592  0.12103312  1
  Co  Co101  1  0.37573586  0.62153413  0.12526339  1
  Co  Co102  1  -0.00124123  0.75596532  0.75544090  1
  Co  Co103  1  0.24932326  0.00596022  0.25138469  1
  Co  Co104  1  0.37548199  0.87593365  0.12637850  1
  Co  Co105  1  0.38047583  0.12720687  0.37905449  1
  Co  Co106  1  0.87598627  0.12696154  0.87523909  1
  Co  Co107  1  0.87074831  0.87596629  0.87621631  1
  Co  Co108  1  0.50350614  0.25661791  0.50485230  1
  Co  Co109  1  0.87109726  0.62716897  0.37121881  1
  Co  Co110  1  0.37697121  0.12543520  0.12404854  1
  Co  Co111  1  0.62868856  0.62659174  0.87617931  1
  Co  Co112  1  0.62698063  0.37991835  0.63015900  1
  Co  Co113  1  0.12988366  0.87818330  0.87603040  1
  Co  Co114  1  0.75176469  0.75135004  0.00270013  1
  Co  Co115  1  0.12271712  0.62427336  0.12472001  1
  Co  Co116  1  -0.00292459  0.25165449  0.50436102  1
  Co  Co117  1  0.74953813  0.24541017  0.24921730  1
  Co  Co118  1  0.50025066  -0.00639574  0.49870801  1
  Co  Co119  1  0.12686848  0.62588507  0.37548484  1
  Co  Co120  1  0.75099108  0.49993393  0.49876687  1
  Co  Co121  1  0.62716099  0.37308719  0.37076633  1
  Co  Co122  1  0.75099634  0.49844050  -0.00010880  1
  Co  Co123  1  0.87484050  0.87771691  0.62389905  1
  Co  Co124  1  0.62630917  0.87263774  0.37249175  1
  Co  Co125  1  0.00224325  0.24859269  0.24807968  1
  Co  Co126  1  0.37513407  0.37514565  0.87395924  1
  Co  Co127  1  0.49969714  -0.00090788  -0.00142520  1
