# generated using pymatgen
data_Fe45Co19
_symmetry_space_group_name_H-M   'P 1'
_cell_length_a   11.41573988
_cell_length_b   11.41532144
_cell_length_c   11.41514111
_cell_angle_alpha   90.00595645
_cell_angle_beta   89.99397839
_cell_angle_gamma   90.00079862
_symmetry_Int_Tables_number   1
_chemical_formula_structural   Fe45Co19
_chemical_formula_sum   'Fe90 Co38'
_cell_volume   1487.55656526
_cell_formula_units_Z   2
loop_
 _symmetry_equiv_pos_site_id
 _symmetry_equiv_pos_as_xyz
  1  'x, y, z'
loop_
 _atom_site_type_symbol
 _atom_site_label
 _atom_site_symmetry_multiplicity
 _atom_site_fract_x
 _atom_site_fract_y
 _atom_site_fract_z
 _atom_site_occupancy
  Fe  Fe0  1  0.87633747  0.12618419  0.12519799  1
  Fe  Fe1  1  0.37774519  0.37761128  0.37152466  1
  Fe  Fe2  1  0.12321537  0.62479874  0.87596693  1
  Fe  Fe3  1  -0.00010186  0.25129857  -0.00198119  1
  Fe  Fe4  1  -0.00361991  0.75086478  0.75516507  1
  Fe  Fe5  1  0.12734379  0.12825877  0.87232224  1
  Fe  Fe6  1  0.12354586  0.37366627  0.12686841  1
  Fe  Fe7  1  0.62535924  0.12335808  0.37592514  1
  Fe  Fe8  1  0.25189232  -0.00095380  0.24880082  1
  Fe  Fe9  1  0.49943486  0.00175489  0.24807617  1
  Fe  Fe10  1  0.50054604  0.75016886  0.50252790  1
  Fe  Fe11  1  0.62277209  0.12756347  0.12351904  1
  Fe  Fe12  1  0.74949742  0.24823635  0.25033524  1
  Fe  Fe13  1  -0.00047451  0.50040720  0.74918694  1
  Fe  Fe14  1  0.87196800  0.87409864  0.37128368  1
  Fe  Fe15  1  0.62362050  0.37422113  0.12758206  1
  Fe  Fe16  1  0.25265264  0.50388093  0.24905192  1
  Fe  Fe17  1  0.62617317  0.87708597  0.87282800  1
  Fe  Fe18  1  0.25207011  0.74725072  0.24831708  1
  Fe  Fe19  1  0.12741595  0.87751232  0.62951845  1
  Fe  Fe20  1  0.24884703  0.75169547  -0.00156398  1
  Fe  Fe21  1  0.12417453  0.62700389  0.12227028  1
  Fe  Fe22  1  0.49694849  -0.00265714  0.50266392  1
  Fe  Fe23  1  0.74878715  0.00030642  0.00250825  1
  Fe  Fe24  1  0.49923459  0.25255817  0.49934539  1
  Fe  Fe25  1  0.74795720  0.25354537  0.50006324  1
  Fe  Fe26  1  0.25051638  0.49747330  0.75243265  1
  Fe  Fe27  1  0.37542192  0.13118848  0.87707291  1
  Fe  Fe28  1  0.87650846  0.37251845  0.12772896  1
  Fe  Fe29  1  0.37674242  0.87243923  0.37355139  1
  Fe  Fe30  1  0.37665324  0.37403889  0.12635267  1
  Fe  Fe31  1  0.00120540  0.00161528  0.75083642  1
  Fe  Fe32  1  0.74806754  0.24921126  0.75020747  1
  Fe  Fe33  1  0.24894047  0.49417671  -0.00267679  1
  Fe  Fe34  1  0.62391108  0.12508266  0.62195533  1
  Fe  Fe35  1  0.12478367  0.62559438  0.62566600  1
  Fe  Fe36  1  0.62417438  0.62228497  0.37968676  1
  Fe  Fe37  1  0.50214141  0.74538349  0.75184924  1
  Fe  Fe38  1  -0.00080190  0.75225615  0.50082348  1
  Fe  Fe39  1  0.00025365  0.50340060  0.25082889  1
  Fe  Fe40  1  0.12842648  0.12390543  0.37892918  1
  Fe  Fe41  1  0.12281678  0.87297419  0.12392645  1
  Fe  Fe42  1  0.87543768  0.37490346  0.62510568  1
  Fe  Fe43  1  0.00117461  -0.00289820  -0.00308429  1
  Fe  Fe44  1  0.87629378  0.37572751  0.37482380  1
  Fe  Fe45  1  0.25035838  -0.00012811  -0.00211906  1
  Fe  Fe46  1  0.62467387  0.87492198  0.37165383  1
  Fe  Fe47  1  0.87249124  0.62601844  0.62255859  1
  Fe  Fe48  1  0.25159301  0.49753219  0.50203186  1
  Fe  Fe49  1  0.25053860  0.24898470  0.24999165  1
  Fe  Fe50  1  0.62632197  0.87336512  0.62928785  1
  Fe  Fe51  1  0.62165972  0.37795605  0.37173033  1
  Fe  Fe52  1  -0.00016507  -0.00111993  0.50174101  1
  Fe  Fe53  1  0.49940150  0.49613929  -0.00098433  1
  Fe  Fe54  1  0.75273794  0.75102271  -0.00446428  1
  Fe  Fe55  1  0.25154516  0.75232696  0.50224681  1
  Fe  Fe56  1  0.12651400  0.62524859  0.37777372  1
  Fe  Fe57  1  0.62157987  0.37851022  0.62812304  1
  Fe  Fe58  1  0.00046196  0.49894080  -0.00002453  1
  Fe  Fe59  1  0.87045743  0.87520519  0.63023082  1
  Fe  Fe60  1  0.37638324  0.62411929  0.62453669  1
  Fe  Fe61  1  0.87278704  0.12442382  0.87525269  1
  Fe  Fe62  1  0.12322210  0.37310905  0.62757845  1
  Fe  Fe63  1  0.37758139  0.87332636  0.12270464  1
  Fe  Fe64  1  0.87550108  0.87254747  0.12683601  1
  Fe  Fe65  1  0.87459006  0.37482222  0.87289827  1
  Fe  Fe66  1  0.00045323  0.00024091  0.25100155  1
  Fe  Fe67  1  0.00170355  0.24942821  0.50084085  1
  Fe  Fe68  1  0.37646093  0.12755623  0.12107851  1
  Fe  Fe69  1  0.74910592  0.50292630  0.24967628  1
  Fe  Fe70  1  0.74931896  -0.00304984  0.50061665  1
  Fe  Fe71  1  0.87385515  0.62506450  0.37869009  1
  Fe  Fe72  1  0.37880734  0.37382561  0.63052235  1
  Fe  Fe73  1  0.37595851  0.87494912  0.87402146  1
  Fe  Fe74  1  0.62426173  0.87240339  0.12472861  1
  Fe  Fe75  1  0.49687721  0.00443528  0.74899706  1
  Fe  Fe76  1  0.12419627  0.37615295  0.37413757  1
  Fe  Fe77  1  0.62496097  0.12655474  0.87816645  1
  Fe  Fe78  1  0.12485210  0.12587213  0.12476905  1
  Fe  Fe79  1  0.87408447  0.12523189  0.62472958  1
  Fe  Fe80  1  0.37429634  0.62384721  0.87835201  1
  Fe  Fe81  1  0.62672911  0.62164926  0.87800524  1
  Fe  Fe82  1  0.87534347  0.62795738  0.12380259  1
  Fe  Fe83  1  0.75168250  0.49601587  0.00159407  1
  Fe  Fe84  1  0.12635242  0.87459720  0.37435910  1
  Fe  Fe85  1  0.25131050  0.74932463  0.75097836  1
  Fe  Fe86  1  0.74879787  0.50269062  0.74778085  1
  Fe  Fe87  1  0.87308128  0.12433142  0.37526493  1
  Fe  Fe88  1  0.50001886  0.74154308  0.24592199  1
  Fe  Fe89  1  0.37354979  0.12478053  0.37903198  1
  Co  Co90  1  0.74868636  0.75323922  0.49983643  1
  Co  Co91  1  0.62743849  0.62465287  0.11792620  1
  Co  Co92  1  0.62528351  0.62400461  0.62213664  1
  Co  Co93  1  -0.00264714  0.75230234  -0.00558835  1
  Co  Co94  1  0.00113629  0.50009103  0.50129608  1
  Co  Co95  1  0.87524173  0.61969574  0.87591762  1
  Co  Co96  1  0.12798723  0.87489857  0.87200607  1
  Co  Co97  1  0.87038082  0.88076745  0.87206135  1
  Co  Co98  1  0.74954297  0.74474271  0.75342499  1
  Co  Co99  1  0.74873129  0.00158992  0.24693589  1
  Co  Co100  1  0.49968282  0.50419957  0.75364232  1
  Co  Co101  1  0.24996671  0.25220243  0.74976640  1
  Co  Co102  1  0.25056349  0.25647576  0.50019960  1
  Co  Co103  1  0.37662316  0.87250648  0.62891495  1
  Co  Co104  1  0.00068696  0.74774310  0.25228278  1
  Co  Co105  1  0.50301932  0.25516440  -0.00130609  1
  Co  Co106  1  0.37315535  0.62439294  0.11717942  1
  Co  Co107  1  0.00132891  0.24799353  0.25278595  1
  Co  Co108  1  0.24787523  0.25351350  0.00032150  1
  Co  Co109  1  0.75027601  0.25105457  0.00008708  1
  Co  Co110  1  0.49926429  0.24610660  0.25119698  1
  Co  Co111  1  0.50346691  0.24679123  0.75041846  1
  Co  Co112  1  0.12928953  0.12404854  0.62393953  1
  Co  Co113  1  0.62730956  0.37677240  0.87266020  1
  Co  Co114  1  0.12132113  0.37386640  0.87265839  1
  Co  Co115  1  0.25524978  0.00294377  0.75060929  1
  Co  Co116  1  0.37211658  0.12916562  0.62185903  1
  Co  Co117  1  0.74715243  0.74543375  0.25099938  1
  Co  Co118  1  0.74937679  0.49646357  0.50084383  1
  Co  Co119  1  0.49934166  0.50773281  0.24556398  1
  Co  Co120  1  0.25324466  -0.00559837  0.50208787  1
  Co  Co121  1  0.50000776  -0.00056312  -0.00117334  1
  Co  Co122  1  0.50134678  0.75016827  -0.00277019  1
  Co  Co123  1  0.37689117  0.37147428  0.87249546  1
  Co  Co124  1  -0.00177287  0.24817833  0.74896402  1
  Co  Co125  1  0.37511637  0.62537200  0.37914895  1
  Co  Co126  1  0.74640560  0.00552051  0.74905755  1
  Co  Co127  1  0.49760921  0.49829585  0.50164272  1
