# generated using pymatgen
data_Fe45Co19
_symmetry_space_group_name_H-M   'P 1'
_cell_length_a   11.40631649
_cell_length_b   11.40904017
_cell_length_c   11.40806400
_cell_angle_alpha   90.00040508
_cell_angle_beta   90.00251929
_cell_angle_gamma   89.99625623
_symmetry_Int_Tables_number   1
_chemical_formula_structural   Fe45Co19
_chemical_formula_sum   'Fe90 Co38'
_cell_volume   1484.58980791
_cell_formula_units_Z   2
loop_
 _symmetry_equiv_pos_site_id
 _symmetry_equiv_pos_as_xyz
  1  'x, y, z'
loop_
 _atom_site_type_symbol
 _atom_site_label
 _atom_site_symmetry_multiplicity
 _atom_site_fract_x
 _atom_site_fract_y
 _atom_site_fract_z
 _atom_site_occupancy
  Fe  Fe0  1  0.49537881  0.25244278  0.24962778  1
  Fe  Fe1  1  0.12530933  0.87921274  0.62633820  1
  Fe  Fe2  1  0.24814099  0.00047570  -0.00028762  1
  Fe  Fe3  1  0.37509772  0.87449744  0.62304196  1
  Fe  Fe4  1  0.87814641  0.37419692  0.62031472  1
  Fe  Fe5  1  0.87636686  0.87880917  0.61919734  1
  Fe  Fe6  1  0.00242244  0.00365547  0.00341738  1
  Fe  Fe7  1  0.12216088  0.62409161  0.13025449  1
  Fe  Fe8  1  0.37088872  0.12093163  0.62742168  1
  Fe  Fe9  1  0.37588686  0.87210975  0.87822049  1
  Fe  Fe10  1  -0.00447784  0.74835556  0.00629569  1
  Fe  Fe11  1  0.62372845  0.37206296  0.37624769  1
  Fe  Fe12  1  0.62492301  0.37446173  0.87273471  1
  Fe  Fe13  1  0.37482234  0.87379557  0.12219748  1
  Fe  Fe14  1  0.62321861  0.12408751  0.62488832  1
  Fe  Fe15  1  0.37118245  0.12390823  0.12602507  1
  Fe  Fe16  1  0.75292432  -0.00090731  0.75050036  1
  Fe  Fe17  1  0.37533364  0.62808107  0.37602564  1
  Fe  Fe18  1  0.49843797  -0.00118112  0.24993792  1
  Fe  Fe19  1  0.12489356  0.37861227  0.62464190  1
  Fe  Fe20  1  0.00002502  0.49951507  0.75069350  1
  Fe  Fe21  1  0.00681667  0.00532930  0.49394889  1
  Fe  Fe22  1  0.49766088  0.49886476  0.25151091  1
  Fe  Fe23  1  0.12328855  0.87414049  0.87630113  1
  Fe  Fe24  1  0.37016914  0.37861328  0.62314670  1
  Fe  Fe25  1  0.87605000  0.12694448  0.87643249  1
  Fe  Fe26  1  0.74802598  0.00308629  0.00042069  1
  Fe  Fe27  1  0.75074985  0.25016297  0.74716288  1
  Fe  Fe28  1  0.87592161  0.37555874  0.12498572  1
  Fe  Fe29  1  0.62808974  0.87621197  0.12715576  1
  Fe  Fe30  1  0.50139805  0.00061463  -0.00013607  1
  Fe  Fe31  1  0.62845119  0.62808137  0.87231527  1
  Fe  Fe32  1  0.00329514  0.74970493  0.49830998  1
  Fe  Fe33  1  0.75776409  0.75222618  0.24670163  1
  Fe  Fe34  1  0.49884876  -0.00188160  0.75238773  1
  Fe  Fe35  1  0.87732141  0.12303982  0.62252087  1
  Fe  Fe36  1  0.88203547  0.36786179  0.38042272  1
  Fe  Fe37  1  0.37316305  0.12736680  0.87395882  1
  Fe  Fe38  1  0.37184173  0.37856122  0.12305305  1
  Fe  Fe39  1  0.50352084  0.74829897  0.00146682  1
  Fe  Fe40  1  0.49983017  -0.00017817  0.49752736  1
  Fe  Fe41  1  0.87803979  0.62429539  0.62271262  1
  Fe  Fe42  1  0.00236000  0.24863612  0.74618931  1
  Fe  Fe43  1  0.62326132  0.62735464  0.62635603  1
  Fe  Fe44  1  0.37402248  0.87265613  0.37682955  1
  Fe  Fe45  1  0.62828210  0.87084786  0.87415269  1
  Fe  Fe46  1  0.75214218  0.24852205  0.25197706  1
  Fe  Fe47  1  0.74968778  0.74952110  0.49999725  1
  Fe  Fe48  1  0.24307781  0.50664902  0.49816173  1
  Fe  Fe49  1  0.49703941  0.24917625  0.50124287  1
  Fe  Fe50  1  0.12278895  0.62689130  0.87194089  1
  Fe  Fe51  1  0.00459772  0.24853898  0.00597107  1
  Fe  Fe52  1  0.36899259  0.37563263  0.37833960  1
  Fe  Fe53  1  0.75225934  0.49613223  0.25360300  1
  Fe  Fe54  1  0.36984291  0.12442443  0.37250534  1
  Fe  Fe55  1  0.74855713  0.00397477  0.49353015  1
  Fe  Fe56  1  0.50142070  0.50163163  0.49926331  1
  Fe  Fe57  1  0.62658883  0.62346941  0.12828771  1
  Fe  Fe58  1  0.49886123  0.49972781  0.74799647  1
  Fe  Fe59  1  0.37133171  0.37549343  0.87442908  1
  Fe  Fe60  1  -0.00375088  0.75398169  0.74916973  1
  Fe  Fe61  1  0.87262383  0.62648779  0.87517493  1
  Fe  Fe62  1  0.50055417  0.25160392  0.00181117  1
  Fe  Fe63  1  0.24639521  0.74878485  0.50138733  1
  Fe  Fe64  1  0.24291806  0.24347989  0.50313529  1
  Fe  Fe65  1  0.37529271  0.62425692  0.87408693  1
  Fe  Fe66  1  0.24907015  0.75141156  0.24890927  1
  Fe  Fe67  1  0.00121700  0.49923941  -0.00157768  1
  Fe  Fe68  1  0.62399455  0.12685993  0.87293518  1
  Fe  Fe69  1  0.87895535  0.62701158  0.37431017  1
  Fe  Fe70  1  0.12646443  0.12447366  0.86989856  1
  Fe  Fe71  1  0.62451189  0.87427634  0.62595163  1
  Fe  Fe72  1  0.74926965  0.24686005  0.49932950  1
  Fe  Fe73  1  0.24560068  0.25051293  0.00215517  1
  Fe  Fe74  1  0.24561111  0.50094308  -0.00188143  1
  Fe  Fe75  1  0.37469794  0.62409478  0.12515254  1
  Fe  Fe76  1  0.25144369  0.74917112  0.74847225  1
  Fe  Fe77  1  0.00281672  0.49512587  0.25541236  1
  Fe  Fe78  1  0.50318912  0.49943310  0.00066458  1
  Fe  Fe79  1  0.49788883  0.25257506  0.74710942  1
  Fe  Fe80  1  0.24748331  0.74772311  0.00153245  1
  Fe  Fe81  1  0.75127586  0.49874673  0.74734297  1
  Fe  Fe82  1  0.74963448  0.49909303  0.00071188  1
  Fe  Fe83  1  0.87718699  0.37245068  0.87521561  1
  Fe  Fe84  1  0.75058232  0.50002201  0.49905052  1
  Fe  Fe85  1  0.74887139  0.25132681  0.00165310  1
  Fe  Fe86  1  0.62536604  0.12573767  0.12918444  1
  Fe  Fe87  1  0.87280146  0.87399403  0.88046274  1
  Fe  Fe88  1  0.62569599  0.87329817  0.37205333  1
  Fe  Fe89  1  0.62489997  0.62743122  0.37209413  1
  Co  Co90  1  0.62567281  0.37465045  0.62236017  1
  Co  Co91  1  0.75532424  0.75213167  0.74549277  1
  Co  Co92  1  0.87333493  0.12385165  0.12633672  1
  Co  Co93  1  0.12489401  0.87495623  0.12322996  1
  Co  Co94  1  0.00338383  0.50134645  0.49611512  1
  Co  Co95  1  -0.00460172  0.75646980  0.24673132  1
  Co  Co96  1  0.75202007  0.74664868  0.00657194  1
  Co  Co97  1  0.62565689  0.37470284  0.12860687  1
  Co  Co98  1  0.24849768  0.50266129  0.75018421  1
  Co  Co99  1  0.49745569  0.75008641  0.75071798  1
  Co  Co100  1  0.12631985  0.37969307  0.12600710  1
  Co  Co101  1  0.75329607  0.00280487  0.25560541  1
  Co  Co102  1  0.37632153  0.62521042  0.62254262  1
  Co  Co103  1  -0.00516452  -0.00253822  0.75359353  1
  Co  Co104  1  0.00967502  0.24277966  0.50436237  1
  Co  Co105  1  0.12138399  0.62654802  0.62827517  1
  Co  Co106  1  0.87763116  0.61804450  0.12849912  1
  Co  Co107  1  0.12727458  0.12651833  0.36354503  1
  Co  Co108  1  0.62015110  0.12780046  0.37311570  1
  Co  Co109  1  0.49812300  0.75046645  0.24826473  1
  Co  Co110  1  0.25141059  0.25570004  0.24718776  1
  Co  Co111  1  0.24808311  0.25261799  0.74704211  1
  Co  Co112  1  0.12754731  0.11553761  0.63336055  1
  Co  Co113  1  0.50222198  0.75072379  0.49920993  1
  Co  Co114  1  0.88208227  0.12895672  0.37363335  1
  Co  Co115  1  0.24722673  0.00150268  0.49633783  1
  Co  Co116  1  0.12448139  0.87376888  0.37352777  1
  Co  Co117  1  0.12427962  0.37352767  0.87355194  1
  Co  Co118  1  0.12182251  0.63028899  0.36973770  1
  Co  Co119  1  0.25365279  -0.00560825  0.75478526  1
  Co  Co120  1  0.12855654  0.12116832  0.13308666  1
  Co  Co121  1  0.00199033  0.25210966  0.24446266  1
  Co  Co122  1  0.87319684  0.88255621  0.12146935  1
  Co  Co123  1  0.25006733  0.50119066  0.25338054  1
  Co  Co124  1  -0.00255862  -0.00470813  0.25036315  1
  Co  Co125  1  0.12640233  0.36977216  0.37732895  1
  Co  Co126  1  0.87615702  0.87556464  0.37911726  1
  Co  Co127  1  0.25196091  -0.00730784  0.25053751  1
