# generated using pymatgen
data_Fe45Co19
_symmetry_space_group_name_H-M   'P 1'
_cell_length_a   11.41527975
_cell_length_b   11.41450668
_cell_length_c   11.41476443
_cell_angle_alpha   90.00021798
_cell_angle_beta   89.99824137
_cell_angle_gamma   90.00152011
_symmetry_Int_Tables_number   1
_chemical_formula_structural   Fe45Co19
_chemical_formula_sum   'Fe90 Co38'
_cell_volume   1487.34137227
_cell_formula_units_Z   2
loop_
 _symmetry_equiv_pos_site_id
 _symmetry_equiv_pos_as_xyz
  1  'x, y, z'
loop_
 _atom_site_type_symbol
 _atom_site_label
 _atom_site_symmetry_multiplicity
 _atom_site_fract_x
 _atom_site_fract_y
 _atom_site_fract_z
 _atom_site_occupancy
  Fe  Fe0  1  0.75103409  -0.00174685  -0.00065101  1
  Fe  Fe1  1  0.37475877  0.62595862  0.12433766  1
  Fe  Fe2  1  0.24802230  0.00156797  0.49829069  1
  Fe  Fe3  1  -0.00246920  0.50095033  0.24902592  1
  Fe  Fe4  1  0.12389361  0.87383354  0.37430099  1
  Fe  Fe5  1  0.87615972  0.62626669  0.12417916  1
  Fe  Fe6  1  0.00234330  0.24840136  0.00204148  1
  Fe  Fe7  1  0.37563965  0.37608919  0.37461775  1
  Fe  Fe8  1  0.62609800  0.12194085  0.12550974  1
  Fe  Fe9  1  0.62512221  0.37702685  0.12966699  1
  Fe  Fe10  1  0.75030044  0.00077772  0.75161033  1
  Fe  Fe11  1  0.75051619  0.75118352  0.74951462  1
  Fe  Fe12  1  0.49944904  0.24721824  0.24877091  1
  Fe  Fe13  1  0.87654761  0.12444505  0.87572641  1
  Fe  Fe14  1  0.37259565  0.12562695  0.62273900  1
  Fe  Fe15  1  0.00279500  0.49774729  0.74855899  1
  Fe  Fe16  1  0.75138356  0.75187451  -0.00190699  1
  Fe  Fe17  1  0.12411126  0.62699301  0.12578242  1
  Fe  Fe18  1  0.62528421  0.62440176  0.12821852  1
  Fe  Fe19  1  0.37647676  0.87553738  0.87780301  1
  Fe  Fe20  1  0.37400106  0.87566163  0.62478305  1
  Fe  Fe21  1  0.75157022  0.24927152  0.75062984  1
  Fe  Fe22  1  0.25074878  0.75226505  0.24892479  1
  Fe  Fe23  1  0.12624337  0.62562981  0.87193450  1
  Fe  Fe24  1  0.62592162  0.37434303  0.62352105  1
  Fe  Fe25  1  0.00038590  0.75128159  0.50133190  1
  Fe  Fe26  1  0.24905601  0.74840400  0.50206706  1
  Fe  Fe27  1  0.75040728  0.24668545  0.49598070  1
  Fe  Fe28  1  0.37290342  0.62583707  0.87255764  1
  Fe  Fe29  1  0.87546673  0.62706401  0.37546794  1
  Fe  Fe30  1  0.37355486  0.37213446  0.87794818  1
  Fe  Fe31  1  0.75262664  0.75384057  0.25081216  1
  Fe  Fe32  1  0.37727397  0.12177798  0.37430173  1
  Fe  Fe33  1  0.00157500  0.00556501  0.74531159  1
  Fe  Fe34  1  0.25095950  0.50134181  0.25002733  1
  Fe  Fe35  1  0.62398310  0.12645951  0.87665318  1
  Fe  Fe36  1  0.37381363  0.37449919  0.12441532  1
  Fe  Fe37  1  0.37125538  0.11978740  0.12216469  1
  Fe  Fe38  1  0.62549296  0.62476028  0.87409852  1
  Fe  Fe39  1  0.75304786  0.00256110  0.49570080  1
  Fe  Fe40  1  0.12814314  0.36655823  0.62519366  1
  Fe  Fe41  1  0.74690842  0.74943074  0.50084287  1
  Fe  Fe42  1  0.50335288  0.75032368  0.50305661  1
  Fe  Fe43  1  0.62336982  0.37374517  0.87620812  1
  Fe  Fe44  1  0.49851903  0.49920450  0.74912955  1
  Fe  Fe45  1  0.12334328  0.87652419  0.87244657  1
  Fe  Fe46  1  0.12523513  0.37559444  0.12596711  1
  Fe  Fe47  1  0.87419434  0.37467440  0.37445797  1
  Fe  Fe48  1  0.62353177  0.87906451  0.37562867  1
  Fe  Fe49  1  0.62387289  0.87648446  0.12370172  1
  Fe  Fe50  1  0.49903834  0.24883316  0.74965032  1
  Fe  Fe51  1  0.75068393  0.49862823  0.75080919  1
  Fe  Fe52  1  0.24883801  0.50168267  0.50311171  1
  Fe  Fe53  1  0.24781139  0.49973962  -0.00070258  1
  Fe  Fe54  1  0.87329465  0.37364438  0.62386843  1
  Fe  Fe55  1  0.62352491  0.87476713  0.87493514  1
  Fe  Fe56  1  0.75037435  0.24729274  0.25222182  1
  Fe  Fe57  1  0.50023513  0.50103179  0.00127827  1
  Fe  Fe58  1  0.49823506  0.75292675  0.24819514  1
  Fe  Fe59  1  0.12405058  0.62541361  0.37412142  1
  Fe  Fe60  1  0.00023770  0.75255087  0.00022450  1
  Fe  Fe61  1  0.00246881  0.49832067  0.50181625  1
  Fe  Fe62  1  -0.00206668  -0.00550224  0.25097863  1
  Fe  Fe63  1  -0.00173640  0.75081807  0.74801733  1
  Fe  Fe64  1  0.49951444  0.00151591  0.75009411  1
  Fe  Fe65  1  0.50097622  0.24869384  0.49837461  1
  Fe  Fe66  1  0.37562385  0.87681230  0.37487490  1
  Fe  Fe67  1  0.62581835  0.12326597  0.62337267  1
  Fe  Fe68  1  0.37340744  0.37371920  0.62353933  1
  Fe  Fe69  1  0.87320046  0.87741676  0.62443950  1
  Fe  Fe70  1  0.75163767  0.49868178  0.00213205  1
  Fe  Fe71  1  0.24909365  0.00352031  0.75151675  1
  Fe  Fe72  1  0.24966072  0.75439255  0.00044428  1
  Fe  Fe73  1  -0.00017290  0.25167775  0.24994080  1
  Fe  Fe74  1  0.74612304  0.50173539  0.49586477  1
  Fe  Fe75  1  0.24956929  0.24691670  0.25037571  1
  Fe  Fe76  1  0.87478626  0.62321748  0.62425787  1
  Fe  Fe77  1  0.74957723  0.25074983  0.00146611  1
  Fe  Fe78  1  0.12664656  0.87564334  0.62513492  1
  Fe  Fe79  1  0.87763340  0.37370799  0.87737987  1
  Fe  Fe80  1  0.00205305  -0.00032241  0.00167987  1
  Fe  Fe81  1  0.37423943  0.12629687  0.88183397  1
  Fe  Fe82  1  0.50125949  0.75079378  0.74705397  1
  Fe  Fe83  1  0.87588832  0.12360719  0.12710863  1
  Fe  Fe84  1  0.12074233  0.12501863  0.37653746  1
  Fe  Fe85  1  0.87694737  0.62382004  0.87534636  1
  Fe  Fe86  1  0.50343434  0.50241823  0.49792402  1
  Fe  Fe87  1  0.12563488  0.37062777  0.87372699  1
  Fe  Fe88  1  0.12631352  0.37447358  0.37508003  1
  Fe  Fe89  1  0.37576134  0.62598316  0.37647611  1
  Co  Co90  1  0.25104944  0.75254557  0.74973306  1
  Co  Co91  1  0.49705106  0.50104153  0.25079153  1
  Co  Co92  1  0.00215413  0.50010270  0.00007399  1
  Co  Co93  1  0.37545308  0.62558407  0.62532651  1
  Co  Co94  1  -0.00290157  0.24762124  0.74839461  1
  Co  Co95  1  -0.00364598  0.25057049  0.50025189  1
  Co  Co96  1  0.87504226  0.87403337  0.37761936  1
  Co  Co97  1  0.12406646  0.12651598  0.87469102  1
  Co  Co98  1  0.87313371  0.12483669  0.62401884  1
  Co  Co99  1  0.62728888  0.88022603  0.62483808  1
  Co  Co100  1  -0.00167405  0.75089015  0.25041622  1
  Co  Co101  1  0.12786458  0.12999289  0.62113507  1
  Co  Co102  1  0.87587264  0.37323760  0.12449629  1
  Co  Co103  1  0.50210402  0.00015945  -0.00036818  1
  Co  Co104  1  0.12358117  0.12192547  0.12924618  1
  Co  Co105  1  0.24475420  -0.00218917  -0.00101588  1
  Co  Co106  1  0.12518634  0.62717638  0.62746088  1
  Co  Co107  1  0.00048611  -0.00073371  0.50248057  1
  Co  Co108  1  0.87772568  0.87779822  0.87360761  1
  Co  Co109  1  0.25332183  0.24640087  0.75251599  1
  Co  Co110  1  0.62406345  0.37373426  0.37142506  1
  Co  Co111  1  0.87996046  0.12400152  0.37178782  1
  Co  Co112  1  0.49985855  0.74826597  0.00074548  1
  Co  Co113  1  0.75099480  -0.00082370  0.25155109  1
  Co  Co114  1  0.37390301  0.87941019  0.12313357  1
  Co  Co115  1  0.12533200  0.87489673  0.12800519  1
  Co  Co116  1  0.62423848  0.62714928  0.36970124  1
  Co  Co117  1  0.24577330  0.24855723  0.00337772  1
  Co  Co118  1  0.75449946  0.50063163  0.25084129  1
  Co  Co119  1  0.62573767  0.62289873  0.62797649  1
  Co  Co120  1  0.24876866  -0.00010334  0.25314832  1
  Co  Co121  1  0.49795045  -0.00035652  0.50188147  1
  Co  Co122  1  0.50191898  0.25000597  0.00411913  1
  Co  Co123  1  0.25246330  0.24791887  0.49389148  1
  Co  Co124  1  0.62179086  0.12197000  0.37532886  1
  Co  Co125  1  0.87540510  0.87549940  0.12344580  1
  Co  Co126  1  0.49945651  -0.00002514  0.24793643  1
  Co  Co127  1  0.24879128  0.49723299  0.74808731  1
