# generated using pymatgen
data_Fe45Co19
_symmetry_space_group_name_H-M   'P 1'
_cell_length_a   11.41528069
_cell_length_b   11.41390903
_cell_length_c   11.41374096
_cell_angle_alpha   90.00890304
_cell_angle_beta   89.99931177
_cell_angle_gamma   90.00026194
_symmetry_Int_Tables_number   1
_chemical_formula_structural   Fe45Co19
_chemical_formula_sum   'Fe90 Co38'
_cell_volume   1487.13025182
_cell_formula_units_Z   2
loop_
 _symmetry_equiv_pos_site_id
 _symmetry_equiv_pos_as_xyz
  1  'x, y, z'
loop_
 _atom_site_type_symbol
 _atom_site_label
 _atom_site_symmetry_multiplicity
 _atom_site_fract_x
 _atom_site_fract_y
 _atom_site_fract_z
 _atom_site_occupancy
  Fe  Fe0  1  0.00103037  -0.00106686  0.50151851  1
  Fe  Fe1  1  0.25275994  0.74802324  -0.00333143  1
  Fe  Fe2  1  0.87373281  0.62420798  0.37542715  1
  Fe  Fe3  1  0.37559099  0.87564189  0.37507987  1
  Fe  Fe4  1  0.25022174  0.50056999  0.50186256  1
  Fe  Fe5  1  0.49767826  0.00084981  -0.00149416  1
  Fe  Fe6  1  0.74987049  -0.00106674  -0.00059875  1
  Fe  Fe7  1  0.87566835  0.37557225  0.37403090  1
  Fe  Fe8  1  0.49768006  0.24896502  0.50043226  1
  Fe  Fe9  1  0.00331471  -0.00284974  0.25202297  1
  Fe  Fe10  1  0.25013419  0.25322950  0.25185203  1
  Fe  Fe11  1  -0.00141384  0.25056172  -0.00081589  1
  Fe  Fe12  1  0.12540025  0.62511964  0.37519300  1
  Fe  Fe13  1  0.62451816  0.62530080  0.37572303  1
  Fe  Fe14  1  0.37727003  0.37944155  0.62872004  1
  Fe  Fe15  1  -0.00254328  0.75016616  0.74868010  1
  Fe  Fe16  1  0.62326556  0.86934223  0.11911044  1
  Fe  Fe17  1  0.87489832  0.87472420  0.87418184  1
  Fe  Fe18  1  0.87099520  0.37925892  0.62801976  1
  Fe  Fe19  1  0.62301295  0.87527701  0.37630796  1
  Fe  Fe20  1  0.25124444  0.25029156  0.50082028  1
  Fe  Fe21  1  0.62384253  0.12715389  0.87746593  1
  Fe  Fe22  1  0.00311775  -0.00256859  -0.00276772  1
  Fe  Fe23  1  0.75056062  0.75108180  0.25115589  1
  Fe  Fe24  1  0.62409650  0.37400359  0.37695646  1
  Fe  Fe25  1  -0.00139863  0.74852605  -0.00162656  1
  Fe  Fe26  1  0.12534159  0.86986020  0.12392532  1
  Fe  Fe27  1  0.12685500  0.12511256  0.12234499  1
  Fe  Fe28  1  0.50419172  0.50176854  0.50581778  1
  Fe  Fe29  1  0.74524970  -0.00351580  0.75265245  1
  Fe  Fe30  1  0.87354593  0.37616038  0.12366004  1
  Fe  Fe31  1  0.87439981  0.12318895  0.62815372  1
  Fe  Fe32  1  0.87535285  0.62551003  0.12689643  1
  Fe  Fe33  1  0.87558900  0.12407471  0.37289956  1
  Fe  Fe34  1  0.12476478  0.12513349  0.87357882  1
  Fe  Fe35  1  0.24708421  -0.00105625  0.75055406  1
  Fe  Fe36  1  0.37574175  0.12348732  0.63041412  1
  Fe  Fe37  1  -0.00241642  0.50055138  0.50276049  1
  Fe  Fe38  1  0.25322950  0.74969419  0.50273348  1
  Fe  Fe39  1  0.37663617  0.62351221  0.37680978  1
  Fe  Fe40  1  0.37312784  0.62098562  0.12412578  1
  Fe  Fe41  1  0.25420343  0.25195820  -0.00506115  1
  Fe  Fe42  1  0.37845432  0.61778580  0.86883024  1
  Fe  Fe43  1  0.37501672  0.37876198  0.12149044  1
  Fe  Fe44  1  0.87074797  0.87356745  0.62500793  1
  Fe  Fe45  1  0.12419886  0.62523380  0.62634712  1
  Fe  Fe46  1  -0.00283650  0.75151478  0.49840420  1
  Fe  Fe47  1  0.25197444  0.25461884  0.75309519  1
  Fe  Fe48  1  0.62334380  0.12727957  0.12167396  1
  Fe  Fe49  1  0.87271003  0.62301830  0.86962169  1
  Fe  Fe50  1  0.62417107  0.12707628  0.62629945  1
  Fe  Fe51  1  0.37617799  0.37844242  0.37520827  1
  Fe  Fe52  1  0.62401853  0.63145843  0.87674580  1
  Fe  Fe53  1  0.12471138  0.62477414  0.87280521  1
  Fe  Fe54  1  -0.00059212  0.24970027  0.50225628  1
  Fe  Fe55  1  0.25281807  0.74865279  0.74861131  1
  Fe  Fe56  1  0.00230432  0.25170715  0.24930593  1
  Fe  Fe57  1  0.50216442  0.50063323  0.24669119  1
  Fe  Fe58  1  0.37466003  0.87580555  0.12436052  1
  Fe  Fe59  1  0.25059355  0.74734190  0.25062428  1
  Fe  Fe60  1  0.87613878  0.12310380  0.87420861  1
  Fe  Fe61  1  0.12509082  0.12639710  0.37736463  1
  Fe  Fe62  1  0.12799909  0.37739412  0.12280681  1
  Fe  Fe63  1  0.12564479  0.87416958  0.62635963  1
  Fe  Fe64  1  0.00176931  0.50162496  -0.00103527  1
  Fe  Fe65  1  0.24841503  -0.00138892  0.25008682  1
  Fe  Fe66  1  0.00363790  0.50039513  0.24930115  1
  Fe  Fe67  1  0.74549199  -0.00041934  0.24936494  1
  Fe  Fe68  1  0.74867793  0.25234848  0.75295169  1
  Fe  Fe69  1  0.49906376  0.25308877  0.75492338  1
  Fe  Fe70  1  -0.00066347  0.25121290  0.75020501  1
  Fe  Fe71  1  0.49983223  0.24972021  0.24905908  1
  Fe  Fe72  1  0.49932651  0.00040415  0.50280429  1
  Fe  Fe73  1  0.62462192  0.37178208  0.11882521  1
  Fe  Fe74  1  0.87655033  0.12294466  0.12556859  1
  Fe  Fe75  1  0.74654312  0.50366384  -0.00057535  1
  Fe  Fe76  1  0.87326920  0.37814802  0.87508269  1
  Fe  Fe77  1  0.74892695  0.24861376  0.24962448  1
  Fe  Fe78  1  0.24989188  0.00055227  0.50197418  1
  Fe  Fe79  1  0.75149723  0.24953264  0.49870625  1
  Fe  Fe80  1  0.74674595  0.49998832  0.24911892  1
  Fe  Fe81  1  0.50192738  0.75323371  0.74547197  1
  Fe  Fe82  1  0.74868316  0.00153615  0.49871791  1
  Fe  Fe83  1  0.49839236  0.74948115  0.24844002  1
  Fe  Fe84  1  0.87632155  0.87403676  0.12607772  1
  Fe  Fe85  1  0.37352414  0.12321340  0.12498379  1
  Fe  Fe86  1  0.12430993  0.37496283  0.62587012  1
  Fe  Fe87  1  0.49876786  0.75010889  0.50455414  1
  Fe  Fe88  1  0.37724059  0.12280320  0.37273158  1
  Fe  Fe89  1  0.37624897  0.87711119  0.87270791  1
  Co  Co90  1  0.50472517  0.50444089  0.00178984  1
  Co  Co91  1  0.37412469  0.87807239  0.62734639  1
  Co  Co92  1  0.37369956  0.12001368  0.87124049  1
  Co  Co93  1  0.12594383  0.87126804  0.87263814  1
  Co  Co94  1  0.49155294  0.74708304  0.00015111  1
  Co  Co95  1  0.00044603  0.50037802  0.74849817  1
  Co  Co96  1  0.24801994  0.50185415  -0.00404837  1
  Co  Co97  1  0.12812239  0.87324229  0.37602551  1
  Co  Co98  1  0.62654051  0.63130875  0.12379417  1
  Co  Co99  1  0.62606288  0.36952311  0.62217876  1
  Co  Co100  1  0.75085852  0.74983537  0.49600944  1
  Co  Co101  1  0.12554711  0.62722373  0.12389183  1
  Co  Co102  1  0.50610331  -0.00290871  0.75147435  1
  Co  Co103  1  0.74902429  0.49936568  0.50062305  1
  Co  Co104  1  0.75655821  0.74853262  -0.00072616  1
  Co  Co105  1  0.87002303  0.62594584  0.62700587  1
  Co  Co106  1  0.24951222  0.50077353  0.25161305  1
  Co  Co107  1  0.87332436  0.87780577  0.37423965  1
  Co  Co108  1  0.62777989  0.87483961  0.62184020  1
  Co  Co109  1  0.62376629  0.37170021  0.88260995  1
  Co  Co110  1  0.63152362  0.63011242  0.62383219  1
  Co  Co111  1  0.12571766  0.12609399  0.62802052  1
  Co  Co112  1  0.12274465  0.37521363  0.87537128  1
  Co  Co113  1  0.51151551  0.49875273  0.74710993  1
  Co  Co114  1  0.24877009  -0.00252525  -0.00165019  1
  Co  Co115  1  0.50245941  -0.00127384  0.24694418  1
  Co  Co116  1  0.49226802  0.24725940  -0.00262251  1
  Co  Co117  1  0.00012629  -0.00270365  0.74937975  1
  Co  Co118  1  0.75527748  0.24757225  -0.00010485  1
  Co  Co119  1  0.62252844  0.87002280  0.88163985  1
  Co  Co120  1  0.74827327  0.75355027  0.75246506  1
  Co  Co121  1  0.37668427  0.62094127  0.62865667  1
  Co  Co122  1  0.62281318  0.12573202  0.37629350  1
  Co  Co123  1  0.24624364  0.49848193  0.74944826  1
  Co  Co124  1  -0.00067433  0.74970551  0.25286522  1
  Co  Co125  1  0.37984804  0.38476553  0.87532761  1
  Co  Co126  1  0.74144639  0.49861536  0.75173720  1
  Co  Co127  1  0.12472975  0.37606656  0.37723886  1
