# generated using pymatgen
data_Fe45Co19
_symmetry_space_group_name_H-M   'P 1'
_cell_length_a   11.41581421
_cell_length_b   11.41565310
_cell_length_c   11.41520910
_cell_angle_alpha   89.99392473
_cell_angle_beta   89.99852797
_cell_angle_gamma   90.01071751
_symmetry_Int_Tables_number   1
_chemical_formula_structural   Fe45Co19
_chemical_formula_sum   'Fe90 Co38'
_cell_volume   1487.61831306
_cell_formula_units_Z   2
loop_
 _symmetry_equiv_pos_site_id
 _symmetry_equiv_pos_as_xyz
  1  'x, y, z'
loop_
 _atom_site_type_symbol
 _atom_site_label
 _atom_site_symmetry_multiplicity
 _atom_site_fract_x
 _atom_site_fract_y
 _atom_site_fract_z
 _atom_site_occupancy
  Fe  Fe0  1  0.74827338  0.50155150  0.75178207  1
  Fe  Fe1  1  0.50051160  0.50023180  0.24768027  1
  Fe  Fe2  1  0.62712689  0.37473270  0.62588499  1
  Fe  Fe3  1  0.87789569  0.12219104  0.87584388  1
  Fe  Fe4  1  0.87250192  0.37714863  0.62621752  1
  Fe  Fe5  1  0.12229446  0.37305860  0.37738165  1
  Fe  Fe6  1  0.62118555  0.12472400  0.87096318  1
  Fe  Fe7  1  0.62052226  0.37702776  0.87552646  1
  Fe  Fe8  1  0.12609106  0.87108958  0.62414904  1
  Fe  Fe9  1  0.50020720  0.00010264  -0.00005991  1
  Fe  Fe10  1  -0.00064239  0.25206129  0.00246184  1
  Fe  Fe11  1  0.62491831  0.87515737  0.12555455  1
  Fe  Fe12  1  0.37445555  0.12581403  0.12541754  1
  Fe  Fe13  1  0.50067440  0.24717186  0.50389505  1
  Fe  Fe14  1  0.24810462  0.25233882  0.25065151  1
  Fe  Fe15  1  0.49834894  0.74865753  0.74738444  1
  Fe  Fe16  1  0.24759870  0.00058551  0.49802951  1
  Fe  Fe17  1  0.49995178  0.74901982  0.24970516  1
  Fe  Fe18  1  0.74867496  0.74973113  0.49573270  1
  Fe  Fe19  1  0.87656888  0.62638677  0.87296550  1
  Fe  Fe20  1  0.74974562  0.24782680  0.49916376  1
  Fe  Fe21  1  0.62499876  0.37558631  0.37584548  1
  Fe  Fe22  1  0.74902674  -0.00401697  0.75301899  1
  Fe  Fe23  1  0.25178690  0.74803709  0.74984035  1
  Fe  Fe24  1  0.37352588  0.37560069  0.62426011  1
  Fe  Fe25  1  0.12864949  0.62382213  0.12547980  1
  Fe  Fe26  1  0.00121648  -0.00134790  0.74752655  1
  Fe  Fe27  1  0.25228334  0.25129398  -0.00066949  1
  Fe  Fe28  1  0.75123468  -0.00146029  0.25790219  1
  Fe  Fe29  1  0.12437553  0.87476386  0.12639543  1
  Fe  Fe30  1  0.37481196  0.62383558  0.37456773  1
  Fe  Fe31  1  0.62559619  0.87646971  0.62375878  1
  Fe  Fe32  1  0.12664589  0.12876872  0.62271951  1
  Fe  Fe33  1  0.50042541  0.74784327  0.49922304  1
  Fe  Fe34  1  0.87405960  0.87511171  0.62250208  1
  Fe  Fe35  1  0.75109872  0.75103069  -0.00216105  1
  Fe  Fe36  1  0.75168476  0.25064902  0.25145516  1
  Fe  Fe37  1  0.87515036  0.87496521  0.12653743  1
  Fe  Fe38  1  0.49641536  0.74665290  0.00369561  1
  Fe  Fe39  1  0.37599137  0.37486130  0.37444014  1
  Fe  Fe40  1  0.38109311  0.37670146  0.87546930  1
  Fe  Fe41  1  0.37558399  0.12674730  0.37551307  1
  Fe  Fe42  1  0.37388729  0.87543782  0.62195473  1
  Fe  Fe43  1  -0.00016422  0.75065834  0.00106675  1
  Fe  Fe44  1  0.24837551  0.50032188  0.49967405  1
  Fe  Fe45  1  0.37843080  0.12536790  0.87260507  1
  Fe  Fe46  1  0.37620751  0.87309297  0.87666235  1
  Fe  Fe47  1  0.87608364  0.37494621  0.37462079  1
  Fe  Fe48  1  0.87217644  0.62237010  0.12584561  1
  Fe  Fe49  1  0.62119201  0.62435800  0.87563400  1
  Fe  Fe50  1  0.62759289  0.62436111  0.62362706  1
  Fe  Fe51  1  0.24925907  0.00028627  0.25186558  1
  Fe  Fe52  1  0.00056437  0.49762569  0.24714790  1
  Fe  Fe53  1  0.00110869  0.50279131  0.74584883  1
  Fe  Fe54  1  0.62850129  0.62300206  0.12582090  1
  Fe  Fe55  1  0.25190965  0.25075432  0.75025722  1
  Fe  Fe56  1  -0.00151572  0.00099697  0.25220169  1
  Fe  Fe57  1  0.74924153  0.75051155  0.25405349  1
  Fe  Fe58  1  0.12317468  0.12491760  0.87580893  1
  Fe  Fe59  1  0.25517813  0.50059119  0.00098055  1
  Fe  Fe60  1  0.62696353  0.12346714  0.12624451  1
  Fe  Fe61  1  0.50159665  0.25078504  0.24703628  1
  Fe  Fe62  1  -0.00030427  0.74752592  0.50202108  1
  Fe  Fe63  1  -0.00175539  0.49912916  0.00122170  1
  Fe  Fe64  1  0.50171668  0.50087428  0.50178652  1
  Fe  Fe65  1  0.50048787  0.00078249  0.25024865  1
  Fe  Fe66  1  0.75055630  0.24934296  0.75171813  1
  Fe  Fe67  1  0.74985557  -0.00238665  -0.00292290  1
  Fe  Fe68  1  0.25204318  0.50239130  0.74823038  1
  Fe  Fe69  1  0.87421332  0.62308358  0.37485592  1
  Fe  Fe70  1  0.25016989  -0.00147628  0.00034233  1
  Fe  Fe71  1  0.87303314  0.12090472  0.62129612  1
  Fe  Fe72  1  0.12017489  0.12991838  0.37748852  1
  Fe  Fe73  1  0.87605424  0.37608095  0.87492778  1
  Fe  Fe74  1  0.74885073  0.24957658  -0.00236454  1
  Fe  Fe75  1  0.87435756  0.12469510  0.12551510  1
  Fe  Fe76  1  0.12309168  0.87386995  0.87534940  1
  Fe  Fe77  1  0.12161720  0.87194854  0.37400618  1
  Fe  Fe78  1  0.75008558  0.75212200  0.75271722  1
  Fe  Fe79  1  -0.00059523  0.50087771  0.50471937  1
  Fe  Fe80  1  0.12483936  0.37653566  0.87411474  1
  Fe  Fe81  1  0.25052501  -0.00020794  0.74956307  1
  Fe  Fe82  1  -0.00035102  0.25029210  0.74753246  1
  Fe  Fe83  1  0.50323194  0.00460989  0.50177337  1
  Fe  Fe84  1  0.37743406  0.87641933  0.37555373  1
  Fe  Fe85  1  0.62774454  0.37764001  0.12170583  1
  Fe  Fe86  1  0.12502970  0.62533450  0.37481132  1
  Fe  Fe87  1  0.12455160  0.12628119  0.12435994  1
  Fe  Fe88  1  0.25115744  0.75140973  0.25064679  1
  Fe  Fe89  1  0.12635771  0.62584482  0.87503502  1
  Co  Co90  1  0.74640220  -0.00025551  0.49434327  1
  Co  Co91  1  0.37315454  0.62532438  0.62135264  1
  Co  Co92  1  0.12769333  0.37437678  0.62628925  1
  Co  Co93  1  0.62842044  0.12370977  0.62911702  1
  Co  Co94  1  0.74946220  0.49850920  0.25268876  1
  Co  Co95  1  0.25066707  0.75080198  0.49652574  1
  Co  Co96  1  0.87903238  0.12679467  0.37767147  1
  Co  Co97  1  0.37014448  0.62454980  0.13049035  1
  Co  Co98  1  0.62415726  0.12749332  0.37328688  1
  Co  Co99  1  0.24831276  0.49678891  0.25294584  1
  Co  Co100  1  -0.00108739  0.74622663  0.24835655  1
  Co  Co101  1  0.25034955  0.75102754  0.00153931  1
  Co  Co102  1  0.75021408  0.49979337  0.49900271  1
  Co  Co103  1  0.75039653  0.50131086  -0.00477784  1
  Co  Co104  1  0.37418664  0.37383583  0.12644816  1
  Co  Co105  1  0.37554628  0.87666163  0.12593405  1
  Co  Co106  1  0.37224440  0.12404060  0.62490707  1
  Co  Co107  1  0.50157610  0.24894729  0.00206699  1
  Co  Co108  1  0.49889351  0.25155934  0.74581829  1
  Co  Co109  1  0.87864038  0.87315535  0.37706640  1
  Co  Co110  1  0.87065366  0.62665433  0.62580134  1
  Co  Co111  1  0.49857136  -0.00287955  0.74836768  1
  Co  Co112  1  0.25180743  0.25110479  0.49901469  1
  Co  Co113  1  -0.00060079  0.25302129  0.24564016  1
  Co  Co114  1  0.50035069  0.50186632  0.74550158  1
  Co  Co115  1  0.62041003  0.87470839  0.37484468  1
  Co  Co116  1  0.12836853  0.62715562  0.62456094  1
  Co  Co117  1  0.62415417  0.62276393  0.37464713  1
  Co  Co118  1  0.87952840  0.87551985  0.87485442  1
  Co  Co119  1  -0.00319850  0.25372045  0.50550583  1
  Co  Co120  1  0.49723231  0.50367644  0.00476439  1
  Co  Co121  1  0.37632042  0.62503800  0.87354738  1
  Co  Co122  1  0.12828740  0.37609535  0.12197288  1
  Co  Co123  1  0.87041278  0.37607400  0.12323329  1
  Co  Co124  1  0.00008557  0.74949920  0.74867202  1
  Co  Co125  1  0.00377436  -0.00240372  0.50015669  1
  Co  Co126  1  0.00071386  -0.00146165  0.00224703  1
  Co  Co127  1  0.62012066  0.87260685  0.87673454  1
