# generated using pymatgen
data_Fe45Co19
_symmetry_space_group_name_H-M   'P 1'
_cell_length_a   11.41467951
_cell_length_b   11.41427968
_cell_length_c   11.41392678
_cell_angle_alpha   90.00619377
_cell_angle_beta   89.98482185
_cell_angle_gamma   89.99552552
_symmetry_Int_Tables_number   1
_chemical_formula_structural   Fe45Co19
_chemical_formula_sum   'Fe90 Co38'
_cell_volume   1487.12438533
_cell_formula_units_Z   2
loop_
 _symmetry_equiv_pos_site_id
 _symmetry_equiv_pos_as_xyz
  1  'x, y, z'
loop_
 _atom_site_type_symbol
 _atom_site_label
 _atom_site_symmetry_multiplicity
 _atom_site_fract_x
 _atom_site_fract_y
 _atom_site_fract_z
 _atom_site_occupancy
  Fe  Fe0  1  0.87539308  0.62379565  0.62209892  1
  Fe  Fe1  1  0.87486378  0.37337771  0.12770787  1
  Fe  Fe2  1  0.00186733  0.24808858  0.24903791  1
  Fe  Fe3  1  0.37527945  0.62282172  0.87804939  1
  Fe  Fe4  1  0.62592064  0.87646274  0.12328488  1
  Fe  Fe5  1  0.37677995  0.87669503  0.87477950  1
  Fe  Fe6  1  0.24836095  0.24776457  0.24753099  1
  Fe  Fe7  1  0.24972854  0.00233931  0.24999920  1
  Fe  Fe8  1  0.00067814  0.00040092  0.25224743  1
  Fe  Fe9  1  0.62426946  0.62247548  0.62538196  1
  Fe  Fe10  1  0.12468394  0.62373471  0.62289278  1
  Fe  Fe11  1  0.24863254  0.74890126  0.00012566  1
  Fe  Fe12  1  0.74977745  0.74904735  0.24989160  1
  Fe  Fe13  1  0.25145950  0.00175940  0.00136987  1
  Fe  Fe14  1  0.12428392  0.87825076  0.62340607  1
  Fe  Fe15  1  0.74991282  0.25048517  0.49905081  1
  Fe  Fe16  1  0.12466078  0.87649658  0.12533877  1
  Fe  Fe17  1  0.37562767  0.62338923  0.62330741  1
  Fe  Fe18  1  0.00017225  0.49741149  0.75142285  1
  Fe  Fe19  1  0.62465447  0.37414261  0.62578044  1
  Fe  Fe20  1  0.87070310  0.87624993  0.37748238  1
  Fe  Fe21  1  0.37623848  0.87479930  0.37378914  1
  Fe  Fe22  1  0.24902657  0.24938404  0.74895796  1
  Fe  Fe23  1  0.75063716  0.00200865  0.75083492  1
  Fe  Fe24  1  0.74827742  0.74838657  0.49877457  1
  Fe  Fe25  1  0.24993173  0.50216098  0.24863806  1
  Fe  Fe26  1  -0.00107823  0.75100277  0.49811754  1
  Fe  Fe27  1  0.50042730  0.25205646  0.49840962  1
  Fe  Fe28  1  0.49957179  0.75158730  -0.00000805  1
  Fe  Fe29  1  0.37152213  0.37588058  0.87967902  1
  Fe  Fe30  1  0.25149203  0.74743404  0.24980355  1
  Fe  Fe31  1  0.87497921  0.87728501  0.12437126  1
  Fe  Fe32  1  0.75133931  0.75089477  -0.00026265  1
  Fe  Fe33  1  0.62498786  0.12412552  0.37545269  1
  Fe  Fe34  1  0.37383770  0.37504997  0.62386004  1
  Fe  Fe35  1  0.25168415  0.74828484  0.49870349  1
  Fe  Fe36  1  0.87520911  0.87515593  0.87490728  1
  Fe  Fe37  1  0.37793092  0.12586774  0.62537267  1
  Fe  Fe38  1  0.37837930  0.12476080  0.87457232  1
  Fe  Fe39  1  0.62497728  0.62210661  0.37329987  1
  Fe  Fe40  1  0.50023638  0.75079672  0.75047478  1
  Fe  Fe41  1  0.37587545  0.87440247  0.12573761  1
  Fe  Fe42  1  0.24913514  0.74979265  0.75062976  1
  Fe  Fe43  1  0.49902864  0.49810323  0.24452236  1
  Fe  Fe44  1  0.12238984  0.62472407  0.12639652  1
  Fe  Fe45  1  0.49928892  0.25075378  0.00235652  1
  Fe  Fe46  1  0.00274382  0.25174817  0.75439698  1
  Fe  Fe47  1  0.00146857  0.25073217  0.49656889  1
  Fe  Fe48  1  0.12153769  0.12293105  0.62375252  1
  Fe  Fe49  1  0.24561283  0.24750993  0.00292686  1
  Fe  Fe50  1  0.49904085  0.49669614  0.75278180  1
  Fe  Fe51  1  0.62459549  0.62454947  0.87592958  1
  Fe  Fe52  1  0.62619388  0.12523646  0.12362189  1
  Fe  Fe53  1  0.62611916  0.37354332  0.87713691  1
  Fe  Fe54  1  0.75021466  0.00210422  0.24876995  1
  Fe  Fe55  1  0.25028626  0.00132286  0.74927676  1
  Fe  Fe56  1  0.00082102  0.75093134  0.00004281  1
  Fe  Fe57  1  0.75111728  0.49885981  0.74941257  1
  Fe  Fe58  1  0.87576529  0.62302743  0.87630336  1
  Fe  Fe59  1  0.74954326  0.49886097  0.00283307  1
  Fe  Fe60  1  0.87654666  0.37356308  0.62476384  1
  Fe  Fe61  1  0.37181345  0.37531528  0.37379970  1
  Fe  Fe62  1  0.50016346  -0.00047741  0.50029737  1
  Fe  Fe63  1  0.37491935  0.87528639  0.62477257  1
  Fe  Fe64  1  0.49970249  0.25104628  0.24792151  1
  Fe  Fe65  1  -0.00054227  0.00253399  0.00006450  1
  Fe  Fe66  1  0.00166951  0.49483717  0.00004737  1
  Fe  Fe67  1  0.00203674  0.49846101  0.49506526  1
  Fe  Fe68  1  0.62310339  0.62658440  0.12387930  1
  Fe  Fe69  1  0.62738342  0.87629405  0.62541380  1
  Fe  Fe70  1  0.75230847  0.24747944  0.00139361  1
  Fe  Fe71  1  0.50030143  0.00050684  0.24843145  1
  Fe  Fe72  1  0.87707303  0.12669715  0.87544830  1
  Fe  Fe73  1  0.87723225  0.62457151  0.12528426  1
  Fe  Fe74  1  -0.00145271  0.74933225  0.25302887  1
  Fe  Fe75  1  0.49976874  0.49783888  0.49883619  1
  Fe  Fe76  1  0.37444418  0.12571768  0.37496649  1
  Fe  Fe77  1  0.87151286  0.37708737  0.37118246  1
  Fe  Fe78  1  0.75015358  0.24979656  0.75048601  1
  Fe  Fe79  1  0.87433562  0.12459776  0.37506239  1
  Fe  Fe80  1  -0.00036127  0.75099563  0.74911876  1
  Fe  Fe81  1  0.50164807  0.75054575  0.49696776  1
  Fe  Fe82  1  0.62790266  0.37611557  0.37104910  1
  Fe  Fe83  1  0.24874943  0.49909603  0.74922734  1
  Fe  Fe84  1  0.62226493  0.12739253  0.62720728  1
  Fe  Fe85  1  0.12414599  0.87770364  0.87468876  1
  Fe  Fe86  1  0.24738504  0.25019312  0.50053688  1
  Fe  Fe87  1  0.12674676  0.87715549  0.37717656  1
  Fe  Fe88  1  0.12381589  0.62353806  0.87505955  1
  Fe  Fe89  1  0.75147781  0.74891577  0.75113187  1
  Co  Co90  1  0.00122691  0.25163505  0.00036591  1
  Co  Co91  1  0.74960142  0.50273579  0.24551107  1
  Co  Co92  1  0.62197248  0.12722733  0.87468392  1
  Co  Co93  1  0.87296790  0.37422979  0.87577629  1
  Co  Co94  1  0.87794122  0.12995518  0.62648713  1
  Co  Co95  1  0.87164213  0.62368027  0.37590559  1
  Co  Co96  1  0.62746316  0.87877827  0.37489214  1
  Co  Co97  1  0.12853601  0.37433636  0.87582396  1
  Co  Co98  1  0.87281668  0.87342350  0.62411883  1
  Co  Co99  1  0.37126275  0.37528186  0.12317785  1
  Co  Co100  1  0.74974067  0.49702000  0.50131339  1
  Co  Co101  1  0.75128624  0.00549350  0.50393132  1
  Co  Co102  1  -0.00391726  0.00025764  0.49976063  1
  Co  Co103  1  0.24625028  0.50291559  0.00273574  1
  Co  Co104  1  0.12312014  0.37442956  0.62532242  1
  Co  Co105  1  0.12456408  0.12330162  0.87524961  1
  Co  Co106  1  0.50029423  0.00056451  0.00129298  1
  Co  Co107  1  0.50107147  -0.00139668  0.74968199  1
  Co  Co108  1  0.49774077  0.25474361  0.75171767  1
  Co  Co109  1  0.25233382  0.00184019  0.50047977  1
  Co  Co110  1  0.12284362  0.12301596  0.12510951  1
  Co  Co111  1  0.75097687  0.00215880  -0.00286731  1
  Co  Co112  1  0.50194869  0.75059333  0.25078308  1
  Co  Co113  1  -0.00275435  -0.00066644  0.74922459  1
  Co  Co114  1  0.12452498  0.37496458  0.12787448  1
  Co  Co115  1  0.37564729  0.12538266  0.12611479  1
  Co  Co116  1  -0.00059633  0.50183104  0.25271394  1
  Co  Co117  1  0.12740680  0.37418917  0.37110344  1
  Co  Co118  1  0.37654756  0.62547781  0.12294122  1
  Co  Co119  1  0.37728475  0.62322079  0.37459356  1
  Co  Co120  1  0.12574754  0.12369654  0.37627895  1
  Co  Co121  1  0.74983505  0.24634847  0.25068908  1
  Co  Co122  1  0.24812199  0.49902553  0.49941896  1
  Co  Co123  1  0.12672073  0.62591464  0.37502154  1
  Co  Co124  1  0.62847669  0.37073149  0.12596327  1
  Co  Co125  1  0.50291890  0.49707089  0.00251327  1
  Co  Co126  1  0.87658954  0.12430706  0.12525526  1
  Co  Co127  1  0.62550016  0.87461510  0.87539954  1
