# generated using pymatgen
data_Fe45Co19
_symmetry_space_group_name_H-M   'P 1'
_cell_length_a   11.41427922
_cell_length_b   11.41517200
_cell_length_c   11.41678349
_cell_angle_alpha   89.99447298
_cell_angle_beta   89.99445052
_cell_angle_gamma   89.99819134
_symmetry_Int_Tables_number   1
_chemical_formula_structural   Fe45Co19
_chemical_formula_sum   'Fe90 Co38'
_cell_volume   1487.56075638
_cell_formula_units_Z   2
loop_
 _symmetry_equiv_pos_site_id
 _symmetry_equiv_pos_as_xyz
  1  'x, y, z'
loop_
 _atom_site_type_symbol
 _atom_site_label
 _atom_site_symmetry_multiplicity
 _atom_site_fract_x
 _atom_site_fract_y
 _atom_site_fract_z
 _atom_site_occupancy
  Fe  Fe0  1  0.12555771  0.37248673  0.37505420  1
  Fe  Fe1  1  0.37639423  0.36910446  0.87233857  1
  Fe  Fe2  1  0.75125576  0.75111249  0.50270704  1
  Fe  Fe3  1  0.37444449  0.62677754  0.37521901  1
  Fe  Fe4  1  0.75305709  0.00459891  0.25219766  1
  Fe  Fe5  1  0.25010065  0.49807446  -0.00211712  1
  Fe  Fe6  1  0.49768911  0.00573687  0.75171055  1
  Fe  Fe7  1  0.25067817  0.00038045  0.75330789  1
  Fe  Fe8  1  0.62504664  0.88086407  0.62450927  1
  Fe  Fe9  1  0.24799321  0.24848313  0.74662518  1
  Fe  Fe10  1  0.87613499  0.87804273  0.12754771  1
  Fe  Fe11  1  0.12129910  0.62257515  0.12094664  1
  Fe  Fe12  1  0.50252612  0.75016415  0.24853111  1
  Fe  Fe13  1  0.87294082  0.37064654  0.37577871  1
  Fe  Fe14  1  0.75554867  0.50085218  -0.00494082  1
  Fe  Fe15  1  0.62491974  0.87700297  0.87445955  1
  Fe  Fe16  1  0.37513868  0.87859891  0.62530246  1
  Fe  Fe17  1  0.87552347  0.36788043  0.87041972  1
  Fe  Fe18  1  0.74877808  0.25134505  0.50697319  1
  Fe  Fe19  1  0.50132227  0.75108094  0.74849148  1
  Fe  Fe20  1  0.37439182  0.36908608  0.37495571  1
  Fe  Fe21  1  0.25180707  0.00127814  -0.00251858  1
  Fe  Fe22  1  0.25114878  0.75171051  0.00005694  1
  Fe  Fe23  1  0.24755806  0.74843387  0.24942461  1
  Fe  Fe24  1  0.00071772  0.75100006  0.74718443  1
  Fe  Fe25  1  -0.00266588  0.00126622  -0.00355955  1
  Fe  Fe26  1  0.12248353  0.37637732  0.12464443  1
  Fe  Fe27  1  0.50215815  0.24651907  0.50728682  1
  Fe  Fe28  1  0.87414249  0.37330047  0.12605608  1
  Fe  Fe29  1  0.12334670  0.62211937  0.62255882  1
  Fe  Fe30  1  0.49944479  0.49877291  -0.00303315  1
  Fe  Fe31  1  0.12152346  0.37280382  0.87480878  1
  Fe  Fe32  1  0.37400589  0.62802931  0.87268994  1
  Fe  Fe33  1  0.50147227  0.75220593  0.50169180  1
  Fe  Fe34  1  0.12434592  0.37931932  0.62556708  1
  Fe  Fe35  1  0.87710970  0.12194643  0.62705509  1
  Fe  Fe36  1  -0.00318854  0.75206267  0.50059470  1
  Fe  Fe37  1  0.37480304  0.87602230  0.12617833  1
  Fe  Fe38  1  0.62627119  0.62049434  0.62452908  1
  Fe  Fe39  1  0.75590125  -0.00220792  0.49780705  1
  Fe  Fe40  1  0.50047900  0.75162869  0.00080312  1
  Fe  Fe41  1  0.12239182  0.12341822  0.12510837  1
  Fe  Fe42  1  0.12111946  0.62682774  0.87707294  1
  Fe  Fe43  1  0.87488014  0.62030272  0.62603459  1
  Fe  Fe44  1  0.50589071  0.25043452  0.24769745  1
  Fe  Fe45  1  0.74931003  0.74944724  0.24785787  1
  Fe  Fe46  1  0.49792843  0.00192774  0.25577286  1
  Fe  Fe47  1  0.00025043  0.74860196  0.24835365  1
  Fe  Fe48  1  0.37454069  0.62356677  0.62596667  1
  Fe  Fe49  1  0.12339112  0.87845620  0.12547510  1
  Fe  Fe50  1  0.50375275  0.24820427  0.00048207  1
  Fe  Fe51  1  0.12338962  0.87956301  0.62322332  1
  Fe  Fe52  1  0.24881529  0.49978486  0.25155700  1
  Fe  Fe53  1  0.62543174  0.62479538  0.37672443  1
  Fe  Fe54  1  0.87596790  0.87289456  0.87254956  1
  Fe  Fe55  1  -0.00068482  0.24764974  0.24928693  1
  Fe  Fe56  1  0.50330928  0.49778252  0.75307291  1
  Fe  Fe57  1  0.75317185  0.74980554  0.00144359  1
  Fe  Fe58  1  0.37634914  0.37424131  0.62770425  1
  Fe  Fe59  1  0.37522511  0.62348196  0.12532463  1
  Fe  Fe60  1  0.62631592  0.62609354  0.87565086  1
  Fe  Fe61  1  0.25026064  0.49808784  0.49766780  1
  Fe  Fe62  1  0.12495836  0.11981222  0.62234911  1
  Fe  Fe63  1  0.87522460  0.62505628  0.37537482  1
  Fe  Fe64  1  0.74914286  0.74971079  0.74803225  1
  Fe  Fe65  1  0.62576215  0.87939809  0.12508786  1
  Fe  Fe66  1  0.24759750  0.24946807  0.00269527  1
  Fe  Fe67  1  -0.00342057  0.00414610  0.25635799  1
  Fe  Fe68  1  0.12158296  0.12810358  0.87435047  1
  Fe  Fe69  1  0.62707327  0.62112810  0.12284415  1
  Fe  Fe70  1  0.50059277  0.49808083  0.49834637  1
  Fe  Fe71  1  0.75376682  0.00254592  0.75264396  1
  Fe  Fe72  1  0.75319916  0.00319606  -0.00217333  1
  Fe  Fe73  1  0.12719974  0.12788471  0.37920932  1
  Fe  Fe74  1  -0.00013300  0.50016899  0.25233156  1
  Fe  Fe75  1  0.74734388  0.49614701  0.25320767  1
  Fe  Fe76  1  0.50281866  0.49665132  0.25106365  1
  Fe  Fe77  1  0.37517810  0.37447138  0.12513214  1
  Fe  Fe78  1  0.74945671  0.24534351  0.00247256  1
  Fe  Fe79  1  0.87325422  0.37949660  0.62810354  1
  Fe  Fe80  1  0.12370428  0.87448411  0.37594312  1
  Fe  Fe81  1  0.62830907  0.12750065  0.37788921  1
  Fe  Fe82  1  0.49787774  0.00149919  -0.00285926  1
  Fe  Fe83  1  0.12417310  0.87261991  0.87519585  1
  Fe  Fe84  1  0.24812473  0.50115738  0.75199798  1
  Fe  Fe85  1  0.37553161  0.12621647  0.12574555  1
  Fe  Fe86  1  0.00057583  0.25131586  0.50446226  1
  Fe  Fe87  1  0.25274784  0.00263347  0.25470305  1
  Fe  Fe88  1  0.62677368  0.87559675  0.37599998  1
  Fe  Fe89  1  0.25019237  0.75131431  0.50199320  1
  Co  Co90  1  0.24785205  0.75027770  0.74723296  1
  Co  Co91  1  -0.00396631  0.75261792  0.00300035  1
  Co  Co92  1  0.87837256  0.62896581  0.87129742  1
  Co  Co93  1  0.62526621  0.36968419  0.37958574  1
  Co  Co94  1  0.62614883  0.12553432  0.87414771  1
  Co  Co95  1  0.37454497  0.13159175  0.87432128  1
  Co  Co96  1  0.87487871  0.87103729  0.37212018  1
  Co  Co97  1  0.37319748  0.13414009  0.37643722  1
  Co  Co98  1  0.37536749  0.87321097  0.87278108  1
  Co  Co99  1  0.62775623  0.37828880  0.11944996  1
  Co  Co100  1  0.62570964  0.38046909  0.62603893  1
  Co  Co101  1  -0.00516784  0.49743732  -0.00281735  1
  Co  Co102  1  0.24774296  0.25302981  0.50550398  1
  Co  Co103  1  0.24748519  0.24937840  0.24565698  1
  Co  Co104  1  0.00034553  0.49916810  0.75258503  1
  Co  Co105  1  0.00014714  0.24982938  0.00281143  1
  Co  Co106  1  0.62832559  0.11651281  0.62343297  1
  Co  Co107  1  0.74559711  0.24824164  0.74487435  1
  Co  Co108  1  0.49687313  0.00218474  0.49498938  1
  Co  Co109  1  -0.00104179  0.49701865  0.49761189  1
  Co  Co110  1  0.50540904  0.24663407  0.74437966  1
  Co  Co111  1  0.00035923  0.00017377  0.75314971  1
  Co  Co112  1  0.37056181  0.12313368  0.62362731  1
  Co  Co113  1  0.00208508  0.24984187  0.74337066  1
  Co  Co114  1  0.87236550  0.13279080  0.37845839  1
  Co  Co115  1  0.62736436  0.37106495  0.87581703  1
  Co  Co116  1  0.25339691  -0.00168611  0.49455707  1
  Co  Co117  1  0.37501747  0.86944124  0.37452879  1
  Co  Co118  1  0.74982649  0.49936086  0.49683551  1
  Co  Co119  1  0.87742803  0.13106423  0.87177192  1
  Co  Co120  1  0.74891468  0.50040167  0.75459472  1
  Co  Co121  1  0.12387334  0.62604838  0.37832656  1
  Co  Co122  1  0.87501621  0.62230634  0.12813539  1
  Co  Co123  1  0.87594821  0.87749211  0.62782929  1
  Co  Co124  1  -0.00459218  0.00007470  0.49556185  1
  Co  Co125  1  0.87710534  0.12468553  0.12463957  1
  Co  Co126  1  0.62459225  0.12048958  0.12512422  1
  Co  Co127  1  0.74667225  0.24957118  0.24586021  1
