# generated using pymatgen
data_Fe45Co19
_symmetry_space_group_name_H-M   'P 1'
_cell_length_a   11.41606978
_cell_length_b   11.41493081
_cell_length_c   11.41590599
_cell_angle_alpha   90.00676175
_cell_angle_beta   89.99599084
_cell_angle_gamma   90.00543374
_symmetry_Int_Tables_number   1
_chemical_formula_structural   Fe45Co19
_chemical_formula_sum   'Fe90 Co38'
_cell_volume   1487.64831893
_cell_formula_units_Z   2
loop_
 _symmetry_equiv_pos_site_id
 _symmetry_equiv_pos_as_xyz
  1  'x, y, z'
loop_
 _atom_site_type_symbol
 _atom_site_label
 _atom_site_symmetry_multiplicity
 _atom_site_fract_x
 _atom_site_fract_y
 _atom_site_fract_z
 _atom_site_occupancy
  Fe  Fe0  1  0.75027131  0.74966882  0.49715310  1
  Fe  Fe1  1  0.87967061  0.37627215  0.37289853  1
  Fe  Fe2  1  0.87517828  0.12420746  0.87785132  1
  Fe  Fe3  1  0.62385003  0.37407158  0.37297859  1
  Fe  Fe4  1  0.00175114  0.75215226  0.00277847  1
  Fe  Fe5  1  0.62707272  0.12339150  0.62436874  1
  Fe  Fe6  1  0.12526580  0.12024207  0.87174891  1
  Fe  Fe7  1  0.62695068  0.87498926  0.62434420  1
  Fe  Fe8  1  0.50050011  0.24998377  0.74823681  1
  Fe  Fe9  1  0.75123026  0.00007957  0.49375672  1
  Fe  Fe10  1  0.62564846  0.62539670  0.87711339  1
  Fe  Fe11  1  0.37546165  0.12620172  0.37595003  1
  Fe  Fe12  1  0.62452740  0.12426252  0.87462056  1
  Fe  Fe13  1  0.50042513  0.25127765  0.50137256  1
  Fe  Fe14  1  0.12138658  0.12633301  0.37329303  1
  Fe  Fe15  1  0.37013385  0.87411728  0.12560391  1
  Fe  Fe16  1  0.24916064  0.75274601  0.49616177  1
  Fe  Fe17  1  0.25019132  0.49754241  0.50035744  1
  Fe  Fe18  1  -0.00079441  0.74694591  0.74810269  1
  Fe  Fe19  1  0.37458080  0.87457776  0.62233616  1
  Fe  Fe20  1  0.00026818  -0.00048770  0.50146109  1
  Fe  Fe21  1  0.24784649  -0.00009462  0.49813184  1
  Fe  Fe22  1  0.24787016  0.25200486  0.50151425  1
  Fe  Fe23  1  0.63059835  0.12005672  0.12640701  1
  Fe  Fe24  1  0.00216934  0.25192663  0.50274426  1
  Fe  Fe25  1  0.49875799  0.50091463  0.49812254  1
  Fe  Fe26  1  0.75271851  -0.00155212  0.75300625  1
  Fe  Fe27  1  0.75342280  0.24542568  0.25272152  1
  Fe  Fe28  1  0.24948935  0.24875625  0.24870786  1
  Fe  Fe29  1  0.62433607  0.37530184  0.87546326  1
  Fe  Fe30  1  0.37296297  0.12541747  0.62389011  1
  Fe  Fe31  1  -0.00020268  0.74868570  0.24621230  1
  Fe  Fe32  1  0.12554281  0.37506183  0.12544899  1
  Fe  Fe33  1  0.62323121  0.87325111  0.37341405  1
  Fe  Fe34  1  0.50084065  -0.00105868  0.49883502  1
  Fe  Fe35  1  0.25048957  0.75247982  0.75388109  1
  Fe  Fe36  1  0.50369276  0.75324738  0.00272650  1
  Fe  Fe37  1  0.00101825  0.24792358  0.00309870  1
  Fe  Fe38  1  0.37179179  0.12284054  0.12326895  1
  Fe  Fe39  1  0.12947761  0.87760426  0.12642629  1
  Fe  Fe40  1  0.74986472  0.25016094  0.49832604  1
  Fe  Fe41  1  0.12232649  0.37605740  0.37216766  1
  Fe  Fe42  1  0.12254685  0.87532895  0.37159111  1
  Fe  Fe43  1  0.24947821  0.25026964  0.74894191  1
  Fe  Fe44  1  0.49709469  0.74849848  0.25209832  1
  Fe  Fe45  1  0.75099746  0.25066480  0.75021617  1
  Fe  Fe46  1  0.62898595  0.62486638  0.12523939  1
  Fe  Fe47  1  0.37521518  0.37382477  0.87615499  1
  Fe  Fe48  1  0.37246588  0.62655612  0.12419698  1
  Fe  Fe49  1  -0.00410772  0.00290074  0.24878618  1
  Fe  Fe50  1  0.12700315  0.62501406  0.12440228  1
  Fe  Fe51  1  0.86985861  0.87783768  0.12352292  1
  Fe  Fe52  1  0.49885281  -0.00013899  0.25031820  1
  Fe  Fe53  1  0.62701701  0.37565096  0.12682243  1
  Fe  Fe54  1  0.87349638  0.62770808  0.88039189  1
  Fe  Fe55  1  0.25109705  0.50051970  0.24958159  1
  Fe  Fe56  1  0.87699323  0.37821705  0.62638319  1
  Fe  Fe57  1  0.37594926  0.62784699  0.87772186  1
  Fe  Fe58  1  0.50063487  0.49888394  0.00235791  1
  Fe  Fe59  1  0.75298465  0.49944401  0.75362318  1
  Fe  Fe60  1  0.49760447  0.50068241  0.74963418  1
  Fe  Fe61  1  0.87498833  0.87374522  0.62410617  1
  Fe  Fe62  1  0.49845788  0.24939155  0.24765137  1
  Fe  Fe63  1  0.50293345  -0.00329861  0.00146697  1
  Fe  Fe64  1  0.87450163  0.37614414  0.12665316  1
  Fe  Fe65  1  0.75021077  0.25158398  -0.00089734  1
  Fe  Fe66  1  0.12498375  0.62490295  0.87495341  1
  Fe  Fe67  1  0.50106709  0.24954321  0.00238655  1
  Fe  Fe68  1  0.87500945  0.12437820  0.62214911  1
  Fe  Fe69  1  0.12209894  0.37760119  0.87278176  1
  Fe  Fe70  1  0.12289337  0.38080771  0.62973152  1
  Fe  Fe71  1  0.49986432  0.75041013  0.74746640  1
  Fe  Fe72  1  0.62734596  0.62451985  0.62350475  1
  Fe  Fe73  1  0.49841459  0.50062577  0.25084047  1
  Fe  Fe74  1  0.87775391  0.62437269  0.37327782  1
  Fe  Fe75  1  -0.00248965  0.49985566  0.00176850  1
  Fe  Fe76  1  0.75148618  0.50013915  0.49619912  1
  Fe  Fe77  1  0.37228886  0.62608986  0.62294806  1
  Fe  Fe78  1  0.00089106  0.74600696  0.50264440  1
  Fe  Fe79  1  -0.00071148  0.24732630  0.74889492  1
  Fe  Fe80  1  0.12503325  0.62439068  0.37430191  1
  Fe  Fe81  1  0.37468169  0.12330034  0.87569226  1
  Fe  Fe82  1  0.25087255  0.49999587  -0.00132156  1
  Fe  Fe83  1  0.49798647  -0.00129740  0.74961242  1
  Fe  Fe84  1  0.24769545  0.24826535  0.00004422  1
  Fe  Fe85  1  0.00139624  -0.00024230  0.00066742  1
  Fe  Fe86  1  0.75053877  0.75150476  0.75232900  1
  Fe  Fe87  1  0.75183328  0.74955200  0.25087941  1
  Fe  Fe88  1  0.12429236  0.87563801  0.62853814  1
  Fe  Fe89  1  0.62515230  0.37701172  0.62515037  1
  Co  Co90  1  0.37548201  0.37487825  0.62566392  1
  Co  Co91  1  0.87010991  0.12109511  0.12111008  1
  Co  Co92  1  0.87979650  0.87293100  0.87612869  1
  Co  Co93  1  0.62136766  0.87358743  0.87116279  1
  Co  Co94  1  0.62879194  0.87650800  0.13214382  1
  Co  Co95  1  0.25317971  -0.00278012  0.74988916  1
  Co  Co96  1  0.00036961  0.50387306  0.50141109  1
  Co  Co97  1  0.25039135  0.00155854  0.25335446  1
  Co  Co98  1  0.88136859  0.12776667  0.37858784  1
  Co  Co99  1  0.37566745  0.87524364  0.37426250  1
  Co  Co100  1  0.50043961  0.74935755  0.50015656  1
  Co  Co101  1  0.25305941  0.50090337  0.75264968  1
  Co  Co102  1  0.24900911  0.74916961  0.25175039  1
  Co  Co103  1  -0.00350552  0.50698704  0.74993831  1
  Co  Co104  1  -0.00385974  0.00066652  0.74791689  1
  Co  Co105  1  0.62169606  0.12601383  0.37464280  1
  Co  Co106  1  0.87163289  0.62580313  0.12292345  1
  Co  Co107  1  0.75386044  0.00197469  0.25826444  1
  Co  Co108  1  0.74583620  -0.00521777  -0.00568122  1
  Co  Co109  1  0.87915276  0.37359037  0.87452719  1
  Co  Co110  1  0.24684104  0.75185789  -0.00170616  1
  Co  Co111  1  0.62489295  0.62667694  0.37480571  1
  Co  Co112  1  0.87021402  0.62531472  0.62368811  1
  Co  Co113  1  0.37311107  0.37489720  0.12381103  1
  Co  Co114  1  0.37722384  0.87405934  0.87881198  1
  Co  Co115  1  0.12148713  0.87681232  0.87201138  1
  Co  Co116  1  0.74606952  0.75484723  -0.00067377  1
  Co  Co117  1  0.75082240  0.49742124  -0.00063122  1
  Co  Co118  1  0.00084568  0.50265507  0.24722802  1
  Co  Co119  1  0.37254843  0.62481551  0.37697381  1
  Co  Co120  1  0.24884062  -0.00179978  -0.00284968  1
  Co  Co121  1  -0.00113557  0.24787891  0.24472237  1
  Co  Co122  1  0.37509700  0.37354772  0.37351009  1
  Co  Co123  1  0.87943663  0.87104345  0.37563338  1
  Co  Co124  1  0.12662841  0.12175117  0.12632153  1
  Co  Co125  1  0.13084882  0.62462681  0.62596095  1
  Co  Co126  1  0.75019190  0.50143689  0.25184784  1
  Co  Co127  1  0.12557566  0.12302379  0.62632394  1
