# generated using pymatgen
data_Fe45Co19
_symmetry_space_group_name_H-M   'P 1'
_cell_length_a   11.41493528
_cell_length_b   11.41492350
_cell_length_c   11.41480164
_cell_angle_alpha   89.99794980
_cell_angle_beta   89.99452458
_cell_angle_gamma   90.00021618
_symmetry_Int_Tables_number   1
_chemical_formula_structural   Fe45Co19
_chemical_formula_sum   'Fe90 Co38'
_cell_volume   1487.35564244
_cell_formula_units_Z   2
loop_
 _symmetry_equiv_pos_site_id
 _symmetry_equiv_pos_as_xyz
  1  'x, y, z'
loop_
 _atom_site_type_symbol
 _atom_site_label
 _atom_site_symmetry_multiplicity
 _atom_site_fract_x
 _atom_site_fract_y
 _atom_site_fract_z
 _atom_site_occupancy
  Fe  Fe0  1  0.74959392  0.75154658  0.24811117  1
  Fe  Fe1  1  0.24943101  0.50159849  0.25109651  1
  Fe  Fe2  1  0.62557550  0.87685938  0.37365705  1
  Fe  Fe3  1  0.87378768  0.87251938  0.37665703  1
  Fe  Fe4  1  0.00073855  0.25171834  0.25089523  1
  Fe  Fe5  1  0.49990762  0.75128334  0.24978461  1
  Fe  Fe6  1  0.24999397  0.49679406  0.50190336  1
  Fe  Fe7  1  0.62463445  0.37896758  0.62816095  1
  Fe  Fe8  1  0.24917940  0.24792031  0.24738292  1
  Fe  Fe9  1  0.75248767  -0.00007157  0.50091028  1
  Fe  Fe10  1  0.50013498  0.24866475  -0.00155859  1
  Fe  Fe11  1  0.87629063  0.62361130  0.62511605  1
  Fe  Fe12  1  0.62276702  0.62283211  0.12493343  1
  Fe  Fe13  1  0.12479806  0.12671054  0.37651084  1
  Fe  Fe14  1  0.87753500  0.12202767  0.12446003  1
  Fe  Fe15  1  0.50158077  -0.00033474  0.50086815  1
  Fe  Fe16  1  0.62367709  0.37714876  0.12362866  1
  Fe  Fe17  1  0.13212622  0.87712976  0.87018869  1
  Fe  Fe18  1  0.37827702  0.12484465  0.62495608  1
  Fe  Fe19  1  0.75419716  0.00066302  0.75053411  1
  Fe  Fe20  1  0.25034120  0.75045172  0.50689727  1
  Fe  Fe21  1  0.74863780  0.74731847  0.50123988  1
  Fe  Fe22  1  0.74742423  0.75024334  0.00062959  1
  Fe  Fe23  1  0.62612344  0.87586255  0.62620690  1
  Fe  Fe24  1  0.62473636  0.12286435  0.87528235  1
  Fe  Fe25  1  0.12415796  0.37649918  0.12594910  1
  Fe  Fe26  1  0.87790113  0.62568148  0.12385925  1
  Fe  Fe27  1  0.62664589  0.12384855  0.62598533  1
  Fe  Fe28  1  0.12655775  0.62692900  0.87216796  1
  Fe  Fe29  1  0.87613101  0.87681827  0.12325174  1
  Fe  Fe30  1  0.87587136  0.12680161  0.37819703  1
  Fe  Fe31  1  0.12697391  0.87422751  0.37736118  1
  Fe  Fe32  1  0.12496891  0.62129374  0.62613356  1
  Fe  Fe33  1  0.75260538  0.25089124  0.74841709  1
  Fe  Fe34  1  0.87947529  0.12931278  0.87415277  1
  Fe  Fe35  1  0.49848344  0.49861094  0.50037847  1
  Fe  Fe36  1  0.24901652  0.49989353  -0.00297689  1
  Fe  Fe37  1  0.62617807  0.37694475  0.37421685  1
  Fe  Fe38  1  0.37415902  0.62585978  0.37693128  1
  Fe  Fe39  1  0.37510933  0.62726676  0.12265248  1
  Fe  Fe40  1  0.50109164  0.25036787  0.25070982  1
  Fe  Fe41  1  0.24865959  0.74901166  0.24918995  1
  Fe  Fe42  1  0.87461840  0.87230620  0.87603385  1
  Fe  Fe43  1  0.49755854  0.50059604  -0.00318469  1
  Fe  Fe44  1  0.37279848  0.12425428  0.87141228  1
  Fe  Fe45  1  0.11539261  0.12186972  0.62541261  1
  Fe  Fe46  1  0.37192123  0.37150909  0.37662966  1
  Fe  Fe47  1  0.25394593  0.00027292  0.24830567  1
  Fe  Fe48  1  0.00466114  0.75199991  -0.00111444  1
  Fe  Fe49  1  0.37433188  0.12661493  0.37695025  1
  Fe  Fe50  1  0.87660704  0.37627734  0.12514447  1
  Fe  Fe51  1  0.12344348  0.37044134  0.87421565  1
  Fe  Fe52  1  0.62241286  0.87841548  0.87623684  1
  Fe  Fe53  1  0.75106913  0.50083504  0.25046606  1
  Fe  Fe54  1  0.50108572  0.25157512  0.50125120  1
  Fe  Fe55  1  0.24625806  0.24664088  0.00182613  1
  Fe  Fe56  1  0.37410087  0.87516375  0.37771787  1
  Fe  Fe57  1  0.75123643  0.74935741  0.74943436  1
  Fe  Fe58  1  0.12364078  0.62327526  0.12438990  1
  Fe  Fe59  1  -0.00031683  -0.00097350  0.25411453  1
  Fe  Fe60  1  0.62271448  0.11986568  0.12460528  1
  Fe  Fe61  1  -0.00124963  0.49933538  -0.00358096  1
  Fe  Fe62  1  0.49531536  0.75249484  0.74914068  1
  Fe  Fe63  1  0.24817265  0.00189004  0.50361058  1
  Fe  Fe64  1  0.62516217  0.62381426  0.87225564  1
  Fe  Fe65  1  0.37256858  0.37140430  0.87215822  1
  Fe  Fe66  1  0.62375415  0.62313342  0.37398864  1
  Fe  Fe67  1  0.37147877  0.62923093  0.87410512  1
  Fe  Fe68  1  0.87539624  0.62478157  0.37464832  1
  Fe  Fe69  1  -0.00273215  0.49797305  0.75429490  1
  Fe  Fe70  1  0.75034053  0.24789287  0.00170640  1
  Fe  Fe71  1  0.00185059  0.75172743  0.50157301  1
  Fe  Fe72  1  0.25224001  0.00278001  0.00247976  1
  Fe  Fe73  1  0.75327099  0.50140922  -0.00406413  1
  Fe  Fe74  1  0.00230591  0.74913194  0.25085611  1
  Fe  Fe75  1  0.00155783  0.75287424  0.74840196  1
  Fe  Fe76  1  0.00189648  0.49581585  0.49319732  1
  Fe  Fe77  1  0.37519514  0.37444773  0.12386203  1
  Fe  Fe78  1  0.49901525  0.75006930  0.50305382  1
  Fe  Fe79  1  0.62706820  0.37611935  0.87376313  1
  Fe  Fe80  1  0.62508012  0.12281834  0.37371267  1
  Fe  Fe81  1  0.74917723  0.24803943  0.24846143  1
  Fe  Fe82  1  0.75053436  0.25166525  0.50121083  1
  Fe  Fe83  1  0.12615955  0.87754707  0.12608758  1
  Fe  Fe84  1  0.00352495  0.00155521  -0.00414074  1
  Fe  Fe85  1  0.62394508  0.62121523  0.62815656  1
  Fe  Fe86  1  0.24572610  0.24929691  0.74354427  1
  Fe  Fe87  1  0.50175145  0.24988103  0.74966712  1
  Fe  Fe88  1  0.62335756  0.88078985  0.12333815  1
  Fe  Fe89  1  0.87593239  0.37628522  0.62349660  1
  Co  Co90  1  0.50231189  0.75001489  -0.00203747  1
  Co  Co91  1  0.25174457  0.75011607  0.74326352  1
  Co  Co92  1  0.37021017  0.87533134  0.87400881  1
  Co  Co93  1  0.24926477  0.49822020  0.75212625  1
  Co  Co94  1  0.37452903  0.62057520  0.62593617  1
  Co  Co95  1  0.12394078  0.87742001  0.62575758  1
  Co  Co96  1  0.49523072  -0.00089836  0.24991749  1
  Co  Co97  1  0.49325386  0.00168551  -0.00110207  1
  Co  Co98  1  0.87144139  0.37405754  0.37325140  1
  Co  Co99  1  0.37645703  0.37425054  0.62739635  1
  Co  Co100  1  0.75574119  0.50017136  0.75287134  1
  Co  Co101  1  0.75289830  0.00149747  -0.00312660  1
  Co  Co102  1  0.74932850  0.50108088  0.50016563  1
  Co  Co103  1  0.24950283  0.00318975  0.74425436  1
  Co  Co104  1  0.49605233  0.49970083  0.75361626  1
  Co  Co105  1  0.37744156  0.12918344  0.12606079  1
  Co  Co106  1  0.00137185  0.25434963  0.49857329  1
  Co  Co107  1  0.24722670  0.24851238  0.50805026  1
  Co  Co108  1  0.87349398  0.87420542  0.62423218  1
  Co  Co109  1  0.49586905  0.49912220  0.25080636  1
  Co  Co110  1  0.13088816  0.37032057  0.37393182  1
  Co  Co111  1  0.00311335  0.24821798  0.00387631  1
  Co  Co112  1  0.00265038  0.49973931  0.25484566  1
  Co  Co113  1  0.12513381  0.12587309  0.87161666  1
  Co  Co114  1  0.12739144  0.62724790  0.37835896  1
  Co  Co115  1  0.37499533  0.87020746  0.12234459  1
  Co  Co116  1  0.87626111  0.63107819  0.87596224  1
  Co  Co117  1  0.50022405  -0.00027007  0.75024787  1
  Co  Co118  1  0.12218125  0.37898212  0.62654198  1
  Co  Co119  1  0.87832489  0.12493897  0.62332238  1
  Co  Co120  1  0.24579758  0.75033032  0.00075546  1
  Co  Co121  1  -0.00029121  0.25234544  0.74692954  1
  Co  Co122  1  -0.00153545  -0.00340140  0.49826428  1
  Co  Co123  1  0.37565625  0.87974575  0.62519975  1
  Co  Co124  1  0.75333590  -0.00000522  0.25147073  1
  Co  Co125  1  0.87565298  0.36867936  0.87804953  1
  Co  Co126  1  -0.00355795  -0.00328905  0.75256057  1
  Co  Co127  1  0.12322862  0.12232406  0.12783776  1
