# generated using pymatgen
data_Fe45Co19
_symmetry_space_group_name_H-M   'P 1'
_cell_length_a   11.41532480
_cell_length_b   11.41437591
_cell_length_c   11.41395871
_cell_angle_alpha   90.00268299
_cell_angle_beta   90.00641969
_cell_angle_gamma   89.98824067
_symmetry_Int_Tables_number   1
_chemical_formula_structural   Fe45Co19
_chemical_formula_sum   'Fe90 Co38'
_cell_volume   1487.22517773
_cell_formula_units_Z   2
loop_
 _symmetry_equiv_pos_site_id
 _symmetry_equiv_pos_as_xyz
  1  'x, y, z'
loop_
 _atom_site_type_symbol
 _atom_site_label
 _atom_site_symmetry_multiplicity
 _atom_site_fract_x
 _atom_site_fract_y
 _atom_site_fract_z
 _atom_site_occupancy
  Fe  Fe0  1  0.12505878  0.37299037  0.87818179  1
  Fe  Fe1  1  0.37458437  0.87348044  0.37582723  1
  Fe  Fe2  1  0.87568015  0.37670983  0.37590595  1
  Fe  Fe3  1  0.87509096  0.87528289  0.37792432  1
  Fe  Fe4  1  0.24934198  0.50217620  -0.00011020  1
  Fe  Fe5  1  0.49768303  0.00348290  -0.00478338  1
  Fe  Fe6  1  -0.00123073  0.25003094  0.75172697  1
  Fe  Fe7  1  0.62652454  0.37401000  0.37632255  1
  Fe  Fe8  1  0.75151528  0.24711124  0.24941145  1
  Fe  Fe9  1  0.00035666  0.75281164  -0.00095187  1
  Fe  Fe10  1  0.62613755  0.37479253  0.12425818  1
  Fe  Fe11  1  0.24876285  0.00076732  0.50215141  1
  Fe  Fe12  1  0.25063173  0.50078736  0.24934062  1
  Fe  Fe13  1  0.49885495  0.25181308  0.74871831  1
  Fe  Fe14  1  0.75137031  0.50084895  -0.00258182  1
  Fe  Fe15  1  0.87437303  0.62973128  0.62233132  1
  Fe  Fe16  1  0.62392769  0.87296983  0.87117523  1
  Fe  Fe17  1  0.62754606  0.62742138  0.62715263  1
  Fe  Fe18  1  0.50055076  0.49859949  -0.00057525  1
  Fe  Fe19  1  0.49969377  0.75034786  -0.00158342  1
  Fe  Fe20  1  0.37707185  0.62652083  0.12535218  1
  Fe  Fe21  1  0.00110711  -0.00108070  0.50086615  1
  Fe  Fe22  1  0.49856492  0.49917860  0.25053809  1
  Fe  Fe23  1  0.37469643  0.37190389  0.87733086  1
  Fe  Fe24  1  0.62446056  0.12652470  0.87208421  1
  Fe  Fe25  1  0.12610825  0.12470256  0.62923852  1
  Fe  Fe26  1  -0.00000321  0.75422072  0.24887732  1
  Fe  Fe27  1  0.12750487  0.87930604  0.12010976  1
  Fe  Fe28  1  0.75075939  0.00030980  0.50253659  1
  Fe  Fe29  1  0.75207501  0.24888627  0.50161797  1
  Fe  Fe30  1  0.12290241  0.87363365  0.62682415  1
  Fe  Fe31  1  0.25035791  0.74931798  0.24848444  1
  Fe  Fe32  1  0.75250124  0.00132443  0.74983661  1
  Fe  Fe33  1  0.87672433  0.12231077  0.37440482  1
  Fe  Fe34  1  0.24718788  0.50344096  0.49976969  1
  Fe  Fe35  1  0.37449500  0.12429312  0.37491002  1
  Fe  Fe36  1  0.74978655  0.74896923  -0.00427026  1
  Fe  Fe37  1  0.62364982  0.87610769  0.37520778  1
  Fe  Fe38  1  0.24880544  0.24797342  0.24831944  1
  Fe  Fe39  1  -0.00035977  0.49942742  0.74971362  1
  Fe  Fe40  1  -0.00067194  0.25226954  0.24647496  1
  Fe  Fe41  1  0.49857582  0.49986274  0.75014847  1
  Fe  Fe42  1  0.12485034  0.37639519  0.37382363  1
  Fe  Fe43  1  0.62723185  0.87266938  0.62884228  1
  Fe  Fe44  1  0.50049250  0.74941781  0.50112038  1
  Fe  Fe45  1  0.00179476  0.24879585  0.50079964  1
  Fe  Fe46  1  0.87367123  0.88086497  0.11959845  1
  Fe  Fe47  1  -0.00053357  0.24896358  0.00068551  1
  Fe  Fe48  1  0.12276762  0.62396414  0.12635285  1
  Fe  Fe49  1  0.87631644  0.11824566  0.12243085  1
  Fe  Fe50  1  0.12632545  0.87470027  0.37506159  1
  Fe  Fe51  1  -0.00090035  0.49592073  0.00239316  1
  Fe  Fe52  1  0.62438816  0.62665785  0.37359882  1
  Fe  Fe53  1  0.37088174  0.12534276  0.63015361  1
  Fe  Fe54  1  0.75035994  0.24890491  0.00002089  1
  Fe  Fe55  1  0.25068613  0.24205155  0.00127594  1
  Fe  Fe56  1  0.62446431  0.12374559  0.37656085  1
  Fe  Fe57  1  0.49842371  0.24876308  0.50327305  1
  Fe  Fe58  1  0.37436179  0.37222888  0.12308186  1
  Fe  Fe59  1  -0.00375842  0.75279026  0.75265236  1
  Fe  Fe60  1  0.24996265  0.49710747  0.75157485  1
  Fe  Fe61  1  0.75343554  0.24830927  0.74884065  1
  Fe  Fe62  1  0.37572522  0.87519479  0.62767581  1
  Fe  Fe63  1  0.37325720  0.37444941  0.37826227  1
  Fe  Fe64  1  0.62398708  0.62518896  0.12498788  1
  Fe  Fe65  1  0.37586943  0.62668326  0.87553553  1
  Fe  Fe66  1  0.37298962  0.62451765  0.62550071  1
  Fe  Fe67  1  0.24679554  0.74775994  0.50047728  1
  Fe  Fe68  1  0.62668324  0.37517982  0.87440988  1
  Fe  Fe69  1  0.74999600  0.75309648  0.24971123  1
  Fe  Fe70  1  0.49951146  -0.00202144  0.24973870  1
  Fe  Fe71  1  0.12622601  0.37470337  0.62416776  1
  Fe  Fe72  1  0.62680736  0.37568114  0.62522674  1
  Fe  Fe73  1  0.37286155  0.87620692  0.12059286  1
  Fe  Fe74  1  0.49946922  0.00127957  0.50448799  1
  Fe  Fe75  1  0.75206723  0.50063554  0.25056973  1
  Fe  Fe76  1  0.12285731  0.62603555  0.87437670  1
  Fe  Fe77  1  0.25010505  0.00115632  0.24781495  1
  Fe  Fe78  1  0.12397052  0.12369688  0.37267316  1
  Fe  Fe79  1  0.25137161  0.75209140  0.75286569  1
  Fe  Fe80  1  0.87526068  0.37558387  0.62439256  1
  Fe  Fe81  1  0.75299682  0.50377212  0.75228524  1
  Fe  Fe82  1  0.62332277  0.12374474  0.12529712  1
  Fe  Fe83  1  0.87585123  0.62499087  0.12402513  1
  Fe  Fe84  1  0.00263903  0.50446744  0.50088072  1
  Fe  Fe85  1  -0.00079155  -0.00169048  0.75481941  1
  Fe  Fe86  1  0.87706647  0.62648466  0.37569363  1
  Fe  Fe87  1  0.50066447  0.50131208  0.50060349  1
  Fe  Fe88  1  0.62497749  0.87582915  0.12404866  1
  Fe  Fe89  1  0.50017092  0.25102144  0.24986761  1
  Co  Co90  1  0.24922923  0.74612830  -0.00019846  1
  Co  Co91  1  0.87460936  0.87353153  0.62471232  1
  Co  Co92  1  0.12817355  0.87187099  0.87786050  1
  Co  Co93  1  0.87132908  0.37460055  0.12376066  1
  Co  Co94  1  -0.00027669  -0.00480632  0.25080993  1
  Co  Co95  1  -0.00151061  0.49697119  0.24746149  1
  Co  Co96  1  0.37456718  0.87513393  0.87719152  1
  Co  Co97  1  0.62629518  0.12588067  0.62515539  1
  Co  Co98  1  0.87825056  0.12366262  0.62497950  1
  Co  Co99  1  0.25056803  0.00706343  -0.00250224  1
  Co  Co100  1  0.74779460  0.75226208  0.49818808  1
  Co  Co101  1  0.00400646  0.74920939  0.49952992  1
  Co  Co102  1  0.37521662  0.62727039  0.37535326  1
  Co  Co103  1  0.24794762  0.24744692  0.50052667  1
  Co  Co104  1  0.87458609  0.37442327  0.87466023  1
  Co  Co105  1  0.37372741  0.37624035  0.62182959  1
  Co  Co106  1  0.74419197  0.00045765  -0.00333451  1
  Co  Co107  1  0.50051036  0.24780711  -0.00201866  1
  Co  Co108  1  0.12698740  0.12766468  0.87037701  1
  Co  Co109  1  0.88020444  0.62371851  0.87822296  1
  Co  Co110  1  0.87391715  0.12393830  0.87756078  1
  Co  Co111  1  0.74994683  0.50063073  0.49990578  1
  Co  Co112  1  0.75428129  0.74706068  0.75553699  1
  Co  Co113  1  0.12861994  0.37414475  0.12318672  1
  Co  Co114  1  0.62244346  0.62487608  0.87515419  1
  Co  Co115  1  0.49783988  0.74822014  0.74994902  1
  Co  Co116  1  0.12329315  0.62521038  0.36976785  1
  Co  Co117  1  0.12598662  0.62760637  0.63120791  1
  Co  Co118  1  0.74937947  -0.00064058  0.25075863  1
  Co  Co119  1  0.50076507  0.00056171  0.74985421  1
  Co  Co120  1  0.00548575  0.00098242  -0.00680745  1
  Co  Co121  1  0.24780426  -0.00492386  0.75276108  1
  Co  Co122  1  0.24944509  0.25585502  0.74949666  1
  Co  Co123  1  0.37841745  0.12401230  0.12698994  1
  Co  Co124  1  0.87240939  0.87857448  0.87777479  1
  Co  Co125  1  0.37294714  0.12503388  0.86728114  1
  Co  Co126  1  0.49980682  0.75235613  0.24879778  1
  Co  Co127  1  0.12011901  0.12150402  0.12691182  1
