# generated using pymatgen
data_Fe45Co19
_symmetry_space_group_name_H-M   'P 1'
_cell_length_a   11.41340405
_cell_length_b   11.41682654
_cell_length_c   11.41505569
_cell_angle_alpha   90.01059834
_cell_angle_beta   90.01339194
_cell_angle_gamma   90.00635527
_symmetry_Int_Tables_number   1
_chemical_formula_structural   Fe45Co19
_chemical_formula_sum   'Fe90 Co38'
_cell_volume   1487.43709267
_cell_formula_units_Z   2
loop_
 _symmetry_equiv_pos_site_id
 _symmetry_equiv_pos_as_xyz
  1  'x, y, z'
loop_
 _atom_site_type_symbol
 _atom_site_label
 _atom_site_symmetry_multiplicity
 _atom_site_fract_x
 _atom_site_fract_y
 _atom_site_fract_z
 _atom_site_occupancy
  Fe  Fe0  1  -0.00008080  0.49887013  0.50024413  1
  Fe  Fe1  1  0.62318130  0.12352570  0.62652229  1
  Fe  Fe2  1  -0.00072522  0.50000806  0.24833016  1
  Fe  Fe3  1  0.12585158  0.37606478  0.37361595  1
  Fe  Fe4  1  0.37278043  0.37586265  0.12426552  1
  Fe  Fe5  1  0.25185778  0.00116051  0.75000299  1
  Fe  Fe6  1  0.24840945  0.74986299  0.49981997  1
  Fe  Fe7  1  0.61733271  0.12445742  0.87572496  1
  Fe  Fe8  1  0.00430203  0.75187321  -0.00353246  1
  Fe  Fe9  1  0.74879141  0.00164151  0.25092868  1
  Fe  Fe10  1  -0.00108818  0.49901574  0.75017335  1
  Fe  Fe11  1  0.87792018  0.12246900  0.87761741  1
  Fe  Fe12  1  0.74952829  0.74963009  0.75168589  1
  Fe  Fe13  1  0.87484351  0.87543411  0.62652332  1
  Fe  Fe14  1  0.37896636  0.62641042  0.37662698  1
  Fe  Fe15  1  -0.00357177  0.25050377  0.24513035  1
  Fe  Fe16  1  0.87428804  0.62632632  0.62479685  1
  Fe  Fe17  1  0.74962384  0.50024700  0.75160694  1
  Fe  Fe18  1  0.87439802  0.87443868  0.37652338  1
  Fe  Fe19  1  0.49821977  0.75143378  0.00076789  1
  Fe  Fe20  1  0.87220563  0.37406491  0.62494158  1
  Fe  Fe21  1  0.62497515  0.87447764  0.12520797  1
  Fe  Fe22  1  0.62277967  0.37217533  0.87575661  1
  Fe  Fe23  1  0.62290249  0.12383754  0.12340111  1
  Fe  Fe24  1  0.62571208  0.62700187  0.12412085  1
  Fe  Fe25  1  0.87523721  0.62652398  0.37678434  1
  Fe  Fe26  1  0.49952894  -0.00271302  0.50052509  1
  Fe  Fe27  1  0.87692225  0.87902000  0.87346119  1
  Fe  Fe28  1  0.50143064  0.49808398  0.00148507  1
  Fe  Fe29  1  0.24956098  -0.00132779  0.49963816  1
  Fe  Fe30  1  0.37588572  0.12600427  0.62525563  1
  Fe  Fe31  1  0.12389992  0.87189131  0.62850300  1
  Fe  Fe32  1  0.25463726  0.00111521  0.00024570  1
  Fe  Fe33  1  0.62578812  0.37559675  0.62596676  1
  Fe  Fe34  1  0.74962378  0.75093560  -0.00281022  1
  Fe  Fe35  1  0.00290932  0.49942706  -0.00063953  1
  Fe  Fe36  1  0.50064309  0.50088141  0.24981850  1
  Fe  Fe37  1  0.25080361  0.25074957  0.49813515  1
  Fe  Fe38  1  0.62170625  0.87699162  0.87434814  1
  Fe  Fe39  1  0.37380738  0.62539731  0.12348480  1
  Fe  Fe40  1  0.74803553  0.00034995  0.49946725  1
  Fe  Fe41  1  0.12334325  0.12369544  0.87708735  1
  Fe  Fe42  1  0.62528994  0.87568937  0.62869001  1
  Fe  Fe43  1  0.12943581  0.87346888  0.12338584  1
  Fe  Fe44  1  0.37505821  0.87211215  0.62611540  1
  Fe  Fe45  1  0.87010476  0.37543676  0.37116482  1
  Fe  Fe46  1  0.12701609  0.37576877  0.12421287  1
  Fe  Fe47  1  0.25374390  0.24910821  -0.00249616  1
  Fe  Fe48  1  0.49842395  -0.00146247  0.24701551  1
  Fe  Fe49  1  0.74955246  0.50055907  -0.00004587  1
  Fe  Fe50  1  0.87637931  0.62632790  0.12227461  1
  Fe  Fe51  1  0.87377098  0.87509534  0.12384128  1
  Fe  Fe52  1  0.49889246  0.49799682  0.74966033  1
  Fe  Fe53  1  0.75186550  0.24826685  0.00227392  1
  Fe  Fe54  1  0.87583813  0.12398873  0.37528269  1
  Fe  Fe55  1  0.25076206  0.50102615  0.50005297  1
  Fe  Fe56  1  0.12285426  0.62675144  0.62756500  1
  Fe  Fe57  1  -0.00061332  0.25215522  0.50008486  1
  Fe  Fe58  1  0.25301235  0.50117450  0.75198977  1
  Fe  Fe59  1  0.12606696  0.12699200  0.62394724  1
  Fe  Fe60  1  0.00151477  -0.00130920  0.50181013  1
  Fe  Fe61  1  0.74981754  0.24612633  0.75109270  1
  Fe  Fe62  1  0.74486396  0.74942858  0.49966287  1
  Fe  Fe63  1  0.12372517  0.12459459  0.37484813  1
  Fe  Fe64  1  0.37363538  0.87304504  0.87513462  1
  Fe  Fe65  1  0.74548976  0.50225348  0.49807171  1
  Fe  Fe66  1  0.37671993  0.12431260  0.37487114  1
  Fe  Fe67  1  0.87590773  0.37391698  0.87685455  1
  Fe  Fe68  1  0.12768917  0.37482946  0.62709840  1
  Fe  Fe69  1  -0.00065145  0.24841760  0.74996208  1
  Fe  Fe70  1  0.74821396  -0.00009556  -0.00149103  1
  Fe  Fe71  1  0.12450645  0.62469186  0.37460659  1
  Fe  Fe72  1  0.25088885  0.00067415  0.25002223  1
  Fe  Fe73  1  0.50056665  0.25262697  0.50077611  1
  Fe  Fe74  1  0.37974358  0.62661723  0.62457321  1
  Fe  Fe75  1  0.00105467  -0.00199732  0.24831976  1
  Fe  Fe76  1  0.24796185  0.50313423  -0.00307991  1
  Fe  Fe77  1  0.37596094  0.37677714  0.37630632  1
  Fe  Fe78  1  0.62243280  0.62545006  0.87426966  1
  Fe  Fe79  1  0.74788848  0.74815671  0.25113132  1
  Fe  Fe80  1  0.87602722  0.62428101  0.87572913  1
  Fe  Fe81  1  0.74786074  0.24836014  0.49750459  1
  Fe  Fe82  1  0.12561263  0.12524460  0.12324335  1
  Fe  Fe83  1  0.63029324  0.37470876  0.12834179  1
  Fe  Fe84  1  0.50092483  0.25024915  0.24929284  1
  Fe  Fe85  1  0.00157285  0.75141205  0.25122521  1
  Fe  Fe86  1  0.25429920  0.25021481  0.75331344  1
  Fe  Fe87  1  0.25016706  0.74767483  0.25009920  1
  Fe  Fe88  1  0.37629624  0.87289060  0.37359176  1
  Fe  Fe89  1  0.25092808  0.25004936  0.25108886  1
  Co  Co90  1  0.62015258  0.62621678  0.37493717  1
  Co  Co91  1  0.25176599  0.50127042  0.25147948  1
  Co  Co92  1  0.87413209  0.12527907  0.62278562  1
  Co  Co93  1  0.62285053  0.87553979  0.37212486  1
  Co  Co94  1  0.12543685  0.37412303  0.87416350  1
  Co  Co95  1  0.50014123  0.74923614  0.24697237  1
  Co  Co96  1  0.12688975  0.87547272  0.37478195  1
  Co  Co97  1  0.87119891  0.37894907  0.12497987  1
  Co  Co98  1  0.74942778  0.50711254  0.25005127  1
  Co  Co99  1  0.37882019  0.62454386  0.87648002  1
  Co  Co100  1  -0.00142722  0.25142547  0.00302332  1
  Co  Co101  1  0.62169348  0.12370339  0.37557214  1
  Co  Co102  1  0.00133297  0.00213423  0.74711168  1
  Co  Co103  1  0.87528376  0.11957591  0.12234554  1
  Co  Co104  1  0.37696530  0.37665643  0.87711775  1
  Co  Co105  1  0.37165932  0.87173105  0.12572006  1
  Co  Co106  1  0.49759174  -0.00128609  0.74894701  1
  Co  Co107  1  0.12424025  0.62582401  0.87048281  1
  Co  Co108  1  0.49580983  -0.00281113  0.00325372  1
  Co  Co109  1  0.37526519  0.12708381  0.12629355  1
  Co  Co110  1  0.50213776  0.49789346  0.50059590  1
  Co  Co111  1  0.25247563  0.74760616  0.75088401  1
  Co  Co112  1  0.00256075  -0.00382889  0.00161155  1
  Co  Co113  1  0.24855533  0.74625697  -0.00196440  1
  Co  Co114  1  0.12872453  0.87707135  0.87288227  1
  Co  Co115  1  0.74937984  0.00292335  0.75178067  1
  Co  Co116  1  0.50044029  0.75131071  0.75121363  1
  Co  Co117  1  0.00143069  0.75047653  0.49968658  1
  Co  Co118  1  -0.00292094  0.75064150  0.75279397  1
  Co  Co119  1  0.75119814  0.24399048  0.24832089  1
  Co  Co120  1  0.50413121  0.75271628  0.50170802  1
  Co  Co121  1  0.49900482  0.25220595  0.00388686  1
  Co  Co122  1  0.12468905  0.62533319  0.12673085  1
  Co  Co123  1  0.49800744  0.25273582  0.74773564  1
  Co  Co124  1  0.37260349  0.37535647  0.62424045  1
  Co  Co125  1  0.62326739  0.62428199  0.62839881  1
  Co  Co126  1  0.38160552  0.12518473  0.87477371  1
  Co  Co127  1  0.62694546  0.37545569  0.37125197  1
