# generated using pymatgen
data_Fe45Co19
_symmetry_space_group_name_H-M   'P 1'
_cell_length_a   11.41406430
_cell_length_b   11.41421438
_cell_length_c   11.41415108
_cell_angle_alpha   89.99749091
_cell_angle_beta   90.00242851
_cell_angle_gamma   89.99402665
_symmetry_Int_Tables_number   1
_chemical_formula_structural   Fe45Co19
_chemical_formula_sum   'Fe90 Co38'
_cell_volume   1487.06500580
_cell_formula_units_Z   2
loop_
 _symmetry_equiv_pos_site_id
 _symmetry_equiv_pos_as_xyz
  1  'x, y, z'
loop_
 _atom_site_type_symbol
 _atom_site_label
 _atom_site_symmetry_multiplicity
 _atom_site_fract_x
 _atom_site_fract_y
 _atom_site_fract_z
 _atom_site_occupancy
  Fe  Fe0  1  0.37372050  0.62374444  0.87478967  1
  Fe  Fe1  1  0.37464670  0.37141302  0.62544994  1
  Fe  Fe2  1  0.12543562  0.62591555  0.37277133  1
  Fe  Fe3  1  0.25021814  0.49750945  0.75112994  1
  Fe  Fe4  1  0.00026419  0.25064783  0.75556692  1
  Fe  Fe5  1  0.75174918  0.75202049  0.00035114  1
  Fe  Fe6  1  0.50051794  0.49955792  0.74930323  1
  Fe  Fe7  1  0.62499051  0.87647032  0.87450138  1
  Fe  Fe8  1  0.75011217  0.00044917  0.00235710  1
  Fe  Fe9  1  0.12325709  0.87588482  0.12378330  1
  Fe  Fe10  1  0.37366392  0.37136661  0.12435208  1
  Fe  Fe11  1  0.62609535  0.62545495  0.87572284  1
  Fe  Fe12  1  0.00101211  0.50118762  0.24797801  1
  Fe  Fe13  1  0.49776253  0.24702473  0.75098591  1
  Fe  Fe14  1  0.12569157  0.62364730  0.87851238  1
  Fe  Fe15  1  0.74962987  0.75243005  0.25091080  1
  Fe  Fe16  1  -0.00105870  0.24460527  0.25207808  1
  Fe  Fe17  1  0.75535872  0.24734530  -0.00185201  1
  Fe  Fe18  1  0.87661416  0.37273979  0.12399307  1
  Fe  Fe19  1  0.49900793  0.49888115  0.00141737  1
  Fe  Fe20  1  0.37359765  0.37559390  0.37473176  1
  Fe  Fe21  1  0.75037423  0.49957256  0.00154875  1
  Fe  Fe22  1  0.75199105  0.25029486  0.75181106  1
  Fe  Fe23  1  0.12701307  0.87704668  0.37443383  1
  Fe  Fe24  1  0.24911883  0.49999347  0.49965747  1
  Fe  Fe25  1  0.12359735  0.37304834  0.62432700  1
  Fe  Fe26  1  0.87395162  0.62547566  0.62546717  1
  Fe  Fe27  1  0.75088723  0.49800371  0.25030482  1
  Fe  Fe28  1  0.87680107  0.37415162  0.62418859  1
  Fe  Fe29  1  -0.00129582  0.74969891  0.49611393  1
  Fe  Fe30  1  0.12672679  0.37523721  0.88133999  1
  Fe  Fe31  1  0.50054881  0.25187538  0.25206478  1
  Fe  Fe32  1  0.49975978  0.49988076  0.50064292  1
  Fe  Fe33  1  0.87598951  0.87728964  0.87419697  1
  Fe  Fe34  1  0.62218406  0.87391926  0.12589855  1
  Fe  Fe35  1  0.37388545  0.62584933  0.62605045  1
  Fe  Fe36  1  0.62543030  0.62502106  0.37457919  1
  Fe  Fe37  1  0.25075579  0.75000015  0.00112186  1
  Fe  Fe38  1  0.00568875  -0.00318004  0.75100711  1
  Fe  Fe39  1  0.12727985  0.12216742  0.87972753  1
  Fe  Fe40  1  0.87504656  0.88042065  0.37099655  1
  Fe  Fe41  1  0.12246011  0.37275572  0.37516009  1
  Fe  Fe42  1  -0.00244082  0.50152628  0.49760984  1
  Fe  Fe43  1  0.87747404  0.87969770  0.12860146  1
  Fe  Fe44  1  0.62687763  0.37527069  0.37631636  1
  Fe  Fe45  1  0.62417879  0.37236344  0.62315481  1
  Fe  Fe46  1  0.49813130  0.24909974  -0.00207704  1
  Fe  Fe47  1  0.62379329  0.12702667  0.12442353  1
  Fe  Fe48  1  0.24742897  0.49798431  0.24714292  1
  Fe  Fe49  1  0.62505146  0.12364586  0.37462285  1
  Fe  Fe50  1  0.24925448  0.00481060  0.24258860  1
  Fe  Fe51  1  0.74786365  0.50007637  0.74830373  1
  Fe  Fe52  1  0.00277600  0.75138960  0.75155543  1
  Fe  Fe53  1  0.62330760  0.12631304  0.62380548  1
  Fe  Fe54  1  0.12405662  0.36866189  0.12035630  1
  Fe  Fe55  1  0.75321619  0.24963042  0.49834301  1
  Fe  Fe56  1  0.75159809  0.75217692  0.49795781  1
  Fe  Fe57  1  0.25005863  0.00153401  0.50282439  1
  Fe  Fe58  1  0.25202563  0.74986956  0.49798642  1
  Fe  Fe59  1  0.50127791  0.49847560  0.24828448  1
  Fe  Fe60  1  0.37520946  0.62651947  0.12727509  1
  Fe  Fe61  1  0.62596708  0.12320999  0.87535838  1
  Fe  Fe62  1  0.25191608  0.75136125  0.25030136  1
  Fe  Fe63  1  0.25083567  0.24985277  0.49981004  1
  Fe  Fe64  1  0.62401944  0.62683220  0.12597561  1
  Fe  Fe65  1  0.12608348  0.12740399  0.62662516  1
  Fe  Fe66  1  0.87590319  0.62595490  0.12749053  1
  Fe  Fe67  1  0.00126651  0.49954602  0.75177511  1
  Fe  Fe68  1  0.62593986  0.62935818  0.62328280  1
  Fe  Fe69  1  0.87469537  0.62347167  0.87495453  1
  Fe  Fe70  1  0.74884892  -0.00066042  0.50125518  1
  Fe  Fe71  1  -0.00099595  0.74932611  0.00147532  1
  Fe  Fe72  1  0.49974522  -0.00239930  0.24754803  1
  Fe  Fe73  1  0.37233415  0.11973285  0.87353243  1
  Fe  Fe74  1  0.87723263  0.87476235  0.62595725  1
  Fe  Fe75  1  0.49628858  0.75239715  0.49450236  1
  Fe  Fe76  1  0.49947665  0.75111415  -0.00058656  1
  Fe  Fe77  1  0.87753107  0.12472120  0.62746675  1
  Fe  Fe78  1  0.74679554  -0.00258632  0.74679775  1
  Fe  Fe79  1  0.24659800  0.75429483  0.75068364  1
  Fe  Fe80  1  0.75196272  0.24783253  0.25045089  1
  Fe  Fe81  1  0.37432219  0.87793549  0.62645806  1
  Fe  Fe82  1  0.37295462  0.88015719  0.87684378  1
  Fe  Fe83  1  0.12523953  0.62610887  0.62445989  1
  Fe  Fe84  1  0.49976670  0.00007341  0.50124280  1
  Fe  Fe85  1  0.12652428  0.12573502  0.37556204  1
  Fe  Fe86  1  0.00099668  0.00199935  0.49899272  1
  Fe  Fe87  1  0.37486095  0.12454009  0.37351388  1
  Fe  Fe88  1  0.49996348  0.75271315  0.75160971  1
  Fe  Fe89  1  0.62500548  0.37446531  0.87645006  1
  Co  Co90  1  0.75053499  0.75123279  0.75125664  1
  Co  Co91  1  0.37629997  0.87309230  0.12453177  1
  Co  Co92  1  0.62686687  0.37162650  0.12288406  1
  Co  Co93  1  0.50015810  0.00038554  0.00208279  1
  Co  Co94  1  0.49813679  0.24869116  0.49768091  1
  Co  Co95  1  0.87397401  0.37947116  0.87529049  1
  Co  Co96  1  0.37556243  0.37582133  0.87560716  1
  Co  Co97  1  0.25217803  0.00284845  0.00804609  1
  Co  Co98  1  0.62543193  0.87663228  0.37405169  1
  Co  Co99  1  0.87372403  0.62496599  0.37151821  1
  Co  Co100  1  0.75133939  0.49875725  0.49988941  1
  Co  Co101  1  0.12615929  0.87672689  0.88256725  1
  Co  Co102  1  0.62271337  0.87149090  0.62390411  1
  Co  Co103  1  0.37968051  0.12877520  0.12664248  1
  Co  Co104  1  0.87653602  0.12217262  0.12680935  1
  Co  Co105  1  0.24458251  -0.00321070  0.74859259  1
  Co  Co106  1  0.37261009  0.12499024  0.62697282  1
  Co  Co107  1  0.00077520  0.75180140  0.25096092  1
  Co  Co108  1  0.49851644  0.75122856  0.25363268  1
  Co  Co109  1  0.37384430  0.62091540  0.37257167  1
  Co  Co110  1  0.00528410  0.00451199  0.25075070  1
  Co  Co111  1  0.87372727  0.11839944  0.87049783  1
  Co  Co112  1  -0.00707873  0.24659218  -0.00557999  1
  Co  Co113  1  -0.00064508  0.24639372  0.49890456  1
  Co  Co114  1  0.25424641  0.24652813  -0.00031220  1
  Co  Co115  1  0.24871575  0.24797450  0.25021606  1
  Co  Co116  1  0.50236065  0.00071879  0.74858278  1
  Co  Co117  1  0.25187765  0.49995721  0.00311076  1
  Co  Co118  1  0.00027288  0.50175857  0.00351101  1
  Co  Co119  1  0.12653465  0.62762956  0.12518547  1
  Co  Co120  1  0.12450750  0.87267430  0.61979229  1
  Co  Co121  1  0.74662913  0.00172182  0.24728430  1
  Co  Co122  1  0.87739927  0.37370090  0.37408696  1
  Co  Co123  1  0.12110944  0.13052782  0.11888652  1
  Co  Co124  1  0.87302727  0.12143675  0.37454776  1
  Co  Co125  1  -0.00197318  0.00208728  0.00055336  1
  Co  Co126  1  0.24900423  0.25071850  0.75293645  1
  Co  Co127  1  0.37167796  0.88051513  0.37321445  1
