# generated using pymatgen
data_Fe45Co19
_symmetry_space_group_name_H-M   'P 1'
_cell_length_a   11.41519533
_cell_length_b   11.41581376
_cell_length_c   11.41625740
_cell_angle_alpha   89.99788264
_cell_angle_beta   90.00095896
_cell_angle_gamma   89.99662366
_symmetry_Int_Tables_number   1
_chemical_formula_structural   Fe45Co19
_chemical_formula_sum   'Fe90 Co38'
_cell_volume   1487.69523894
_cell_formula_units_Z   2
loop_
 _symmetry_equiv_pos_site_id
 _symmetry_equiv_pos_as_xyz
  1  'x, y, z'
loop_
 _atom_site_type_symbol
 _atom_site_label
 _atom_site_symmetry_multiplicity
 _atom_site_fract_x
 _atom_site_fract_y
 _atom_site_fract_z
 _atom_site_occupancy
  Fe  Fe0  1  0.87884397  0.86899153  0.62339183  1
  Fe  Fe1  1  -0.00024329  0.50286512  0.49918225  1
  Fe  Fe2  1  0.12498127  0.12101532  0.87328272  1
  Fe  Fe3  1  0.49902752  0.00017139  0.75125697  1
  Fe  Fe4  1  0.37411196  0.12608557  0.62763977  1
  Fe  Fe5  1  0.74560350  0.49913655  0.24420249  1
  Fe  Fe6  1  0.49976290  0.24961961  0.75873174  1
  Fe  Fe7  1  0.49926042  0.49918648  0.50016357  1
  Fe  Fe8  1  0.49759512  0.49639018  0.24645183  1
  Fe  Fe9  1  0.87580983  0.37563617  0.62479150  1
  Fe  Fe10  1  0.49989403  0.25007830  0.49725711  1
  Fe  Fe11  1  0.62594817  0.87187093  0.62528230  1
  Fe  Fe12  1  0.49964157  0.00168002  0.24789257  1
  Fe  Fe13  1  0.00012560  0.50263223  0.74795263  1
  Fe  Fe14  1  0.49864224  0.50057887  0.74971109  1
  Fe  Fe15  1  0.12809998  0.37734390  0.37394869  1
  Fe  Fe16  1  0.25161400  0.49781766  0.00466381  1
  Fe  Fe17  1  0.12559446  0.87613413  0.37426150  1
  Fe  Fe18  1  0.25029189  0.25003061  0.75329029  1
  Fe  Fe19  1  0.75041591  0.75053306  0.25091047  1
  Fe  Fe20  1  0.50108560  -0.00034674  0.50133524  1
  Fe  Fe21  1  0.12467289  0.62601915  0.12567644  1
  Fe  Fe22  1  0.37500673  0.87367017  0.12505706  1
  Fe  Fe23  1  0.62831104  0.87882630  0.37475373  1
  Fe  Fe24  1  0.24732123  0.00131458  0.50347555  1
  Fe  Fe25  1  0.74999591  0.25190771  0.75236807  1
  Fe  Fe26  1  0.25098158  0.00209375  0.24733477  1
  Fe  Fe27  1  0.87550223  0.37297901  0.12475973  1
  Fe  Fe28  1  0.87196977  0.12074380  0.37382535  1
  Fe  Fe29  1  0.00295823  0.49894600  0.24784794  1
  Fe  Fe30  1  0.12763898  0.37094452  0.12701963  1
  Fe  Fe31  1  0.62513246  0.12651704  0.62780506  1
  Fe  Fe32  1  0.12383795  0.37273178  0.62395092  1
  Fe  Fe33  1  -0.00044831  0.24986563  0.25345786  1
  Fe  Fe34  1  0.12114233  0.63078301  0.62246128  1
  Fe  Fe35  1  0.87537771  0.12208365  0.87538173  1
  Fe  Fe36  1  0.87723417  0.62490917  0.12524157  1
  Fe  Fe37  1  0.75388286  0.74752023  0.49502850  1
  Fe  Fe38  1  0.87770580  0.62076948  0.87920120  1
  Fe  Fe39  1  0.00006860  0.25163856  0.75215862  1
  Fe  Fe40  1  0.74770069  0.25264499  -0.00270729  1
  Fe  Fe41  1  0.37681450  0.62726534  0.12557045  1
  Fe  Fe42  1  0.87974452  0.87650466  0.87881052  1
  Fe  Fe43  1  0.00184216  0.00036124  0.50167949  1
  Fe  Fe44  1  -0.00041368  0.00051495  0.24700062  1
  Fe  Fe45  1  0.75106361  0.74773947  0.00078653  1
  Fe  Fe46  1  0.62553848  0.37507840  0.37316960  1
  Fe  Fe47  1  0.25101340  0.50196585  0.50101968  1
  Fe  Fe48  1  0.62409990  0.13170517  0.12549330  1
  Fe  Fe49  1  0.74990617  0.50182692  0.50194037  1
  Fe  Fe50  1  0.49884947  0.75073535  0.49614320  1
  Fe  Fe51  1  0.62486351  0.37396769  0.62792115  1
  Fe  Fe52  1  0.37186912  0.62267727  0.87542840  1
  Fe  Fe53  1  0.00175567  0.25082944  -0.00241699  1
  Fe  Fe54  1  0.00014850  0.24914349  0.49672693  1
  Fe  Fe55  1  0.62919742  0.12263045  0.37320554  1
  Fe  Fe56  1  0.62317065  0.87207679  0.12379678  1
  Fe  Fe57  1  0.37556847  0.62785438  0.62506840  1
  Fe  Fe58  1  0.24466206  0.75245379  0.75343856  1
  Fe  Fe59  1  0.87833211  0.87342843  0.12349142  1
  Fe  Fe60  1  0.62593734  0.62006588  0.87815271  1
  Fe  Fe61  1  0.24705791  -0.00078549  0.00336222  1
  Fe  Fe62  1  -0.00079932  0.74999087  0.25370533  1
  Fe  Fe63  1  0.24891089  0.50152891  0.74646053  1
  Fe  Fe64  1  0.12535398  0.12917011  0.12647393  1
  Fe  Fe65  1  0.24841971  0.24890476  0.49772761  1
  Fe  Fe66  1  0.37396460  0.87392864  0.62529939  1
  Fe  Fe67  1  0.37283914  0.87813399  0.87556965  1
  Fe  Fe68  1  0.24665321  0.75153948  -0.00081036  1
  Fe  Fe69  1  0.49883846  0.74905451  -0.00334457  1
  Fe  Fe70  1  0.62561000  0.62678065  0.62438460  1
  Fe  Fe71  1  0.12527169  0.37946810  0.87463575  1
  Fe  Fe72  1  0.37577070  0.13373286  0.12049289  1
  Fe  Fe73  1  0.25136268  0.74893134  0.25243023  1
  Fe  Fe74  1  0.87412239  0.12839342  0.12501065  1
  Fe  Fe75  1  0.49986906  0.74965174  0.75266212  1
  Fe  Fe76  1  0.37515140  0.37250832  0.62550949  1
  Fe  Fe77  1  0.37397833  0.12354518  0.37572294  1
  Fe  Fe78  1  0.87416472  0.37861455  0.37383015  1
  Fe  Fe79  1  0.50085962  0.00229720  0.00012770  1
  Fe  Fe80  1  0.25209894  0.74846876  0.49511821  1
  Fe  Fe81  1  0.87320780  0.38014070  0.87648289  1
  Fe  Fe82  1  0.00351366  -0.00289239  0.74614861  1
  Fe  Fe83  1  0.87660254  0.12744793  0.62597528  1
  Fe  Fe84  1  0.75191339  -0.00275392  0.74714580  1
  Fe  Fe85  1  0.49891546  0.75199695  0.25435233  1
  Fe  Fe86  1  0.75016962  -0.00008788  0.00347771  1
  Fe  Fe87  1  0.75319100  0.74727710  0.75298250  1
  Fe  Fe88  1  0.62606188  0.87640934  0.87611507  1
  Fe  Fe89  1  0.75122220  0.24965921  0.49910961  1
  Co  Co90  1  0.37319612  0.37861136  0.87617587  1
  Co  Co91  1  0.50363613  0.25096848  -0.01038284  1
  Co  Co92  1  0.00328634  0.74814610  -0.00085171  1
  Co  Co93  1  0.12421929  0.12278484  0.37327883  1
  Co  Co94  1  0.62755462  0.38305635  0.87484650  1
  Co  Co95  1  0.62414901  0.62340090  0.37320435  1
  Co  Co96  1  0.12534744  0.62007944  0.87802912  1
  Co  Co97  1  0.74837539  0.50022448  0.00812587  1
  Co  Co98  1  0.37736284  0.62106607  0.37381892  1
  Co  Co99  1  0.00251536  0.74876136  0.75631219  1
  Co  Co100  1  0.37043102  0.12131696  0.87733176  1
  Co  Co101  1  0.12177041  0.87944234  0.87917284  1
  Co  Co102  1  0.00159758  0.00331864  0.00550361  1
  Co  Co103  1  0.12621968  0.62240394  0.37271243  1
  Co  Co104  1  0.12295699  0.86739989  0.61936050  1
  Co  Co105  1  0.24669860  -0.00349656  0.74622958  1
  Co  Co106  1  0.12412946  0.87289593  0.12819273  1
  Co  Co107  1  0.00188338  0.49734817  0.00424232  1
  Co  Co108  1  0.24541079  0.25107724  -0.00525529  1
  Co  Co109  1  0.37567033  0.36591192  0.12250380  1
  Co  Co110  1  0.37325935  0.87941061  0.37461913  1
  Co  Co111  1  0.74902813  -0.00110812  0.24242477  1
  Co  Co112  1  0.75041418  0.00028307  0.50626394  1
  Co  Co113  1  0.25325610  0.49949522  0.24521778  1
  Co  Co114  1  0.12437797  0.12985015  0.62706752  1
  Co  Co115  1  0.37114695  0.37754832  0.37574235  1
  Co  Co116  1  0.87812224  0.62797592  0.62456099  1
  Co  Co117  1  0.49777495  0.49889470  0.00410964  1
  Co  Co118  1  0.62087040  0.62900053  0.12546863  1
  Co  Co119  1  -0.00464417  0.74749975  0.49001791  1
  Co  Co120  1  0.75194055  0.25158190  0.25188617  1
  Co  Co121  1  0.49748479  0.24990360  0.25576963  1
  Co  Co122  1  0.62054299  0.36839410  0.12464139  1
  Co  Co123  1  0.87336513  0.88166589  0.37396604  1
  Co  Co124  1  0.62950548  0.12043389  0.87406552  1
  Co  Co125  1  0.87330760  0.61831855  0.36934002  1
  Co  Co126  1  0.25134166  0.24898321  0.25388485  1
  Co  Co127  1  0.75213637  0.50291153  0.74611933  1
