# generated using pymatgen
data_Fe45Co19
_symmetry_space_group_name_H-M   'P 1'
_cell_length_a   11.41440431
_cell_length_b   11.41431619
_cell_length_c   11.41550336
_cell_angle_alpha   90.00647034
_cell_angle_beta   90.00129158
_cell_angle_gamma   89.99802872
_symmetry_Int_Tables_number   1
_chemical_formula_structural   Fe45Co19
_chemical_formula_sum   'Fe90 Co38'
_cell_volume   1487.29875209
_cell_formula_units_Z   2
loop_
 _symmetry_equiv_pos_site_id
 _symmetry_equiv_pos_as_xyz
  1  'x, y, z'
loop_
 _atom_site_type_symbol
 _atom_site_label
 _atom_site_symmetry_multiplicity
 _atom_site_fract_x
 _atom_site_fract_y
 _atom_site_fract_z
 _atom_site_occupancy
  Fe  Fe0  1  0.87528111  0.12344147  0.87709731  1
  Fe  Fe1  1  0.37675217  0.62465807  0.87869929  1
  Fe  Fe2  1  0.62795899  0.11941938  0.62625790  1
  Fe  Fe3  1  0.37255472  0.12235228  0.62383261  1
  Fe  Fe4  1  0.37480931  0.37528326  0.87448496  1
  Fe  Fe5  1  0.87162381  0.87738006  0.62364531  1
  Fe  Fe6  1  0.00057193  0.24784694  0.49656399  1
  Fe  Fe7  1  0.74872745  -0.00180854  0.00317700  1
  Fe  Fe8  1  0.75105702  0.75093109  0.75125398  1
  Fe  Fe9  1  0.87389391  0.62783151  0.87830657  1
  Fe  Fe10  1  0.12583280  0.37548841  0.87321995  1
  Fe  Fe11  1  0.62302166  0.12153260  0.12825417  1
  Fe  Fe12  1  0.49722246  0.50115306  0.25057271  1
  Fe  Fe13  1  0.75010901  0.24800060  0.00180591  1
  Fe  Fe14  1  0.37701783  0.87275909  0.37560086  1
  Fe  Fe15  1  0.12750595  0.12414826  0.87262310  1
  Fe  Fe16  1  0.00205246  0.75251900  0.49956404  1
  Fe  Fe17  1  0.25301071  0.74985285  0.24845895  1
  Fe  Fe18  1  0.62574721  0.37546212  0.62494892  1
  Fe  Fe19  1  0.12821940  0.12212292  0.62436503  1
  Fe  Fe20  1  -0.00018269  0.24814174  0.74936141  1
  Fe  Fe21  1  0.62350187  0.62740762  0.87856766  1
  Fe  Fe22  1  0.87566490  0.87453103  0.87791484  1
  Fe  Fe23  1  0.49797935  -0.00395852  0.74822137  1
  Fe  Fe24  1  0.37307690  0.12250476  0.87521529  1
  Fe  Fe25  1  0.24869501  0.49918480  0.00216769  1
  Fe  Fe26  1  0.87511027  0.37412959  0.62229816  1
  Fe  Fe27  1  0.37474257  0.37483437  0.62309629  1
  Fe  Fe28  1  0.12494518  0.37518701  0.62568560  1
  Fe  Fe29  1  0.12581904  0.62368108  0.37219617  1
  Fe  Fe30  1  0.00104669  -0.00049038  0.50047805  1
  Fe  Fe31  1  0.00014789  0.50127418  0.49803620  1
  Fe  Fe32  1  0.87765506  0.87400909  0.12537085  1
  Fe  Fe33  1  -0.00095475  0.50113790  0.00202502  1
  Fe  Fe34  1  -0.00163031  0.50318807  0.74925200  1
  Fe  Fe35  1  0.12201935  0.37268717  0.12784474  1
  Fe  Fe36  1  0.49879554  0.24852483  0.74854491  1
  Fe  Fe37  1  0.12675253  0.87601398  0.12658634  1
  Fe  Fe38  1  0.25103151  0.50243923  0.74774302  1
  Fe  Fe39  1  0.74976810  0.50161321  0.74948317  1
  Fe  Fe40  1  0.62501762  0.87433800  0.87412332  1
  Fe  Fe41  1  0.12439553  0.62767127  0.87361490  1
  Fe  Fe42  1  0.74976744  0.50102584  0.49830172  1
  Fe  Fe43  1  0.74634012  0.75577684  0.49553265  1
  Fe  Fe44  1  0.24878506  0.24884211  -0.00048265  1
  Fe  Fe45  1  0.50259783  0.24943514  0.49947107  1
  Fe  Fe46  1  0.75092556  0.50063245  0.00274853  1
  Fe  Fe47  1  0.12714244  0.37765786  0.37327380  1
  Fe  Fe48  1  0.50075292  0.24883447  0.00052140  1
  Fe  Fe49  1  0.25213099  0.75136076  0.00260013  1
  Fe  Fe50  1  0.62352934  0.62753968  0.37291196  1
  Fe  Fe51  1  0.87674907  0.62914737  0.37234579  1
  Fe  Fe52  1  0.50022303  0.50207948  0.74928024  1
  Fe  Fe53  1  0.12472168  0.87345236  0.87363525  1
  Fe  Fe54  1  0.62210635  0.62681917  0.12362453  1
  Fe  Fe55  1  0.12481118  0.87704875  0.37408579  1
  Fe  Fe56  1  0.87369863  0.62767011  0.62250742  1
  Fe  Fe57  1  0.61755324  0.87623504  0.13017207  1
  Fe  Fe58  1  0.12479030  0.62395132  0.12814093  1
  Fe  Fe59  1  0.37550268  0.12593336  0.37802284  1
  Fe  Fe60  1  0.50030556  0.50089381  0.49961748  1
  Fe  Fe61  1  0.37559813  0.12164006  0.12230028  1
  Fe  Fe62  1  0.75156507  0.24760252  0.24999981  1
  Fe  Fe63  1  0.50191024  -0.00544667  0.50060079  1
  Fe  Fe64  1  0.74917323  0.24698167  0.49981605  1
  Fe  Fe65  1  0.62484840  0.37449740  0.87403819  1
  Fe  Fe66  1  0.24902265  0.25041028  0.49911342  1
  Fe  Fe67  1  0.25239239  0.24959412  0.25207847  1
  Fe  Fe68  1  0.62429750  0.37469941  0.37342654  1
  Fe  Fe69  1  0.37249138  0.62421952  0.37762510  1
  Fe  Fe70  1  0.00273376  0.00131411  0.00152072  1
  Fe  Fe71  1  0.25263650  0.00062415  0.25121545  1
  Fe  Fe72  1  0.75175602  0.24806463  0.74842056  1
  Fe  Fe73  1  0.62354999  0.37433538  0.12722837  1
  Fe  Fe74  1  0.87833987  0.37136244  0.12624330  1
  Fe  Fe75  1  0.12661624  0.63067214  0.62671313  1
  Fe  Fe76  1  0.00021708  -0.00180128  0.74814422  1
  Fe  Fe77  1  0.75349347  0.50110187  0.24962162  1
  Fe  Fe78  1  0.87511656  0.37492220  0.87504360  1
  Fe  Fe79  1  0.62492547  0.12096558  0.37192159  1
  Fe  Fe80  1  0.62404965  0.62964518  0.62501037  1
  Fe  Fe81  1  0.12333253  0.12721309  0.12786081  1
  Fe  Fe82  1  0.62508172  0.12442044  0.87404281  1
  Fe  Fe83  1  0.00071805  0.74913794  0.00269370  1
  Fe  Fe84  1  0.87383770  0.12142330  0.37480432  1
  Fe  Fe85  1  0.75041703  0.75359271  0.24934498  1
  Fe  Fe86  1  0.37467227  0.63211738  0.62234574  1
  Fe  Fe87  1  0.37641135  0.37512200  0.12535174  1
  Fe  Fe88  1  0.37336883  0.87746484  0.87909918  1
  Fe  Fe89  1  -0.00140975  0.00079174  0.24971887  1
  Co  Co90  1  -0.00110865  0.24911518  0.25648792  1
  Co  Co91  1  0.87201363  0.37448445  0.37705449  1
  Co  Co92  1  0.75380939  -0.00308483  0.24818460  1
  Co  Co93  1  0.24516458  0.00100259  0.00066138  1
  Co  Co94  1  0.87843258  0.87520546  0.37446971  1
  Co  Co95  1  0.74673399  -0.00368482  0.49545728  1
  Co  Co96  1  0.00209533  0.24886690  -0.00339950  1
  Co  Co97  1  0.50179880  0.49698024  0.00044035  1
  Co  Co98  1  -0.00328172  0.49944203  0.25103119  1
  Co  Co99  1  0.25089207  0.24962655  0.74867644  1
  Co  Co100  1  0.37605155  0.62317726  0.12094066  1
  Co  Co101  1  0.37232685  0.87067831  0.62141693  1
  Co  Co102  1  0.25308329  0.75178315  0.75355678  1
  Co  Co103  1  0.62103093  0.87614101  0.36802509  1
  Co  Co104  1  0.50398149  0.75290436  0.49825500  1
  Co  Co105  1  0.87593412  0.62920859  0.12707717  1
  Co  Co106  1  0.74769285  0.75370525  0.00408354  1
  Co  Co107  1  0.49812822  0.24846727  0.25027049  1
  Co  Co108  1  0.49379417  0.74609264  0.24929216  1
  Co  Co109  1  0.12657615  0.12152695  0.37455254  1
  Co  Co110  1  0.49422613  0.00246247  0.25285780  1
  Co  Co111  1  0.37589566  0.87967981  0.12376153  1
  Co  Co112  1  -0.00339415  0.75207050  0.74831967  1
  Co  Co113  1  0.87804620  0.12559944  0.12445156  1
  Co  Co114  1  0.25068814  -0.00407961  0.74897102  1
  Co  Co115  1  0.25175990  -0.00300726  0.49833590  1
  Co  Co116  1  0.49828663  0.75223949  0.75227811  1
  Co  Co117  1  0.87413843  0.12269120  0.62289712  1
  Co  Co118  1  0.12829802  0.87407257  0.62511060  1
  Co  Co119  1  0.24868864  0.50103489  0.50298890  1
  Co  Co120  1  0.62783772  0.87463340  0.62771040  1
  Co  Co121  1  0.37570864  0.37564436  0.37712181  1
  Co  Co122  1  0.75167724  -0.00043027  0.75329451  1
  Co  Co123  1  0.24641678  0.75183703  0.49559277  1
  Co  Co124  1  0.00298647  0.75170663  0.24997682  1
  Co  Co125  1  0.50304055  -0.00018521  -0.00201936  1
  Co  Co126  1  0.25241691  0.49927961  0.24811961  1
  Co  Co127  1  0.49816872  0.75366391  0.00148278  1
