# generated using pymatgen
data_Fe45Co19
_symmetry_space_group_name_H-M   'P 1'
_cell_length_a   11.41423994
_cell_length_b   11.41381629
_cell_length_c   11.41400241
_cell_angle_alpha   89.99455222
_cell_angle_beta   90.00684756
_cell_angle_gamma   90.00330746
_symmetry_Int_Tables_number   1
_chemical_formula_structural   Fe45Co19
_chemical_formula_sum   'Fe90 Co38'
_cell_volume   1487.01664566
_cell_formula_units_Z   2
loop_
 _symmetry_equiv_pos_site_id
 _symmetry_equiv_pos_as_xyz
  1  'x, y, z'
loop_
 _atom_site_type_symbol
 _atom_site_label
 _atom_site_symmetry_multiplicity
 _atom_site_fract_x
 _atom_site_fract_y
 _atom_site_fract_z
 _atom_site_occupancy
  Fe  Fe0  1  0.12536288  0.12365563  0.12486574  1
  Fe  Fe1  1  -0.00321689  -0.00314952  0.50219676  1
  Fe  Fe2  1  0.50121079  0.24872235  0.50160099  1
  Fe  Fe3  1  0.37501151  0.87486996  0.62596475  1
  Fe  Fe4  1  0.49916870  0.25078781  -0.00099517  1
  Fe  Fe5  1  -0.00165986  0.25343466  0.74580795  1
  Fe  Fe6  1  0.50146026  0.25079561  0.75037235  1
  Fe  Fe7  1  0.49922313  -0.00242092  0.75116021  1
  Fe  Fe8  1  0.62310620  0.62686517  0.87429104  1
  Fe  Fe9  1  0.87197519  0.12246700  0.62794362  1
  Fe  Fe10  1  0.87531891  0.63189928  0.62497545  1
  Fe  Fe11  1  -0.00150922  0.50298363  0.50095774  1
  Fe  Fe12  1  0.62697588  0.87617747  0.37544407  1
  Fe  Fe13  1  0.75163928  0.50464872  0.50008699  1
  Fe  Fe14  1  -0.00183902  -0.00260240  0.25008281  1
  Fe  Fe15  1  0.12202609  0.37405102  0.37713762  1
  Fe  Fe16  1  0.00354057  0.50492396  0.00077450  1
  Fe  Fe17  1  0.24740023  0.25296685  0.75187674  1
  Fe  Fe18  1  0.24683414  0.49910829  0.75103445  1
  Fe  Fe19  1  0.87545416  0.12564723  0.87359222  1
  Fe  Fe20  1  0.24920424  0.24983944  0.25013898  1
  Fe  Fe21  1  0.24797328  -0.00180951  0.75127349  1
  Fe  Fe22  1  0.24887035  0.25001050  0.49960751  1
  Fe  Fe23  1  0.12320455  0.87226043  0.87649679  1
  Fe  Fe24  1  0.12127583  0.87378096  0.12338830  1
  Fe  Fe25  1  0.87780189  0.37856226  0.87511069  1
  Fe  Fe26  1  0.75210373  0.50300487  0.75028129  1
  Fe  Fe27  1  0.62446743  0.62500571  0.37235564  1
  Fe  Fe28  1  0.50218116  0.00082510  0.50195259  1
  Fe  Fe29  1  0.12647949  0.87492567  0.37750214  1
  Fe  Fe30  1  0.12344099  0.12339058  0.37542203  1
  Fe  Fe31  1  0.25148925  0.74991939  0.25186559  1
  Fe  Fe32  1  0.62675762  0.12130423  0.12349301  1
  Fe  Fe33  1  0.00210133  0.50542100  0.74879479  1
  Fe  Fe34  1  0.75189799  0.25108599  0.24737830  1
  Fe  Fe35  1  0.37348985  0.37571871  0.12252846  1
  Fe  Fe36  1  0.37394561  0.37451223  0.62585506  1
  Fe  Fe37  1  0.75091867  0.50020049  0.24962640  1
  Fe  Fe38  1  0.50045932  0.50101723  0.50036922  1
  Fe  Fe39  1  0.24672081  0.75005977  0.74708047  1
  Fe  Fe40  1  0.50295617  0.74884833  0.50253274  1
  Fe  Fe41  1  0.24974957  0.50205975  0.25187968  1
  Fe  Fe42  1  0.37649728  0.37510258  0.37526938  1
  Fe  Fe43  1  0.87467315  0.62572815  0.12526163  1
  Fe  Fe44  1  0.24780228  0.49897470  -0.00208584  1
  Fe  Fe45  1  0.87433414  0.12129669  0.12433079  1
  Fe  Fe46  1  0.74859666  0.74965170  0.00181369  1
  Fe  Fe47  1  0.25026073  -0.00087829  0.50060220  1
  Fe  Fe48  1  0.37765252  0.62630188  0.12445471  1
  Fe  Fe49  1  0.75168873  0.25199480  -0.00122146  1
  Fe  Fe50  1  0.62342959  0.87220365  0.87232165  1
  Fe  Fe51  1  0.62784207  0.37729894  0.62557673  1
  Fe  Fe52  1  0.24939844  0.75021265  0.00134297  1
  Fe  Fe53  1  0.50120165  -0.00049304  0.25026119  1
  Fe  Fe54  1  0.24870004  -0.00111077  -0.00101715  1
  Fe  Fe55  1  0.37375513  0.12548217  0.87465111  1
  Fe  Fe56  1  0.12507397  0.62765420  0.37763607  1
  Fe  Fe57  1  0.62503387  0.37639193  0.12406087  1
  Fe  Fe58  1  0.50000653  0.24960891  0.24890061  1
  Fe  Fe59  1  0.00073456  0.50122453  0.24907102  1
  Fe  Fe60  1  0.62946836  0.12183164  0.62958979  1
  Fe  Fe61  1  0.12209870  0.12608674  0.87498363  1
  Fe  Fe62  1  0.37617893  0.87439279  0.37553182  1
  Fe  Fe63  1  0.75216680  0.25015910  0.50292045  1
  Fe  Fe64  1  0.49831202  -0.00356083  -0.00300006  1
  Fe  Fe65  1  0.37434288  0.12301608  0.37401293  1
  Fe  Fe66  1  0.37303204  0.12318450  0.12421887  1
  Fe  Fe67  1  0.87559907  0.37523161  0.37664173  1
  Fe  Fe68  1  -0.00033340  0.74933563  0.25038616  1
  Fe  Fe69  1  0.37393466  0.12498842  0.62702780  1
  Fe  Fe70  1  -0.00153342  -0.00542591  0.74878581  1
  Fe  Fe71  1  0.12409784  0.12383332  0.62454632  1
  Fe  Fe72  1  0.49939739  0.50091892  0.24895925  1
  Fe  Fe73  1  0.74827756  0.75132698  0.24701785  1
  Fe  Fe74  1  0.37761347  0.87431022  0.12534248  1
  Fe  Fe75  1  0.37389224  0.62556812  0.62410421  1
  Fe  Fe76  1  0.87117108  0.87201274  0.37806704  1
  Fe  Fe77  1  0.74879163  0.50194919  -0.00015518  1
  Fe  Fe78  1  0.62806051  0.12454951  0.37377653  1
  Fe  Fe79  1  0.87447565  0.12464471  0.37488208  1
  Fe  Fe80  1  0.87877129  0.86805550  0.87544741  1
  Fe  Fe81  1  -0.00100868  0.25160110  0.24804916  1
  Fe  Fe82  1  0.62649252  0.37514127  0.37587366  1
  Fe  Fe83  1  0.62464185  0.37645361  0.87408654  1
  Fe  Fe84  1  0.25033912  0.50066309  0.49885692  1
  Fe  Fe85  1  0.75280683  -0.00410857  -0.00171473  1
  Fe  Fe86  1  0.00023862  0.25122639  0.00245863  1
  Fe  Fe87  1  0.49796505  0.50111435  0.75119347  1
  Fe  Fe88  1  0.37486859  0.62801252  0.87525215  1
  Fe  Fe89  1  0.62782782  0.12403289  0.87391147  1
  Co  Co90  1  0.24898737  -0.00310983  0.24880219  1
  Co  Co91  1  0.12419814  0.37658646  0.62329146  1
  Co  Co92  1  0.25219711  0.75082550  0.49934380  1
  Co  Co93  1  0.74437940  0.74620405  0.50090173  1
  Co  Co94  1  0.12038613  0.37541497  0.87509371  1
  Co  Co95  1  0.12744349  0.62753938  0.87501903  1
  Co  Co96  1  0.75219782  -0.00253459  0.24880446  1
  Co  Co97  1  0.87102034  0.86938510  0.62419273  1
  Co  Co98  1  0.12619822  0.62631326  0.62081884  1
  Co  Co99  1  0.49981447  0.50151496  -0.00158315  1
  Co  Co100  1  0.24888498  0.24996785  -0.00205791  1
  Co  Co101  1  0.87572973  0.37900698  0.12315162  1
  Co  Co102  1  0.74885401  0.74841683  0.75065594  1
  Co  Co103  1  0.00108221  0.74386302  0.00017273  1
  Co  Co104  1  0.75161812  0.25356124  0.75127456  1
  Co  Co105  1  0.75377460  -0.00513853  0.75483285  1
  Co  Co106  1  0.49959609  0.74972239  0.74750139  1
  Co  Co107  1  0.62351672  0.62505713  0.12510404  1
  Co  Co108  1  0.00035553  0.75246399  0.50049116  1
  Co  Co109  1  0.87834254  0.87310309  0.12253053  1
  Co  Co110  1  0.62813244  0.87673536  0.62697737  1
  Co  Co111  1  0.37728942  0.62619723  0.37594987  1
  Co  Co112  1  0.87404464  0.37919611  0.62478918  1
  Co  Co113  1  0.12666122  0.37549834  0.12495184  1
  Co  Co114  1  0.00361991  0.74864440  0.74908112  1
  Co  Co115  1  0.62450316  0.62353131  0.62786976  1
  Co  Co116  1  0.37248686  0.87133068  0.87336177  1
  Co  Co117  1  0.50102046  0.75067165  -0.00070644  1
  Co  Co118  1  0.37572164  0.37494248  0.87502807  1
  Co  Co119  1  0.75094018  0.00093868  0.50060766  1
  Co  Co120  1  0.12500474  0.87404661  0.62329113  1
  Co  Co121  1  0.12642757  0.62652445  0.12701314  1
  Co  Co122  1  0.50143731  0.75039935  0.25075587  1
  Co  Co123  1  0.87506088  0.62811339  0.37379385  1
  Co  Co124  1  0.87465542  0.62663808  0.87582351  1
  Co  Co125  1  -0.00238986  0.24819383  0.50343243  1
  Co  Co126  1  0.62346003  0.87689575  0.12467099  1
  Co  Co127  1  -0.00029347  0.00037314  -0.00142118  1
