# generated using pymatgen
data_Fe45Co19
_symmetry_space_group_name_H-M   'P 1'
_cell_length_a   11.41398466
_cell_length_b   11.41533395
_cell_length_c   11.41550353
_cell_angle_alpha   90.00269962
_cell_angle_beta   90.00949799
_cell_angle_gamma   89.99289135
_symmetry_Int_Tables_number   1
_chemical_formula_structural   Fe45Co19
_chemical_formula_sum   'Fe90 Co38'
_cell_volume   1487.37668192
_cell_formula_units_Z   2
loop_
 _symmetry_equiv_pos_site_id
 _symmetry_equiv_pos_as_xyz
  1  'x, y, z'
loop_
 _atom_site_type_symbol
 _atom_site_label
 _atom_site_symmetry_multiplicity
 _atom_site_fract_x
 _atom_site_fract_y
 _atom_site_fract_z
 _atom_site_occupancy
  Fe  Fe0  1  0.24881640  0.00078624  0.75547247  1
  Fe  Fe1  1  0.75013506  0.00048283  -0.00159628  1
  Fe  Fe2  1  0.00091287  -0.00125111  0.24681485  1
  Fe  Fe3  1  0.62551257  0.62327664  0.87609847  1
  Fe  Fe4  1  0.49909959  0.50010212  0.24875074  1
  Fe  Fe5  1  0.12803408  0.12029439  0.12150817  1
  Fe  Fe6  1  0.75008148  0.75179848  0.25038785  1
  Fe  Fe7  1  0.62915960  0.37584325  0.87505466  1
  Fe  Fe8  1  0.62542913  0.87535837  0.12528675  1
  Fe  Fe9  1  0.87636686  0.62608472  0.37429697  1
  Fe  Fe10  1  -0.00155253  0.74775439  0.74883141  1
  Fe  Fe11  1  0.37410819  0.37291524  0.12630177  1
  Fe  Fe12  1  0.12014034  0.12668941  0.37760009  1
  Fe  Fe13  1  0.75354077  0.25084923  0.75067727  1
  Fe  Fe14  1  0.75042098  0.75258620  0.50114437  1
  Fe  Fe15  1  0.87727775  0.12439751  0.12009815  1
  Fe  Fe16  1  0.00025948  0.00033471  0.75110650  1
  Fe  Fe17  1  0.37261633  0.37731454  0.62396324  1
  Fe  Fe18  1  0.49715653  0.00181871  0.24938475  1
  Fe  Fe19  1  0.87643807  0.12344104  0.62254722  1
  Fe  Fe20  1  0.37428184  0.87599151  0.37415618  1
  Fe  Fe21  1  0.24771523  0.25404415  0.49787041  1
  Fe  Fe22  1  0.49657610  0.75021025  0.24797503  1
  Fe  Fe23  1  0.62511656  0.62537419  0.12559667  1
  Fe  Fe24  1  0.12678493  0.62514584  0.87710557  1
  Fe  Fe25  1  0.49886401  0.24749329  0.74620917  1
  Fe  Fe26  1  0.12639257  0.87435002  0.37159492  1
  Fe  Fe27  1  -0.00231972  0.25298547  0.74854722  1
  Fe  Fe28  1  0.74966325  0.75006864  -0.00086347  1
  Fe  Fe29  1  0.00080177  0.49806385  0.49969281  1
  Fe  Fe30  1  0.75086555  0.49839214  0.49864865  1
  Fe  Fe31  1  0.37510748  0.62409792  0.37719508  1
  Fe  Fe32  1  0.87531633  0.37189587  0.12148157  1
  Fe  Fe33  1  0.49853406  0.50118722  0.75031778  1
  Fe  Fe34  1  0.87396940  0.62321335  0.62520700  1
  Fe  Fe35  1  0.88007966  0.12847429  0.87950208  1
  Fe  Fe36  1  0.24977346  0.49938104  0.25323529  1
  Fe  Fe37  1  0.12327270  0.62447615  0.37475678  1
  Fe  Fe38  1  0.24813328  -0.00079734  0.49858886  1
  Fe  Fe39  1  0.37059600  0.62406396  0.12126109  1
  Fe  Fe40  1  -0.00394170  0.49845357  0.75247660  1
  Fe  Fe41  1  0.62476442  0.62575827  0.37445325  1
  Fe  Fe42  1  0.75128827  0.49839545  0.24852392  1
  Fe  Fe43  1  0.75047082  0.00133545  0.24946654  1
  Fe  Fe44  1  0.37518057  0.87797437  0.62742782  1
  Fe  Fe45  1  0.25429872  0.74724014  0.75383838  1
  Fe  Fe46  1  0.87425428  0.62771181  0.12413040  1
  Fe  Fe47  1  0.50154725  0.49741495  0.00164144  1
  Fe  Fe48  1  0.49656396  0.74612209  0.75164088  1
  Fe  Fe49  1  0.49741438  0.00022570  0.00144936  1
  Fe  Fe50  1  0.62377503  0.87777482  0.62834958  1
  Fe  Fe51  1  0.75060071  0.74977231  0.74977258  1
  Fe  Fe52  1  0.12567956  0.87473034  0.62831404  1
  Fe  Fe53  1  0.25034137  0.25017218  0.75038058  1
  Fe  Fe54  1  0.74840397  -0.00054647  0.49941141  1
  Fe  Fe55  1  0.24903501  0.24751206  0.25149729  1
  Fe  Fe56  1  0.00197727  0.75269105  0.24530009  1
  Fe  Fe57  1  0.00027979  0.75269730  0.50211192  1
  Fe  Fe58  1  0.87879181  0.12477444  0.37688602  1
  Fe  Fe59  1  0.50205388  0.25073588  0.00014626  1
  Fe  Fe60  1  0.12579879  0.37741810  0.62557638  1
  Fe  Fe61  1  0.12879748  0.62661743  0.12281399  1
  Fe  Fe62  1  0.75081974  0.24835623  0.24830419  1
  Fe  Fe63  1  0.49523641  0.75163002  0.00046183  1
  Fe  Fe64  1  0.49908990  0.49792052  0.49982578  1
  Fe  Fe65  1  -0.00077007  0.50055536  -0.00002045  1
  Fe  Fe66  1  0.36535475  0.87911200  0.12642984  1
  Fe  Fe67  1  0.12392177  0.37475367  0.12906129  1
  Fe  Fe68  1  0.37858107  0.12757854  0.37978213  1
  Fe  Fe69  1  0.62534332  0.62399899  0.62429428  1
  Fe  Fe70  1  0.62279964  0.87635967  0.37341717  1
  Fe  Fe71  1  0.12484930  0.37487956  0.87389590  1
  Fe  Fe72  1  0.49865505  0.75163869  0.50130126  1
  Fe  Fe73  1  0.88103552  0.37242091  0.37262498  1
  Fe  Fe74  1  0.62395544  0.12493839  0.12547713  1
  Fe  Fe75  1  0.37494862  0.12575943  0.87614780  1
  Fe  Fe76  1  0.25037317  0.74969791  0.50041422  1
  Fe  Fe77  1  0.12805311  0.62255842  0.62491632  1
  Fe  Fe78  1  0.87883290  0.87192993  0.87711540  1
  Fe  Fe79  1  0.62286987  0.37241174  0.37347945  1
  Fe  Fe80  1  0.62401483  0.12476359  0.87353280  1
  Fe  Fe81  1  0.62119064  0.87663548  0.87399571  1
  Fe  Fe82  1  0.75043997  0.24984555  0.49917074  1
  Fe  Fe83  1  0.62751352  0.37466398  0.62640640  1
  Fe  Fe84  1  0.49998669  0.24849010  0.24806069  1
  Fe  Fe85  1  0.12537959  0.12509876  0.62557035  1
  Fe  Fe86  1  0.24755842  0.25021627  -0.00052174  1
  Fe  Fe87  1  0.75285147  0.00018584  0.75287049  1
  Fe  Fe88  1  0.37368633  0.37636903  0.87533122  1
  Fe  Fe89  1  0.87677343  0.87559105  0.37487698  1
  Co  Co90  1  0.37983275  0.87844193  0.87187296  1
  Co  Co91  1  -0.00128918  0.50243220  0.24628199  1
  Co  Co92  1  0.50126880  0.24903848  0.50638363  1
  Co  Co93  1  0.87460212  0.62646909  0.87577525  1
  Co  Co94  1  0.62282373  0.12654465  0.37412923  1
  Co  Co95  1  0.00312316  0.75144469  0.00450566  1
  Co  Co96  1  0.12070984  0.87060120  0.87252023  1
  Co  Co97  1  0.87585495  0.87660160  0.62603893  1
  Co  Co98  1  0.50168224  0.00178392  0.50282199  1
  Co  Co99  1  0.63053025  0.12504398  0.62641875  1
  Co  Co100  1  0.00050530  0.24465414  0.24559221  1
  Co  Co101  1  0.12220128  0.12866011  0.87341043  1
  Co  Co102  1  0.25061451  0.00783479  0.25608180  1
  Co  Co103  1  0.00109695  0.25175137  0.50418602  1
  Co  Co104  1  0.37255486  0.12538934  0.12121952  1
  Co  Co105  1  0.00447363  -0.00404537  -0.00001458  1
  Co  Co106  1  0.49867771  0.00649087  0.74676110  1
  Co  Co107  1  0.25067068  0.50110981  0.75131326  1
  Co  Co108  1  0.00538716  0.25153814  0.00116352  1
  Co  Co109  1  0.25187066  0.75502544  -0.00529874  1
  Co  Co110  1  0.37332252  0.62232066  0.62287042  1
  Co  Co111  1  0.24807246  0.49743012  0.49506969  1
  Co  Co112  1  0.00297332  -0.00311717  0.50120707  1
  Co  Co113  1  0.75258620  0.49972548  0.75088534  1
  Co  Co114  1  0.13447144  0.87787715  0.12780643  1
  Co  Co115  1  0.37332336  0.61950307  0.88013012  1
  Co  Co116  1  0.25044148  0.74533462  0.25209155  1
  Co  Co117  1  0.36866616  0.12410344  0.62305584  1
  Co  Co118  1  0.37745639  0.37195358  0.37368603  1
  Co  Co119  1  0.74614789  0.24731004  0.00053352  1
  Co  Co120  1  0.87319370  0.37313037  0.88089511  1
  Co  Co121  1  0.24743436  0.49465509  0.00119531  1
  Co  Co122  1  0.11945042  0.37404055  0.37058569  1
  Co  Co123  1  0.24761808  -0.00102681  -0.00939088  1
  Co  Co124  1  0.87440157  0.37643324  0.62331249  1
  Co  Co125  1  0.87292868  0.87564531  0.12249439  1
  Co  Co126  1  0.62540499  0.37392571  0.12625864  1
  Co  Co127  1  0.75071752  0.50161563  0.00251113  1
