# generated using pymatgen
data_Fe45Co19
_symmetry_space_group_name_H-M   'P 1'
_cell_length_a   11.41365586
_cell_length_b   11.41356741
_cell_length_c   11.41451462
_cell_angle_alpha   89.99409500
_cell_angle_beta   90.01210232
_cell_angle_gamma   89.99627319
_symmetry_Int_Tables_number   1
_chemical_formula_structural   Fe45Co19
_chemical_formula_sum   'Fe90 Co38'
_cell_volume   1486.97483193
_cell_formula_units_Z   2
loop_
 _symmetry_equiv_pos_site_id
 _symmetry_equiv_pos_as_xyz
  1  'x, y, z'
loop_
 _atom_site_type_symbol
 _atom_site_label
 _atom_site_symmetry_multiplicity
 _atom_site_fract_x
 _atom_site_fract_y
 _atom_site_fract_z
 _atom_site_occupancy
  Fe  Fe0  1  -0.00310102  0.50338733  0.24873702  1
  Fe  Fe1  1  0.24983266  0.00009535  0.49875715  1
  Fe  Fe2  1  0.62680389  0.12682293  0.37866481  1
  Fe  Fe3  1  0.37640954  0.12422160  0.12364407  1
  Fe  Fe4  1  0.74917855  0.50039043  0.74973213  1
  Fe  Fe5  1  0.74914770  -0.00182217  0.25020837  1
  Fe  Fe6  1  0.37570111  0.62284465  0.62358378  1
  Fe  Fe7  1  0.87528848  0.62193784  0.62232753  1
  Fe  Fe8  1  -0.00164393  0.00069022  0.25015402  1
  Fe  Fe9  1  0.12344668  0.37626405  0.87621834  1
  Fe  Fe10  1  0.12574264  0.12461403  0.12494176  1
  Fe  Fe11  1  0.50038442  0.25115405  0.74935787  1
  Fe  Fe12  1  0.62327397  0.62691393  0.12564558  1
  Fe  Fe13  1  0.12381165  0.62441022  0.37538183  1
  Fe  Fe14  1  0.87234803  0.12375377  0.37675100  1
  Fe  Fe15  1  0.24849499  0.49792276  0.49954788  1
  Fe  Fe16  1  -0.00080548  0.24958693  0.24971627  1
  Fe  Fe17  1  0.24998545  0.25102742  0.74958068  1
  Fe  Fe18  1  0.37465900  0.12482044  0.87605840  1
  Fe  Fe19  1  0.87571000  0.62350415  0.87780876  1
  Fe  Fe20  1  0.75259257  -0.00343031  0.75473018  1
  Fe  Fe21  1  0.75226656  0.74832425  0.25036959  1
  Fe  Fe22  1  0.87720239  0.37751490  0.62528853  1
  Fe  Fe23  1  0.62498158  0.87265412  0.37481194  1
  Fe  Fe24  1  -0.00128054  0.74900661  0.49914501  1
  Fe  Fe25  1  0.87544536  0.87510481  0.62555400  1
  Fe  Fe26  1  0.50158250  -0.00029013  0.50056831  1
  Fe  Fe27  1  0.24824010  0.50067035  0.74898829  1
  Fe  Fe28  1  0.62855714  0.12578236  0.62324274  1
  Fe  Fe29  1  0.00146223  0.74858425  0.00213964  1
  Fe  Fe30  1  0.74716227  0.49922815  0.00119615  1
  Fe  Fe31  1  0.37546490  0.37732707  0.12568061  1
  Fe  Fe32  1  0.37417671  0.12722514  0.62243863  1
  Fe  Fe33  1  0.24902348  0.00042858  0.75130234  1
  Fe  Fe34  1  0.12371500  0.87367489  0.37369314  1
  Fe  Fe35  1  0.12773564  0.12767103  0.37476508  1
  Fe  Fe36  1  0.12243991  0.37665984  0.62531056  1
  Fe  Fe37  1  0.25025131  0.75032370  0.50023090  1
  Fe  Fe38  1  -0.00110392  0.74670568  0.74853454  1
  Fe  Fe39  1  0.75022495  0.25267154  0.74966358  1
  Fe  Fe40  1  0.87451423  0.37934423  0.37410945  1
  Fe  Fe41  1  0.12391519  0.12477251  0.62510869  1
  Fe  Fe42  1  -0.00071027  -0.00120722  0.49940083  1
  Fe  Fe43  1  0.25203069  0.50289129  0.00078679  1
  Fe  Fe44  1  0.25166274  0.74829288  0.25007292  1
  Fe  Fe45  1  0.37755962  0.62750981  0.37686216  1
  Fe  Fe46  1  0.12157212  0.87694128  0.87513147  1
  Fe  Fe47  1  0.50232072  0.49959905  0.74913687  1
  Fe  Fe48  1  0.62615620  0.12593152  0.87450698  1
  Fe  Fe49  1  -0.00060349  0.25209684  0.49785589  1
  Fe  Fe50  1  0.12634798  0.37751095  0.12805146  1
  Fe  Fe51  1  0.74941346  0.75061917  0.50140388  1
  Fe  Fe52  1  0.37682930  0.37802746  0.87450950  1
  Fe  Fe53  1  0.87438572  0.87700109  0.12273705  1
  Fe  Fe54  1  0.50369342  -0.00339182  -0.00039997  1
  Fe  Fe55  1  0.49940538  0.24802410  0.25162791  1
  Fe  Fe56  1  0.50094668  0.25246197  -0.00106139  1
  Fe  Fe57  1  0.87390340  0.37646215  0.12528937  1
  Fe  Fe58  1  0.62304634  0.37500796  0.62186073  1
  Fe  Fe59  1  0.37442278  0.87178045  0.12442635  1
  Fe  Fe60  1  0.12780512  0.62427942  0.12623329  1
  Fe  Fe61  1  0.25068285  0.74894764  0.75234311  1
  Fe  Fe62  1  0.74870314  0.75417340  -0.00344666  1
  Fe  Fe63  1  0.24932302  -0.00200564  -0.00113227  1
  Fe  Fe64  1  -0.00072427  0.24743832  0.00074736  1
  Fe  Fe65  1  0.62456992  0.37525922  0.12715163  1
  Fe  Fe66  1  0.62449041  0.62566777  0.87338804  1
  Fe  Fe67  1  0.37192640  0.36995037  0.37616461  1
  Fe  Fe68  1  0.87582395  0.37683493  0.87581143  1
  Fe  Fe69  1  -0.00000363  0.24869482  0.75231738  1
  Fe  Fe70  1  0.74690652  0.49793793  0.49914333  1
  Fe  Fe71  1  0.62740159  0.12443531  0.12408851  1
  Fe  Fe72  1  0.49829757  0.74831659  0.74849220  1
  Fe  Fe73  1  0.75027750  0.25120331  0.25179144  1
  Fe  Fe74  1  0.87313347  0.12428416  0.62418690  1
  Fe  Fe75  1  -0.00424969  0.74728804  0.25001117  1
  Fe  Fe76  1  0.12492354  0.87482756  0.12552670  1
  Fe  Fe77  1  0.49948534  0.00078362  0.74995387  1
  Fe  Fe78  1  0.37399941  0.87520914  0.62543510  1
  Fe  Fe79  1  0.50078135  -0.00041494  0.25043541  1
  Fe  Fe80  1  0.12464099  0.87365829  0.62560452  1
  Fe  Fe81  1  0.12390317  0.62358026  0.87532002  1
  Fe  Fe82  1  0.25233433  0.00118289  0.25059929  1
  Fe  Fe83  1  0.49748730  0.74976490  -0.00144741  1
  Fe  Fe84  1  0.49940864  0.50090857  0.25176435  1
  Fe  Fe85  1  0.62404697  0.62589220  0.37645745  1
  Fe  Fe86  1  0.37670936  0.87452547  0.37547726  1
  Fe  Fe87  1  0.75088184  0.24926364  -0.00090220  1
  Fe  Fe88  1  0.25035526  0.25094954  0.00082776  1
  Fe  Fe89  1  0.62654165  0.87294144  0.62854958  1
  Co  Co90  1  0.37650660  0.37636516  0.62572283  1
  Co  Co91  1  0.87328937  0.62277294  0.37866510  1
  Co  Co92  1  0.37598354  0.87602600  0.87444992  1
  Co  Co93  1  0.12670536  0.12481125  0.87541022  1
  Co  Co94  1  0.50105679  0.75262051  0.50314946  1
  Co  Co95  1  0.74875834  -0.00233323  -0.00391850  1
  Co  Co96  1  0.24699561  0.25207870  0.50334053  1
  Co  Co97  1  0.37712215  0.62152339  0.87332455  1
  Co  Co98  1  0.87090643  0.12353080  0.12652273  1
  Co  Co99  1  0.87372677  0.12536395  0.87383708  1
  Co  Co100  1  0.75354738  0.74784466  0.75051602  1
  Co  Co101  1  0.12559542  0.62548962  0.62345052  1
  Co  Co102  1  0.62431102  0.62437063  0.62356880  1
  Co  Co103  1  0.87491732  0.87445458  0.37447075  1
  Co  Co104  1  0.74917818  -0.00397420  0.50046457  1
  Co  Co105  1  0.62191517  0.87235979  0.87087332  1
  Co  Co106  1  0.25358723  0.50243187  0.25237689  1
  Co  Co107  1  0.12585901  0.37515298  0.37053905  1
  Co  Co108  1  0.37618458  0.62617077  0.12497573  1
  Co  Co109  1  0.62563229  0.37511962  0.87508207  1
  Co  Co110  1  -0.00152051  0.00457861  0.00098293  1
  Co  Co111  1  0.00007370  0.50236707  0.75097116  1
  Co  Co112  1  0.75180290  0.25445810  0.50015029  1
  Co  Co113  1  0.62632641  0.87280155  0.12565591  1
  Co  Co114  1  0.00324933  0.49888049  0.49864809  1
  Co  Co115  1  -0.00081418  0.00152943  0.74879928  1
  Co  Co116  1  0.37352150  0.12695802  0.37715139  1
  Co  Co117  1  0.25088781  0.24776279  0.24652214  1
  Co  Co118  1  0.88080756  0.87382090  0.87696901  1
  Co  Co119  1  0.50204734  0.50051186  0.00134943  1
  Co  Co120  1  0.62561431  0.37443361  0.37375099  1
  Co  Co121  1  0.24995088  0.74861738  -0.00279208  1
  Co  Co122  1  0.00047581  0.49995368  0.00221887  1
  Co  Co123  1  0.49942849  0.75084505  0.24984370  1
  Co  Co124  1  0.50090086  0.24969324  0.50059999  1
  Co  Co125  1  0.87200081  0.62601391  0.12035479  1
  Co  Co126  1  0.74897005  0.50296353  0.24845804  1
  Co  Co127  1  0.49901464  0.49780039  0.49676328  1
