# generated using pymatgen
data_Fe45Co19
_symmetry_space_group_name_H-M   'P 1'
_cell_length_a   11.41542496
_cell_length_b   11.41586428
_cell_length_c   11.41445049
_cell_angle_alpha   90.00279917
_cell_angle_beta   89.99430410
_cell_angle_gamma   89.99653567
_symmetry_Int_Tables_number   1
_chemical_formula_structural   Fe45Co19
_chemical_formula_sum   'Fe90 Co38'
_cell_volume   1487.49627167
_cell_formula_units_Z   2
loop_
 _symmetry_equiv_pos_site_id
 _symmetry_equiv_pos_as_xyz
  1  'x, y, z'
loop_
 _atom_site_type_symbol
 _atom_site_label
 _atom_site_symmetry_multiplicity
 _atom_site_fract_x
 _atom_site_fract_y
 _atom_site_fract_z
 _atom_site_occupancy
  Fe  Fe0  1  0.37827342  0.87495325  0.87590834  1
  Fe  Fe1  1  0.00214978  0.24918825  0.49957782  1
  Fe  Fe2  1  0.87553485  0.87548821  0.87668805  1
  Fe  Fe3  1  0.74764255  -0.00052962  0.74601146  1
  Fe  Fe4  1  0.25088075  0.24988346  0.24874070  1
  Fe  Fe5  1  0.12411430  0.87342291  0.37316954  1
  Fe  Fe6  1  0.62758052  0.87939573  0.37381089  1
  Fe  Fe7  1  -0.00099203  0.50086787  0.00122705  1
  Fe  Fe8  1  0.37735373  0.37272774  0.62261350  1
  Fe  Fe9  1  0.74752899  0.75169857  0.00364897  1
  Fe  Fe10  1  0.12374602  0.87666993  0.87653708  1
  Fe  Fe11  1  0.37413422  0.62779013  0.37385653  1
  Fe  Fe12  1  0.87059334  0.12540286  0.37609858  1
  Fe  Fe13  1  0.62198017  0.87331523  0.87441229  1
  Fe  Fe14  1  0.62493607  0.62417829  0.12625623  1
  Fe  Fe15  1  0.00131185  0.00210121  0.75134747  1
  Fe  Fe16  1  0.12400237  0.62668506  0.36989528  1
  Fe  Fe17  1  0.87568787  0.87354255  0.62363835  1
  Fe  Fe18  1  0.62724083  0.37754680  0.37360240  1
  Fe  Fe19  1  0.49870284  0.50169480  0.75068406  1
  Fe  Fe20  1  0.12519908  0.62292711  0.12812697  1
  Fe  Fe21  1  0.50054268  0.00049656  0.74722996  1
  Fe  Fe22  1  0.62451731  0.37326556  0.87129267  1
  Fe  Fe23  1  0.25467306  -0.00193004  0.25204564  1
  Fe  Fe24  1  0.25290763  -0.00033727  0.49801185  1
  Fe  Fe25  1  0.37595093  0.87282231  0.62426114  1
  Fe  Fe26  1  0.75359999  0.50135779  0.25060624  1
  Fe  Fe27  1  0.74788946  0.24986492  0.00037204  1
  Fe  Fe28  1  0.12499997  0.87719952  0.62456665  1
  Fe  Fe29  1  0.37545255  0.12414521  0.12385268  1
  Fe  Fe30  1  0.00169427  0.24723202  -0.00009537  1
  Fe  Fe31  1  0.50110238  0.24766239  0.25293479  1
  Fe  Fe32  1  0.50103809  0.75299199  0.25014787  1
  Fe  Fe33  1  0.62478133  0.12199256  0.12866378  1
  Fe  Fe34  1  0.62406257  0.37535157  0.12694002  1
  Fe  Fe35  1  0.37572732  0.62601131  0.87742915  1
  Fe  Fe36  1  0.12767416  0.12421317  0.37513539  1
  Fe  Fe37  1  0.74793341  -0.00148762  0.00141934  1
  Fe  Fe38  1  0.50170763  0.75230639  0.49973801  1
  Fe  Fe39  1  0.25035927  0.50133920  0.74998041  1
  Fe  Fe40  1  0.12578867  0.37440253  0.87551642  1
  Fe  Fe41  1  0.00155158  0.24698650  0.75032562  1
  Fe  Fe42  1  0.25133796  0.49829579  0.00258123  1
  Fe  Fe43  1  0.74620095  0.25281224  0.50448054  1
  Fe  Fe44  1  0.50053933  0.24964919  -0.00045747  1
  Fe  Fe45  1  0.24736766  0.74996621  0.49856967  1
  Fe  Fe46  1  -0.00464717  -0.00017385  0.25100474  1
  Fe  Fe47  1  0.87518649  0.37384518  0.87467462  1
  Fe  Fe48  1  0.49717523  0.49907839  0.25046981  1
  Fe  Fe49  1  0.24891349  0.50023212  0.49748192  1
  Fe  Fe50  1  0.25005590  0.00224057  0.74919671  1
  Fe  Fe51  1  -0.00212202  -0.00109638  0.49778044  1
  Fe  Fe52  1  0.00110334  0.74881977  0.75024033  1
  Fe  Fe53  1  0.74957382  0.75060370  0.74939364  1
  Fe  Fe54  1  0.12372907  0.37537701  0.62479193  1
  Fe  Fe55  1  0.12292596  0.87784611  0.12524784  1
  Fe  Fe56  1  -0.00010382  0.50167672  0.75012162  1
  Fe  Fe57  1  0.24873865  0.24742046  0.74807184  1
  Fe  Fe58  1  0.25042591  0.75172323  0.00150464  1
  Fe  Fe59  1  0.62651788  0.12701846  0.87088744  1
  Fe  Fe60  1  0.24923444  0.74954740  0.75218220  1
  Fe  Fe61  1  0.87424986  0.62496214  0.87654611  1
  Fe  Fe62  1  0.37362301  0.37204154  0.37509314  1
  Fe  Fe63  1  0.37644020  0.62410362  0.12592128  1
  Fe  Fe64  1  0.37440749  0.37434172  0.87687835  1
  Fe  Fe65  1  0.12527652  0.37529737  0.37265436  1
  Fe  Fe66  1  -0.00181278  0.24910000  0.25023806  1
  Fe  Fe67  1  0.87413423  0.37523970  0.37777914  1
  Fe  Fe68  1  0.37517809  0.62684287  0.62324218  1
  Fe  Fe69  1  0.87346638  0.37404647  0.12500531  1
  Fe  Fe70  1  0.62459630  0.62536375  0.62489950  1
  Fe  Fe71  1  0.37193797  0.12469344  0.87826085  1
  Fe  Fe72  1  0.87767254  0.62705200  0.37499980  1
  Fe  Fe73  1  0.12470476  0.37594246  0.12713670  1
  Fe  Fe74  1  -0.00060714  0.74884759  0.00229277  1
  Fe  Fe75  1  0.37800536  0.12861691  0.61871387  1
  Fe  Fe76  1  0.62418845  0.62567187  0.87450677  1
  Fe  Fe77  1  0.12501309  0.62505173  0.62511858  1
  Fe  Fe78  1  0.38063457  0.87750453  0.12356314  1
  Fe  Fe79  1  0.74807365  0.49900775  -0.00015787  1
  Fe  Fe80  1  0.75117322  0.49762185  0.74641713  1
  Fe  Fe81  1  0.62762850  0.12004919  0.37653644  1
  Fe  Fe82  1  0.74977189  0.75033125  0.49831223  1
  Fe  Fe83  1  0.62488098  0.62430555  0.37361193  1
  Fe  Fe84  1  0.12659725  0.12235183  0.12368639  1
  Fe  Fe85  1  0.87314332  0.12505000  0.12455401  1
  Fe  Fe86  1  0.50082525  0.49876412  0.49952420  1
  Fe  Fe87  1  0.87516574  0.12562937  0.62448757  1
  Fe  Fe88  1  0.87329814  0.12473036  0.87526853  1
  Fe  Fe89  1  0.87621931  0.62444717  0.62175410  1
  Co  Co90  1  0.25287782  0.49890269  0.25114461  1
  Co  Co91  1  0.50312862  0.00338110  -0.00260909  1
  Co  Co92  1  0.12470709  0.12239386  0.62128558  1
  Co  Co93  1  0.37337086  0.12920262  0.37835639  1
  Co  Co94  1  0.00210768  0.75096564  0.50034108  1
  Co  Co95  1  0.25129694  0.75325797  0.24691044  1
  Co  Co96  1  0.50119742  0.74895842  0.00153057  1
  Co  Co97  1  0.00352331  0.50127643  0.49775986  1
  Co  Co98  1  0.75370506  0.25153082  0.74605838  1
  Co  Co99  1  0.74934605  0.75072091  0.24968265  1
  Co  Co100  1  0.49877458  -0.00148691  0.49976566  1
  Co  Co101  1  0.62210518  0.87871160  0.12818973  1
  Co  Co102  1  0.25095942  -0.00355719  0.00010096  1
  Co  Co103  1  0.74817003  0.49998728  0.50129528  1
  Co  Co104  1  0.37833058  0.37304379  0.12621343  1
  Co  Co105  1  0.50129303  0.49877336  -0.00057479  1
  Co  Co106  1  0.87323572  0.87352616  0.37565852  1
  Co  Co107  1  0.24612770  0.25169097  0.50066860  1
  Co  Co108  1  0.12575361  0.62443700  0.87756889  1
  Co  Co109  1  0.62006774  0.37336532  0.62920019  1
  Co  Co110  1  -0.00204690  0.75154786  0.24680934  1
  Co  Co111  1  0.75043045  -0.00019221  0.50491824  1
  Co  Co112  1  0.62468225  0.87315968  0.62389370  1
  Co  Co113  1  0.12795667  0.12381956  0.87812716  1
  Co  Co114  1  0.24933406  0.25162477  0.00254630  1
  Co  Co115  1  0.87912501  0.37562393  0.62243379  1
  Co  Co116  1  -0.00387545  0.49869175  0.25039531  1
  Co  Co117  1  -0.00209068  0.00211876  0.00026920  1
  Co  Co118  1  0.49548660  0.00127319  0.25553019  1
  Co  Co119  1  0.37509481  0.87110729  0.37671171  1
  Co  Co120  1  0.75417499  -0.00201372  0.24775286  1
  Co  Co121  1  0.87292236  0.62485293  0.12441155  1
  Co  Co122  1  0.49572046  0.24781735  0.75327605  1
  Co  Co123  1  0.49980733  0.74899079  0.74906592  1
  Co  Co124  1  0.87446570  0.87556884  0.12361684  1
  Co  Co125  1  0.62156842  0.12825467  0.62516610  1
  Co  Co126  1  0.74952001  0.24990766  0.25107946  1
  Co  Co127  1  0.50605049  0.25203764  0.49415519  1
