# generated using pymatgen
data_Fe45Co19
_symmetry_space_group_name_H-M   'P 1'
_cell_length_a   11.41403826
_cell_length_b   11.41443379
_cell_length_c   11.41548778
_cell_angle_alpha   89.99961178
_cell_angle_beta   90.00205613
_cell_angle_gamma   90.00828467
_symmetry_Int_Tables_number   1
_chemical_formula_structural   Fe45Co19
_chemical_formula_sum   'Fe90 Co38'
_cell_volume   1487.26434349
_cell_formula_units_Z   2
loop_
 _symmetry_equiv_pos_site_id
 _symmetry_equiv_pos_as_xyz
  1  'x, y, z'
loop_
 _atom_site_type_symbol
 _atom_site_label
 _atom_site_symmetry_multiplicity
 _atom_site_fract_x
 _atom_site_fract_y
 _atom_site_fract_z
 _atom_site_occupancy
  Fe  Fe0  1  0.50173799  -0.00126862  0.49821978  1
  Fe  Fe1  1  0.25112093  0.24819584  0.75175420  1
  Fe  Fe2  1  0.87794547  0.63300323  0.12487852  1
  Fe  Fe3  1  0.50179569  -0.00100992  -0.00062272  1
  Fe  Fe4  1  -0.00193815  -0.00279529  0.75052241  1
  Fe  Fe5  1  0.25103986  0.50206200  0.74894397  1
  Fe  Fe6  1  0.75169033  0.25181995  0.75087256  1
  Fe  Fe7  1  0.74727696  0.50199975  0.49829559  1
  Fe  Fe8  1  0.87523626  0.12482343  0.87528277  1
  Fe  Fe9  1  0.87390481  0.62677025  0.37523494  1
  Fe  Fe10  1  0.49859074  0.50003545  0.00056553  1
  Fe  Fe11  1  0.87654730  0.12769605  0.62331386  1
  Fe  Fe12  1  0.25541776  -0.00203943  0.25034598  1
  Fe  Fe13  1  0.62795622  0.37657563  0.87803755  1
  Fe  Fe14  1  0.24865776  0.74663214  0.50312901  1
  Fe  Fe15  1  0.37786945  0.12519414  0.12490142  1
  Fe  Fe16  1  0.12601821  0.62653932  0.87324897  1
  Fe  Fe17  1  0.75001124  0.00140846  0.74815213  1
  Fe  Fe18  1  0.12224239  0.12650881  0.62509063  1
  Fe  Fe19  1  -0.00346880  0.49827765  0.75003582  1
  Fe  Fe20  1  0.75073204  -0.00147773  0.00211913  1
  Fe  Fe21  1  0.87421913  0.37454195  0.37559494  1
  Fe  Fe22  1  0.37942501  0.62811145  0.37418063  1
  Fe  Fe23  1  0.74650111  0.74777191  0.74914679  1
  Fe  Fe24  1  -0.00313022  -0.00742897  -0.00060971  1
  Fe  Fe25  1  0.49590714  -0.00543116  0.25180956  1
  Fe  Fe26  1  0.49938412  0.50070152  0.75340449  1
  Fe  Fe27  1  0.50284897  0.25053226  0.00128349  1
  Fe  Fe28  1  0.87418454  0.12641094  0.37481373  1
  Fe  Fe29  1  0.62442642  0.12588083  0.87365679  1
  Fe  Fe30  1  0.87128283  0.37360657  0.12296179  1
  Fe  Fe31  1  0.25061141  0.75184964  0.24783571  1
  Fe  Fe32  1  0.25294941  0.00098654  0.75023814  1
  Fe  Fe33  1  0.25330027  0.00288912  0.49904291  1
  Fe  Fe34  1  0.37843401  0.12635133  0.62595271  1
  Fe  Fe35  1  0.25002116  0.24801113  0.00042301  1
  Fe  Fe36  1  0.62727969  0.87425851  0.87239649  1
  Fe  Fe37  1  -0.00175299  0.50150017  0.24822235  1
  Fe  Fe38  1  0.87255152  0.12628268  0.12608120  1
  Fe  Fe39  1  0.75295649  0.49962714  0.75097197  1
  Fe  Fe40  1  0.87449442  0.62590220  0.62331169  1
  Fe  Fe41  1  -0.00442889  -0.00334623  0.24999211  1
  Fe  Fe42  1  0.74627325  -0.00079761  0.50008399  1
  Fe  Fe43  1  0.25038946  0.24940902  0.24905094  1
  Fe  Fe44  1  0.12425595  0.37475080  0.62399214  1
  Fe  Fe45  1  0.50112853  0.50243779  0.49776073  1
  Fe  Fe46  1  0.12355478  0.12139497  0.12557679  1
  Fe  Fe47  1  -0.00012666  0.50267731  0.00099972  1
  Fe  Fe48  1  -0.00100416  0.25089700  0.24979299  1
  Fe  Fe49  1  0.62760428  0.87648992  0.12966063  1
  Fe  Fe50  1  0.12549780  0.37700921  0.37445985  1
  Fe  Fe51  1  0.12321730  0.37526058  0.87534095  1
  Fe  Fe52  1  0.25127618  -0.00009395  0.00004347  1
  Fe  Fe53  1  0.74861748  0.50007389  0.25091382  1
  Fe  Fe54  1  0.50177800  0.24900579  0.50109110  1
  Fe  Fe55  1  0.74173838  0.74872596  0.49984725  1
  Fe  Fe56  1  0.74837918  0.24987217  0.49875966  1
  Fe  Fe57  1  0.62534355  0.37606397  0.62514856  1
  Fe  Fe58  1  0.37675962  0.37395674  0.37509026  1
  Fe  Fe59  1  0.87459847  0.63033362  0.87771094  1
  Fe  Fe60  1  0.49955727  0.00120707  0.75086363  1
  Fe  Fe61  1  0.37589706  0.37532602  0.62433878  1
  Fe  Fe62  1  0.37610479  0.62579330  0.12448761  1
  Fe  Fe63  1  0.87183347  0.87346064  0.62446975  1
  Fe  Fe64  1  0.24587606  0.75133728  0.00145501  1
  Fe  Fe65  1  0.62440170  0.12369710  0.37071115  1
  Fe  Fe66  1  0.50390913  0.74985591  0.00029757  1
  Fe  Fe67  1  0.50448644  0.25520139  0.24585194  1
  Fe  Fe68  1  0.37802904  0.87374519  0.62302388  1
  Fe  Fe69  1  0.37402451  0.87222358  0.87565082  1
  Fe  Fe70  1  0.12788555  0.87658716  0.37456126  1
  Fe  Fe71  1  -0.00133180  -0.00140932  0.49942057  1
  Fe  Fe72  1  0.87103449  0.87204763  0.37348818  1
  Fe  Fe73  1  0.12288928  0.12286234  0.87494286  1
  Fe  Fe74  1  0.12426773  0.12325263  0.37318954  1
  Fe  Fe75  1  0.37728090  0.62448454  0.62444520  1
  Fe  Fe76  1  0.00058836  0.50000664  0.50091867  1
  Fe  Fe77  1  0.12587550  0.62333446  0.37378606  1
  Fe  Fe78  1  0.24986301  0.50111592  0.00062877  1
  Fe  Fe79  1  0.25015252  0.24889355  0.49819586  1
  Fe  Fe80  1  0.62257236  0.62335046  0.12915580  1
  Fe  Fe81  1  0.12558433  0.37643329  0.12552467  1
  Fe  Fe82  1  -0.00097269  0.25011852  -0.00047627  1
  Fe  Fe83  1  0.12599871  0.87540931  0.62581623  1
  Fe  Fe84  1  0.00179048  0.75054018  0.49825993  1
  Fe  Fe85  1  0.25390232  0.50012239  0.24971835  1
  Fe  Fe86  1  0.00050867  0.75268600  0.75128943  1
  Fe  Fe87  1  0.50075730  0.74692225  0.75069760  1
  Fe  Fe88  1  0.75175286  0.50533977  0.00037704  1
  Fe  Fe89  1  0.37436494  0.37374678  0.87653553  1
  Co  Co90  1  0.37283656  0.37423806  0.12328974  1
  Co  Co91  1  0.37739404  0.12538049  0.87706580  1
  Co  Co92  1  0.62431722  0.12606382  0.62612676  1
  Co  Co93  1  0.37905547  0.12830779  0.37202269  1
  Co  Co94  1  0.86889064  0.87173170  0.87460486  1
  Co  Co95  1  0.74445961  0.75068153  0.00221707  1
  Co  Co96  1  0.74703163  0.25204873  0.25016291  1
  Co  Co97  1  0.00176947  0.25057281  0.49718642  1
  Co  Co98  1  0.50073270  0.25212274  0.75175108  1
  Co  Co99  1  0.87313368  0.37563401  0.88065494  1
  Co  Co100  1  0.74822803  0.74717591  0.25024499  1
  Co  Co101  1  0.62339451  0.12089066  0.12867513  1
  Co  Co102  1  0.12359238  0.87766068  0.12799775  1
  Co  Co103  1  0.62372391  0.87628130  0.62820941  1
  Co  Co104  1  0.37492625  0.87427213  0.11999910  1
  Co  Co105  1  0.49908227  0.49558951  0.24829770  1
  Co  Co106  1  0.12970033  0.87618537  0.87230305  1
  Co  Co107  1  0.12480857  0.62459183  0.12622759  1
  Co  Co108  1  0.49792141  0.75446938  0.24711259  1
  Co  Co109  1  0.61977677  0.62581531  0.36949362  1
  Co  Co110  1  0.37360205  0.62720489  0.87793010  1
  Co  Co111  1  0.62538423  0.87452152  0.37157856  1
  Co  Co112  1  0.62351465  0.37589363  0.37747226  1
  Co  Co113  1  0.62467003  0.62045262  0.62751692  1
  Co  Co114  1  0.87433067  0.86793627  0.12608438  1
  Co  Co115  1  -0.00234659  0.25183170  0.75193775  1
  Co  Co116  1  0.87446535  0.37431337  0.62121220  1
  Co  Co117  1  0.74775909  0.24521595  0.00035071  1
  Co  Co118  1  0.00274600  0.75068579  0.25338505  1
  Co  Co119  1  0.75379514  -0.00014692  0.24943797  1
  Co  Co120  1  0.00495944  0.75441015  -0.00229594  1
  Co  Co121  1  0.50652927  0.74919067  0.50265975  1
  Co  Co122  1  0.62574161  0.62327985  0.87505979  1
  Co  Co123  1  0.25146823  0.50173362  0.49979923  1
  Co  Co124  1  0.12153445  0.62401412  0.62665491  1
  Co  Co125  1  0.63026092  0.37869154  0.12041046  1
  Co  Co126  1  0.25230286  0.74836894  0.74605558  1
  Co  Co127  1  0.37449142  0.86956872  0.38112504  1
