# generated using pymatgen
data_Fe45Co19
_symmetry_space_group_name_H-M   'P 1'
_cell_length_a   11.41295784
_cell_length_b   11.41562310
_cell_length_c   11.41532787
_cell_angle_alpha   89.98973944
_cell_angle_beta   89.99148810
_cell_angle_gamma   89.99125905
_symmetry_Int_Tables_number   1
_chemical_formula_structural   Fe45Co19
_chemical_formula_sum   'Fe90 Co38'
_cell_volume   1487.25763716
_cell_formula_units_Z   2
loop_
 _symmetry_equiv_pos_site_id
 _symmetry_equiv_pos_as_xyz
  1  'x, y, z'
loop_
 _atom_site_type_symbol
 _atom_site_label
 _atom_site_symmetry_multiplicity
 _atom_site_fract_x
 _atom_site_fract_y
 _atom_site_fract_z
 _atom_site_occupancy
  Fe  Fe0  1  0.74821638  -0.00171366  -0.00462722  1
  Fe  Fe1  1  -0.00070436  0.74730006  0.74701723  1
  Fe  Fe2  1  0.25031948  0.50271451  0.25225823  1
  Fe  Fe3  1  0.37713095  0.12637878  0.37615371  1
  Fe  Fe4  1  0.49721761  0.50272498  0.75475779  1
  Fe  Fe5  1  0.86953149  0.62718494  0.37930847  1
  Fe  Fe6  1  0.87230915  0.13006746  0.87414141  1
  Fe  Fe7  1  0.50464438  0.24795110  0.74705065  1
  Fe  Fe8  1  0.12415833  0.12731155  0.37591920  1
  Fe  Fe9  1  0.37542071  0.87249686  0.37357432  1
  Fe  Fe10  1  0.24974579  0.50062476  -0.00509479  1
  Fe  Fe11  1  0.50195953  0.25123659  0.24893844  1
  Fe  Fe12  1  0.12278520  0.62569238  0.37673761  1
  Fe  Fe13  1  0.62784575  0.62230177  0.62394788  1
  Fe  Fe14  1  0.25034497  0.24962464  0.24962293  1
  Fe  Fe15  1  0.37472438  0.37691342  0.12457182  1
  Fe  Fe16  1  -0.00205760  0.00127490  0.25369825  1
  Fe  Fe17  1  0.62969509  0.87805029  0.62776435  1
  Fe  Fe18  1  0.62774031  0.12683042  0.37778833  1
  Fe  Fe19  1  0.37467709  0.87552513  0.62559420  1
  Fe  Fe20  1  -0.00089814  0.74758913  0.24627474  1
  Fe  Fe21  1  0.87113212  0.37658422  0.12611566  1
  Fe  Fe22  1  -0.00238484  0.25242880  0.25090504  1
  Fe  Fe23  1  0.12471059  0.37788564  0.62408086  1
  Fe  Fe24  1  0.12287571  0.87517021  0.62505803  1
  Fe  Fe25  1  0.37882090  0.12360754  0.62330109  1
  Fe  Fe26  1  0.24967090  -0.00020676  0.25230389  1
  Fe  Fe27  1  0.24876114  0.25056650  -0.00061176  1
  Fe  Fe28  1  0.37790827  0.62666879  0.37460493  1
  Fe  Fe29  1  0.24901913  -0.00079280  0.49948799  1
  Fe  Fe30  1  0.37627122  0.12351947  0.12449724  1
  Fe  Fe31  1  0.00102571  -0.00237491  -0.00237446  1
  Fe  Fe32  1  0.50385762  0.50102617  0.49617568  1
  Fe  Fe33  1  0.24634223  0.74570513  0.75080470  1
  Fe  Fe34  1  0.62894452  0.37821771  0.12650174  1
  Fe  Fe35  1  0.24736584  -0.00206906  -0.00152913  1
  Fe  Fe36  1  0.50341040  -0.00011199  0.75393913  1
  Fe  Fe37  1  0.75324914  0.74861639  0.74690295  1
  Fe  Fe38  1  0.12327356  0.12687879  0.87363221  1
  Fe  Fe39  1  0.24073021  0.74944281  0.00094995  1
  Fe  Fe40  1  0.87455897  0.87670306  0.12590100  1
  Fe  Fe41  1  0.87262993  0.37297015  0.87283811  1
  Fe  Fe42  1  -0.00561145  0.75028028  0.50522439  1
  Fe  Fe43  1  0.62605542  0.37254262  0.87511250  1
  Fe  Fe44  1  0.62464307  0.62918053  0.87585631  1
  Fe  Fe45  1  0.37348643  0.62547899  0.12327467  1
  Fe  Fe46  1  0.50322097  -0.00451496  -0.00252432  1
  Fe  Fe47  1  -0.00356056  0.49854604  0.25495373  1
  Fe  Fe48  1  0.74941668  0.75000149  0.00304758  1
  Fe  Fe49  1  0.50573836  0.25240228  0.50219643  1
  Fe  Fe50  1  0.50004691  0.74914172  0.74750913  1
  Fe  Fe51  1  0.63089233  0.86760627  0.37168187  1
  Fe  Fe52  1  0.86911779  0.12182228  0.62270422  1
  Fe  Fe53  1  -0.00210004  0.00224741  0.74970170  1
  Fe  Fe54  1  0.25069897  0.00016226  0.75051274  1
  Fe  Fe55  1  0.74975137  0.50141039  0.75315361  1
  Fe  Fe56  1  0.00121709  0.50198398  0.74838275  1
  Fe  Fe57  1  0.87203446  0.12939468  0.37923889  1
  Fe  Fe58  1  0.37295902  0.87312285  0.12522952  1
  Fe  Fe59  1  0.37739786  0.37805392  0.62677833  1
  Fe  Fe60  1  0.49943686  0.50154908  -0.00225780  1
  Fe  Fe61  1  0.12486478  0.37772049  0.12767786  1
  Fe  Fe62  1  0.25074462  0.75005277  0.49987609  1
  Fe  Fe63  1  0.62599000  0.62164774  0.12649108  1
  Fe  Fe64  1  0.87904377  0.62556733  0.87845805  1
  Fe  Fe65  1  0.50286035  -0.00350280  0.49823699  1
  Fe  Fe66  1  0.50300565  0.75008830  0.50200208  1
  Fe  Fe67  1  0.87542602  0.87217844  0.87372250  1
  Fe  Fe68  1  0.37545608  0.37462240  0.37443825  1
  Fe  Fe69  1  0.87312182  0.37943162  0.62352223  1
  Fe  Fe70  1  0.12124671  0.87262010  0.37486233  1
  Fe  Fe71  1  0.37388939  0.62308449  0.62511430  1
  Fe  Fe72  1  -0.00138088  0.25294261  0.50060784  1
  Fe  Fe73  1  0.87952483  0.62172748  0.11889122  1
  Fe  Fe74  1  0.50152837  -0.00163260  0.25132086  1
  Fe  Fe75  1  0.37574144  0.86928725  0.87616956  1
  Fe  Fe76  1  0.24943718  0.50031979  0.49928378  1
  Fe  Fe77  1  0.25170781  0.25115051  0.74883379  1
  Fe  Fe78  1  0.87459862  0.12419266  0.12288309  1
  Fe  Fe79  1  0.12382161  0.37474638  0.87151487  1
  Fe  Fe80  1  0.12299118  0.12403412  0.12499664  1
  Fe  Fe81  1  0.75172673  0.00091000  0.25304719  1
  Fe  Fe82  1  0.12392213  0.12552467  0.62458878  1
  Fe  Fe83  1  0.62645316  0.12275647  0.12364191  1
  Fe  Fe84  1  0.25095488  0.25101594  0.50098788  1
  Fe  Fe85  1  0.50132442  0.74832467  0.24654798  1
  Fe  Fe86  1  0.50155481  0.25122595  0.00241014  1
  Fe  Fe87  1  0.63130270  0.37763988  0.37046696  1
  Fe  Fe88  1  0.37695638  0.12685046  0.87618930  1
  Fe  Fe89  1  -0.00102856  0.25298418  0.00060012  1
  Co  Co90  1  -0.00302188  0.24994654  0.74645879  1
  Co  Co91  1  0.11824312  0.62238717  0.87724922  1
  Co  Co92  1  0.12558061  0.37499323  0.37507703  1
  Co  Co93  1  0.74954973  0.50097270  -0.00286454  1
  Co  Co94  1  0.00379728  0.75498528  0.00202647  1
  Co  Co95  1  0.87531894  0.86945989  0.37185155  1
  Co  Co96  1  0.62284486  0.38289668  0.62900329  1
  Co  Co97  1  0.12319295  0.87796270  0.13035407  1
  Co  Co98  1  0.12106758  0.61901624  0.12401027  1
  Co  Co99  1  0.87365742  0.88060627  0.62857338  1
  Co  Co100  1  0.74741786  0.49988821  0.49913350  1
  Co  Co101  1  0.75063341  0.24704279  0.24718168  1
  Co  Co102  1  0.12248110  0.87567868  0.86993843  1
  Co  Co103  1  0.74737341  0.25069783  0.74389153  1
  Co  Co104  1  -0.00120032  -0.00018083  0.49888261  1
  Co  Co105  1  0.50399514  0.74992703  0.00530980  1
  Co  Co106  1  0.75346446  0.74516493  0.24308851  1
  Co  Co107  1  0.62842594  0.11735398  0.62213883  1
  Co  Co108  1  0.75426298  0.50466870  0.24991627  1
  Co  Co109  1  0.49946932  0.50102088  0.25028620  1
  Co  Co110  1  0.37748256  0.37221198  0.87389986  1
  Co  Co111  1  0.74862116  0.00148003  0.75698306  1
  Co  Co112  1  0.74559201  0.25493922  0.50659829  1
  Co  Co113  1  0.87355305  0.61919101  0.62433034  1
  Co  Co114  1  -0.00104174  0.49289835  -0.00168282  1
  Co  Co115  1  0.62842501  0.62898744  0.37502667  1
  Co  Co116  1  0.24782167  0.74715613  0.25004798  1
  Co  Co117  1  0.75092035  0.25141917  0.00251066  1
  Co  Co118  1  0.62889654  0.87768766  0.12772901  1
  Co  Co119  1  0.25015541  0.50213216  0.75272455  1
  Co  Co120  1  0.75182751  0.75219619  0.50658446  1
  Co  Co121  1  0.75189546  -0.00657513  0.49428106  1
  Co  Co122  1  0.12518749  0.62393866  0.62223959  1
  Co  Co123  1  0.86925860  0.37258647  0.37677551  1
  Co  Co124  1  0.62579447  0.86795418  0.87306998  1
  Co  Co125  1  0.62645983  0.12989006  0.87705942  1
  Co  Co126  1  -0.00138621  0.49964709  0.49697072  1
  Co  Co127  1  0.37537560  0.63133120  0.87730242  1
