# generated using pymatgen
data_Fe45Co19
_symmetry_space_group_name_H-M   'P 1'
_cell_length_a   11.41489158
_cell_length_b   11.41632025
_cell_length_c   11.41513683
_cell_angle_alpha   90.00158325
_cell_angle_beta   89.99457102
_cell_angle_gamma   90.00472649
_symmetry_Int_Tables_number   1
_chemical_formula_structural   Fe45Co19
_chemical_formula_sum   'Fe90 Co38'
_cell_volume   1487.57561929
_cell_formula_units_Z   2
loop_
 _symmetry_equiv_pos_site_id
 _symmetry_equiv_pos_as_xyz
  1  'x, y, z'
loop_
 _atom_site_type_symbol
 _atom_site_label
 _atom_site_symmetry_multiplicity
 _atom_site_fract_x
 _atom_site_fract_y
 _atom_site_fract_z
 _atom_site_occupancy
  Fe  Fe0  1  0.37921330  0.12505848  0.12437386  1
  Fe  Fe1  1  0.24727785  -0.00317219  0.00223625  1
  Fe  Fe2  1  0.12326217  0.12495155  0.12505166  1
  Fe  Fe3  1  0.24798822  0.50141239  0.50253065  1
  Fe  Fe4  1  0.24921939  0.50189418  0.00283439  1
  Fe  Fe5  1  0.50100512  0.74941363  0.75046012  1
  Fe  Fe6  1  0.87307863  0.12417558  0.37559284  1
  Fe  Fe7  1  0.62610367  0.12541222  0.87375138  1
  Fe  Fe8  1  0.50031398  -0.00362290  0.24943928  1
  Fe  Fe9  1  0.50336736  -0.00224239  0.00150324  1
  Fe  Fe10  1  0.00126464  -0.00065797  0.75015356  1
  Fe  Fe11  1  0.74845303  -0.00067842  0.00314586  1
  Fe  Fe12  1  0.49933075  0.25054646  0.75310509  1
  Fe  Fe13  1  0.37338003  0.87602479  0.87496487  1
  Fe  Fe14  1  0.50002871  0.25487500  0.25279701  1
  Fe  Fe15  1  -0.00287367  0.50322736  0.00048681  1
  Fe  Fe16  1  0.87302785  0.37772917  0.87305553  1
  Fe  Fe17  1  -0.00173253  0.74939862  0.75071128  1
  Fe  Fe18  1  0.62249863  0.62547443  0.62476720  1
  Fe  Fe19  1  0.25109223  0.24924707  0.74981135  1
  Fe  Fe20  1  -0.00159941  0.00062109  0.25068999  1
  Fe  Fe21  1  0.37792305  0.12472348  0.62401364  1
  Fe  Fe22  1  0.00023845  -0.00323949  0.00098340  1
  Fe  Fe23  1  0.00044126  0.25083948  0.75087218  1
  Fe  Fe24  1  0.37762599  0.62340363  0.37688247  1
  Fe  Fe25  1  0.49725446  0.25499042  0.49519249  1
  Fe  Fe26  1  0.00403932  0.49827823  0.50197692  1
  Fe  Fe27  1  0.37438968  0.12180978  0.87512756  1
  Fe  Fe28  1  0.87667838  0.37571043  0.62690626  1
  Fe  Fe29  1  -0.00012777  0.24960670  -0.00039909  1
  Fe  Fe30  1  0.87177900  0.87184328  0.12806282  1
  Fe  Fe31  1  0.74922337  0.24947585  0.24800768  1
  Fe  Fe32  1  0.74808530  0.24985794  0.00237240  1
  Fe  Fe33  1  0.87137394  0.87589061  0.62519511  1
  Fe  Fe34  1  0.50140432  -0.00326685  0.49986637  1
  Fe  Fe35  1  0.62871398  0.87433777  0.87111934  1
  Fe  Fe36  1  0.25018548  0.50281069  0.24726480  1
  Fe  Fe37  1  0.75053886  0.25033437  0.50152244  1
  Fe  Fe38  1  0.12636336  0.87293962  0.62490862  1
  Fe  Fe39  1  0.62999955  0.62402881  0.87385407  1
  Fe  Fe40  1  0.50237425  0.75188538  -0.00008529  1
  Fe  Fe41  1  0.74654195  0.00110163  0.50275914  1
  Fe  Fe42  1  0.12578738  0.12778454  0.37738407  1
  Fe  Fe43  1  0.24715146  0.50205900  0.74784447  1
  Fe  Fe44  1  0.37474521  0.62511356  0.87681024  1
  Fe  Fe45  1  0.75068838  0.74886032  0.49868987  1
  Fe  Fe46  1  0.74788794  0.49943481  0.50289049  1
  Fe  Fe47  1  0.25045746  0.74965546  0.74977262  1
  Fe  Fe48  1  0.87264776  0.12416969  0.87471358  1
  Fe  Fe49  1  0.87341623  0.37680587  0.37641073  1
  Fe  Fe50  1  0.12620627  0.12829952  0.62296495  1
  Fe  Fe51  1  0.87707152  0.62296751  0.62560933  1
  Fe  Fe52  1  0.87362907  0.12492177  0.62726142  1
  Fe  Fe53  1  0.12425812  0.62567335  0.37506136  1
  Fe  Fe54  1  0.87474753  0.37518467  0.12469436  1
  Fe  Fe55  1  0.37523920  0.37738833  0.62605193  1
  Fe  Fe56  1  0.50274917  0.50148976  0.00077096  1
  Fe  Fe57  1  0.12349373  0.62565536  0.87473804  1
  Fe  Fe58  1  -0.00031943  0.00028175  0.49963703  1
  Fe  Fe59  1  -0.00570100  0.74774707  0.25310749  1
  Fe  Fe60  1  0.50290281  -0.00172574  0.74740974  1
  Fe  Fe61  1  0.62863579  0.62799157  0.12465289  1
  Fe  Fe62  1  0.25192134  -0.00048098  0.49846463  1
  Fe  Fe63  1  0.25167989  0.24978670  0.00103616  1
  Fe  Fe64  1  0.37764162  0.62582685  0.62265225  1
  Fe  Fe65  1  0.87149792  0.87479271  0.87165569  1
  Fe  Fe66  1  0.62642760  0.87320622  0.37456168  1
  Fe  Fe67  1  -0.00166614  0.75095445  0.49761970  1
  Fe  Fe68  1  0.25267139  0.24964272  0.25105896  1
  Fe  Fe69  1  0.25311966  0.74910047  0.24784604  1
  Fe  Fe70  1  0.62380450  0.62227776  0.37664451  1
  Fe  Fe71  1  0.62369557  0.12682456  0.37568315  1
  Fe  Fe72  1  0.12398147  0.37580476  0.12508377  1
  Fe  Fe73  1  -0.00186872  0.74983169  0.00031945  1
  Fe  Fe74  1  0.37843189  0.37700382  0.12454817  1
  Fe  Fe75  1  0.12691411  0.37233747  0.37763333  1
  Fe  Fe76  1  0.12657775  0.12286683  0.87448633  1
  Fe  Fe77  1  0.62642617  0.37694577  0.87438798  1
  Fe  Fe78  1  0.37504604  0.37799920  0.87522046  1
  Fe  Fe79  1  -0.00140814  0.50099797  0.24976420  1
  Fe  Fe80  1  -0.00165859  0.24958484  0.25149229  1
  Fe  Fe81  1  0.12560116  0.37657734  0.87497532  1
  Fe  Fe82  1  0.62257538  0.37401425  0.62662476  1
  Fe  Fe83  1  0.74956258  0.50107746  0.24812554  1
  Fe  Fe84  1  0.25211608  -0.00089308  0.24975855  1
  Fe  Fe85  1  0.37556439  0.87203960  0.62301649  1
  Fe  Fe86  1  0.49880882  0.74959880  0.24933936  1
  Fe  Fe87  1  0.24728662  0.75157976  0.00306384  1
  Fe  Fe88  1  0.12577917  0.87392008  0.37358357  1
  Fe  Fe89  1  0.74835632  0.00146217  0.24798093  1
  Co  Co90  1  0.87307821  0.62386388  0.87290746  1
  Co  Co91  1  0.62097912  0.12678797  0.12612887  1
  Co  Co92  1  0.62683677  0.87137384  0.62541494  1
  Co  Co93  1  0.87227444  0.87904069  0.37636186  1
  Co  Co94  1  0.25675253  0.24985628  0.49849512  1
  Co  Co95  1  0.50253584  0.50122918  0.24864494  1
  Co  Co96  1  0.75251508  0.74643453  0.25727101  1
  Co  Co97  1  0.62367061  0.37489418  0.12401896  1
  Co  Co98  1  0.62902532  0.37646019  0.37492911  1
  Co  Co99  1  0.37846527  0.12290845  0.37419202  1
  Co  Co100  1  0.12563795  0.87392754  0.87291332  1
  Co  Co101  1  0.24989706  -0.00078074  0.74635982  1
  Co  Co102  1  0.12231459  0.87252719  0.12980633  1
  Co  Co103  1  0.74889304  0.50042684  0.74727644  1
  Co  Co104  1  0.50247603  0.75106273  0.49839633  1
  Co  Co105  1  0.37614673  0.87478072  0.12249480  1
  Co  Co106  1  0.00256151  0.49940463  0.74978531  1
  Co  Co107  1  0.37214239  0.38224230  0.37334320  1
  Co  Co108  1  0.74926212  0.25065673  0.74953643  1
  Co  Co109  1  0.87577236  0.12482561  0.12382216  1
  Co  Co110  1  0.37748685  0.62521377  0.12190966  1
  Co  Co111  1  0.12591717  0.36988198  0.62314319  1
  Co  Co112  1  0.74668157  0.00236970  0.74730493  1
  Co  Co113  1  0.12218532  0.62623679  0.12601544  1
  Co  Co114  1  0.24935442  0.74866967  0.49831786  1
  Co  Co115  1  0.37520455  0.87241864  0.37588395  1
  Co  Co116  1  0.62802200  0.87057666  0.12783117  1
  Co  Co117  1  0.50060943  0.50232995  0.75141506  1
  Co  Co118  1  0.75053573  0.74654920  0.74707944  1
  Co  Co119  1  0.62109229  0.12994145  0.62344507  1
  Co  Co120  1  0.50054431  0.49697066  0.49938917  1
  Co  Co121  1  0.75105314  0.75111569  -0.00249985  1
  Co  Co122  1  0.50012529  0.25109248  -0.00331857  1
  Co  Co123  1  0.87197432  0.62696820  0.12492478  1
  Co  Co124  1  -0.00431030  0.24925006  0.49920496  1
  Co  Co125  1  0.87518062  0.61880720  0.37977053  1
  Co  Co126  1  0.75085111  0.49967117  0.00149818  1
  Co  Co127  1  0.12292860  0.62912568  0.62561836  1
