# generated using pymatgen
data_Fe45Co19
_symmetry_space_group_name_H-M   'P 1'
_cell_length_a   11.41580103
_cell_length_b   11.41450642
_cell_length_c   11.41528248
_cell_angle_alpha   89.99798280
_cell_angle_beta   90.00137900
_cell_angle_gamma   90.00254184
_symmetry_Int_Tables_number   1
_chemical_formula_structural   Fe45Co19
_chemical_formula_sum   'Fe90 Co38'
_cell_volume   1487.47676211
_cell_formula_units_Z   2
loop_
 _symmetry_equiv_pos_site_id
 _symmetry_equiv_pos_as_xyz
  1  'x, y, z'
loop_
 _atom_site_type_symbol
 _atom_site_label
 _atom_site_symmetry_multiplicity
 _atom_site_fract_x
 _atom_site_fract_y
 _atom_site_fract_z
 _atom_site_occupancy
  Fe  Fe0  1  0.87545916  0.87522903  0.87823041  1
  Fe  Fe1  1  0.12235637  0.86978322  0.37208061  1
  Fe  Fe2  1  0.37374501  0.62575652  0.87575466  1
  Fe  Fe3  1  0.00062605  -0.00047278  0.00041300  1
  Fe  Fe4  1  0.00053855  0.25157672  -0.00032889  1
  Fe  Fe5  1  0.62583358  0.62521311  0.62646552  1
  Fe  Fe6  1  0.49746597  0.25134149  0.25121810  1
  Fe  Fe7  1  0.24828315  -0.00170258  0.75014015  1
  Fe  Fe8  1  0.49942663  0.74998580  0.50025230  1
  Fe  Fe9  1  0.75251714  -0.00208040  0.25155511  1
  Fe  Fe10  1  0.74987514  -0.00202347  0.75084453  1
  Fe  Fe11  1  0.87580747  0.12499554  0.87453589  1
  Fe  Fe12  1  0.75008672  -0.00080184  0.49792750  1
  Fe  Fe13  1  0.37421719  0.62285084  0.37260476  1
  Fe  Fe14  1  0.37446645  0.12482732  0.62367604  1
  Fe  Fe15  1  0.25126302  0.49808882  0.25003037  1
  Fe  Fe16  1  0.75127542  0.49926329  0.75349349  1
  Fe  Fe17  1  0.87581137  0.62035943  0.88077862  1
  Fe  Fe18  1  0.74978711  0.25084358  -0.00082036  1
  Fe  Fe19  1  0.24765545  0.00024343  0.00233083  1
  Fe  Fe20  1  0.12376867  0.87290937  0.12851221  1
  Fe  Fe21  1  0.49768906  0.25064435  0.49741747  1
  Fe  Fe22  1  0.62382027  0.37570112  0.62451742  1
  Fe  Fe23  1  0.75572581  0.74794255  0.24814677  1
  Fe  Fe24  1  0.00074267  0.50208132  0.25001426  1
  Fe  Fe25  1  0.87649356  0.87322663  0.62283625  1
  Fe  Fe26  1  0.25183341  0.25091906  0.49743096  1
  Fe  Fe27  1  0.75134207  0.25147688  0.49982355  1
  Fe  Fe28  1  0.75157004  0.74943938  0.75048717  1
  Fe  Fe29  1  -0.00156560  0.74676047  0.74917181  1
  Fe  Fe30  1  0.25204810  0.75106707  0.00441229  1
  Fe  Fe31  1  0.12386303  0.37915700  0.62775246  1
  Fe  Fe32  1  0.62469073  0.87150963  0.37263551  1
  Fe  Fe33  1  0.50020577  0.50057242  0.49869863  1
  Fe  Fe34  1  0.37460213  0.12567446  0.87609286  1
  Fe  Fe35  1  0.12692276  0.62708767  0.12909792  1
  Fe  Fe36  1  0.74885821  0.50114530  0.49806543  1
  Fe  Fe37  1  0.37411653  0.87599527  0.62426414  1
  Fe  Fe38  1  0.24894187  0.50053589  0.49993846  1
  Fe  Fe39  1  0.37619000  0.87948186  0.37003236  1
  Fe  Fe40  1  0.87605642  0.37711675  0.37494989  1
  Fe  Fe41  1  0.12317417  0.87265846  0.62419803  1
  Fe  Fe42  1  0.37576956  0.37576772  0.12333539  1
  Fe  Fe43  1  0.12366746  0.12560719  0.87433304  1
  Fe  Fe44  1  0.74997339  0.74826867  0.49870474  1
  Fe  Fe45  1  0.75181855  0.25266233  0.75169916  1
  Fe  Fe46  1  0.62546273  0.12525402  0.62543201  1
  Fe  Fe47  1  0.62378615  0.37593116  0.37457386  1
  Fe  Fe48  1  0.87502778  0.37997316  0.12097265  1
  Fe  Fe49  1  -0.00087846  0.25142262  0.49999452  1
  Fe  Fe50  1  -0.00014322  0.00088315  0.25183812  1
  Fe  Fe51  1  0.62682035  0.87396637  0.12434359  1
  Fe  Fe52  1  0.50124566  -0.00149373  0.75004028  1
  Fe  Fe53  1  0.75035916  0.74634093  0.00272944  1
  Fe  Fe54  1  0.74781175  0.50113715  0.24936958  1
  Fe  Fe55  1  0.24997308  0.75115153  0.74903577  1
  Fe  Fe56  1  0.37314986  0.62407895  0.62620402  1
  Fe  Fe57  1  0.62785322  0.12623201  0.12661554  1
  Fe  Fe58  1  0.37534136  0.87538280  0.87804177  1
  Fe  Fe59  1  0.49836906  0.49988884  0.75124399  1
  Fe  Fe60  1  0.12249902  0.37559856  0.87197287  1
  Fe  Fe61  1  0.62243078  0.37392638  0.87807082  1
  Fe  Fe62  1  0.87516614  0.12393653  0.12468934  1
  Fe  Fe63  1  0.25026920  0.74892087  0.49776856  1
  Fe  Fe64  1  0.00042778  0.74085525  0.49828636  1
  Fe  Fe65  1  0.37661746  0.37364976  0.87841866  1
  Fe  Fe66  1  0.49604173  0.74752388  0.24628356  1
  Fe  Fe67  1  0.12395707  0.12478072  0.62520872  1
  Fe  Fe68  1  0.50018127  0.75189173  0.74903917  1
  Fe  Fe69  1  0.12420083  0.87345690  0.87509750  1
  Fe  Fe70  1  0.24811984  0.49881612  -0.00098100  1
  Fe  Fe71  1  0.12623667  0.62538465  0.87386179  1
  Fe  Fe72  1  -0.00053299  0.74817092  0.00432354  1
  Fe  Fe73  1  0.24838101  -0.00064533  0.49622425  1
  Fe  Fe74  1  0.49886806  0.74645240  0.00322801  1
  Fe  Fe75  1  0.49977975  0.25036525  0.74924163  1
  Fe  Fe76  1  0.62533200  0.87398925  0.87747466  1
  Fe  Fe77  1  0.12683496  0.37161896  0.12597714  1
  Fe  Fe78  1  -0.00100471  0.24953065  0.25038678  1
  Fe  Fe79  1  0.62644028  0.12693660  0.37386984  1
  Fe  Fe80  1  0.37145144  0.12424155  0.12839254  1
  Fe  Fe81  1  0.12456225  0.37499707  0.37487592  1
  Fe  Fe82  1  -0.00051574  0.00127941  0.49787996  1
  Fe  Fe83  1  0.50278303  0.00308505  0.00205098  1
  Fe  Fe84  1  0.25019585  0.25133795  0.74970805  1
  Fe  Fe85  1  0.62135304  0.37761464  0.12319310  1
  Fe  Fe86  1  0.87607339  0.12487485  0.62590893  1
  Fe  Fe87  1  0.87776977  0.37892246  0.62528733  1
  Fe  Fe88  1  0.75177001  0.25305977  0.24922657  1
  Fe  Fe89  1  0.50226766  -0.00068419  0.49893048  1
  Co  Co90  1  0.00720691  0.50007648  0.00201888  1
  Co  Co91  1  0.87704739  0.87285526  0.37713562  1
  Co  Co92  1  0.00002749  -0.00243940  0.74978494  1
  Co  Co93  1  0.87428694  0.12764143  0.37447625  1
  Co  Co94  1  -0.00230276  0.50406191  0.75061562  1
  Co  Co95  1  0.37414275  0.37736765  0.37413688  1
  Co  Co96  1  0.87539279  0.87728064  0.12318709  1
  Co  Co97  1  0.62467687  0.62736978  0.37322013  1
  Co  Co98  1  0.00258490  0.50354089  0.49884990  1
  Co  Co99  1  0.62669489  0.87394270  0.62475333  1
  Co  Co100  1  -0.00579158  0.74716195  0.24889162  1
  Co  Co101  1  0.62466366  0.62662754  0.87252249  1
  Co  Co102  1  0.24330810  0.00033527  0.25060716  1
  Co  Co103  1  0.62548533  0.12631676  0.87298307  1
  Co  Co104  1  0.50493258  0.00090487  0.24763649  1
  Co  Co105  1  0.12399841  0.12830114  0.37577299  1
  Co  Co106  1  0.87727110  0.37830918  0.87937130  1
  Co  Co107  1  0.37510574  0.88031253  0.12523733  1
  Co  Co108  1  0.50012975  0.50053820  0.25056580  1
  Co  Co109  1  0.74419447  0.50050011  -0.00015819  1
  Co  Co110  1  0.25120808  0.24959694  0.25259497  1
  Co  Co111  1  0.12796863  0.62583803  0.36944375  1
  Co  Co112  1  0.50050254  0.24588155  0.00312519  1
  Co  Co113  1  0.24845095  0.25060858  -0.00049974  1
  Co  Co114  1  0.12365722  0.12737412  0.12465139  1
  Co  Co115  1  0.25236832  0.49854468  0.75248451  1
  Co  Co116  1  0.37206289  0.62000855  0.12438474  1
  Co  Co117  1  0.25543135  0.75229404  0.24915568  1
  Co  Co118  1  0.87576803  0.61892789  0.12268450  1
  Co  Co119  1  0.87190469  0.62270074  0.62333341  1
  Co  Co120  1  0.62558389  0.62483337  0.12778081  1
  Co  Co121  1  0.12837355  0.62313952  0.62793433  1
  Co  Co122  1  0.87380055  0.62180903  0.37388244  1
  Co  Co123  1  -0.00111507  0.25087611  0.74985163  1
  Co  Co124  1  0.37532152  0.12151778  0.37242242  1
  Co  Co125  1  0.74859020  0.00239030  -0.00044693  1
  Co  Co126  1  0.37512031  0.37529298  0.62422975  1
  Co  Co127  1  0.50099567  0.50463746  -0.00070356  1
