# generated using pymatgen
data_Fe45Co19
_symmetry_space_group_name_H-M   'P 1'
_cell_length_a   11.41539569
_cell_length_b   11.41585019
_cell_length_c   11.41514763
_cell_angle_alpha   90.00578408
_cell_angle_beta   90.00372987
_cell_angle_gamma   89.98967767
_symmetry_Int_Tables_number   1
_chemical_formula_structural   Fe45Co19
_chemical_formula_sum   'Fe90 Co38'
_cell_volume   1487.58144728
_cell_formula_units_Z   2
loop_
 _symmetry_equiv_pos_site_id
 _symmetry_equiv_pos_as_xyz
  1  'x, y, z'
loop_
 _atom_site_type_symbol
 _atom_site_label
 _atom_site_symmetry_multiplicity
 _atom_site_fract_x
 _atom_site_fract_y
 _atom_site_fract_z
 _atom_site_occupancy
  Fe  Fe0  1  0.12592875  0.12438470  0.87719250  1
  Fe  Fe1  1  0.25262354  0.00065597  0.25074648  1
  Fe  Fe2  1  0.12083860  0.37726471  0.36998263  1
  Fe  Fe3  1  0.25151934  0.75094625  0.49770690  1
  Fe  Fe4  1  0.74771465  0.74838438  0.25214786  1
  Fe  Fe5  1  0.75082260  0.24988225  0.24881915  1
  Fe  Fe6  1  0.12616745  0.62550899  0.12558238  1
  Fe  Fe7  1  0.37807810  0.87371617  0.62447449  1
  Fe  Fe8  1  0.74787566  0.75068404  -0.00236996  1
  Fe  Fe9  1  0.87172832  0.62560552  0.12224440  1
  Fe  Fe10  1  0.75021711  -0.00357331  0.50079611  1
  Fe  Fe11  1  0.49875702  0.00308331  0.49863185  1
  Fe  Fe12  1  0.74821554  0.50123625  0.24958718  1
  Fe  Fe13  1  -0.00196087  0.74806943  0.74967291  1
  Fe  Fe14  1  0.24969246  0.25247039  0.00193178  1
  Fe  Fe15  1  0.12465421  0.62375062  0.87586096  1
  Fe  Fe16  1  0.87437729  0.87546574  0.12754771  1
  Fe  Fe17  1  0.62629082  0.12737079  0.87701289  1
  Fe  Fe18  1  0.37486891  0.37301871  0.62308408  1
  Fe  Fe19  1  0.24771853  -0.00345200  0.00209675  1
  Fe  Fe20  1  0.50029730  0.00055990  -0.00006701  1
  Fe  Fe21  1  0.74948899  0.75398478  0.75002198  1
  Fe  Fe22  1  -0.00338189  0.50095539  0.74750748  1
  Fe  Fe23  1  0.62454276  0.12876891  0.12346118  1
  Fe  Fe24  1  0.87406918  0.12658927  0.62429488  1
  Fe  Fe25  1  -0.00029197  0.24964069  0.75120775  1
  Fe  Fe26  1  0.00362006  -0.00289362  0.00519672  1
  Fe  Fe27  1  0.12287220  0.37449767  0.62563905  1
  Fe  Fe28  1  0.25122703  -0.00122824  0.49776604  1
  Fe  Fe29  1  0.24879301  0.49718436  0.50022232  1
  Fe  Fe30  1  0.12459832  0.37790853  0.87637199  1
  Fe  Fe31  1  0.50105892  0.00039815  0.75010189  1
  Fe  Fe32  1  0.62070332  0.37825877  0.37424675  1
  Fe  Fe33  1  0.50148773  0.74319803  0.25305018  1
  Fe  Fe34  1  -0.00020243  0.25037504  0.49728038  1
  Fe  Fe35  1  0.49871561  0.00413143  0.25055397  1
  Fe  Fe36  1  0.63002211  0.62646921  0.62343034  1
  Fe  Fe37  1  0.24920102  0.25115075  0.75074697  1
  Fe  Fe38  1  0.12602791  0.12596420  0.62320328  1
  Fe  Fe39  1  0.75473992  0.49688326  0.75156505  1
  Fe  Fe40  1  0.87425014  0.12236514  0.37092851  1
  Fe  Fe41  1  0.24924658  0.75055531  0.75101332  1
  Fe  Fe42  1  0.74931345  -0.00280247  0.74976428  1
  Fe  Fe43  1  0.12344775  0.87553157  0.62556040  1
  Fe  Fe44  1  0.37999402  0.37575730  0.37673873  1
  Fe  Fe45  1  0.49928137  0.24877551  0.75107240  1
  Fe  Fe46  1  0.25272907  0.25089966  0.24898012  1
  Fe  Fe47  1  0.50272085  0.74747930  -0.00323441  1
  Fe  Fe48  1  0.37655125  0.87341584  0.12687330  1
  Fe  Fe49  1  0.37231910  0.62542017  0.62439447  1
  Fe  Fe50  1  0.75283548  0.25234684  0.75396338  1
  Fe  Fe51  1  0.62564928  0.37402733  0.62638173  1
  Fe  Fe52  1  0.87189495  0.62203993  0.37991012  1
  Fe  Fe53  1  0.74862453  -0.00038221  0.00243245  1
  Fe  Fe54  1  0.00034206  0.24929285  0.00538893  1
  Fe  Fe55  1  -0.00209578  0.74693932  0.24953589  1
  Fe  Fe56  1  0.87583592  0.37576227  0.12577776  1
  Fe  Fe57  1  0.37572905  0.62504862  0.12415220  1
  Fe  Fe58  1  -0.00267694  0.74946858  0.50062848  1
  Fe  Fe59  1  0.12457226  0.87354431  0.37276761  1
  Fe  Fe60  1  0.74876258  0.49750847  -0.00344458  1
  Fe  Fe61  1  0.75006517  0.25250033  0.49806915  1
  Fe  Fe62  1  0.62288829  0.37410030  0.12444384  1
  Fe  Fe63  1  0.37268603  0.12826494  0.62160971  1
  Fe  Fe64  1  0.37339406  0.12491009  0.87704032  1
  Fe  Fe65  1  0.24816128  0.75118768  -0.00154198  1
  Fe  Fe66  1  0.62766854  0.12564209  0.62557967  1
  Fe  Fe67  1  0.12574516  0.62452433  0.62380570  1
  Fe  Fe68  1  0.62269889  0.87451472  0.37551436  1
  Fe  Fe69  1  0.00045983  0.50209402  0.00270702  1
  Fe  Fe70  1  0.49988578  0.50221853  0.74787419  1
  Fe  Fe71  1  0.37409024  0.62370939  0.87407540  1
  Fe  Fe72  1  0.87504977  0.87739125  0.37173489  1
  Fe  Fe73  1  0.87716163  0.87473875  0.87634535  1
  Fe  Fe74  1  0.87497531  0.12578818  0.87940848  1
  Fe  Fe75  1  0.25271814  0.74812720  0.25219142  1
  Fe  Fe76  1  0.87726777  0.37839772  0.37436966  1
  Fe  Fe77  1  0.37853586  0.37486230  0.12413786  1
  Fe  Fe78  1  0.25204174  0.49939061  0.24744744  1
  Fe  Fe79  1  -0.00014912  0.00175202  0.75039089  1
  Fe  Fe80  1  0.62532942  0.12647306  0.37472761  1
  Fe  Fe81  1  0.49930733  0.74529162  0.49732025  1
  Fe  Fe82  1  0.37684335  0.87404612  0.87366760  1
  Fe  Fe83  1  0.25008925  -0.00110207  0.74957811  1
  Fe  Fe84  1  0.12497412  0.62251789  0.37490538  1
  Fe  Fe85  1  0.12560128  0.12645278  0.37210450  1
  Fe  Fe86  1  0.62296547  0.87278612  0.12627245  1
  Fe  Fe87  1  0.50229138  0.50143314  -0.00084225  1
  Fe  Fe88  1  -0.00073073  -0.00008405  0.49892666  1
  Fe  Fe89  1  0.37486613  0.37752432  0.87464464  1
  Co  Co90  1  0.37381243  0.13000643  0.37798816  1
  Co  Co91  1  0.37332553  0.61925928  0.37520572  1
  Co  Co92  1  0.12736081  0.87128107  0.13034670  1
  Co  Co93  1  0.37752893  0.87419098  0.37353292  1
  Co  Co94  1  0.50200240  0.74808824  0.75055826  1
  Co  Co95  1  0.75159098  0.75577712  0.49868071  1
  Co  Co96  1  0.62819463  0.62308556  0.87200068  1
  Co  Co97  1  -0.00262153  0.50532133  0.24720946  1
  Co  Co98  1  0.24951179  0.49954226  0.74837756  1
  Co  Co99  1  0.87420834  0.12206565  0.12652765  1
  Co  Co100  1  0.62056343  0.87448177  0.62203536  1
  Co  Co101  1  0.12758138  0.12636133  0.12789214  1
  Co  Co102  1  0.24996978  0.49994332  0.00276694  1
  Co  Co103  1  0.12316501  0.37606596  0.12804137  1
  Co  Co104  1  0.50098788  0.50354452  0.24761767  1
  Co  Co105  1  0.75117911  0.25228181  0.00129371  1
  Co  Co106  1  0.62689807  0.62462734  0.12315715  1
  Co  Co107  1  0.24614321  0.25407444  0.49788194  1
  Co  Co108  1  0.00033259  0.50029723  0.50265454  1
  Co  Co109  1  0.74995342  0.49468324  0.50143173  1
  Co  Co110  1  0.74478214  0.00001836  0.24868336  1
  Co  Co111  1  -0.00379374  0.24908289  0.24834710  1
  Co  Co112  1  0.87944097  0.37427898  0.87774062  1
  Co  Co113  1  0.87036806  0.62540185  0.62268080  1
  Co  Co114  1  0.37420255  0.12484275  0.12266664  1
  Co  Co115  1  0.87636493  0.37163059  0.62353846  1
  Co  Co116  1  0.62869989  0.62160159  0.37897638  1
  Co  Co117  1  0.12320950  0.87444471  0.87230503  1
  Co  Co118  1  0.62280896  0.37496645  0.87369964  1
  Co  Co119  1  0.49871400  0.25070457  -0.00235096  1
  Co  Co120  1  0.87754867  0.87613978  0.62638692  1
  Co  Co121  1  0.00143642  0.75109512  0.00264213  1
  Co  Co122  1  0.00289858  -0.00058456  0.24786796  1
  Co  Co123  1  0.50024676  0.50218297  0.50379868  1
  Co  Co124  1  0.49941298  0.24768433  0.24975130  1
  Co  Co125  1  0.50378552  0.24971270  0.50130856  1
  Co  Co126  1  0.87448636  0.62611278  0.87615779  1
  Co  Co127  1  0.62377375  0.87598887  0.87595552  1
