# generated using pymatgen
data_Fe45Co19
_symmetry_space_group_name_H-M   'P 1'
_cell_length_a   11.41542713
_cell_length_b   11.41650657
_cell_length_c   11.41562189
_cell_angle_alpha   89.99451878
_cell_angle_beta   89.99446320
_cell_angle_gamma   89.99836497
_symmetry_Int_Tables_number   1
_chemical_formula_structural   Fe45Co19
_chemical_formula_sum   'Fe90 Co38'
_cell_volume   1487.73290555
_cell_formula_units_Z   2
loop_
 _symmetry_equiv_pos_site_id
 _symmetry_equiv_pos_as_xyz
  1  'x, y, z'
loop_
 _atom_site_type_symbol
 _atom_site_label
 _atom_site_symmetry_multiplicity
 _atom_site_fract_x
 _atom_site_fract_y
 _atom_site_fract_z
 _atom_site_occupancy
  Fe  Fe0  1  0.24904012  0.00183666  0.50044421  1
  Fe  Fe1  1  0.87724908  0.12534773  0.37562166  1
  Fe  Fe2  1  0.00215235  0.24831186  0.24822630  1
  Fe  Fe3  1  0.87486112  0.37142151  0.12342559  1
  Fe  Fe4  1  -0.00065307  -0.00156341  0.00219619  1
  Fe  Fe5  1  0.37995493  0.12261777  0.87853048  1
  Fe  Fe6  1  0.37401114  0.87474985  0.62494982  1
  Fe  Fe7  1  0.12269019  0.62549646  0.87757324  1
  Fe  Fe8  1  0.12563103  0.87642657  0.87445236  1
  Fe  Fe9  1  0.74880801  0.24965385  0.49971369  1
  Fe  Fe10  1  0.49937866  0.49806071  0.49795658  1
  Fe  Fe11  1  0.62813279  0.87832026  0.62937565  1
  Fe  Fe12  1  -0.00138313  -0.00095505  0.74838386  1
  Fe  Fe13  1  0.87518296  0.62581627  0.87744050  1
  Fe  Fe14  1  0.62354409  0.37212695  0.12401245  1
  Fe  Fe15  1  0.87514233  0.62530858  0.37698356  1
  Fe  Fe16  1  0.25123471  0.50095954  -0.00059100  1
  Fe  Fe17  1  -0.00057293  0.75276385  0.00192084  1
  Fe  Fe18  1  0.12768074  0.87415377  0.12546138  1
  Fe  Fe19  1  -0.00105740  0.49932077  0.74986589  1
  Fe  Fe20  1  0.75075296  0.50064814  0.75164466  1
  Fe  Fe21  1  0.62923632  0.87873024  0.36860092  1
  Fe  Fe22  1  0.75114616  0.75150030  0.49939377  1
  Fe  Fe23  1  0.87264360  0.37501822  0.62550200  1
  Fe  Fe24  1  0.50116224  0.25149489  0.49986721  1
  Fe  Fe25  1  0.49896622  0.50050813  0.75036700  1
  Fe  Fe26  1  0.62163618  0.62492841  0.87810937  1
  Fe  Fe27  1  0.25281334  0.00094136  0.74798952  1
  Fe  Fe28  1  0.37613976  0.37539911  0.87530140  1
  Fe  Fe29  1  0.74676984  0.24301468  0.24803337  1
  Fe  Fe30  1  0.00083069  -0.00259426  0.50102001  1
  Fe  Fe31  1  0.25067842  0.50302719  0.25325409  1
  Fe  Fe32  1  0.37729240  0.12696053  0.37445371  1
  Fe  Fe33  1  0.62389890  0.37352171  0.87581468  1
  Fe  Fe34  1  0.25049433  0.50075913  0.49577632  1
  Fe  Fe35  1  0.74931580  0.49718254  -0.00018725  1
  Fe  Fe36  1  0.50001737  0.24759455  0.74983224  1
  Fe  Fe37  1  0.12323184  0.37414000  0.87461348  1
  Fe  Fe38  1  0.62681109  0.62295231  0.62343788  1
  Fe  Fe39  1  0.00416639  0.25081020  0.50092964  1
  Fe  Fe40  1  0.24838023  0.74671017  0.25177597  1
  Fe  Fe41  1  0.62435816  0.62392345  0.12332635  1
  Fe  Fe42  1  0.87313268  0.62521506  0.12178727  1
  Fe  Fe43  1  0.24824741  0.24929422  0.25192506  1
  Fe  Fe44  1  0.25065247  0.24780900  0.74912888  1
  Fe  Fe45  1  0.75179636  -0.00035727  0.49857397  1
  Fe  Fe46  1  0.50032772  0.75020162  0.75017425  1
  Fe  Fe47  1  0.12534340  0.12373627  0.12523819  1
  Fe  Fe48  1  0.62668015  0.37611943  0.62577627  1
  Fe  Fe49  1  0.24553815  0.24881785  0.49877266  1
  Fe  Fe50  1  0.25013078  0.74920202  0.49801832  1
  Fe  Fe51  1  0.12473566  0.87508922  0.37412190  1
  Fe  Fe52  1  -0.00077350  0.74948381  0.24842115  1
  Fe  Fe53  1  0.37637716  0.62553531  0.62355745  1
  Fe  Fe54  1  0.87407148  0.37256285  0.37250943  1
  Fe  Fe55  1  0.12322492  0.12428949  0.87361411  1
  Fe  Fe56  1  -0.00031800  0.49758915  0.50048916  1
  Fe  Fe57  1  0.87170624  0.87585396  0.87390747  1
  Fe  Fe58  1  0.50197730  0.75238244  0.24746671  1
  Fe  Fe59  1  0.74891364  0.24590467  0.75260992  1
  Fe  Fe60  1  0.49943402  -0.00165552  0.49978022  1
  Fe  Fe61  1  0.25080474  0.74947637  -0.00116829  1
  Fe  Fe62  1  0.24907056  0.24862748  -0.00054094  1
  Fe  Fe63  1  0.87633571  0.37184520  0.87830439  1
  Fe  Fe64  1  -0.00142531  -0.00024530  0.24922132  1
  Fe  Fe65  1  0.62407313  0.12294504  0.62513303  1
  Fe  Fe66  1  -0.00281975  0.75463049  0.50220040  1
  Fe  Fe67  1  0.49846766  0.49789715  0.25087707  1
  Fe  Fe68  1  0.37320228  0.37394929  0.62350115  1
  Fe  Fe69  1  0.25105692  0.74936224  0.75158166  1
  Fe  Fe70  1  0.12430686  0.62562456  0.62403809  1
  Fe  Fe71  1  0.00026268  0.50218177  0.24797259  1
  Fe  Fe72  1  0.87611888  0.12499096  0.62417065  1
  Fe  Fe73  1  -0.00111519  0.75165097  0.74739496  1
  Fe  Fe74  1  0.12539853  0.37691300  0.12523728  1
  Fe  Fe75  1  0.75001567  0.74862293  0.74976724  1
  Fe  Fe76  1  0.74505218  0.75468593  -0.00001176  1
  Fe  Fe77  1  0.62437663  0.62423067  0.37522297  1
  Fe  Fe78  1  0.86788688  0.87721424  0.12908271  1
  Fe  Fe79  1  0.62630305  0.37369684  0.37389001  1
  Fe  Fe80  1  0.37553142  0.87438116  0.37232911  1
  Fe  Fe81  1  0.87675234  0.12658393  0.87976073  1
  Fe  Fe82  1  0.25113846  0.50189683  0.75103606  1
  Fe  Fe83  1  0.50251681  0.75301516  0.49943167  1
  Fe  Fe84  1  0.37729698  0.62703556  0.12273388  1
  Fe  Fe85  1  0.75051556  0.50065108  0.25023234  1
  Fe  Fe86  1  0.25287411  0.00058915  0.00214847  1
  Fe  Fe87  1  0.37824253  0.87483836  0.87600291  1
  Fe  Fe88  1  0.25310756  0.00098117  0.24950634  1
  Fe  Fe89  1  0.37612894  0.37151399  0.12654904  1
  Co  Co90  1  0.49860834  -0.00850571  0.00692120  1
  Co  Co91  1  0.62401754  0.88054861  0.86962247  1
  Co  Co92  1  0.87229591  0.87639000  0.37052150  1
  Co  Co93  1  0.50503884  0.75773697  0.00269255  1
  Co  Co94  1  0.49654562  0.00176605  0.74708864  1
  Co  Co95  1  0.74967071  -0.00049118  -0.00009520  1
  Co  Co96  1  0.37717894  0.12934582  0.12526926  1
  Co  Co97  1  0.37470978  0.37089938  0.37450847  1
  Co  Co98  1  0.12717766  0.37521113  0.62593771  1
  Co  Co99  1  0.37930646  0.62650365  0.87808805  1
  Co  Co100  1  0.12397702  0.12408959  0.62821176  1
  Co  Co101  1  0.12806651  0.87558763  0.62589953  1
  Co  Co102  1  0.87355038  0.62361177  0.62363940  1
  Co  Co103  1  0.61972116  0.12036022  0.87913992  1
  Co  Co104  1  0.74786919  0.24858367  0.00024042  1
  Co  Co105  1  0.87650792  0.12567108  0.12154663  1
  Co  Co106  1  0.49843691  0.00119330  0.24692055  1
  Co  Co107  1  0.75236652  0.00640565  0.75273770  1
  Co  Co108  1  0.74995888  0.01167383  0.25011974  1
  Co  Co109  1  -0.00055680  0.49867876  0.00086794  1
  Co  Co110  1  0.62025374  0.12420940  0.11787241  1
  Co  Co111  1  0.49909433  0.49692775  0.00102724  1
  Co  Co112  1  0.37570874  0.12686618  0.62124820  1
  Co  Co113  1  0.63230349  0.87924713  0.13254224  1
  Co  Co114  1  0.12406066  0.37681665  0.37256487  1
  Co  Co115  1  0.37101184  0.87164075  0.12680657  1
  Co  Co116  1  0.12602534  0.62538026  0.12257442  1
  Co  Co117  1  0.00482882  0.24981890  0.00178808  1
  Co  Co118  1  0.12077166  0.62597772  0.37659714  1
  Co  Co119  1  0.87067828  0.87710698  0.62810096  1
  Co  Co120  1  0.75030246  0.74431575  0.25119003  1
  Co  Co121  1  0.12369809  0.12281163  0.37298900  1
  Co  Co122  1  0.50406698  0.24734987  0.25138730  1
  Co  Co123  1  -0.00164534  0.25098957  0.74922371  1
  Co  Co124  1  0.74987213  0.49864364  0.49699900  1
  Co  Co125  1  0.62208168  0.12313552  0.37859064  1
  Co  Co126  1  0.49843798  0.25170767  -0.00201268  1
  Co  Co127  1  0.37955676  0.62758907  0.37435564  1
