# generated using pymatgen
data_Fe45Co19
_symmetry_space_group_name_H-M   'P 1'
_cell_length_a   11.41559668
_cell_length_b   11.41587961
_cell_length_c   11.41466940
_cell_angle_alpha   89.99981930
_cell_angle_beta   90.00012664
_cell_angle_gamma   90.00758593
_symmetry_Int_Tables_number   1
_chemical_formula_structural   Fe45Co19
_chemical_formula_sum   'Fe90 Co38'
_cell_volume   1487.54917204
_cell_formula_units_Z   2
loop_
 _symmetry_equiv_pos_site_id
 _symmetry_equiv_pos_as_xyz
  1  'x, y, z'
loop_
 _atom_site_type_symbol
 _atom_site_label
 _atom_site_symmetry_multiplicity
 _atom_site_fract_x
 _atom_site_fract_y
 _atom_site_fract_z
 _atom_site_occupancy
  Fe  Fe0  1  0.25231985  -0.00153990  0.25510235  1
  Fe  Fe1  1  0.37695603  0.37460558  0.87408018  1
  Fe  Fe2  1  0.74879564  0.24866364  0.74965654  1
  Fe  Fe3  1  0.87192916  0.62581379  0.12529223  1
  Fe  Fe4  1  0.12685565  0.12645503  0.62325245  1
  Fe  Fe5  1  0.86979960  0.87549225  0.12539515  1
  Fe  Fe6  1  0.25030944  0.49818684  -0.00123290  1
  Fe  Fe7  1  0.12629790  0.62593089  0.12513959  1
  Fe  Fe8  1  0.12557684  0.62617407  0.37567175  1
  Fe  Fe9  1  0.37908340  0.12567965  0.87655275  1
  Fe  Fe10  1  0.62352246  0.62626081  0.87483688  1
  Fe  Fe11  1  0.62339557  0.37320048  0.87466058  1
  Fe  Fe12  1  0.50064125  0.00158830  0.74749316  1
  Fe  Fe13  1  0.87524724  0.37466562  0.87290436  1
  Fe  Fe14  1  0.50121784  0.00358583  0.49911757  1
  Fe  Fe15  1  -0.00111577  0.00027198  -0.00060930  1
  Fe  Fe16  1  0.50059392  0.25034988  0.74439540  1
  Fe  Fe17  1  0.74889180  0.00252727  0.49804909  1
  Fe  Fe18  1  0.74699637  0.00274644  0.75278319  1
  Fe  Fe19  1  0.74899762  0.24986996  0.25165195  1
  Fe  Fe20  1  -0.00153276  0.49922269  0.25069895  1
  Fe  Fe21  1  0.37133128  0.12563652  0.61970553  1
  Fe  Fe22  1  0.25000397  0.00045852  -0.00175278  1
  Fe  Fe23  1  0.37275365  0.37332384  0.62313924  1
  Fe  Fe24  1  0.25203619  0.75049633  0.00035018  1
  Fe  Fe25  1  0.00170463  0.75307503  0.50217493  1
  Fe  Fe26  1  0.87059215  0.12328508  0.12427364  1
  Fe  Fe27  1  0.74850400  0.74946874  0.49996309  1
  Fe  Fe28  1  0.87459781  0.87517282  0.87381626  1
  Fe  Fe29  1  0.37682772  0.37188602  0.37571552  1
  Fe  Fe30  1  0.50240223  -0.00006872  0.00272031  1
  Fe  Fe31  1  0.37592751  0.87630404  0.62358706  1
  Fe  Fe32  1  -0.00172663  0.74936400  -0.00082159  1
  Fe  Fe33  1  0.49969219  0.74843624  0.25043051  1
  Fe  Fe34  1  0.25188946  0.25009710  -0.00036169  1
  Fe  Fe35  1  0.37519742  0.87558821  0.12708016  1
  Fe  Fe36  1  0.24888181  0.74851197  0.74834552  1
  Fe  Fe37  1  0.50085893  0.00429215  0.25115925  1
  Fe  Fe38  1  0.62604623  0.37218416  0.38148638  1
  Fe  Fe39  1  0.24848760  0.75639056  0.49658277  1
  Fe  Fe40  1  0.87314378  0.62312636  0.62549955  1
  Fe  Fe41  1  0.12526461  0.87533381  0.12742779  1
  Fe  Fe42  1  0.25187607  0.50136724  0.25205013  1
  Fe  Fe43  1  0.62672887  0.62540796  0.12510899  1
  Fe  Fe44  1  0.00092903  0.25343049  0.50067205  1
  Fe  Fe45  1  0.87260200  0.37495218  0.12638954  1
  Fe  Fe46  1  0.37665988  0.87457896  0.87402653  1
  Fe  Fe47  1  0.50053932  0.49788014  0.25135410  1
  Fe  Fe48  1  0.50107912  0.74912813  0.74637665  1
  Fe  Fe49  1  0.87112722  0.37751060  0.62499174  1
  Fe  Fe50  1  0.24892211  0.49615398  0.49817207  1
  Fe  Fe51  1  0.62448781  0.87600611  0.37509662  1
  Fe  Fe52  1  -0.00313788  0.00062774  0.25029750  1
  Fe  Fe53  1  0.37543451  0.62455331  0.12594092  1
  Fe  Fe54  1  0.50253945  0.49901985  0.74418291  1
  Fe  Fe55  1  0.12660436  0.12319723  0.12567562  1
  Fe  Fe56  1  0.87451610  0.12368915  0.62509378  1
  Fe  Fe57  1  0.00099935  0.00179258  0.74893014  1
  Fe  Fe58  1  0.87557718  0.87530718  0.37611256  1
  Fe  Fe59  1  0.87627272  0.62502741  0.37649375  1
  Fe  Fe60  1  -0.00059530  0.50004065  -0.00125717  1
  Fe  Fe61  1  0.62348552  0.87392153  0.87497976  1
  Fe  Fe62  1  0.74977499  0.50001240  0.25391698  1
  Fe  Fe63  1  0.74765044  0.74850691  0.74890792  1
  Fe  Fe64  1  0.74997783  0.50100156  -0.00282503  1
  Fe  Fe65  1  0.87344683  0.87668304  0.62560596  1
  Fe  Fe66  1  0.24888595  0.50144604  0.74973727  1
  Fe  Fe67  1  -0.00093733  0.75020819  0.24983682  1
  Fe  Fe68  1  0.87534190  0.12617173  0.37647117  1
  Fe  Fe69  1  0.12303626  0.12812082  0.87298703  1
  Fe  Fe70  1  0.12528053  0.87377624  0.87269598  1
  Fe  Fe71  1  0.12446210  0.37221476  0.87145006  1
  Fe  Fe72  1  0.12564469  0.37474060  0.12693730  1
  Fe  Fe73  1  0.74868439  0.24712703  -0.00219007  1
  Fe  Fe74  1  0.50172043  0.74952479  0.50132802  1
  Fe  Fe75  1  0.62253089  0.62331951  0.37856086  1
  Fe  Fe76  1  0.00139169  0.49616372  0.49939473  1
  Fe  Fe77  1  0.00233946  0.50192357  0.74951365  1
  Fe  Fe78  1  -0.00104083  0.24938811  0.00110413  1
  Fe  Fe79  1  0.00239982  0.74712177  0.74817148  1
  Fe  Fe80  1  0.25090283  0.24831807  0.25094530  1
  Fe  Fe81  1  0.25077350  0.00205738  0.74965193  1
  Fe  Fe82  1  0.37713085  0.62500610  0.87501630  1
  Fe  Fe83  1  0.12517811  0.12281488  0.37791183  1
  Fe  Fe84  1  0.50090391  0.24873707  0.24767978  1
  Fe  Fe85  1  0.37363203  0.62559089  0.62096252  1
  Fe  Fe86  1  0.62928930  0.87468287  0.12657907  1
  Fe  Fe87  1  0.50031600  0.25007683  0.00583380  1
  Fe  Fe88  1  -0.00025951  0.24958138  0.25007482  1
  Fe  Fe89  1  0.50054373  0.49856577  0.00232137  1
  Co  Co90  1  0.12434253  0.37537856  0.36988311  1
  Co  Co91  1  0.37462059  0.12778194  0.37810214  1
  Co  Co92  1  -0.00387725  0.24994722  0.74608585  1
  Co  Co93  1  0.62871132  0.12360624  0.12612435  1
  Co  Co94  1  0.75231323  0.24711812  0.50166940  1
  Co  Co95  1  0.49963101  0.75092771  0.00245943  1
  Co  Co96  1  0.12500941  0.87675240  0.62726368  1
  Co  Co97  1  0.37383193  0.12371674  0.12535083  1
  Co  Co98  1  0.62666965  0.62282958  0.62296967  1
  Co  Co99  1  0.75118041  0.50159454  0.49746888  1
  Co  Co100  1  0.87507995  0.62503524  0.87202124  1
  Co  Co101  1  0.49840710  0.49753332  0.50257384  1
  Co  Co102  1  0.74920757  0.74875121  0.25447722  1
  Co  Co103  1  0.62847619  0.37575094  0.12513446  1
  Co  Co104  1  0.62638748  0.12484766  0.62476837  1
  Co  Co105  1  0.87334363  0.37355622  0.37445735  1
  Co  Co106  1  0.12022401  0.87670050  0.37282911  1
  Co  Co107  1  0.25155619  0.75183607  0.25282414  1
  Co  Co108  1  0.87660178  0.12473754  0.87458205  1
  Co  Co109  1  0.24638929  0.25376492  0.49792142  1
  Co  Co110  1  0.74821126  0.00047777  -0.00402115  1
  Co  Co111  1  0.38079066  0.87510114  0.37528465  1
  Co  Co112  1  0.37509528  0.62531222  0.37815168  1
  Co  Co113  1  -0.00049683  -0.00004329  0.50174070  1
  Co  Co114  1  0.50066295  0.24855589  0.50356717  1
  Co  Co115  1  0.12566228  0.62576112  0.87675379  1
  Co  Co116  1  0.61969244  0.12680924  0.87454227  1
  Co  Co117  1  0.62574924  0.87777900  0.62387809  1
  Co  Co118  1  0.25410869  0.24786254  0.75095506  1
  Co  Co119  1  0.62487019  0.12813489  0.37517198  1
  Co  Co120  1  0.12627213  0.37333181  0.62956413  1
  Co  Co121  1  0.12657956  0.62458104  0.61987997  1
  Co  Co122  1  0.24969715  -0.00461189  0.49794677  1
  Co  Co123  1  0.37315224  0.37564958  0.12722318  1
  Co  Co124  1  0.74602898  0.49976624  0.75194593  1
  Co  Co125  1  0.62978622  0.37513545  0.62057959  1
  Co  Co126  1  0.75027059  0.74956609  -0.00184385  1
  Co  Co127  1  0.75091722  0.00007623  0.25503071  1
