# generated using pymatgen
data_Fe45Co19
_symmetry_space_group_name_H-M   'P 1'
_cell_length_a   11.41469786
_cell_length_b   11.41487824
_cell_length_c   11.41649855
_cell_angle_alpha   89.99720735
_cell_angle_beta   89.99710912
_cell_angle_gamma   90.00620720
_symmetry_Int_Tables_number   1
_chemical_formula_structural   Fe45Co19
_chemical_formula_sum   'Fe90 Co38'
_cell_volume   1487.53990914
_cell_formula_units_Z   2
loop_
 _symmetry_equiv_pos_site_id
 _symmetry_equiv_pos_as_xyz
  1  'x, y, z'
loop_
 _atom_site_type_symbol
 _atom_site_label
 _atom_site_symmetry_multiplicity
 _atom_site_fract_x
 _atom_site_fract_y
 _atom_site_fract_z
 _atom_site_occupancy
  Fe  Fe0  1  0.37365900  0.87328767  0.37400347  1
  Fe  Fe1  1  0.62724365  0.12742569  0.12125286  1
  Fe  Fe2  1  0.75018575  0.75106899  0.49929774  1
  Fe  Fe3  1  0.12504001  0.37340157  0.37462903  1
  Fe  Fe4  1  0.37561597  0.62660285  0.62326669  1
  Fe  Fe5  1  0.50181456  0.49944597  0.74973974  1
  Fe  Fe6  1  0.37486913  0.12442051  0.12482292  1
  Fe  Fe7  1  0.75033376  0.74785256  0.24995854  1
  Fe  Fe8  1  -0.00019931  0.74849765  0.25021969  1
  Fe  Fe9  1  0.00149388  0.25129413  0.75128547  1
  Fe  Fe10  1  0.62432629  0.62221021  0.87803689  1
  Fe  Fe11  1  0.25019434  0.24740204  0.74980371  1
  Fe  Fe12  1  0.49829012  0.74701959  0.24881893  1
  Fe  Fe13  1  0.75078820  -0.00145760  -0.00064038  1
  Fe  Fe14  1  0.74728059  0.49856579  0.24890823  1
  Fe  Fe15  1  0.12755918  0.62527635  0.87618917  1
  Fe  Fe16  1  0.12595618  0.62636467  0.37732044  1
  Fe  Fe17  1  0.62389977  0.87634015  0.62550844  1
  Fe  Fe18  1  0.00170626  0.00130299  0.75013251  1
  Fe  Fe19  1  0.24941748  0.50114488  0.24898907  1
  Fe  Fe20  1  0.24719915  0.00055929  0.24811539  1
  Fe  Fe21  1  0.00139331  0.49489669  0.50310938  1
  Fe  Fe22  1  0.50454515  0.24564182  0.75026674  1
  Fe  Fe23  1  -0.00559187  0.24662540  0.25181646  1
  Fe  Fe24  1  0.87746513  0.87772488  0.37286464  1
  Fe  Fe25  1  0.75000110  0.74822841  0.00029700  1
  Fe  Fe26  1  0.12510805  0.87281348  0.62554631  1
  Fe  Fe27  1  -0.00066367  0.75058801  0.50074079  1
  Fe  Fe28  1  0.75045871  0.49613940  0.50379517  1
  Fe  Fe29  1  0.12396589  0.87513880  0.37430772  1
  Fe  Fe30  1  0.62321811  0.37523940  0.12321154  1
  Fe  Fe31  1  0.37505957  0.37402606  0.87109245  1
  Fe  Fe32  1  0.49916781  -0.00209147  -0.00249633  1
  Fe  Fe33  1  0.25125706  0.74963071  0.74780276  1
  Fe  Fe34  1  0.62353328  0.87509393  0.12634519  1
  Fe  Fe35  1  0.87607290  0.62390222  0.62598763  1
  Fe  Fe36  1  0.87457854  0.87477968  0.87407457  1
  Fe  Fe37  1  0.87568497  0.62389548  0.12401523  1
  Fe  Fe38  1  0.12341011  0.37184004  0.12433886  1
  Fe  Fe39  1  0.49974871  -0.00063432  0.49863027  1
  Fe  Fe40  1  0.12624282  0.62612723  0.12228677  1
  Fe  Fe41  1  0.74476723  0.25105171  0.74751861  1
  Fe  Fe42  1  0.50136488  0.24996154  0.25113064  1
  Fe  Fe43  1  0.37567469  0.37417112  0.62619198  1
  Fe  Fe44  1  0.87517218  0.62202133  0.37630367  1
  Fe  Fe45  1  0.74693125  0.00353056  0.75016037  1
  Fe  Fe46  1  0.62413017  0.62424319  0.37718148  1
  Fe  Fe47  1  0.24902652  0.49984385  0.50313544  1
  Fe  Fe48  1  0.37606864  0.37619099  0.12737556  1
  Fe  Fe49  1  0.37621265  0.62561947  0.87687273  1
  Fe  Fe50  1  0.12755025  0.87488628  0.87597763  1
  Fe  Fe51  1  0.00380473  0.49915580  0.74896754  1
  Fe  Fe52  1  0.74914646  0.74727139  0.75046944  1
  Fe  Fe53  1  0.00036320  0.74882782  0.75216315  1
  Fe  Fe54  1  0.12724522  0.12610409  0.87858020  1
  Fe  Fe55  1  0.12396504  0.12919955  0.12157694  1
  Fe  Fe56  1  0.62801312  0.12903603  0.37950887  1
  Fe  Fe57  1  0.12781302  0.37403939  0.87388627  1
  Fe  Fe58  1  0.00180388  0.50129502  0.24976382  1
  Fe  Fe59  1  0.49946427  0.75265288  0.75043388  1
  Fe  Fe60  1  0.37220376  0.11990848  0.87455767  1
  Fe  Fe61  1  0.24877134  -0.00088754  0.50126676  1
  Fe  Fe62  1  0.50244789  0.00384665  0.25101487  1
  Fe  Fe63  1  0.25094933  0.24971995  0.50002346  1
  Fe  Fe64  1  -0.00189107  0.49670850  -0.00142210  1
  Fe  Fe65  1  -0.00026104  0.00118199  0.00024787  1
  Fe  Fe66  1  0.62536286  0.87400958  0.87484863  1
  Fe  Fe67  1  0.25630862  0.75292707  0.00331959  1
  Fe  Fe68  1  0.12043922  0.12419090  0.37750607  1
  Fe  Fe69  1  0.75480962  0.25657893  -0.00050756  1
  Fe  Fe70  1  0.37359623  0.62561056  0.37544466  1
  Fe  Fe71  1  0.87315011  0.62140391  0.87410136  1
  Fe  Fe72  1  0.62360816  0.62516804  0.62285568  1
  Fe  Fe73  1  0.75179616  -0.00123944  0.50014808  1
  Fe  Fe74  1  0.25275019  0.49649710  -0.00066876  1
  Fe  Fe75  1  0.87371649  0.12662508  0.87520960  1
  Fe  Fe76  1  0.87590311  0.12734840  0.62289035  1
  Fe  Fe77  1  0.37673657  0.12075569  0.62691212  1
  Fe  Fe78  1  0.12284712  0.12814161  0.62204478  1
  Fe  Fe79  1  0.49730260  0.25116360  -0.00247522  1
  Fe  Fe80  1  0.62050050  0.62242971  0.12118986  1
  Fe  Fe81  1  0.62469864  0.87396538  0.37311184  1
  Fe  Fe82  1  0.87582138  0.87410552  0.12470874  1
  Fe  Fe83  1  0.37533798  0.37537533  0.37503390  1
  Fe  Fe84  1  0.37438771  0.12496377  0.37397953  1
  Fe  Fe85  1  0.25059030  0.24919537  0.24992581  1
  Fe  Fe86  1  0.12376830  0.87277629  0.12484529  1
  Fe  Fe87  1  0.87414038  0.87432780  0.62816189  1
  Fe  Fe88  1  0.62342877  0.37297667  0.37960563  1
  Fe  Fe89  1  0.75179311  0.00425482  0.24971948  1
  Co  Co90  1  -0.00422224  0.25366950  -0.00333402  1
  Co  Co91  1  0.24914034  -0.00110297  0.00394120  1
  Co  Co92  1  0.75260480  0.49758122  0.00159956  1
  Co  Co93  1  0.74476375  0.49975451  0.74629920  1
  Co  Co94  1  -0.00014839  -0.00241285  0.50430618  1
  Co  Co95  1  0.75531846  0.25416251  0.50070327  1
  Co  Co96  1  0.50070522  0.75152312  0.49946049  1
  Co  Co97  1  0.87723807  0.37605377  0.13005148  1
  Co  Co98  1  0.62783050  0.12698740  0.88076784  1
  Co  Co99  1  0.87637220  0.12252146  0.37946793  1
  Co  Co100  1  0.87249553  0.12611265  0.12148274  1
  Co  Co101  1  0.37797602  0.87860997  0.12964127  1
  Co  Co102  1  0.50103080  0.49925895  0.25320071  1
  Co  Co103  1  0.25198077  0.50232894  0.74967775  1
  Co  Co104  1  0.50619762  0.00296870  0.75279922  1
  Co  Co105  1  0.62557293  0.12504355  0.61880664  1
  Co  Co106  1  0.00011703  0.00260079  0.24503464  1
  Co  Co107  1  0.37254982  0.87955829  0.87004511  1
  Co  Co108  1  0.12370728  0.62515942  0.62557424  1
  Co  Co109  1  0.25037819  0.74880934  0.24755216  1
  Co  Co110  1  0.24443079  0.00092713  0.74660214  1
  Co  Co111  1  0.49523353  0.24787305  0.50066110  1
  Co  Co112  1  0.37709370  0.62062065  0.12444776  1
  Co  Co113  1  0.75024972  0.24959115  0.25108930  1
  Co  Co114  1  0.49675182  0.49623967  -0.00319106  1
  Co  Co115  1  -0.00230646  0.25615154  0.49930152  1
  Co  Co116  1  0.49763265  0.75382185  -0.00013474  1
  Co  Co117  1  0.25393051  0.25226743  -0.00032133  1
  Co  Co118  1  0.62587974  0.37650572  0.87526198  1
  Co  Co119  1  0.37697457  0.87827032  0.62682590  1
  Co  Co120  1  0.62034373  0.37319168  0.62200304  1
  Co  Co121  1  0.24967827  0.75065110  0.50246299  1
  Co  Co122  1  0.49755642  0.50077128  0.49985391  1
  Co  Co123  1  -0.00155158  0.74929020  -0.00231297  1
  Co  Co124  1  0.87443039  0.37812914  0.37151149  1
  Co  Co125  1  0.12897827  0.37328274  0.62737320  1
  Co  Co126  1  0.87542841  0.37460908  0.63108483  1
  Co  Co127  1  0.87279536  0.37785444  0.86791350  1
