# generated using pymatgen
data_Fe45Co19
_symmetry_space_group_name_H-M   'P 1'
_cell_length_a   11.41471350
_cell_length_b   11.41572640
_cell_length_c   11.41597409
_cell_angle_alpha   89.99972841
_cell_angle_beta   89.99923271
_cell_angle_gamma   89.98995457
_symmetry_Int_Tables_number   1
_chemical_formula_structural   Fe45Co19
_chemical_formula_sum   'Fe90 Co38'
_cell_volume   1487.58412410
_cell_formula_units_Z   2
loop_
 _symmetry_equiv_pos_site_id
 _symmetry_equiv_pos_as_xyz
  1  'x, y, z'
loop_
 _atom_site_type_symbol
 _atom_site_label
 _atom_site_symmetry_multiplicity
 _atom_site_fract_x
 _atom_site_fract_y
 _atom_site_fract_z
 _atom_site_occupancy
  Fe  Fe0  1  0.49844411  0.49982476  -0.00205196  1
  Fe  Fe1  1  0.24926893  0.74892916  0.74756057  1
  Fe  Fe2  1  0.24902970  0.24687695  0.24706966  1
  Fe  Fe3  1  0.87365860  0.12393810  0.12208048  1
  Fe  Fe4  1  0.00149061  0.75217276  0.50018292  1
  Fe  Fe5  1  0.87988351  0.12781629  0.62551190  1
  Fe  Fe6  1  0.37289300  0.12229265  0.12121796  1
  Fe  Fe7  1  0.87773839  0.62376214  0.62385348  1
  Fe  Fe8  1  0.87553277  0.62871339  0.87711628  1
  Fe  Fe9  1  0.37333258  0.87702144  0.62248269  1
  Fe  Fe10  1  0.00025953  0.00150470  0.49917590  1
  Fe  Fe11  1  0.75200209  0.00115430  0.50159308  1
  Fe  Fe12  1  0.37462987  0.87553098  0.12599185  1
  Fe  Fe13  1  0.37406337  0.37330347  0.87133359  1
  Fe  Fe14  1  0.37397170  0.87482803  0.87269506  1
  Fe  Fe15  1  0.50126557  0.75034238  0.74918188  1
  Fe  Fe16  1  0.62427626  0.37749590  0.37565689  1
  Fe  Fe17  1  0.49984138  -0.00166003  -0.00349276  1
  Fe  Fe18  1  0.00134837  0.50003417  0.24966747  1
  Fe  Fe19  1  0.75184619  0.49954121  0.00057798  1
  Fe  Fe20  1  0.49926645  0.24834344  0.25032952  1
  Fe  Fe21  1  0.12395406  0.62395424  0.62569011  1
  Fe  Fe22  1  0.12461058  0.62631295  0.37471875  1
  Fe  Fe23  1  0.75038943  0.50019753  0.24939672  1
  Fe  Fe24  1  0.24890625  0.49891660  0.50122185  1
  Fe  Fe25  1  0.37582173  0.37530371  0.12582732  1
  Fe  Fe26  1  -0.00198269  0.75384535  0.75067638  1
  Fe  Fe27  1  0.62493538  0.62154625  0.37790700  1
  Fe  Fe28  1  0.37355004  0.37564442  0.63013248  1
  Fe  Fe29  1  0.37533906  0.62698220  0.87490683  1
  Fe  Fe30  1  0.62575007  0.12378575  0.37514957  1
  Fe  Fe31  1  0.75038098  0.75052959  0.24961717  1
  Fe  Fe32  1  0.24920547  0.50049174  0.24882670  1
  Fe  Fe33  1  0.62407672  0.87615158  0.12547216  1
  Fe  Fe34  1  0.00094998  0.24717657  0.25011012  1
  Fe  Fe35  1  0.12528100  0.87596044  0.12723625  1
  Fe  Fe36  1  -0.00341476  -0.00032370  0.75497361  1
  Fe  Fe37  1  0.24371513  0.24662648  0.75195295  1
  Fe  Fe38  1  0.87539617  0.87634044  0.37491885  1
  Fe  Fe39  1  0.24831780  0.75361896  -0.00068869  1
  Fe  Fe40  1  0.75139794  0.24848515  0.74980867  1
  Fe  Fe41  1  0.12565891  0.87766888  0.62442974  1
  Fe  Fe42  1  0.12462871  0.37461598  0.12358318  1
  Fe  Fe43  1  0.75185555  0.75025310  0.50229565  1
  Fe  Fe44  1  0.62536275  0.12385137  0.12458121  1
  Fe  Fe45  1  0.49931538  0.75147978  0.50117193  1
  Fe  Fe46  1  -0.00162214  -0.00562676  -0.00560667  1
  Fe  Fe47  1  0.00007108  0.00106914  0.25064231  1
  Fe  Fe48  1  0.75075335  0.50154560  0.74894015  1
  Fe  Fe49  1  0.37457125  0.12480146  0.62450496  1
  Fe  Fe50  1  0.62579401  0.62786416  0.87584915  1
  Fe  Fe51  1  0.49908849  0.25087952  0.50155707  1
  Fe  Fe52  1  0.00224732  0.49609860  0.49816203  1
  Fe  Fe53  1  0.87717129  0.37281380  0.37411332  1
  Fe  Fe54  1  0.49875982  0.24860467  -0.00185961  1
  Fe  Fe55  1  0.62728912  0.87655108  0.62634366  1
  Fe  Fe56  1  0.75246036  0.25028259  0.49928146  1
  Fe  Fe57  1  0.37549651  0.62344459  0.62597207  1
  Fe  Fe58  1  0.24862059  0.00320590  0.75140479  1
  Fe  Fe59  1  0.24495068  0.24965871  0.50278519  1
  Fe  Fe60  1  0.00019959  0.25055983  -0.00262827  1
  Fe  Fe61  1  0.62423112  0.37666904  0.62579875  1
  Fe  Fe62  1  0.62247446  0.62449286  0.12345892  1
  Fe  Fe63  1  0.12253885  0.62750698  0.12323928  1
  Fe  Fe64  1  0.62355609  0.62137338  0.62277870  1
  Fe  Fe65  1  0.24874385  0.49934882  -0.00147699  1
  Fe  Fe66  1  0.12339716  0.62676600  0.87639290  1
  Fe  Fe67  1  0.37492616  0.62569511  0.37601012  1
  Fe  Fe68  1  0.50093900  0.00224462  0.75022801  1
  Fe  Fe69  1  0.12635257  0.12442874  0.37528140  1
  Fe  Fe70  1  0.62817019  0.12514602  0.87533679  1
  Fe  Fe71  1  0.63219717  0.87334404  0.87262860  1
  Fe  Fe72  1  0.00193220  0.49765606  0.75283726  1
  Fe  Fe73  1  0.87585575  0.37415214  0.12520049  1
  Fe  Fe74  1  0.49546508  0.00127337  0.25408135  1
  Fe  Fe75  1  0.62351239  0.37516678  0.12504335  1
  Fe  Fe76  1  0.87490752  0.87432613  0.12492167  1
  Fe  Fe77  1  0.87885256  0.62701862  0.12352016  1
  Fe  Fe78  1  0.87959679  0.37227466  0.62526436  1
  Fe  Fe79  1  0.75054078  0.24799753  0.24964728  1
  Fe  Fe80  1  0.49986790  0.74929127  0.25123374  1
  Fe  Fe81  1  0.62454933  0.87737035  0.37558547  1
  Fe  Fe82  1  0.87490709  0.37311883  0.87527696  1
  Fe  Fe83  1  0.62499792  0.37365638  0.87388828  1
  Fe  Fe84  1  0.37555290  0.62694864  0.12377544  1
  Fe  Fe85  1  0.12759798  0.12183446  0.11908239  1
  Fe  Fe86  1  0.24863832  0.75339255  0.25336481  1
  Fe  Fe87  1  0.62519864  0.12546986  0.62448548  1
  Fe  Fe88  1  0.37317699  0.37368230  0.37314806  1
  Fe  Fe89  1  0.87543159  0.62491819  0.37542128  1
  Co  Co90  1  0.25137876  0.25203084  -0.00079727  1
  Co  Co91  1  -0.00004512  0.75125115  0.25143485  1
  Co  Co92  1  0.75011504  -0.00026162  0.00076587  1
  Co  Co93  1  0.24978563  0.00118876  0.49733104  1
  Co  Co94  1  0.12669213  0.37368603  0.37188138  1
  Co  Co95  1  0.74961264  0.25047139  0.00150440  1
  Co  Co96  1  0.75156170  -0.00012440  0.24869968  1
  Co  Co97  1  0.87564031  0.87636584  0.62512973  1
  Co  Co98  1  0.00010466  0.49854855  -0.00024375  1
  Co  Co99  1  0.00095539  0.75597688  -0.00269151  1
  Co  Co100  1  0.12807172  0.87450246  0.87053040  1
  Co  Co101  1  0.37301518  0.12456382  0.87598351  1
  Co  Co102  1  0.25024339  -0.00488727  -0.00196142  1
  Co  Co103  1  0.75328185  0.00444579  0.74778046  1
  Co  Co104  1  0.00413043  0.24858489  0.75399804  1
  Co  Co105  1  0.25177184  0.00073283  0.25276067  1
  Co  Co106  1  0.24803966  0.74952427  0.50104350  1
  Co  Co107  1  0.50109609  0.50136058  0.75161923  1
  Co  Co108  1  0.49960842  0.00182066  0.50099248  1
  Co  Co109  1  0.12380965  0.87666702  0.37604602  1
  Co  Co110  1  0.75110709  0.74559369  0.74388602  1
  Co  Co111  1  0.75040765  0.74963679  0.00458377  1
  Co  Co112  1  0.87449640  0.12439139  0.37520980  1
  Co  Co113  1  0.87369729  0.12658096  0.87680343  1
  Co  Co114  1  0.75360351  0.49789946  0.50131788  1
  Co  Co115  1  0.00367930  0.24993755  0.49772619  1
  Co  Co116  1  0.37346977  0.12866149  0.37819661  1
  Co  Co117  1  0.49990722  0.75334754  -0.00134445  1
  Co  Co118  1  0.12113485  0.12136281  0.62628867  1
  Co  Co119  1  0.49906248  0.50117594  0.25060291  1
  Co  Co120  1  0.12578610  0.37474788  0.87622854  1
  Co  Co121  1  0.12374453  0.37625118  0.62761765  1
  Co  Co122  1  0.24753769  0.50235080  0.75208200  1
  Co  Co123  1  0.49515675  0.49664520  0.50085502  1
  Co  Co124  1  0.86595469  0.87175749  0.87343907  1
  Co  Co125  1  0.37507898  0.87403007  0.37841161  1
  Co  Co126  1  0.50067974  0.24652844  0.74973217  1
  Co  Co127  1  0.12522233  0.12315472  0.87998891  1
