# generated using pymatgen
data_Fe45Co19
_symmetry_space_group_name_H-M   'P 1'
_cell_length_a   11.41632767
_cell_length_b   11.41573033
_cell_length_c   11.41552151
_cell_angle_alpha   90.00223862
_cell_angle_beta   89.99672779
_cell_angle_gamma   89.99971723
_symmetry_Int_Tables_number   1
_chemical_formula_structural   Fe45Co19
_chemical_formula_sum   'Fe90 Co38'
_cell_volume   1487.73603490
_cell_formula_units_Z   2
loop_
 _symmetry_equiv_pos_site_id
 _symmetry_equiv_pos_as_xyz
  1  'x, y, z'
loop_
 _atom_site_type_symbol
 _atom_site_label
 _atom_site_symmetry_multiplicity
 _atom_site_fract_x
 _atom_site_fract_y
 _atom_site_fract_z
 _atom_site_occupancy
  Fe  Fe0  1  0.87471332  0.12419026  0.62784803  1
  Fe  Fe1  1  0.75206626  0.25078580  0.50228550  1
  Fe  Fe2  1  0.12403804  0.87534119  0.62396385  1
  Fe  Fe3  1  0.62236280  0.62501736  0.37560832  1
  Fe  Fe4  1  0.24952664  0.75166935  0.24766709  1
  Fe  Fe5  1  0.37374881  0.62746051  0.87315582  1
  Fe  Fe6  1  0.37857023  0.37653027  0.12196458  1
  Fe  Fe7  1  0.00054966  0.25049106  0.75088910  1
  Fe  Fe8  1  0.25345149  0.50174707  -0.00076869  1
  Fe  Fe9  1  0.25132455  0.24683000  0.50652733  1
  Fe  Fe10  1  0.00211819  0.49997607  0.24982677  1
  Fe  Fe11  1  0.00060965  0.24893995  0.24921233  1
  Fe  Fe12  1  0.25197943  0.74897787  0.50213724  1
  Fe  Fe13  1  0.12689006  0.37299900  0.37614532  1
  Fe  Fe14  1  0.12543138  0.37349139  0.12217350  1
  Fe  Fe15  1  0.00002408  0.75220664  0.49701226  1
  Fe  Fe16  1  0.37519350  0.62616354  0.37368899  1
  Fe  Fe17  1  0.12599810  0.12368682  0.87303646  1
  Fe  Fe18  1  -0.00153867  -0.00206195  0.49615208  1
  Fe  Fe19  1  0.75106679  0.00033007  0.49994563  1
  Fe  Fe20  1  0.87379377  0.87293646  0.87385128  1
  Fe  Fe21  1  0.37478262  0.37154484  0.37585651  1
  Fe  Fe22  1  0.37430736  0.87676133  0.37690748  1
  Fe  Fe23  1  0.25119080  0.00185100  0.25031911  1
  Fe  Fe24  1  0.87445361  0.87388712  0.62586503  1
  Fe  Fe25  1  0.37610296  0.87473162  0.62771685  1
  Fe  Fe26  1  0.25406261  0.00028184  -0.00462919  1
  Fe  Fe27  1  0.62417391  0.12615354  0.87383458  1
  Fe  Fe28  1  0.12559500  0.12442414  0.12346067  1
  Fe  Fe29  1  0.74769549  0.74988937  0.24789703  1
  Fe  Fe30  1  0.87374626  0.37536289  0.37197834  1
  Fe  Fe31  1  0.74740614  0.50129005  0.24719835  1
  Fe  Fe32  1  0.12768370  0.62577732  0.37601291  1
  Fe  Fe33  1  0.12450336  0.62666400  0.12280725  1
  Fe  Fe34  1  0.62453642  0.87615176  0.37765591  1
  Fe  Fe35  1  -0.00316072  0.24763691  -0.00164846  1
  Fe  Fe36  1  0.12721012  0.37598325  0.87696065  1
  Fe  Fe37  1  0.87388841  0.37512041  0.12465332  1
  Fe  Fe38  1  0.74726028  0.74935391  0.74711160  1
  Fe  Fe39  1  0.25138330  0.49995068  0.50197170  1
  Fe  Fe40  1  0.12294067  0.37498540  0.62400001  1
  Fe  Fe41  1  0.87131127  0.37560848  0.87525401  1
  Fe  Fe42  1  0.49867138  0.24828295  0.24783042  1
  Fe  Fe43  1  0.62413816  0.37393634  0.37683222  1
  Fe  Fe44  1  0.75173147  0.50019678  0.50095350  1
  Fe  Fe45  1  0.61981633  0.12087256  0.12280175  1
  Fe  Fe46  1  0.74638810  0.24949479  0.24677870  1
  Fe  Fe47  1  0.75211498  0.74523544  0.00293429  1
  Fe  Fe48  1  0.25337545  0.24869974  0.24792956  1
  Fe  Fe49  1  0.37887757  0.62360869  0.12632897  1
  Fe  Fe50  1  0.75199885  0.00147606  0.00014802  1
  Fe  Fe51  1  0.50486366  0.75157508  0.74854119  1
  Fe  Fe52  1  0.74574255  0.49924655  0.75048523  1
  Fe  Fe53  1  0.24778060  0.50039096  0.75007926  1
  Fe  Fe54  1  0.74725887  -0.00201125  0.74989845  1
  Fe  Fe55  1  0.49794167  0.50093157  0.49898250  1
  Fe  Fe56  1  0.00245678  0.50256555  0.75121507  1
  Fe  Fe57  1  0.12463667  0.87621498  0.12150662  1
  Fe  Fe58  1  0.49872693  0.74932745  -0.00068119  1
  Fe  Fe59  1  0.87696124  0.62598554  0.62769068  1
  Fe  Fe60  1  0.50413695  0.49608292  0.75588286  1
  Fe  Fe61  1  0.74600754  0.25329328  0.74714493  1
  Fe  Fe62  1  -0.00220248  0.74782328  -0.00338206  1
  Fe  Fe63  1  0.75198755  0.24633966  0.00205553  1
  Fe  Fe64  1  0.87697583  0.87667678  0.12903367  1
  Fe  Fe65  1  0.37769383  0.12706499  0.86572912  1
  Fe  Fe66  1  0.62136709  0.37934090  0.11888795  1
  Fe  Fe67  1  0.37452051  0.87412805  0.87214632  1
  Fe  Fe68  1  0.62198114  0.87744748  0.12287624  1
  Fe  Fe69  1  0.87558485  0.62706809  0.37168572  1
  Fe  Fe70  1  0.49887092  0.00116242  0.50448770  1
  Fe  Fe71  1  0.49954047  0.24694448  0.50525093  1
  Fe  Fe72  1  0.25213275  0.00388104  0.50548879  1
  Fe  Fe73  1  0.50015821  0.75245186  0.25132307  1
  Fe  Fe74  1  0.37724606  0.87869413  0.12403124  1
  Fe  Fe75  1  -0.00321069  0.25009959  0.50020729  1
  Fe  Fe76  1  0.62660513  0.87287270  0.87769226  1
  Fe  Fe77  1  -0.00105223  0.49977329  0.49964882  1
  Fe  Fe78  1  0.62379919  0.12448840  0.37546946  1
  Fe  Fe79  1  0.37760041  0.62563030  0.62825406  1
  Fe  Fe80  1  0.24325672  0.75081565  0.75119488  1
  Fe  Fe81  1  0.74841318  0.74842316  0.50167809  1
  Fe  Fe82  1  -0.00400972  0.50166949  -0.00117869  1
  Fe  Fe83  1  0.12702462  0.12528526  0.37674069  1
  Fe  Fe84  1  0.37661309  0.37394354  0.62911781  1
  Fe  Fe85  1  0.25060630  0.49806012  0.24957642  1
  Fe  Fe86  1  -0.00411280  0.00336437  -0.00199328  1
  Fe  Fe87  1  0.00036794  -0.00249908  0.75195905  1
  Fe  Fe88  1  0.25400960  0.24790095  -0.00165758  1
  Fe  Fe89  1  0.87306605  0.12304503  0.36945560  1
  Co  Co90  1  0.61934656  0.62327929  0.12451779  1
  Co  Co91  1  0.62167559  0.62235476  0.62452142  1
  Co  Co92  1  0.00435304  0.75085227  0.75254995  1
  Co  Co93  1  0.24739425  -0.00247098  0.74955553  1
  Co  Co94  1  0.62615860  0.87520143  0.62190514  1
  Co  Co95  1  0.87071486  0.87403622  0.37197897  1
  Co  Co96  1  0.50002312  0.49730998  0.25348596  1
  Co  Co97  1  0.74634355  -0.00122697  0.24841037  1
  Co  Co98  1  0.12019446  0.12323521  0.62586823  1
  Co  Co99  1  0.37531260  0.12555486  0.37706172  1
  Co  Co100  1  0.37700253  0.12083239  0.12348653  1
  Co  Co101  1  0.87272284  0.62553946  0.86968644  1
  Co  Co102  1  0.13168463  0.87604056  0.37712655  1
  Co  Co103  1  0.87583193  0.12278755  0.12985386  1
  Co  Co104  1  0.37820527  0.12529420  0.63530451  1
  Co  Co105  1  0.00366595  -0.00149579  0.25270438  1
  Co  Co106  1  0.50494966  -0.00444522  0.75030828  1
  Co  Co107  1  0.49930317  -0.00011535  0.25299553  1
  Co  Co108  1  0.24529809  0.25089227  0.74762618  1
  Co  Co109  1  0.62892073  0.37338262  0.88380491  1
  Co  Co110  1  0.62673952  0.62793397  0.87644730  1
  Co  Co111  1  0.25323209  0.75062496  0.00092011  1
  Co  Co112  1  0.87580089  0.37630145  0.62771135  1
  Co  Co113  1  0.12683370  0.62486015  0.87940528  1
  Co  Co114  1  0.37251163  0.37198122  0.87303897  1
  Co  Co115  1  0.87824762  0.62673961  0.12928127  1
  Co  Co116  1  0.49932099  0.75049225  0.50074320  1
  Co  Co117  1  0.49830686  -0.00035920  -0.00710743  1
  Co  Co118  1  0.12413950  0.62615700  0.62223125  1
  Co  Co119  1  0.12391303  0.87608700  0.87975408  1
  Co  Co120  1  0.49808333  0.50281015  -0.00757886  1
  Co  Co121  1  0.62422926  0.37819360  0.62014215  1
  Co  Co122  1  0.75239862  0.50609599  0.00169787  1
  Co  Co123  1  0.50707805  0.25579415  0.75018765  1
  Co  Co124  1  0.00424891  0.75332681  0.25293537  1
  Co  Co125  1  0.87159837  0.12604748  0.87007303  1
  Co  Co126  1  0.49671867  0.24795001  -0.00166789  1
  Co  Co127  1  0.62604665  0.12370419  0.62646449  1
