# generated using pymatgen
data_Fe45Co19
_symmetry_space_group_name_H-M   'P 1'
_cell_length_a   11.41521807
_cell_length_b   11.41621432
_cell_length_c   11.41450788
_cell_angle_alpha   90.00147789
_cell_angle_beta   90.00230427
_cell_angle_gamma   89.99353725
_symmetry_Int_Tables_number   1
_chemical_formula_structural   Fe45Co19
_chemical_formula_sum   'Fe90 Co38'
_cell_volume   1487.52240159
_cell_formula_units_Z   2
loop_
 _symmetry_equiv_pos_site_id
 _symmetry_equiv_pos_as_xyz
  1  'x, y, z'
loop_
 _atom_site_type_symbol
 _atom_site_label
 _atom_site_symmetry_multiplicity
 _atom_site_fract_x
 _atom_site_fract_y
 _atom_site_fract_z
 _atom_site_occupancy
  Fe  Fe0  1  0.00299920  -0.00045832  -0.00102981  1
  Fe  Fe1  1  -0.00062892  0.00204564  0.50068413  1
  Fe  Fe2  1  0.87489395  0.62223886  0.62700133  1
  Fe  Fe3  1  0.24781679  -0.00200886  0.75189985  1
  Fe  Fe4  1  0.37330801  0.12540647  0.62584075  1
  Fe  Fe5  1  0.49908686  0.50214756  0.00168997  1
  Fe  Fe6  1  0.37603971  0.37761950  0.87353686  1
  Fe  Fe7  1  0.37352888  0.62446176  0.37460013  1
  Fe  Fe8  1  0.62733584  0.12683200  0.62289730  1
  Fe  Fe9  1  0.50003144  0.74725810  0.24889411  1
  Fe  Fe10  1  0.87308715  0.12298227  0.37197802  1
  Fe  Fe11  1  0.37686436  0.87628367  0.37266619  1
  Fe  Fe12  1  0.25102805  0.49982087  -0.00113090  1
  Fe  Fe13  1  0.75000425  0.75191563  0.24853388  1
  Fe  Fe14  1  0.74635440  -0.00036592  0.75103685  1
  Fe  Fe15  1  0.62502297  0.37130355  0.37496660  1
  Fe  Fe16  1  0.24677348  0.49875676  0.25036919  1
  Fe  Fe17  1  0.00059040  0.24564178  0.24903507  1
  Fe  Fe18  1  0.62507925  0.37205044  0.12582192  1
  Fe  Fe19  1  0.50134203  0.74906930  0.74992069  1
  Fe  Fe20  1  0.12487393  0.12516981  0.62436140  1
  Fe  Fe21  1  0.74544124  -0.00095313  0.00419606  1
  Fe  Fe22  1  0.75067169  0.75149938  0.50223527  1
  Fe  Fe23  1  0.75087105  0.49479087  0.75061829  1
  Fe  Fe24  1  0.87334142  0.62413254  0.12494171  1
  Fe  Fe25  1  0.00189952  0.00208294  0.24694086  1
  Fe  Fe26  1  0.49871814  0.25067748  0.50153805  1
  Fe  Fe27  1  0.62722021  0.62660251  0.12234971  1
  Fe  Fe28  1  0.24692953  0.49769963  0.74872922  1
  Fe  Fe29  1  0.75258575  0.25220541  0.00119309  1
  Fe  Fe30  1  0.50628232  0.00624893  0.24680725  1
  Fe  Fe31  1  0.75287995  0.49800188  0.49808246  1
  Fe  Fe32  1  0.36934390  0.12818046  0.12437172  1
  Fe  Fe33  1  0.49744032  0.24943715  0.00050104  1
  Fe  Fe34  1  0.87325541  0.87739370  0.12550993  1
  Fe  Fe35  1  0.62697611  0.62537896  0.37676333  1
  Fe  Fe36  1  0.12593810  0.87187159  0.12240551  1
  Fe  Fe37  1  0.12194652  0.62579013  0.62764016  1
  Fe  Fe38  1  0.24974059  -0.00159942  0.50024449  1
  Fe  Fe39  1  0.87680997  0.87845896  0.62943665  1
  Fe  Fe40  1  0.50170244  0.00153444  0.50007017  1
  Fe  Fe41  1  0.11783796  0.37490710  0.62264704  1
  Fe  Fe42  1  0.62434997  0.87545710  0.37330629  1
  Fe  Fe43  1  0.24776829  0.25014444  0.49787045  1
  Fe  Fe44  1  0.50276942  0.00174210  0.74995898  1
  Fe  Fe45  1  0.12155721  0.87398142  0.62808299  1
  Fe  Fe46  1  0.12530142  0.37230686  0.12449803  1
  Fe  Fe47  1  0.25301119  0.75119760  0.75173165  1
  Fe  Fe48  1  0.50146746  0.74906850  0.50164006  1
  Fe  Fe49  1  0.37621195  0.62223922  0.62437879  1
  Fe  Fe50  1  0.75045859  0.75216339  0.75133702  1
  Fe  Fe51  1  0.12759726  0.12599879  0.87832661  1
  Fe  Fe52  1  0.12348739  0.87557335  0.37441829  1
  Fe  Fe53  1  0.75156238  0.49786375  0.25090081  1
  Fe  Fe54  1  0.87316056  0.12253207  0.87660483  1
  Fe  Fe55  1  0.37382872  0.12252590  0.87625716  1
  Fe  Fe56  1  0.37893286  0.87538328  0.12454933  1
  Fe  Fe57  1  0.62521276  0.37399667  0.87711915  1
  Fe  Fe58  1  0.49983729  0.25095231  0.74819361  1
  Fe  Fe59  1  0.24793428  0.49977795  0.50055634  1
  Fe  Fe60  1  0.37373124  0.12500273  0.37393575  1
  Fe  Fe61  1  0.87643344  0.37521325  0.12636029  1
  Fe  Fe62  1  0.62132347  0.87275595  0.88069591  1
  Fe  Fe63  1  -0.00072148  0.50000459  -0.00024840  1
  Fe  Fe64  1  0.62640054  0.62408991  0.87677112  1
  Fe  Fe65  1  -0.00366528  0.24731650  0.74957982  1
  Fe  Fe66  1  -0.00178060  0.74819600  0.50014810  1
  Fe  Fe67  1  0.24755605  0.00005349  0.24809260  1
  Fe  Fe68  1  -0.00181019  0.24836848  0.00102720  1
  Fe  Fe69  1  0.50330181  0.49674321  0.74525691  1
  Fe  Fe70  1  0.74886633  -0.00124018  0.49878751  1
  Fe  Fe71  1  0.25822128  0.75026811  -0.00264094  1
  Fe  Fe72  1  0.11783678  0.37472398  0.37627488  1
  Fe  Fe73  1  0.37581305  0.37535021  0.37516525  1
  Fe  Fe74  1  0.87218564  0.62175741  0.87642682  1
  Fe  Fe75  1  0.12192803  0.37356764  0.87558072  1
  Fe  Fe76  1  0.87501936  0.87544913  0.37308580  1
  Fe  Fe77  1  -0.00479534  0.75177985  -0.00348823  1
  Fe  Fe78  1  0.24988469  0.75215746  0.49947005  1
  Fe  Fe79  1  0.37332581  0.37408289  0.12706352  1
  Fe  Fe80  1  0.25038513  0.25206681  0.75020891  1
  Fe  Fe81  1  0.12548312  0.62779702  0.87527360  1
  Fe  Fe82  1  0.37724980  0.87590011  0.62620005  1
  Fe  Fe83  1  0.12535967  0.62718319  0.37238309  1
  Fe  Fe84  1  -0.00038788  0.74869668  0.24953875  1
  Fe  Fe85  1  0.62558595  0.12779678  0.87732858  1
  Fe  Fe86  1  0.12732523  0.62747316  0.12327503  1
  Fe  Fe87  1  0.75316243  0.25262437  0.74839193  1
  Fe  Fe88  1  0.75673902  0.25215168  0.50074505  1
  Fe  Fe89  1  0.50161998  0.49994167  0.25073098  1
  Co  Co90  1  0.87291892  0.62695281  0.37267322  1
  Co  Co91  1  0.62707174  0.37346497  0.62205642  1
  Co  Co92  1  0.75302571  0.75177399  -0.00091669  1
  Co  Co93  1  0.49442096  0.74372775  -0.00068250  1
  Co  Co94  1  0.00067947  0.50365377  0.24774687  1
  Co  Co95  1  0.87370562  0.12252868  0.12375625  1
  Co  Co96  1  0.62804160  0.62292038  0.62510190  1
  Co  Co97  1  0.37976559  0.87949633  0.87536374  1
  Co  Co98  1  0.37192673  0.62257010  0.12969926  1
  Co  Co99  1  -0.00350364  0.24401132  0.50038872  1
  Co  Co100  1  0.12926433  0.12785289  0.12208209  1
  Co  Co101  1  0.00343120  0.00305226  0.75361609  1
  Co  Co102  1  -0.00515143  0.74922863  0.75349132  1
  Co  Co103  1  0.49901725  0.24788165  0.24969084  1
  Co  Co104  1  0.24721444  0.25094638  0.25455754  1
  Co  Co105  1  0.62176069  0.87013736  0.12249259  1
  Co  Co106  1  0.62769781  0.12916385  0.37770736  1
  Co  Co107  1  0.88124812  0.37850251  0.62384469  1
  Co  Co108  1  0.87261690  0.12020176  0.62709878  1
  Co  Co109  1  0.75044114  0.49667151  0.00164431  1
  Co  Co110  1  0.37643738  0.61921639  0.86924872  1
  Co  Co111  1  0.62438493  0.87588549  0.62478685  1
  Co  Co112  1  0.50147503  0.49980451  0.49940745  1
  Co  Co113  1  0.25236878  0.25352648  -0.00353443  1
  Co  Co114  1  0.37323848  0.37533064  0.62362354  1
  Co  Co115  1  0.87358625  0.88108673  0.87426773  1
  Co  Co116  1  0.87634495  0.37418019  0.87659984  1
  Co  Co117  1  0.74450460  0.00032829  0.24819272  1
  Co  Co118  1  0.24873405  -0.00375454  0.00033250  1
  Co  Co119  1  0.62896890  0.13267851  0.12433039  1
  Co  Co120  1  -0.00176521  0.50656520  0.49691341  1
  Co  Co121  1  0.12547351  0.87060870  0.87448160  1
  Co  Co122  1  -0.00011903  0.50075364  0.75457034  1
  Co  Co123  1  0.25026798  0.75286731  0.25034313  1
  Co  Co124  1  0.88110892  0.37516006  0.37339153  1
  Co  Co125  1  0.50234890  0.00520485  0.00437686  1
  Co  Co126  1  0.12462986  0.12241298  0.37504031  1
  Co  Co127  1  0.75312834  0.25071656  0.25026810  1
