# generated using pymatgen
data_Fe45Co19
_symmetry_space_group_name_H-M   'P 1'
_cell_length_a   11.41451318
_cell_length_b   11.41565370
_cell_length_c   11.41524925
_cell_angle_alpha   89.99875766
_cell_angle_beta   90.01671057
_cell_angle_gamma   89.98955193
_symmetry_Int_Tables_number   1
_chemical_formula_structural   Fe45Co19
_chemical_formula_sum   'Fe90 Co38'
_cell_volume   1487.45403106
_cell_formula_units_Z   2
loop_
 _symmetry_equiv_pos_site_id
 _symmetry_equiv_pos_as_xyz
  1  'x, y, z'
loop_
 _atom_site_type_symbol
 _atom_site_label
 _atom_site_symmetry_multiplicity
 _atom_site_fract_x
 _atom_site_fract_y
 _atom_site_fract_z
 _atom_site_occupancy
  Fe  Fe0  1  0.75397967  0.00196225  0.00391311  1
  Fe  Fe1  1  0.75097842  0.49952052  0.24775335  1
  Fe  Fe2  1  0.12429029  0.37838212  0.37568673  1
  Fe  Fe3  1  0.12436655  0.62476894  0.62631694  1
  Fe  Fe4  1  0.24972803  -0.00037889  0.24984406  1
  Fe  Fe5  1  0.62552948  0.87696463  0.62557808  1
  Fe  Fe6  1  0.37357647  0.87387415  0.62415732  1
  Fe  Fe7  1  0.74911105  0.50062911  0.50024870  1
  Fe  Fe8  1  0.37365722  0.12568082  0.12589926  1
  Fe  Fe9  1  0.24860295  0.00237066  0.50117302  1
  Fe  Fe10  1  0.12491431  0.87429822  0.62564508  1
  Fe  Fe11  1  0.62462173  0.37754470  0.62663908  1
  Fe  Fe12  1  0.50102596  0.25078499  0.24743422  1
  Fe  Fe13  1  0.12363035  0.87313781  0.12401779  1
  Fe  Fe14  1  0.00094673  0.74891525  0.50010960  1
  Fe  Fe15  1  0.87663289  0.12822061  0.61983081  1
  Fe  Fe16  1  -0.00073083  0.24978707  -0.00290656  1
  Fe  Fe17  1  -0.00447441  0.00079235  0.24744548  1
  Fe  Fe18  1  0.37516506  0.37480610  0.37545090  1
  Fe  Fe19  1  0.36998831  0.62544488  0.11972208  1
  Fe  Fe20  1  0.75040343  0.50013704  0.75287164  1
  Fe  Fe21  1  0.87916244  0.12443270  0.87507639  1
  Fe  Fe22  1  0.74929939  0.75056778  0.75086024  1
  Fe  Fe23  1  0.62413552  0.62448208  0.87423913  1
  Fe  Fe24  1  0.50123034  0.74984936  0.74932314  1
  Fe  Fe25  1  0.62762502  0.37393173  0.87912525  1
  Fe  Fe26  1  0.87652511  0.87440030  0.62439456  1
  Fe  Fe27  1  0.49766367  0.74936314  0.24981473  1
  Fe  Fe28  1  0.49894614  0.00090291  0.00116752  1
  Fe  Fe29  1  -0.00044171  0.74926672  0.75257495  1
  Fe  Fe30  1  0.12609990  0.87421503  0.37552092  1
  Fe  Fe31  1  0.87072857  0.37317118  0.12011771  1
  Fe  Fe32  1  0.12260085  0.12849689  0.62597783  1
  Fe  Fe33  1  0.37605770  0.87536980  0.87326763  1
  Fe  Fe34  1  0.75149151  0.74851861  -0.00110280  1
  Fe  Fe35  1  0.62198340  0.62297016  0.37513828  1
  Fe  Fe36  1  0.12537455  0.37614036  0.12372027  1
  Fe  Fe37  1  0.62484766  0.87725709  0.37260820  1
  Fe  Fe38  1  0.50044138  0.49765804  0.00121489  1
  Fe  Fe39  1  0.49986130  0.75151215  -0.00049494  1
  Fe  Fe40  1  0.49902195  0.00029763  0.50143736  1
  Fe  Fe41  1  0.62675723  0.87644764  0.12689432  1
  Fe  Fe42  1  0.37609547  0.62605670  0.37806289  1
  Fe  Fe43  1  0.87562826  0.62605345  0.12428001  1
  Fe  Fe44  1  0.25001018  0.50133754  0.24853197  1
  Fe  Fe45  1  0.75274554  0.00118660  0.74903920  1
  Fe  Fe46  1  0.62214544  0.12325689  0.87277139  1
  Fe  Fe47  1  0.37332280  0.87342887  0.37630470  1
  Fe  Fe48  1  0.37817971  0.37219396  0.87227149  1
  Fe  Fe49  1  0.12443493  0.12691822  0.12401456  1
  Fe  Fe50  1  -0.00135730  0.25316159  0.25176273  1
  Fe  Fe51  1  0.37474946  0.37362451  0.12590667  1
  Fe  Fe52  1  0.00241225  0.74633037  0.24805695  1
  Fe  Fe53  1  0.24911597  0.00061555  -0.00153526  1
  Fe  Fe54  1  0.12200750  0.12452298  0.37482095  1
  Fe  Fe55  1  0.25081907  0.49981586  0.50177811  1
  Fe  Fe56  1  -0.00200227  0.49808669  0.75092961  1
  Fe  Fe57  1  0.62566605  0.12387789  0.37482338  1
  Fe  Fe58  1  0.75139944  0.00087089  0.49867515  1
  Fe  Fe59  1  0.74770868  0.74868660  0.49959952  1
  Fe  Fe60  1  0.62417800  0.62359553  0.12581539  1
  Fe  Fe61  1  0.87756671  0.87573317  0.87694099  1
  Fe  Fe62  1  0.25029706  0.25037417  -0.00252827  1
  Fe  Fe63  1  0.50196569  0.25238340  0.50243684  1
  Fe  Fe64  1  0.74971760  0.74903629  0.25097532  1
  Fe  Fe65  1  0.87490174  0.37337633  0.62399607  1
  Fe  Fe66  1  0.12411827  0.37367293  0.87328014  1
  Fe  Fe67  1  0.37739860  0.12696767  0.87311685  1
  Fe  Fe68  1  0.62566812  0.87813219  0.87512911  1
  Fe  Fe69  1  0.37413752  0.87524509  0.12613354  1
  Fe  Fe70  1  -0.00218410  0.50118877  -0.00073805  1
  Fe  Fe71  1  0.12177311  0.87802600  0.87531398  1
  Fe  Fe72  1  0.62354766  0.37754852  0.37144474  1
  Fe  Fe73  1  0.24804430  0.25077061  0.25180144  1
  Fe  Fe74  1  0.87356600  0.62504019  0.62628821  1
  Fe  Fe75  1  0.37992599  0.62304164  0.62404141  1
  Fe  Fe76  1  0.25364542  0.49990440  0.75172713  1
  Fe  Fe77  1  0.75023051  0.24859183  0.75057694  1
  Fe  Fe78  1  0.12390071  0.62196693  0.37470236  1
  Fe  Fe79  1  0.12780207  0.62407187  0.87811646  1
  Fe  Fe80  1  0.75098884  0.24922385  0.25150860  1
  Fe  Fe81  1  0.87595443  0.37612238  0.37783338  1
  Fe  Fe82  1  0.87714985  0.62207245  0.37590961  1
  Fe  Fe83  1  0.62520799  0.12488023  0.12672601  1
  Fe  Fe84  1  0.12750305  0.37216753  0.62595743  1
  Fe  Fe85  1  0.25155635  0.74798300  0.75154807  1
  Fe  Fe86  1  0.37531517  0.12620434  0.37418208  1
  Fe  Fe87  1  0.24853856  0.00284054  0.75091272  1
  Fe  Fe88  1  0.87528517  0.87531162  0.37375553  1
  Fe  Fe89  1  0.37584164  0.12992449  0.62739957  1
  Co  Co90  1  0.37525844  0.62551766  0.87821018  1
  Co  Co91  1  0.00277580  0.25276126  0.49866810  1
  Co  Co92  1  -0.00144668  0.49895613  0.24539863  1
  Co  Co93  1  0.62581094  0.12265696  0.62520101  1
  Co  Co94  1  0.75424141  0.00250701  0.24821569  1
  Co  Co95  1  0.74862648  0.24352604  -0.00270583  1
  Co  Co96  1  0.24890996  0.24942179  0.49783443  1
  Co  Co97  1  0.49894424  -0.00108754  0.74826787  1
  Co  Co98  1  0.24884830  0.24919817  0.75348293  1
  Co  Co99  1  0.50327250  0.75172322  0.50079936  1
  Co  Co100  1  0.62512830  0.62313642  0.62632368  1
  Co  Co101  1  0.87680688  0.13086055  0.12609901  1
  Co  Co102  1  0.75009737  0.50453536  0.00021067  1
  Co  Co103  1  0.24858717  0.75513624  -0.00229110  1
  Co  Co104  1  -0.00220450  0.00072855  0.00454151  1
  Co  Co105  1  0.25176544  0.49358677  -0.00282851  1
  Co  Co106  1  0.12875544  0.62283815  0.12060477  1
  Co  Co107  1  -0.00001047  0.74700166  -0.00110524  1
  Co  Co108  1  -0.00244829  0.25122912  0.75086698  1
  Co  Co109  1  0.50474944  0.25196313  0.74830104  1
  Co  Co110  1  0.87438668  0.62466290  0.87263035  1
  Co  Co111  1  0.00107615  -0.00139107  0.50056539  1
  Co  Co112  1  0.87430793  0.87005406  0.12539772  1
  Co  Co113  1  0.74593663  0.25198947  0.49964873  1
  Co  Co114  1  0.49688494  0.50139921  0.24684456  1
  Co  Co115  1  0.00035068  0.49937486  0.50422633  1
  Co  Co116  1  0.87607048  0.12631865  0.37816241  1
  Co  Co117  1  0.24785413  0.74749613  0.50128325  1
  Co  Co118  1  0.50022017  0.49919975  0.75298019  1
  Co  Co119  1  0.50031179  0.24975871  0.00184314  1
  Co  Co120  1  -0.00090674  0.00114191  0.74703174  1
  Co  Co121  1  0.49880768  -0.00020367  0.24987714  1
  Co  Co122  1  0.62850835  0.37475540  0.12355447  1
  Co  Co123  1  0.87173062  0.37463344  0.87780157  1
  Co  Co124  1  0.37312120  0.37376759  0.62600667  1
  Co  Co125  1  0.24957821  0.74782215  0.24972337  1
  Co  Co126  1  0.12229706  0.12420849  0.87617018  1
  Co  Co127  1  0.50101708  0.49649762  0.50005369  1
