# generated using pymatgen
data_Fe45Co19
_symmetry_space_group_name_H-M   'P 1'
_cell_length_a   11.41414123
_cell_length_b   11.41625438
_cell_length_c   11.41573878
_cell_angle_alpha   90.00083484
_cell_angle_beta   90.00091246
_cell_angle_gamma   89.99599766
_symmetry_Int_Tables_number   1
_chemical_formula_structural   Fe45Co19
_chemical_formula_sum   'Fe90 Co38'
_cell_volume   1487.54769841
_cell_formula_units_Z   2
loop_
 _symmetry_equiv_pos_site_id
 _symmetry_equiv_pos_as_xyz
  1  'x, y, z'
loop_
 _atom_site_type_symbol
 _atom_site_label
 _atom_site_symmetry_multiplicity
 _atom_site_fract_x
 _atom_site_fract_y
 _atom_site_fract_z
 _atom_site_occupancy
  Fe  Fe0  1  0.24900738  -0.00036016  0.24769566  1
  Fe  Fe1  1  0.25027098  0.24987944  0.75209327  1
  Fe  Fe2  1  0.25134109  0.25039020  0.49939696  1
  Fe  Fe3  1  0.37553639  0.62713743  0.12534799  1
  Fe  Fe4  1  -0.00058204  0.00068107  0.49841068  1
  Fe  Fe5  1  0.25025960  -0.00001194  0.49939061  1
  Fe  Fe6  1  0.74629224  0.49933001  0.25200111  1
  Fe  Fe7  1  0.37219447  0.62494442  0.62752932  1
  Fe  Fe8  1  -0.00008249  0.50170594  0.50254458  1
  Fe  Fe9  1  0.87336446  0.37587417  0.12463853  1
  Fe  Fe10  1  0.24718461  0.74854400  0.49693800  1
  Fe  Fe11  1  0.87550238  0.12474683  0.62625935  1
  Fe  Fe12  1  0.25231207  0.24883526  -0.00125607  1
  Fe  Fe13  1  0.74953019  0.50094605  -0.00083068  1
  Fe  Fe14  1  0.87542725  0.62542623  0.37445207  1
  Fe  Fe15  1  -0.00072208  0.50093670  0.24806702  1
  Fe  Fe16  1  0.37736461  0.12432559  0.12358290  1
  Fe  Fe17  1  0.49990549  0.75372260  0.75215499  1
  Fe  Fe18  1  0.37839730  0.37675190  0.87695842  1
  Fe  Fe19  1  0.74816845  0.00052222  0.24920238  1
  Fe  Fe20  1  0.62464766  0.87440003  0.37481318  1
  Fe  Fe21  1  0.37452081  0.11949651  0.87576634  1
  Fe  Fe22  1  0.87684059  0.12510149  0.87509598  1
  Fe  Fe23  1  0.12433478  0.37635945  0.37589677  1
  Fe  Fe24  1  -0.00084904  0.50116519  0.74949976  1
  Fe  Fe25  1  0.75197268  0.74986705  -0.00025077  1
  Fe  Fe26  1  0.87334131  0.87553433  0.12508780  1
  Fe  Fe27  1  0.62449626  0.12145624  0.87862354  1
  Fe  Fe28  1  0.12412423  0.12902146  0.12233182  1
  Fe  Fe29  1  0.87619615  0.87535590  0.37412810  1
  Fe  Fe30  1  0.74840458  0.75146380  0.50056617  1
  Fe  Fe31  1  -0.00170043  0.25024242  0.25017915  1
  Fe  Fe32  1  0.50220194  0.49944550  0.50151361  1
  Fe  Fe33  1  0.12302525  0.62726754  0.87620629  1
  Fe  Fe34  1  0.62467592  0.62648437  0.12420108  1
  Fe  Fe35  1  0.37626604  0.62493102  0.37492059  1
  Fe  Fe36  1  0.37565916  0.37483004  0.62495839  1
  Fe  Fe37  1  0.24762803  0.75379418  0.75316376  1
  Fe  Fe38  1  0.37327945  0.87563508  0.37275779  1
  Fe  Fe39  1  0.87268924  0.37436395  0.87301297  1
  Fe  Fe40  1  0.00094043  0.74851534  0.24840453  1
  Fe  Fe41  1  0.25174818  0.49980619  0.25051375  1
  Fe  Fe42  1  0.12739841  0.62656211  0.12380932  1
  Fe  Fe43  1  0.50272779  0.25024949  0.75231494  1
  Fe  Fe44  1  0.12598939  0.37618264  0.62384984  1
  Fe  Fe45  1  0.50239075  0.49914699  0.25029347  1
  Fe  Fe46  1  0.62415030  0.12342834  0.62589848  1
  Fe  Fe47  1  0.00372564  0.74863358  0.50082890  1
  Fe  Fe48  1  0.12977549  0.87076092  0.12205940  1
  Fe  Fe49  1  0.87293009  0.62823848  0.62864785  1
  Fe  Fe50  1  0.75046515  0.74984991  0.25027673  1
  Fe  Fe51  1  0.00036693  0.00050675  0.24911167  1
  Fe  Fe52  1  0.50315523  0.49802677  0.74963076  1
  Fe  Fe53  1  0.87803685  0.87261748  0.87426459  1
  Fe  Fe54  1  0.37475739  0.12387666  0.62730380  1
  Fe  Fe55  1  0.75016024  -0.00179799  0.75130577  1
  Fe  Fe56  1  0.37280117  0.87539722  0.62634464  1
  Fe  Fe57  1  0.62272071  0.12638546  0.37378639  1
  Fe  Fe58  1  0.74718231  0.25019661  0.24816937  1
  Fe  Fe59  1  0.12397243  0.12577571  0.37490473  1
  Fe  Fe60  1  0.87108104  0.37397941  0.62714155  1
  Fe  Fe61  1  0.50031411  -0.00283044  0.74953782  1
  Fe  Fe62  1  0.37782791  0.12570404  0.37313972  1
  Fe  Fe63  1  0.24908831  0.49876272  0.75229582  1
  Fe  Fe64  1  0.12521494  0.37439137  0.12251092  1
  Fe  Fe65  1  0.12579674  0.12511140  0.62556249  1
  Fe  Fe66  1  0.62570050  0.62712839  0.62672751  1
  Fe  Fe67  1  0.74878366  0.24996626  -0.00073252  1
  Fe  Fe68  1  0.74976397  -0.00053734  0.49952130  1
  Fe  Fe69  1  0.49958317  0.75318413  0.24733495  1
  Fe  Fe70  1  0.37907163  0.37309046  0.37580567  1
  Fe  Fe71  1  0.87639319  0.62818713  0.87256940  1
  Fe  Fe72  1  -0.00234863  0.50127104  0.00089428  1
  Fe  Fe73  1  0.74884758  0.24825975  0.50085638  1
  Fe  Fe74  1  0.74694335  0.50121653  0.49909866  1
  Fe  Fe75  1  0.12356505  0.37348245  0.87784552  1
  Fe  Fe76  1  0.49997099  0.75121425  0.50112083  1
  Fe  Fe77  1  0.50167408  -0.00266755  0.24452618  1
  Fe  Fe78  1  0.00139534  -0.00001510  0.00056989  1
  Fe  Fe79  1  0.87483211  0.37352754  0.37652025  1
  Fe  Fe80  1  0.62438807  0.87626589  0.87904837  1
  Fe  Fe81  1  0.25193840  0.25119991  0.24982757  1
  Fe  Fe82  1  0.87501836  0.87392833  0.62687745  1
  Fe  Fe83  1  0.49941678  -0.00100835  0.50014717  1
  Fe  Fe84  1  0.37897975  0.37505949  0.12183232  1
  Fe  Fe85  1  0.25269805  0.50299222  -0.00139118  1
  Fe  Fe86  1  0.87380348  0.12482654  0.12423730  1
  Fe  Fe87  1  0.62348349  0.62528892  0.87517662  1
  Fe  Fe88  1  0.00034164  0.25052832  0.74993896  1
  Fe  Fe89  1  0.00510137  -0.00236072  0.75181743  1
  Co  Co90  1  0.62799969  0.37420582  0.62702809  1
  Co  Co91  1  0.49938373  -0.00390528  0.00530890  1
  Co  Co92  1  0.12381514  0.62130683  0.37314764  1
  Co  Co93  1  0.50016802  0.24790917  -0.00242106  1
  Co  Co94  1  0.12575983  0.87658557  0.62181437  1
  Co  Co95  1  0.49920315  0.50399034  -0.00057996  1
  Co  Co96  1  0.12432603  0.87654633  0.37361843  1
  Co  Co97  1  0.62569676  0.12428528  0.12157863  1
  Co  Co98  1  0.24557569  -0.00175197  0.75099004  1
  Co  Co99  1  0.62510277  0.87606438  0.62474244  1
  Co  Co100  1  0.74767626  0.24610927  0.75212259  1
  Co  Co101  1  0.36981915  0.87314501  0.12326187  1
  Co  Co102  1  0.00454741  0.75100379  0.74738080  1
  Co  Co103  1  0.12471555  0.12708951  0.87596862  1
  Co  Co104  1  -0.00339901  0.25079439  0.00016553  1
  Co  Co105  1  0.87189459  0.62344611  0.12664713  1
  Co  Co106  1  -0.00335977  0.74912041  0.00396602  1
  Co  Co107  1  0.12919179  0.62295356  0.62685958  1
  Co  Co108  1  0.49594294  0.75088756  -0.00168150  1
  Co  Co109  1  0.25254632  0.49992759  0.49807780  1
  Co  Co110  1  0.50114567  0.24934686  0.24581538  1
  Co  Co111  1  0.24980256  0.74856627  0.25359827  1
  Co  Co112  1  0.75337796  -0.00109008  -0.00096685  1
  Co  Co113  1  0.74688996  0.75259020  0.75186954  1
  Co  Co114  1  -0.00016067  0.24986309  0.50108211  1
  Co  Co115  1  0.62232857  0.37633489  0.12124539  1
  Co  Co116  1  0.37372450  0.88183013  0.87614221  1
  Co  Co117  1  0.37695133  0.62316192  0.86919452  1
  Co  Co118  1  0.12503930  0.87261373  0.88112342  1
  Co  Co119  1  0.87402500  0.12564778  0.37419229  1
  Co  Co120  1  0.25694096  0.74630323  -0.00533892  1
  Co  Co121  1  0.62521323  0.37672116  0.87651049  1
  Co  Co122  1  0.74957557  0.50255660  0.75132405  1
  Co  Co123  1  0.49997021  0.24916187  0.50341283  1
  Co  Co124  1  0.62295068  0.37164533  0.37564118  1
  Co  Co125  1  0.24728881  0.00252682  0.00140051  1
  Co  Co126  1  0.62363545  0.62801223  0.37459372  1
  Co  Co127  1  0.62820452  0.87244513  0.12203687  1
