# generated using pymatgen
data_Fe45Co19
_symmetry_space_group_name_H-M   'P 1'
_cell_length_a   11.41514665
_cell_length_b   11.41583540
_cell_length_c   11.41457157
_cell_angle_alpha   90.00908912
_cell_angle_beta   89.99041713
_cell_angle_gamma   89.99359844
_symmetry_Int_Tables_number   1
_chemical_formula_structural   Fe45Co19
_chemical_formula_sum   'Fe90 Co38'
_cell_volume   1487.47198430
_cell_formula_units_Z   2
loop_
 _symmetry_equiv_pos_site_id
 _symmetry_equiv_pos_as_xyz
  1  'x, y, z'
loop_
 _atom_site_type_symbol
 _atom_site_label
 _atom_site_symmetry_multiplicity
 _atom_site_fract_x
 _atom_site_fract_y
 _atom_site_fract_z
 _atom_site_occupancy
  Fe  Fe0  1  0.87353738  0.87228294  0.37621776  1
  Fe  Fe1  1  0.24868597  0.24857703  0.24878930  1
  Fe  Fe2  1  0.75212977  0.49950154  -0.00577938  1
  Fe  Fe3  1  0.87751033  0.87304778  0.87411107  1
  Fe  Fe4  1  0.75068015  0.00050500  0.24929959  1
  Fe  Fe5  1  0.12578721  0.87738626  0.62597714  1
  Fe  Fe6  1  -0.00141130  0.00238486  0.00036543  1
  Fe  Fe7  1  0.87552736  0.37458938  0.12384591  1
  Fe  Fe8  1  0.50238634  0.74931706  0.50274878  1
  Fe  Fe9  1  0.87437294  0.87480840  0.12255497  1
  Fe  Fe10  1  0.12396849  0.62339523  0.12503193  1
  Fe  Fe11  1  0.62545076  0.87731962  0.12436777  1
  Fe  Fe12  1  0.87576589  0.62510616  0.12193140  1
  Fe  Fe13  1  0.24903870  0.50043442  0.49854896  1
  Fe  Fe14  1  0.25041109  0.49970212  -0.00320057  1
  Fe  Fe15  1  0.37383817  0.37551660  0.62532073  1
  Fe  Fe16  1  0.74830834  0.00258741  -0.00207078  1
  Fe  Fe17  1  0.74997335  0.25157425  0.74848517  1
  Fe  Fe18  1  0.87604549  0.37355044  0.37613397  1
  Fe  Fe19  1  0.12326322  0.62456073  0.87247246  1
  Fe  Fe20  1  0.74760641  0.75031587  -0.00271861  1
  Fe  Fe21  1  0.00120275  0.24923518  0.24909213  1
  Fe  Fe22  1  0.49994437  0.24860882  0.74862579  1
  Fe  Fe23  1  0.75179501  -0.00065382  0.75176422  1
  Fe  Fe24  1  0.37423957  0.37127688  0.87487988  1
  Fe  Fe25  1  0.12251836  0.87635967  0.87470925  1
  Fe  Fe26  1  0.12667533  0.12570085  0.87420380  1
  Fe  Fe27  1  0.25173738  0.00027096  0.75076839  1
  Fe  Fe28  1  0.74868867  0.25019143  0.25008726  1
  Fe  Fe29  1  0.62392115  0.12562528  0.37360648  1
  Fe  Fe30  1  0.12695318  0.37946733  0.62800878  1
  Fe  Fe31  1  0.36978108  0.62733668  0.62552384  1
  Fe  Fe32  1  0.37839942  0.12511910  0.12710338  1
  Fe  Fe33  1  0.50060169  0.50023100  0.49895127  1
  Fe  Fe34  1  0.12615815  0.37329726  0.87272277  1
  Fe  Fe35  1  0.37482455  0.62860241  0.37582806  1
  Fe  Fe36  1  0.37461732  0.87219568  0.62587623  1
  Fe  Fe37  1  0.50242688  0.25097060  0.49876968  1
  Fe  Fe38  1  0.24973515  0.75099430  -0.00161650  1
  Fe  Fe39  1  0.00061943  0.24863800  0.50387098  1
  Fe  Fe40  1  0.87249775  0.62843229  0.37706680  1
  Fe  Fe41  1  0.00021971  0.74765309  0.74614306  1
  Fe  Fe42  1  0.24764005  0.25091368  0.50133414  1
  Fe  Fe43  1  0.74673169  0.24740516  0.00087140  1
  Fe  Fe44  1  0.37418145  0.62477822  0.12467090  1
  Fe  Fe45  1  0.24899013  0.75194725  0.25095258  1
  Fe  Fe46  1  0.87479851  0.12596266  0.37626229  1
  Fe  Fe47  1  0.87527736  0.12743906  0.87395198  1
  Fe  Fe48  1  0.00212242  0.24795045  0.00249079  1
  Fe  Fe49  1  0.62543415  0.62341390  0.12251052  1
  Fe  Fe50  1  0.37898267  0.62884508  0.87419668  1
  Fe  Fe51  1  0.49843629  -0.00055485  0.49800214  1
  Fe  Fe52  1  0.37456969  0.37384835  0.37574929  1
  Fe  Fe53  1  0.74805583  0.74810065  0.75036260  1
  Fe  Fe54  1  -0.00011951  0.50144145  0.50077593  1
  Fe  Fe55  1  0.37385700  0.12512339  0.62289064  1
  Fe  Fe56  1  0.63072892  0.61993891  0.62475988  1
  Fe  Fe57  1  0.75179509  -0.00037711  0.50115883  1
  Fe  Fe58  1  0.12527972  0.12440403  0.37622445  1
  Fe  Fe59  1  0.37471768  0.12820175  0.87529266  1
  Fe  Fe60  1  -0.00365694  0.00108724  0.50415824  1
  Fe  Fe61  1  0.25053999  0.00128066  0.00009166  1
  Fe  Fe62  1  -0.00192306  0.74977557  0.24763459  1
  Fe  Fe63  1  0.12384798  0.37760787  0.12575323  1
  Fe  Fe64  1  0.24870073  0.49918324  0.25194015  1
  Fe  Fe65  1  0.37564526  0.87730615  0.12640476  1
  Fe  Fe66  1  0.49866965  0.49906185  -0.00086907  1
  Fe  Fe67  1  0.62382622  0.37479000  0.12489689  1
  Fe  Fe68  1  0.00161741  0.24774141  0.74598452  1
  Fe  Fe69  1  0.50186654  0.75062563  0.24721578  1
  Fe  Fe70  1  0.37550847  0.37370267  0.12397177  1
  Fe  Fe71  1  0.75179319  0.50029225  0.25142910  1
  Fe  Fe72  1  0.62455754  0.87797012  0.62780830  1
  Fe  Fe73  1  0.62598590  0.87249657  0.37478519  1
  Fe  Fe74  1  0.50385206  0.00282146  -0.00319152  1
  Fe  Fe75  1  -0.00184953  0.49868533  -0.00381278  1
  Fe  Fe76  1  -0.00073772  0.74821382  0.50522840  1
  Fe  Fe77  1  0.38097340  0.87227477  0.87270349  1
  Fe  Fe78  1  0.62743535  0.62678678  0.37526848  1
  Fe  Fe79  1  0.12550842  0.87770547  0.12522292  1
  Fe  Fe80  1  0.87170269  0.37788480  0.62471217  1
  Fe  Fe81  1  0.50033857  0.49884298  0.25166312  1
  Fe  Fe82  1  0.12383416  0.62514140  0.37495630  1
  Fe  Fe83  1  0.62765759  0.37796759  0.62375223  1
  Fe  Fe84  1  0.12300402  0.87566365  0.37506232  1
  Fe  Fe85  1  0.62637022  0.12405260  0.62599326  1
  Fe  Fe86  1  -0.00187428  0.00089654  0.24900147  1
  Fe  Fe87  1  0.49992204  0.50095067  0.74943391  1
  Fe  Fe88  1  0.25297334  -0.00225857  0.49603268  1
  Fe  Fe89  1  0.62349580  0.37403837  0.87454162  1
  Co  Co90  1  0.37727549  0.86976507  0.37533243  1
  Co  Co91  1  0.62541536  0.37553770  0.37505564  1
  Co  Co92  1  0.87039262  0.62104622  0.62479420  1
  Co  Co93  1  0.12537477  0.12154234  0.12655869  1
  Co  Co94  1  -0.00338812  0.50139181  0.25162477  1
  Co  Co95  1  0.24984043  0.24878879  0.74752457  1
  Co  Co96  1  0.37490009  0.12848113  0.37515359  1
  Co  Co97  1  0.12359614  0.37434574  0.37523167  1
  Co  Co98  1  0.50052455  0.75189542  0.00438159  1
  Co  Co99  1  0.50071743  0.25298942  0.25170338  1
  Co  Co100  1  0.87514947  0.87510422  0.62802845  1
  Co  Co101  1  0.75078147  0.49808350  0.49481124  1
  Co  Co102  1  0.25180295  0.00015211  0.25350477  1
  Co  Co103  1  0.62656535  0.12582004  0.87018032  1
  Co  Co104  1  0.87399589  0.12568029  0.12495254  1
  Co  Co105  1  0.24920331  0.24952439  0.00329565  1
  Co  Co106  1  0.75042823  0.74990519  0.24648069  1
  Co  Co107  1  0.87650509  0.36810951  0.87542472  1
  Co  Co108  1  0.12865738  0.12037722  0.62350352  1
  Co  Co109  1  0.50385019  0.74665961  0.74427622  1
  Co  Co110  1  0.74951812  0.75337069  0.50508160  1
  Co  Co111  1  0.87751479  0.62925135  0.87497219  1
  Co  Co112  1  0.49974281  -0.00209020  0.25387499  1
  Co  Co113  1  0.75221480  0.49968839  0.75772298  1
  Co  Co114  1  0.50228396  0.24777951  -0.00118793  1
  Co  Co115  1  0.74893527  0.24931346  0.49951165  1
  Co  Co116  1  0.87174904  0.12499278  0.62636268  1
  Co  Co117  1  -0.00023179  0.00303521  0.74936389  1
  Co  Co118  1  0.24617992  0.75105106  0.49924879  1
  Co  Co119  1  0.25356756  0.50015426  0.75358108  1
  Co  Co120  1  0.24785769  0.75197501  0.75304831  1
  Co  Co121  1  0.62217179  0.12438963  0.12841487  1
  Co  Co122  1  0.49709754  0.00365003  0.74957934  1
  Co  Co123  1  -0.00443067  0.49919615  0.75137667  1
  Co  Co124  1  0.00243550  0.75030448  0.00173482  1
  Co  Co125  1  0.12822681  0.62149422  0.62772553  1
  Co  Co126  1  0.62073266  0.62556671  0.87689373  1
  Co  Co127  1  0.62134902  0.87429049  0.87222671  1
