# generated using pymatgen
data_Fe45Co19
_symmetry_space_group_name_H-M   'P 1'
_cell_length_a   11.41425630
_cell_length_b   11.41634604
_cell_length_c   11.41591752
_cell_angle_alpha   90.00527158
_cell_angle_beta   89.99346102
_cell_angle_gamma   89.99947776
_symmetry_Int_Tables_number   1
_chemical_formula_structural   Fe45Co19
_chemical_formula_sum   'Fe90 Co38'
_cell_volume   1487.59791829
_cell_formula_units_Z   2
loop_
 _symmetry_equiv_pos_site_id
 _symmetry_equiv_pos_as_xyz
  1  'x, y, z'
loop_
 _atom_site_type_symbol
 _atom_site_label
 _atom_site_symmetry_multiplicity
 _atom_site_fract_x
 _atom_site_fract_y
 _atom_site_fract_z
 _atom_site_occupancy
  Fe  Fe0  1  0.49971161  0.50176050  0.00046852  1
  Fe  Fe1  1  0.74951919  0.50012733  0.24852754  1
  Fe  Fe2  1  -0.00015873  0.00011545  0.24813436  1
  Fe  Fe3  1  0.12439802  0.12706637  0.62605302  1
  Fe  Fe4  1  0.37466297  0.87665093  0.87649465  1
  Fe  Fe5  1  0.37388129  0.12129377  0.37462791  1
  Fe  Fe6  1  0.75215880  0.25065537  0.00042289  1
  Fe  Fe7  1  0.75031452  0.50170502  -0.00041788  1
  Fe  Fe8  1  0.74979380  -0.00406480  0.24824175  1
  Fe  Fe9  1  0.62374364  0.37534950  0.87515399  1
  Fe  Fe10  1  0.74746170  0.25091703  0.49730196  1
  Fe  Fe11  1  0.87641339  0.62524905  0.12419881  1
  Fe  Fe12  1  0.87286138  0.87547904  0.37760998  1
  Fe  Fe13  1  0.50375227  -0.00287537  0.50260653  1
  Fe  Fe14  1  -0.00043856  0.00200317  0.50089885  1
  Fe  Fe15  1  -0.00096186  0.24917780  0.24917307  1
  Fe  Fe16  1  0.87983164  0.37896894  0.87913413  1
  Fe  Fe17  1  0.37438309  0.37524743  0.12490914  1
  Fe  Fe18  1  0.24873479  0.74977476  0.50100042  1
  Fe  Fe19  1  0.50363069  0.49842700  0.50256953  1
  Fe  Fe20  1  0.75219751  0.74862426  -0.00269992  1
  Fe  Fe21  1  0.37307407  0.62340959  0.87227840  1
  Fe  Fe22  1  0.12481678  0.37094124  0.12253297  1
  Fe  Fe23  1  0.50250997  0.25160693  0.49980358  1
  Fe  Fe24  1  -0.00027146  0.74713037  0.49909649  1
  Fe  Fe25  1  0.25044289  0.75286925  0.25054415  1
  Fe  Fe26  1  0.49899848  0.25129896  0.74925846  1
  Fe  Fe27  1  0.62481670  0.62699904  0.12418686  1
  Fe  Fe28  1  0.75109837  0.50013535  0.75182090  1
  Fe  Fe29  1  0.00085801  0.00522742  0.00078711  1
  Fe  Fe30  1  0.12485887  0.87581717  0.37656389  1
  Fe  Fe31  1  -0.00144240  0.24479752  0.00077232  1
  Fe  Fe32  1  0.24750960  -0.00178971  0.74841457  1
  Fe  Fe33  1  0.37296230  0.62613262  0.12554330  1
  Fe  Fe34  1  0.62579245  0.12440084  0.87604235  1
  Fe  Fe35  1  0.24887838  0.00214336  0.00184855  1
  Fe  Fe36  1  0.50178030  0.75242264  0.50301872  1
  Fe  Fe37  1  0.49769000  0.24833889  -0.00037747  1
  Fe  Fe38  1  0.75267243  0.74846899  0.75287388  1
  Fe  Fe39  1  0.24346946  0.49547109  0.74780404  1
  Fe  Fe40  1  0.24565734  0.50126805  -0.00070146  1
  Fe  Fe41  1  0.75081210  0.75228889  0.24892881  1
  Fe  Fe42  1  0.37415135  0.37615945  0.87499845  1
  Fe  Fe43  1  0.50052943  -0.00441913  0.24747177  1
  Fe  Fe44  1  0.87426166  0.12624826  0.62542969  1
  Fe  Fe45  1  0.74945288  0.25144889  0.24979984  1
  Fe  Fe46  1  0.24713412  0.74854375  -0.00298244  1
  Fe  Fe47  1  0.37309347  0.12409647  0.87325212  1
  Fe  Fe48  1  0.87704768  0.37654783  0.62204412  1
  Fe  Fe49  1  0.49906242  0.74906653  -0.00106522  1
  Fe  Fe50  1  0.49963282  0.75216657  0.74970064  1
  Fe  Fe51  1  -0.00045515  0.24995944  0.75302794  1
  Fe  Fe52  1  0.37270978  0.62462460  0.62636433  1
  Fe  Fe53  1  0.00207114  0.74555661  -0.00325211  1
  Fe  Fe54  1  0.49975043  0.25098013  0.25150751  1
  Fe  Fe55  1  0.00225515  0.50083587  0.24811561  1
  Fe  Fe56  1  0.12282825  0.87433301  0.62449641  1
  Fe  Fe57  1  0.24915215  0.25320652  0.75066769  1
  Fe  Fe58  1  -0.00116448  0.24796861  0.49656906  1
  Fe  Fe59  1  0.24881243  0.49945282  0.24974933  1
  Fe  Fe60  1  0.37654379  0.37769745  0.37636247  1
  Fe  Fe61  1  0.62399231  0.87603910  0.87693666  1
  Fe  Fe62  1  0.62701037  0.62583782  0.62713093  1
  Fe  Fe63  1  0.75223101  -0.00021248  0.75000550  1
  Fe  Fe64  1  0.12339023  0.87406054  0.12333749  1
  Fe  Fe65  1  0.87466799  0.37777879  0.37511471  1
  Fe  Fe66  1  0.24471306  0.50049161  0.50318212  1
  Fe  Fe67  1  0.37104954  0.12589136  0.12861515  1
  Fe  Fe68  1  0.87892917  0.62285504  0.62659934  1
  Fe  Fe69  1  0.62380929  0.37583940  0.12562964  1
  Fe  Fe70  1  0.87955349  0.87656381  0.87571020  1
  Fe  Fe71  1  0.62508778  0.62536137  0.37483534  1
  Fe  Fe72  1  0.37398096  0.87666726  0.37802815  1
  Fe  Fe73  1  0.50050514  0.49870392  0.74873882  1
  Fe  Fe74  1  0.75234236  0.25205550  0.75266186  1
  Fe  Fe75  1  0.24761724  0.75286932  0.75129212  1
  Fe  Fe76  1  0.87371175  0.87482469  0.62295499  1
  Fe  Fe77  1  0.50045060  -0.00188426  0.74873168  1
  Fe  Fe78  1  0.25089202  0.24936503  0.49817356  1
  Fe  Fe79  1  0.12814652  0.12307550  0.37162871  1
  Fe  Fe80  1  0.12386531  0.37518364  0.37631255  1
  Fe  Fe81  1  0.87553433  0.62238208  0.37597731  1
  Fe  Fe82  1  0.00001376  0.74946755  0.25153711  1
  Fe  Fe83  1  0.49929463  0.75207135  0.24887702  1
  Fe  Fe84  1  0.75295043  -0.00066261  0.00112355  1
  Fe  Fe85  1  0.62671366  0.12595486  0.62596590  1
  Fe  Fe86  1  0.62614699  0.12323019  0.12463421  1
  Fe  Fe87  1  0.37449984  0.62408734  0.37650920  1
  Fe  Fe88  1  0.87198561  0.12318586  0.37285621  1
  Fe  Fe89  1  0.37398815  0.12426044  0.62393290  1
  Co  Co90  1  0.62426718  0.12242837  0.37306334  1
  Co  Co91  1  0.63041234  0.87370782  0.62628647  1
  Co  Co92  1  0.12623013  0.62842203  0.12821592  1
  Co  Co93  1  0.25138302  0.25349309  0.25338118  1
  Co  Co94  1  0.62752169  0.37380321  0.62752779  1
  Co  Co95  1  0.87676489  0.37589915  0.12379173  1
  Co  Co96  1  0.49923004  0.50240615  0.24847834  1
  Co  Co97  1  0.12634207  0.12530931  0.87261408  1
  Co  Co98  1  0.24974902  -0.00485428  0.24809712  1
  Co  Co99  1  0.00468214  0.50461630  0.00343698  1
  Co  Co100  1  0.25260968  0.24834978  -0.00146835  1
  Co  Co101  1  0.12673783  0.62574870  0.37375174  1
  Co  Co102  1  0.00458876  0.49506261  0.74823430  1
  Co  Co103  1  0.62489527  0.37730926  0.37258524  1
  Co  Co104  1  0.12102678  0.36958517  0.62131469  1
  Co  Co105  1  0.88042682  0.62121030  0.87365928  1
  Co  Co106  1  0.00302614  0.50245768  0.49976249  1
  Co  Co107  1  0.74894678  0.49998885  0.50051800  1
  Co  Co108  1  0.62305531  0.62508128  0.87416757  1
  Co  Co109  1  0.12200582  0.87815556  0.87690670  1
  Co  Co110  1  0.37411799  0.37522118  0.62333777  1
  Co  Co111  1  0.87898236  0.87329363  0.12265653  1
  Co  Co112  1  0.12318272  0.62375927  0.86925990  1
  Co  Co113  1  0.87291127  0.12478084  0.12784253  1
  Co  Co114  1  0.24734902  0.00041766  0.50221638  1
  Co  Co115  1  0.12802117  0.12739159  0.12843061  1
  Co  Co116  1  0.75124037  0.74606700  0.50036194  1
  Co  Co117  1  0.74961020  0.00247066  0.50070648  1
  Co  Co118  1  -0.00053610  0.00083280  0.74764949  1
  Co  Co119  1  0.62771114  0.87382275  0.37635567  1
  Co  Co120  1  0.12318849  0.62861032  0.62810946  1
  Co  Co121  1  0.49678557  0.00285328  0.00170403  1
  Co  Co122  1  0.37324281  0.87266126  0.12117442  1
  Co  Co123  1  0.87448221  0.12411550  0.87422257  1
  Co  Co124  1  0.12194415  0.37240771  0.88036319  1
  Co  Co125  1  -0.00084691  0.75333500  0.75093341  1
  Co  Co126  1  0.62508308  0.87386318  0.12117041  1
  Co  Co127  1  0.37281006  0.87506718  0.62444080  1
