# generated using pymatgen
data_Fe45Co19
_symmetry_space_group_name_H-M   'P 1'
_cell_length_a   11.41598853
_cell_length_b   11.41439661
_cell_length_c   11.41568260
_cell_angle_alpha   89.99716270
_cell_angle_beta   90.00396365
_cell_angle_gamma   89.99983591
_symmetry_Int_Tables_number   1
_chemical_formula_structural   Fe45Co19
_chemical_formula_sum   'Fe90 Co38'
_cell_volume   1487.53901839
_cell_formula_units_Z   2
loop_
 _symmetry_equiv_pos_site_id
 _symmetry_equiv_pos_as_xyz
  1  'x, y, z'
loop_
 _atom_site_type_symbol
 _atom_site_label
 _atom_site_symmetry_multiplicity
 _atom_site_fract_x
 _atom_site_fract_y
 _atom_site_fract_z
 _atom_site_occupancy
  Fe  Fe0  1  0.49865685  0.25209120  0.00019004  1
  Fe  Fe1  1  0.25099423  0.74655395  0.24804244  1
  Fe  Fe2  1  0.74769574  0.75122737  0.74970344  1
  Fe  Fe3  1  0.75189620  0.25084403  -0.00095782  1
  Fe  Fe4  1  0.37593118  0.62480858  0.62600971  1
  Fe  Fe5  1  0.00382567  0.25228089  0.25141993  1
  Fe  Fe6  1  0.00228343  0.74871578  0.75347496  1
  Fe  Fe7  1  0.12618052  0.12431142  0.62312539  1
  Fe  Fe8  1  0.12374342  0.12604861  0.12277875  1
  Fe  Fe9  1  0.00356931  0.50491828  0.75141171  1
  Fe  Fe10  1  0.12719454  0.87506050  0.37452420  1
  Fe  Fe11  1  0.74925095  0.25533333  0.50284939  1
  Fe  Fe12  1  0.87726760  0.37498792  0.12382327  1
  Fe  Fe13  1  0.24973223  0.25026767  0.75063507  1
  Fe  Fe14  1  0.50058896  0.74968377  0.75307620  1
  Fe  Fe15  1  0.62408281  0.37543628  0.87561696  1
  Fe  Fe16  1  0.25471874  -0.00284590  0.50113737  1
  Fe  Fe17  1  0.61743204  0.87521847  0.62185343  1
  Fe  Fe18  1  0.37298417  0.12357232  0.87562508  1
  Fe  Fe19  1  0.62384528  0.62205139  0.87841793  1
  Fe  Fe20  1  0.62826076  0.87719916  0.87780103  1
  Fe  Fe21  1  0.00300209  0.50075024  0.24967968  1
  Fe  Fe22  1  0.87292147  0.62816730  0.87873813  1
  Fe  Fe23  1  0.00043679  0.50091681  0.50118128  1
  Fe  Fe24  1  0.50095298  -0.00131270  0.25424976  1
  Fe  Fe25  1  0.12501164  0.87555382  0.12477608  1
  Fe  Fe26  1  0.74906030  0.49863693  0.74900675  1
  Fe  Fe27  1  0.37234757  0.87844525  0.87154948  1
  Fe  Fe28  1  0.12657781  0.62344060  0.12044555  1
  Fe  Fe29  1  0.25352965  0.75132389  0.50233609  1
  Fe  Fe30  1  0.74819778  0.74719992  0.24613024  1
  Fe  Fe31  1  0.25224822  0.49555235  -0.00241841  1
  Fe  Fe32  1  0.12653605  0.87712919  0.87452150  1
  Fe  Fe33  1  0.37523813  0.62331325  0.87838401  1
  Fe  Fe34  1  0.87521197  0.87120977  0.12189741  1
  Fe  Fe35  1  0.37573665  0.12719028  0.12689381  1
  Fe  Fe36  1  0.25035261  0.00155856  0.24922071  1
  Fe  Fe37  1  0.87443827  0.37683597  0.37514269  1
  Fe  Fe38  1  0.87289122  0.12430157  0.62694972  1
  Fe  Fe39  1  0.12701465  0.62455480  0.37831934  1
  Fe  Fe40  1  0.61944462  0.62509250  0.11820181  1
  Fe  Fe41  1  0.62328056  0.12555516  0.62511097  1
  Fe  Fe42  1  0.12504543  0.12411764  0.37712597  1
  Fe  Fe43  1  0.62206947  0.87365823  0.12404586  1
  Fe  Fe44  1  0.12552738  0.87448571  0.62647519  1
  Fe  Fe45  1  0.37448174  0.12830743  0.37185486  1
  Fe  Fe46  1  0.74903480  -0.00147266  0.50117479  1
  Fe  Fe47  1  0.74905843  0.25195586  0.25030843  1
  Fe  Fe48  1  0.62383436  0.12529438  0.12448004  1
  Fe  Fe49  1  0.37776881  0.12326450  0.62548405  1
  Fe  Fe50  1  0.25178969  0.75219305  0.00027701  1
  Fe  Fe51  1  0.12605448  0.37841879  0.62761431  1
  Fe  Fe52  1  0.62651679  0.12576004  0.37536814  1
  Fe  Fe53  1  0.50048445  0.25361980  0.49569574  1
  Fe  Fe54  1  0.87583777  0.12638183  0.12579355  1
  Fe  Fe55  1  0.00110178  0.74758339  0.24938772  1
  Fe  Fe56  1  0.24955406  0.74690111  0.74926884  1
  Fe  Fe57  1  0.00034390  0.24754966  0.75022958  1
  Fe  Fe58  1  0.87430616  0.12618622  0.37551154  1
  Fe  Fe59  1  0.87251381  0.87297262  0.37413773  1
  Fe  Fe60  1  -0.00222093  -0.00088897  -0.00202632  1
  Fe  Fe61  1  0.49916033  0.49987072  0.75119326  1
  Fe  Fe62  1  0.87071692  0.12063396  0.87142586  1
  Fe  Fe63  1  -0.00076669  -0.00111192  0.50033423  1
  Fe  Fe64  1  0.24974505  0.25221241  -0.00022296  1
  Fe  Fe65  1  0.62519550  0.37507738  0.12414298  1
  Fe  Fe66  1  0.50036097  0.49915252  0.50014960  1
  Fe  Fe67  1  0.87666332  0.37489088  0.87339674  1
  Fe  Fe68  1  0.37570438  0.37580707  0.62802446  1
  Fe  Fe69  1  0.37724801  0.87353059  0.12750381  1
  Fe  Fe70  1  0.87344949  0.62476166  0.37504934  1
  Fe  Fe71  1  0.74927022  -0.00159566  0.24907176  1
  Fe  Fe72  1  -0.00055111  0.25253306  0.50120594  1
  Fe  Fe73  1  0.25179220  0.25448766  0.49786004  1
  Fe  Fe74  1  0.62544243  0.62556428  0.37698562  1
  Fe  Fe75  1  0.62816936  0.12393544  0.87520424  1
  Fe  Fe76  1  0.37385095  0.62375346  0.37406725  1
  Fe  Fe77  1  0.87494104  0.62560529  0.62644457  1
  Fe  Fe78  1  0.00070518  0.50027213  -0.00163678  1
  Fe  Fe79  1  0.00000044  0.74967854  0.49963884  1
  Fe  Fe80  1  0.37256579  0.37348217  0.13047298  1
  Fe  Fe81  1  0.50054920  0.24846691  0.75266074  1
  Fe  Fe82  1  0.74857847  0.74927099  0.50276589  1
  Fe  Fe83  1  0.75012373  0.50251171  0.24578778  1
  Fe  Fe84  1  0.87729885  0.87494500  0.62788850  1
  Fe  Fe85  1  -0.00093364  -0.00092719  0.25085441  1
  Fe  Fe86  1  0.49806259  -0.00053578  -0.00136011  1
  Fe  Fe87  1  0.12702768  0.12355077  0.87629151  1
  Fe  Fe88  1  0.49932296  0.50149711  0.24840591  1
  Fe  Fe89  1  0.74836912  0.49807419  0.50486484  1
  Co  Co90  1  0.49619795  0.49427338  0.00067707  1
  Co  Co91  1  0.62611246  0.37851346  0.37324362  1
  Co  Co92  1  0.12427697  0.37502886  0.12119689  1
  Co  Co93  1  0.12543035  0.37688103  0.37778100  1
  Co  Co94  1  0.24367059  0.25003528  0.25094387  1
  Co  Co95  1  0.74776364  0.74757244  0.00160011  1
  Co  Co96  1  0.49766691  0.75315379  -0.00385457  1
  Co  Co97  1  0.87275282  0.87469185  0.87553576  1
  Co  Co98  1  0.12385732  0.37418205  0.87260068  1
  Co  Co99  1  0.87892127  0.62557225  0.12166567  1
  Co  Co100  1  0.24718547  0.50165738  0.24956858  1
  Co  Co101  1  0.49705669  0.74820268  0.49832247  1
  Co  Co102  1  0.37517004  0.37404115  0.87145361  1
  Co  Co103  1  0.49665940  0.00045093  0.49489211  1
  Co  Co104  1  0.50068278  0.74655585  0.25078518  1
  Co  Co105  1  0.25168925  -0.00040323  0.00301063  1
  Co  Co106  1  0.62297986  0.62517792  0.62651682  1
  Co  Co107  1  0.24950439  0.00232307  0.74642595  1
  Co  Co108  1  0.50109607  0.00144884  0.75308030  1
  Co  Co109  1  0.87856386  0.37705418  0.62812959  1
  Co  Co110  1  0.25281196  0.49820416  0.50075828  1
  Co  Co111  1  0.74655356  -0.00384382  0.74537637  1
  Co  Co112  1  0.62076700  0.37433804  0.62825891  1
  Co  Co113  1  0.12630891  0.62491253  0.62244505  1
  Co  Co114  1  0.37902336  0.87518516  0.62891578  1
  Co  Co115  1  0.00184980  0.00095359  0.75045875  1
  Co  Co116  1  0.37521982  0.62492006  0.12084119  1
  Co  Co117  1  0.62614070  0.87144288  0.37622162  1
  Co  Co118  1  0.12896420  0.62482953  0.87963867  1
  Co  Co119  1  0.00255704  0.75116290  -0.00186607  1
  Co  Co120  1  0.74965761  0.25331372  0.74929103  1
  Co  Co121  1  0.75143981  0.49915361  0.00051658  1
  Co  Co122  1  -0.00209341  0.24796854  -0.00371195  1
  Co  Co123  1  0.75132448  0.00064826  0.00370445  1
  Co  Co124  1  0.50324363  0.25140851  0.25115082  1
  Co  Co125  1  0.24992030  0.50215829  0.75136017  1
  Co  Co126  1  0.37420883  0.87181699  0.37151357  1
  Co  Co127  1  0.37513346  0.37614940  0.36999805  1
