# generated using pymatgen
data_Fe45Co19
_symmetry_space_group_name_H-M   'P 1'
_cell_length_a   11.41505557
_cell_length_b   11.41371557
_cell_length_c   11.41542744
_cell_angle_alpha   89.99843955
_cell_angle_beta   89.99211257
_cell_angle_gamma   90.00431426
_symmetry_Int_Tables_number   1
_chemical_formula_structural   Fe45Co19
_chemical_formula_sum   'Fe90 Co38'
_cell_volume   1487.29544703
_cell_formula_units_Z   2
loop_
 _symmetry_equiv_pos_site_id
 _symmetry_equiv_pos_as_xyz
  1  'x, y, z'
loop_
 _atom_site_type_symbol
 _atom_site_label
 _atom_site_symmetry_multiplicity
 _atom_site_fract_x
 _atom_site_fract_y
 _atom_site_fract_z
 _atom_site_occupancy
  Fe  Fe0  1  0.87752006  0.37396591  0.12594157  1
  Fe  Fe1  1  0.62635752  0.12727338  0.62200015  1
  Fe  Fe2  1  0.37618914  0.37754420  0.37568425  1
  Fe  Fe3  1  0.37370009  0.12518192  0.37488847  1
  Fe  Fe4  1  0.87374933  0.62531576  0.37350476  1
  Fe  Fe5  1  0.12342719  0.62307955  0.12818894  1
  Fe  Fe6  1  0.25068584  -0.00075190  0.50157918  1
  Fe  Fe7  1  0.62181458  0.87378454  0.12694504  1
  Fe  Fe8  1  0.87705028  0.87521420  0.12553449  1
  Fe  Fe9  1  0.24607790  0.49863277  0.00197879  1
  Fe  Fe10  1  0.62376303  0.37279633  0.87682997  1
  Fe  Fe11  1  0.12284394  0.37602892  0.87277865  1
  Fe  Fe12  1  0.50057614  0.74428354  0.49821228  1
  Fe  Fe13  1  0.25296052  0.74905165  0.24742020  1
  Fe  Fe14  1  0.75018939  0.25140278  0.00064991  1
  Fe  Fe15  1  0.37353889  0.12365933  0.12790994  1
  Fe  Fe16  1  0.00194398  0.49931444  0.49769018  1
  Fe  Fe17  1  0.12487215  0.62356478  0.87381003  1
  Fe  Fe18  1  0.12535807  0.87579584  0.12686003  1
  Fe  Fe19  1  0.25001336  0.25272809  0.25064905  1
  Fe  Fe20  1  0.25113787  -0.00254129  0.74684676  1
  Fe  Fe21  1  0.12742495  0.12646892  0.37185165  1
  Fe  Fe22  1  0.37196875  0.12610099  0.87420102  1
  Fe  Fe23  1  0.00002472  0.24894137  0.75112727  1
  Fe  Fe24  1  0.74895681  -0.00041247  0.00135635  1
  Fe  Fe25  1  0.87505861  0.62364308  0.62399248  1
  Fe  Fe26  1  0.12514408  0.87484488  0.37390877  1
  Fe  Fe27  1  0.49933080  0.50136780  0.74870232  1
  Fe  Fe28  1  0.62261475  0.37577988  0.62307455  1
  Fe  Fe29  1  0.49766071  0.00161581  0.74809105  1
  Fe  Fe30  1  0.75168828  0.25049929  0.74825474  1
  Fe  Fe31  1  0.87108648  0.12483951  0.37856485  1
  Fe  Fe32  1  0.00129275  0.74936788  0.49810111  1
  Fe  Fe33  1  0.75214807  0.74974609  0.24941980  1
  Fe  Fe34  1  0.87707202  0.87798248  0.37610120  1
  Fe  Fe35  1  0.87947496  0.87896637  0.62243817  1
  Fe  Fe36  1  0.49963068  0.00197528  0.50005117  1
  Fe  Fe37  1  0.00119711  0.00236716  0.25054690  1
  Fe  Fe38  1  0.25012419  0.49733433  0.74823022  1
  Fe  Fe39  1  0.37598719  0.37549354  0.87704665  1
  Fe  Fe40  1  0.00160386  0.74835262  0.00141940  1
  Fe  Fe41  1  0.37220979  0.62368930  0.87812195  1
  Fe  Fe42  1  0.62245169  0.87323094  0.62531485  1
  Fe  Fe43  1  0.25000653  0.75107185  0.74854157  1
  Fe  Fe44  1  0.62383670  0.37679256  0.37447671  1
  Fe  Fe45  1  0.75188201  0.00092879  0.74737238  1
  Fe  Fe46  1  0.12702820  0.62362109  0.37208976  1
  Fe  Fe47  1  0.24678915  0.49564028  0.49973064  1
  Fe  Fe48  1  0.87656710  0.62257220  0.87694481  1
  Fe  Fe49  1  0.49937204  0.74634126  0.75049720  1
  Fe  Fe50  1  0.74950900  0.49902964  0.50045708  1
  Fe  Fe51  1  0.12492449  0.87577235  0.87415265  1
  Fe  Fe52  1  0.87555080  0.12630410  0.12609029  1
  Fe  Fe53  1  0.37434065  0.37114025  0.62151262  1
  Fe  Fe54  1  0.37827031  0.37742933  0.12589569  1
  Fe  Fe55  1  0.49617290  0.74248961  0.25035251  1
  Fe  Fe56  1  0.75132370  0.74959199  0.74968419  1
  Fe  Fe57  1  0.37599767  0.87620079  0.37313854  1
  Fe  Fe58  1  0.12452363  0.62353456  0.62539627  1
  Fe  Fe59  1  0.62502784  0.12590713  0.87591229  1
  Fe  Fe60  1  0.49872441  0.00096151  0.00124090  1
  Fe  Fe61  1  0.12097333  0.37404383  0.13083030  1
  Fe  Fe62  1  0.74998794  0.49938202  0.75192307  1
  Fe  Fe63  1  0.00235094  0.00264673  -0.00002892  1
  Fe  Fe64  1  0.62870131  0.12771693  0.37761123  1
  Fe  Fe65  1  0.50346586  0.50137037  0.00183759  1
  Fe  Fe66  1  0.87580073  0.37369735  0.37274452  1
  Fe  Fe67  1  0.00231547  0.24916280  -0.00070348  1
  Fe  Fe68  1  0.49802800  0.24940347  0.74988111  1
  Fe  Fe69  1  0.62311947  0.87383378  0.37346908  1
  Fe  Fe70  1  0.74968966  0.49950881  0.00105413  1
  Fe  Fe71  1  0.74986184  0.74945571  0.00037756  1
  Fe  Fe72  1  0.24985872  -0.00063680  0.00242611  1
  Fe  Fe73  1  0.12722232  0.12689602  0.62681721  1
  Fe  Fe74  1  0.37381470  0.87357946  0.87621295  1
  Fe  Fe75  1  0.24927527  0.25158205  0.00035207  1
  Fe  Fe76  1  0.87630326  0.87683708  0.87584311  1
  Fe  Fe77  1  0.37361480  0.62451140  0.62250088  1
  Fe  Fe78  1  0.74970905  0.75152723  0.50028245  1
  Fe  Fe79  1  0.74916794  0.49954797  0.24671812  1
  Fe  Fe80  1  0.74830963  0.00053191  0.24998636  1
  Fe  Fe81  1  0.49824136  0.74851871  0.00072215  1
  Fe  Fe82  1  0.62464686  0.12763375  0.12455241  1
  Fe  Fe83  1  0.62478375  0.87549608  0.87424574  1
  Fe  Fe84  1  0.87469029  0.12526895  0.87524940  1
  Fe  Fe85  1  0.87812444  0.37534655  0.62569557  1
  Fe  Fe86  1  0.24974392  0.75192333  0.50092023  1
  Fe  Fe87  1  0.50161439  0.25014531  0.25046717  1
  Fe  Fe88  1  0.00205366  0.25036210  0.49806104  1
  Fe  Fe89  1  -0.00024415  0.74966063  0.74925908  1
  Co  Co90  1  0.87593618  0.12509518  0.62117219  1
  Co  Co91  1  0.25093079  0.25399913  0.75275967  1
  Co  Co92  1  0.24684451  0.25136183  0.49684934  1
  Co  Co93  1  0.62568720  0.62483660  0.87522548  1
  Co  Co94  1  0.37171133  0.12883411  0.62397068  1
  Co  Co95  1  0.12830452  0.12425986  0.87403659  1
  Co  Co96  1  0.00123059  0.49935765  0.00149552  1
  Co  Co97  1  0.50046698  0.50263316  0.49985829  1
  Co  Co98  1  0.74904648  0.25063819  0.24955924  1
  Co  Co99  1  0.75090855  0.25504416  0.50162913  1
  Co  Co100  1  0.12362381  0.37580019  0.37065280  1
  Co  Co101  1  0.62640345  0.62678414  0.12569443  1
  Co  Co102  1  0.37694722  0.87647899  0.12748413  1
  Co  Co103  1  0.62944055  0.62359531  0.37450352  1
  Co  Co104  1  0.12702202  0.12687089  0.12668286  1
  Co  Co105  1  0.37324732  0.62092172  0.12133609  1
  Co  Co106  1  -0.00046055  0.50041996  0.74986299  1
  Co  Co107  1  0.36965865  0.62118297  0.37750496  1
  Co  Co108  1  0.00517077  0.00338090  0.49749035  1
  Co  Co109  1  0.87609306  0.37476679  0.87592691  1
  Co  Co110  1  -0.00253821  0.50186785  0.25196741  1
  Co  Co111  1  -0.00148762  0.24622202  0.25286506  1
  Co  Co112  1  0.50006006  0.24925860  0.49795134  1
  Co  Co113  1  0.50267437  0.00360285  0.25142134  1
  Co  Co114  1  0.12352360  0.37317230  0.62598186  1
  Co  Co115  1  0.50030619  0.50367289  0.25050245  1
  Co  Co116  1  0.74686770  -0.00357751  0.50083333  1
  Co  Co117  1  -0.00017967  0.75014928  0.25094765  1
  Co  Co118  1  0.25102625  0.49853071  0.24895281  1
  Co  Co119  1  0.62726505  0.62444747  0.62471539  1
  Co  Co120  1  0.62265337  0.37352485  0.12435280  1
  Co  Co121  1  0.37820049  0.87268357  0.62285909  1
  Co  Co122  1  0.49654508  0.24737965  0.00065970  1
  Co  Co123  1  0.24859631  -0.00139210  0.25049458  1
  Co  Co124  1  0.12219647  0.87547308  0.62467675  1
  Co  Co125  1  0.87587888  0.62497491  0.12449097  1
  Co  Co126  1  0.24809533  0.74981922  0.00296053  1
  Co  Co127  1  -0.00088948  0.00212602  0.75105837  1
