# generated using pymatgen
data_Fe45Co19
_symmetry_space_group_name_H-M   'P 1'
_cell_length_a   11.41676670
_cell_length_b   11.41588662
_cell_length_c   11.41443564
_cell_angle_alpha   90.00969531
_cell_angle_beta   89.99526931
_cell_angle_gamma   90.00230962
_symmetry_Int_Tables_number   1
_chemical_formula_structural   Fe45Co19
_chemical_formula_sum   'Fe90 Co38'
_cell_volume   1487.67206774
_cell_formula_units_Z   2
loop_
 _symmetry_equiv_pos_site_id
 _symmetry_equiv_pos_as_xyz
  1  'x, y, z'
loop_
 _atom_site_type_symbol
 _atom_site_label
 _atom_site_symmetry_multiplicity
 _atom_site_fract_x
 _atom_site_fract_y
 _atom_site_fract_z
 _atom_site_occupancy
  Fe  Fe0  1  0.12577786  0.12306978  0.62403987  1
  Fe  Fe1  1  0.37547568  0.87719972  0.12592963  1
  Fe  Fe2  1  0.62595246  0.37510108  0.12502595  1
  Fe  Fe3  1  0.00003647  0.24995692  0.24917288  1
  Fe  Fe4  1  0.12694466  0.62994678  0.87631943  1
  Fe  Fe5  1  0.74955635  0.24834664  0.25124995  1
  Fe  Fe6  1  0.74652930  0.74436841  0.24748293  1
  Fe  Fe7  1  0.24878859  0.75281262  0.49946770  1
  Fe  Fe8  1  -0.00006971  0.49891875  0.00032581  1
  Fe  Fe9  1  0.87591293  0.37702901  0.62575080  1
  Fe  Fe10  1  0.25234836  0.74849641  0.25005236  1
  Fe  Fe11  1  0.74851169  0.00205569  0.74858231  1
  Fe  Fe12  1  0.50113599  -0.00191500  -0.00131218  1
  Fe  Fe13  1  0.37302876  0.87786463  0.62642444  1
  Fe  Fe14  1  0.74852339  0.50201271  0.74980747  1
  Fe  Fe15  1  0.37400164  0.62396148  0.62479851  1
  Fe  Fe16  1  0.87550257  0.62423260  0.62523424  1
  Fe  Fe17  1  0.00322001  0.50005317  0.75125803  1
  Fe  Fe18  1  0.75116890  0.74835724  -0.00136352  1
  Fe  Fe19  1  0.12419955  0.62655162  0.62556225  1
  Fe  Fe20  1  -0.00196827  0.75407472  -0.00265067  1
  Fe  Fe21  1  0.12488352  0.12636505  0.12146339  1
  Fe  Fe22  1  0.49682923  0.75268655  -0.00208380  1
  Fe  Fe23  1  0.12653029  0.37536869  0.12659235  1
  Fe  Fe24  1  0.87396893  0.87572577  0.37302566  1
  Fe  Fe25  1  0.74593804  -0.00053242  0.50169635  1
  Fe  Fe26  1  0.50054664  0.74935125  0.24798205  1
  Fe  Fe27  1  0.50129617  -0.00025544  0.25320604  1
  Fe  Fe28  1  0.50049386  0.49992190  0.75076378  1
  Fe  Fe29  1  0.24871006  0.50296401  0.75183487  1
  Fe  Fe30  1  0.00078369  0.25313489  0.49981810  1
  Fe  Fe31  1  0.12507121  0.62479740  0.37410553  1
  Fe  Fe32  1  0.74812654  0.50061026  0.49845449  1
  Fe  Fe33  1  0.12519196  0.12402747  0.37661506  1
  Fe  Fe34  1  0.00166814  -0.00327066  0.50105689  1
  Fe  Fe35  1  0.00282327  0.49807189  0.49915686  1
  Fe  Fe36  1  0.74602055  0.00210437  0.25040244  1
  Fe  Fe37  1  0.12683217  0.87324254  0.12641333  1
  Fe  Fe38  1  0.25251199  0.24925876  0.25116165  1
  Fe  Fe39  1  0.62716813  0.37112620  0.62400404  1
  Fe  Fe40  1  0.62555769  0.87309851  0.87216010  1
  Fe  Fe41  1  0.87401836  0.37704377  0.87403992  1
  Fe  Fe42  1  0.49942756  0.25141309  0.74938413  1
  Fe  Fe43  1  0.12785990  0.37066523  0.87564512  1
  Fe  Fe44  1  0.37437745  0.37630032  0.12693371  1
  Fe  Fe45  1  0.24763589  0.49844379  0.49887168  1
  Fe  Fe46  1  0.50157643  0.49726063  0.50007863  1
  Fe  Fe47  1  0.12743151  0.87566338  0.62969333  1
  Fe  Fe48  1  0.62231407  0.12608116  0.12435204  1
  Fe  Fe49  1  -0.00059435  0.74902810  0.25022898  1
  Fe  Fe50  1  0.25147580  0.25233326  0.49828846  1
  Fe  Fe51  1  0.25034990  -0.00098097  0.25421688  1
  Fe  Fe52  1  0.37683553  0.12545548  0.87661470  1
  Fe  Fe53  1  0.25022066  0.24513459  0.75100327  1
  Fe  Fe54  1  0.50403062  0.50086259  0.25266862  1
  Fe  Fe55  1  0.62687031  0.62989318  0.62505021  1
  Fe  Fe56  1  0.50154306  -0.00105715  0.74783780  1
  Fe  Fe57  1  0.62293024  0.62590109  0.87486984  1
  Fe  Fe58  1  0.87616743  0.12296715  0.12288087  1
  Fe  Fe59  1  0.12415022  0.62573883  0.12394285  1
  Fe  Fe60  1  0.25154153  0.50004526  -0.00066740  1
  Fe  Fe61  1  0.87630019  0.12306381  0.37676052  1
  Fe  Fe62  1  0.75194504  0.24774549  0.75019773  1
  Fe  Fe63  1  0.37178038  0.37693624  0.62768548  1
  Fe  Fe64  1  0.75052104  0.50213517  0.00101493  1
  Fe  Fe65  1  -0.00386961  0.75099618  0.75219644  1
  Fe  Fe66  1  0.62382734  0.12733472  0.87437668  1
  Fe  Fe67  1  0.74718321  0.00045918  0.00102281  1
  Fe  Fe68  1  -0.00065215  0.75154850  0.49968497  1
  Fe  Fe69  1  0.75132965  0.24949251  -0.00074778  1
  Fe  Fe70  1  0.49862105  0.25297131  -0.00084792  1
  Fe  Fe71  1  0.87326636  0.37708473  0.37227161  1
  Fe  Fe72  1  0.37688239  0.62373294  0.12321774  1
  Fe  Fe73  1  0.49751369  0.25015490  0.25238274  1
  Fe  Fe74  1  0.87152474  0.87401820  0.62602442  1
  Fe  Fe75  1  0.49948290  0.75252899  0.50350414  1
  Fe  Fe76  1  0.24751552  -0.00104136  -0.00424687  1
  Fe  Fe77  1  -0.00013279  0.24951033  0.74975770  1
  Fe  Fe78  1  0.62174305  0.12989681  0.38153663  1
  Fe  Fe79  1  0.87297395  0.37807619  0.12846053  1
  Fe  Fe80  1  0.87589717  0.12402484  0.62356671  1
  Fe  Fe81  1  0.37604608  0.62513263  0.37656341  1
  Fe  Fe82  1  0.49798987  0.49608952  -0.00462522  1
  Fe  Fe83  1  0.87463630  0.62351465  0.37360883  1
  Fe  Fe84  1  0.88042770  0.12135859  0.87831503  1
  Fe  Fe85  1  0.37662567  0.12103716  0.61967896  1
  Fe  Fe86  1  0.00088087  0.00026082  0.24808000  1
  Fe  Fe87  1  0.87175209  0.87523369  0.12584293  1
  Fe  Fe88  1  0.62554919  0.87099555  0.37533058  1
  Fe  Fe89  1  0.37556343  0.12256613  0.12497738  1
  Co  Co90  1  0.25070656  0.50381643  0.24877975  1
  Co  Co91  1  0.12654663  0.37529688  0.37171515  1
  Co  Co92  1  0.62821506  0.87027431  0.62847271  1
  Co  Co93  1  -0.00018898  -0.00088542  0.74879717  1
  Co  Co94  1  0.37473966  0.62527086  0.87517928  1
  Co  Co95  1  0.37664440  0.87322949  0.37456556  1
  Co  Co96  1  0.62261483  0.12911040  0.62241351  1
  Co  Co97  1  0.25408338  0.74785340  0.74845792  1
  Co  Co98  1  0.25099603  0.00543695  0.75356693  1
  Co  Co99  1  0.75378918  0.74766572  0.75353049  1
  Co  Co100  1  0.12003049  0.12605881  0.87764665  1
  Co  Co101  1  0.00113904  0.50079071  0.24954877  1
  Co  Co102  1  0.62506351  0.87461789  0.12446414  1
  Co  Co103  1  0.75429710  0.25029057  0.50075098  1
  Co  Co104  1  0.87758612  0.62547787  0.12457855  1
  Co  Co105  1  0.87649693  0.62189654  0.87478770  1
  Co  Co106  1  0.62059431  0.62404358  0.11873272  1
  Co  Co107  1  0.75258024  0.74921052  0.49878527  1
  Co  Co108  1  0.25263677  0.75173450  0.00156730  1
  Co  Co109  1  0.24821639  -0.00460403  0.49690053  1
  Co  Co110  1  0.37560845  0.12252067  0.37882803  1
  Co  Co111  1  0.12756494  0.87339701  0.86959938  1
  Co  Co112  1  0.87318380  0.88000230  0.87569203  1
  Co  Co113  1  0.62781950  0.37436371  0.87422912  1
  Co  Co114  1  0.37294297  0.87521808  0.87257799  1
  Co  Co115  1  0.62219805  0.62807584  0.37900888  1
  Co  Co116  1  0.74436268  0.50496581  0.24973567  1
  Co  Co117  1  0.12671377  0.37406734  0.62718082  1
  Co  Co118  1  0.50424913  -0.00495639  0.50055671  1
  Co  Co119  1  0.37384038  0.37866262  0.37354915  1
  Co  Co120  1  0.49410180  0.25527854  0.50103353  1
  Co  Co121  1  0.00387749  -0.00605286  0.00226319  1
  Co  Co122  1  0.62622663  0.37197490  0.37621692  1
  Co  Co123  1  0.12263383  0.87398978  0.37274150  1
  Co  Co124  1  -0.00237395  0.25391966  0.00212264  1
  Co  Co125  1  0.49654159  0.74920039  0.74854526  1
  Co  Co126  1  0.37173725  0.37422443  0.87120295  1
  Co  Co127  1  0.25316839  0.24921905  0.00116304  1
