# generated using pymatgen
data_Fe45Co19
_symmetry_space_group_name_H-M   'P 1'
_cell_length_a   11.41533594
_cell_length_b   11.41497112
_cell_length_c   11.41488334
_cell_angle_alpha   90.00410203
_cell_angle_beta   89.99816876
_cell_angle_gamma   89.99050086
_symmetry_Int_Tables_number   1
_chemical_formula_structural   Fe45Co19
_chemical_formula_sum   'Fe90 Co38'
_cell_volume   1487.42468291
_cell_formula_units_Z   2
loop_
 _symmetry_equiv_pos_site_id
 _symmetry_equiv_pos_as_xyz
  1  'x, y, z'
loop_
 _atom_site_type_symbol
 _atom_site_label
 _atom_site_symmetry_multiplicity
 _atom_site_fract_x
 _atom_site_fract_y
 _atom_site_fract_z
 _atom_site_occupancy
  Fe  Fe0  1  0.74669643  0.50042176  0.25242605  1
  Fe  Fe1  1  0.50098372  0.74960436  0.24961076  1
  Fe  Fe2  1  0.74952938  0.24968067  0.00027948  1
  Fe  Fe3  1  0.62589831  0.62498856  0.62454895  1
  Fe  Fe4  1  0.74883554  -0.00025981  0.75050804  1
  Fe  Fe5  1  0.25023716  0.25027499  0.50118001  1
  Fe  Fe6  1  0.00233006  0.75094366  -0.00271992  1
  Fe  Fe7  1  0.00343071  0.24969915  0.74965570  1
  Fe  Fe8  1  0.12357819  0.62380494  0.12299313  1
  Fe  Fe9  1  0.75527305  0.74696822  0.50152904  1
  Fe  Fe10  1  0.37437991  0.37512173  0.37394343  1
  Fe  Fe11  1  0.75210944  0.74887414  0.74956622  1
  Fe  Fe12  1  0.74911236  0.50228455  0.75338876  1
  Fe  Fe13  1  0.75017357  0.74929163  0.24898899  1
  Fe  Fe14  1  0.37770757  0.12406936  0.12467458  1
  Fe  Fe15  1  0.12323036  0.12708896  0.37480600  1
  Fe  Fe16  1  0.25196111  0.25101812  0.00148286  1
  Fe  Fe17  1  0.12864113  0.37965860  0.62584924  1
  Fe  Fe18  1  0.37513439  0.12679277  0.87520533  1
  Fe  Fe19  1  0.62573759  0.87365362  0.87674457  1
  Fe  Fe20  1  -0.00191453  -0.00044754  0.24765054  1
  Fe  Fe21  1  0.62722381  0.37757797  0.61955656  1
  Fe  Fe22  1  0.37197790  0.87344359  0.87450749  1
  Fe  Fe23  1  0.75356199  0.00128800  0.00043884  1
  Fe  Fe24  1  0.62708055  0.87476747  0.62261268  1
  Fe  Fe25  1  0.62371976  0.62055554  0.12269320  1
  Fe  Fe26  1  0.62438463  0.37786195  0.88034309  1
  Fe  Fe27  1  0.87202888  0.37444125  0.37591050  1
  Fe  Fe28  1  0.74685799  0.25028232  0.74868981  1
  Fe  Fe29  1  0.12393540  0.37438415  0.12428305  1
  Fe  Fe30  1  -0.00272699  0.24926230  -0.00052428  1
  Fe  Fe31  1  0.49992494  -0.00095086  0.25172190  1
  Fe  Fe32  1  0.87327502  0.37394944  0.87339471  1
  Fe  Fe33  1  -0.00317249  0.74790203  0.50389944  1
  Fe  Fe34  1  0.24758266  0.75033905  0.24746361  1
  Fe  Fe35  1  0.00001111  -0.00063254  0.50019037  1
  Fe  Fe36  1  0.12566664  0.37472412  0.37563809  1
  Fe  Fe37  1  0.87669740  0.87498946  0.87349844  1
  Fe  Fe38  1  0.25143147  0.50117995  -0.00087927  1
  Fe  Fe39  1  0.00345486  0.00169785  0.75301940  1
  Fe  Fe40  1  0.62687030  0.87421429  0.37576798  1
  Fe  Fe41  1  0.12374657  0.87282266  0.37528195  1
  Fe  Fe42  1  0.87680191  0.62462026  0.12593787  1
  Fe  Fe43  1  0.37301466  0.87296738  0.37360274  1
  Fe  Fe44  1  0.87555007  0.87343580  0.37308941  1
  Fe  Fe45  1  0.24907980  0.24987096  0.24859801  1
  Fe  Fe46  1  0.37463601  0.37388988  0.87437646  1
  Fe  Fe47  1  0.12122994  0.12647308  0.12335315  1
  Fe  Fe48  1  0.50102075  0.50071265  0.75144899  1
  Fe  Fe49  1  0.24698767  0.00392395  0.74941923  1
  Fe  Fe50  1  0.50068401  -0.00203413  0.75053382  1
  Fe  Fe51  1  0.12406839  0.87556311  0.12254943  1
  Fe  Fe52  1  0.50141882  0.25197770  0.75003952  1
  Fe  Fe53  1  0.87210577  0.37367749  0.12716297  1
  Fe  Fe54  1  0.24482034  0.74436728  0.75015359  1
  Fe  Fe55  1  0.25112096  -0.00160080  0.00105605  1
  Fe  Fe56  1  0.37475623  0.12580161  0.62538434  1
  Fe  Fe57  1  0.25014770  0.74546927  0.50255576  1
  Fe  Fe58  1  0.25006626  0.00063904  0.49939462  1
  Fe  Fe59  1  0.75092873  0.74610078  -0.00119668  1
  Fe  Fe60  1  0.49765955  0.74886885  0.50049640  1
  Fe  Fe61  1  0.37563148  0.62391315  0.12742585  1
  Fe  Fe62  1  -0.00330504  0.49715951  -0.00075070  1
  Fe  Fe63  1  0.37330961  0.37857796  0.62497719  1
  Fe  Fe64  1  0.62406884  0.12386697  0.62361374  1
  Fe  Fe65  1  0.00026819  0.49852437  0.25025794  1
  Fe  Fe66  1  -0.00146103  0.25160574  0.50141282  1
  Fe  Fe67  1  0.49836908  0.75093034  0.00095786  1
  Fe  Fe68  1  0.62506873  0.87679715  0.12344247  1
  Fe  Fe69  1  0.62423969  0.12428886  0.87626775  1
  Fe  Fe70  1  0.87129068  0.37717660  0.62517373  1
  Fe  Fe71  1  0.12296484  0.62563799  0.37530712  1
  Fe  Fe72  1  0.75232139  0.00233745  0.49789254  1
  Fe  Fe73  1  0.49731531  -0.00107160  0.49916086  1
  Fe  Fe74  1  0.87573892  0.87344773  0.12423087  1
  Fe  Fe75  1  0.24842118  0.49971340  0.25105746  1
  Fe  Fe76  1  0.49997263  0.24889742  0.49904830  1
  Fe  Fe77  1  0.49948196  0.50376165  0.49493831  1
  Fe  Fe78  1  0.50297592  0.25175027  0.25015856  1
  Fe  Fe79  1  0.62514461  0.12303539  0.12442995  1
  Fe  Fe80  1  0.74810542  0.24826045  0.25283304  1
  Fe  Fe81  1  -0.00307157  0.50063629  0.49976866  1
  Fe  Fe82  1  0.12737390  0.37515842  0.87474531  1
  Fe  Fe83  1  0.37595911  0.62610657  0.87443943  1
  Fe  Fe84  1  0.37245476  0.87373003  0.62709051  1
  Fe  Fe85  1  0.87630982  0.12426311  0.62711748  1
  Fe  Fe86  1  0.12435823  0.87453623  0.62630791  1
  Fe  Fe87  1  0.24965232  0.00016679  0.24997914  1
  Fe  Fe88  1  0.50168730  0.75072778  0.74898804  1
  Fe  Fe89  1  0.37890409  0.37725702  0.12567015  1
  Co  Co90  1  0.87596061  0.62081528  0.63022399  1
  Co  Co91  1  0.75207960  -0.00102810  0.24960301  1
  Co  Co92  1  0.62382649  0.12352582  0.37546531  1
  Co  Co93  1  0.37334569  0.62693474  0.37073051  1
  Co  Co94  1  0.62413851  0.62583041  0.87619092  1
  Co  Co95  1  0.25122351  0.50336946  0.49762148  1
  Co  Co96  1  0.75177358  0.24534045  0.50084792  1
  Co  Co97  1  0.49760953  0.50082548  -0.00098856  1
  Co  Co98  1  0.75196536  0.50539054  0.49768487  1
  Co  Co99  1  0.49886344  -0.00204977  -0.00213543  1
  Co  Co100  1  0.87590770  0.87861317  0.62730218  1
  Co  Co101  1  0.62735356  0.37308746  0.38006408  1
  Co  Co102  1  0.62613730  0.62895082  0.37577716  1
  Co  Co103  1  0.87900879  0.62551168  0.87336384  1
  Co  Co104  1  0.24933101  0.74898475  0.00099360  1
  Co  Co105  1  0.00126902  0.75065559  0.24849298  1
  Co  Co106  1  0.87513068  0.12789278  0.12650556  1
  Co  Co107  1  0.87677583  0.62546201  0.37085412  1
  Co  Co108  1  0.00005974  0.25258821  0.25079848  1
  Co  Co109  1  0.12122105  0.62147914  0.87644896  1
  Co  Co110  1  0.12635349  0.12699756  0.87968167  1
  Co  Co111  1  0.87872825  0.12510451  0.37399526  1
  Co  Co112  1  0.87449473  0.12665966  0.87228683  1
  Co  Co113  1  0.12428847  0.12582852  0.62193479  1
  Co  Co114  1  0.37670467  0.62288510  0.62662893  1
  Co  Co115  1  0.00135841  0.75147343  0.74863158  1
  Co  Co116  1  0.24908235  0.24963607  0.74825452  1
  Co  Co117  1  -0.00308385  0.00075296  -0.00074919  1
  Co  Co118  1  0.50349403  0.49845681  0.25422510  1
  Co  Co119  1  0.37571607  0.87471323  0.12619739  1
  Co  Co120  1  -0.00021102  0.49620953  0.75160712  1
  Co  Co121  1  0.50104665  0.25028303  0.00034636  1
  Co  Co122  1  0.62574573  0.37769834  0.12236870  1
  Co  Co123  1  0.75422756  0.50180488  -0.00131813  1
  Co  Co124  1  0.12665693  0.87598270  0.87504115  1
  Co  Co125  1  0.37385845  0.12624732  0.37399103  1
  Co  Co126  1  0.12158602  0.62038641  0.62531490  1
  Co  Co127  1  0.25072630  0.50315033  0.75199964  1
