# generated using pymatgen
data_Fe45Co19
_symmetry_space_group_name_H-M   'P 1'
_cell_length_a   11.41380127
_cell_length_b   11.41504775
_cell_length_c   11.41472395
_cell_angle_alpha   90.00147560
_cell_angle_beta   90.01113259
_cell_angle_gamma   89.99824265
_symmetry_Int_Tables_number   1
_chemical_formula_structural   Fe45Co19
_chemical_formula_sum   'Fe90 Co38'
_cell_volume   1487.21392737
_cell_formula_units_Z   2
loop_
 _symmetry_equiv_pos_site_id
 _symmetry_equiv_pos_as_xyz
  1  'x, y, z'
loop_
 _atom_site_type_symbol
 _atom_site_label
 _atom_site_symmetry_multiplicity
 _atom_site_fract_x
 _atom_site_fract_y
 _atom_site_fract_z
 _atom_site_occupancy
  Fe  Fe0  1  0.24690576  -0.00343072  -0.00005150  1
  Fe  Fe1  1  0.00379723  0.50007757  0.75271823  1
  Fe  Fe2  1  0.12494223  0.62316524  0.12982299  1
  Fe  Fe3  1  0.25058656  -0.00092721  0.25241822  1
  Fe  Fe4  1  -0.00142189  0.25289117  0.49911266  1
  Fe  Fe5  1  0.12733929  0.62764707  0.63031417  1
  Fe  Fe6  1  0.37455204  0.12415500  0.37483353  1
  Fe  Fe7  1  0.12375674  0.87581234  0.12721170  1
  Fe  Fe8  1  0.49758327  0.74903489  -0.00114986  1
  Fe  Fe9  1  0.75218793  0.74989840  0.24956279  1
  Fe  Fe10  1  0.87311584  0.37702564  0.37548034  1
  Fe  Fe11  1  0.49921739  0.50061360  0.75283521  1
  Fe  Fe12  1  0.62517448  0.62694449  0.12537980  1
  Fe  Fe13  1  0.62321783  0.87356411  0.37497538  1
  Fe  Fe14  1  0.62437776  0.87380693  0.87448179  1
  Fe  Fe15  1  0.62596636  0.87410178  0.62465300  1
  Fe  Fe16  1  0.87669500  0.12397176  0.37622228  1
  Fe  Fe17  1  0.62442405  0.37354954  0.87617142  1
  Fe  Fe18  1  0.87763582  0.87784083  0.12444655  1
  Fe  Fe19  1  0.75182392  0.74980631  -0.00025388  1
  Fe  Fe20  1  -0.00124342  0.75124610  0.25033582  1
  Fe  Fe21  1  0.87968561  0.12105638  0.12478084  1
  Fe  Fe22  1  0.12465811  0.12264509  0.12625119  1
  Fe  Fe23  1  0.12541553  0.12784778  0.37590902  1
  Fe  Fe24  1  0.74985474  0.00044325  0.25088023  1
  Fe  Fe25  1  0.00188752  0.24673556  0.75233860  1
  Fe  Fe26  1  0.75013173  0.24756820  -0.00057254  1
  Fe  Fe27  1  0.37170176  0.37335870  0.37291487  1
  Fe  Fe28  1  0.87870361  0.87845052  0.87237300  1
  Fe  Fe29  1  0.37400393  0.62916832  0.37636776  1
  Fe  Fe30  1  0.37129539  0.62362599  0.12474471  1
  Fe  Fe31  1  0.25260717  0.24770860  0.50206080  1
  Fe  Fe32  1  0.37278351  0.37469484  0.87693746  1
  Fe  Fe33  1  0.00109576  0.25263233  0.25054235  1
  Fe  Fe34  1  0.49737885  0.75140952  0.25060358  1
  Fe  Fe35  1  0.00423761  0.49974918  0.49773768  1
  Fe  Fe36  1  0.12924897  0.87191340  0.37791219  1
  Fe  Fe37  1  0.24730561  0.00308397  0.74546499  1
  Fe  Fe38  1  0.00266249  0.74896160  -0.00094486  1
  Fe  Fe39  1  0.49691556  0.74974189  0.74891789  1
  Fe  Fe40  1  0.75270101  0.24817516  0.24774032  1
  Fe  Fe41  1  0.49448384  0.24905940  0.24519804  1
  Fe  Fe42  1  0.50020871  0.00095814  -0.00144913  1
  Fe  Fe43  1  0.00382470  0.50087742  -0.00196439  1
  Fe  Fe44  1  0.37548216  0.87674270  0.12606384  1
  Fe  Fe45  1  0.25090046  0.25171605  0.00564338  1
  Fe  Fe46  1  0.74956251  0.74899909  0.50009043  1
  Fe  Fe47  1  0.50513274  0.49679827  0.49560461  1
  Fe  Fe48  1  0.00289716  0.24886449  -0.00052765  1
  Fe  Fe49  1  0.25055111  0.25034262  0.74785687  1
  Fe  Fe50  1  0.37625542  0.37658519  0.62363120  1
  Fe  Fe51  1  0.74778222  0.25390790  0.50152688  1
  Fe  Fe52  1  0.62082208  0.12708872  0.62413653  1
  Fe  Fe53  1  0.00359369  -0.00222412  0.50360098  1
  Fe  Fe54  1  0.62271450  0.37511960  0.12574545  1
  Fe  Fe55  1  0.37562511  0.62264325  0.62308692  1
  Fe  Fe56  1  0.00152768  0.75038678  0.50397792  1
  Fe  Fe57  1  0.87646505  0.37410243  0.87554445  1
  Fe  Fe58  1  0.87509109  0.37713506  0.62613084  1
  Fe  Fe59  1  0.62285347  0.12849462  0.37470985  1
  Fe  Fe60  1  0.75107016  0.50195673  0.24996616  1
  Fe  Fe61  1  0.74892355  0.00099305  0.49970768  1
  Fe  Fe62  1  0.75192116  0.74892060  0.75002822  1
  Fe  Fe63  1  0.12578417  0.37343312  0.62499426  1
  Fe  Fe64  1  0.74881805  0.50145649  0.00041734  1
  Fe  Fe65  1  0.74862840  0.49990127  0.75115647  1
  Fe  Fe66  1  0.24602367  0.49941415  -0.00096340  1
  Fe  Fe67  1  0.37262707  0.87483302  0.87549654  1
  Fe  Fe68  1  0.87644894  0.62383433  0.37594192  1
  Fe  Fe69  1  0.49836706  -0.00049029  0.49858404  1
  Fe  Fe70  1  0.87392552  0.62208704  0.62300100  1
  Fe  Fe71  1  0.12448952  0.87156032  0.86883905  1
  Fe  Fe72  1  0.24657401  0.50210692  0.49789967  1
  Fe  Fe73  1  0.49858538  0.50107723  0.25177267  1
  Fe  Fe74  1  0.87763003  0.37692623  0.12342524  1
  Fe  Fe75  1  0.49860232  -0.00110800  0.74940559  1
  Fe  Fe76  1  0.74931812  0.24863390  0.75034831  1
  Fe  Fe77  1  0.62421466  0.62356481  0.62404627  1
  Fe  Fe78  1  0.87554295  0.87600458  0.37731387  1
  Fe  Fe79  1  0.37053318  0.87498753  0.61957088  1
  Fe  Fe80  1  0.87601114  0.62447437  0.87630060  1
  Fe  Fe81  1  0.75058046  0.00102788  -0.00094122  1
  Fe  Fe82  1  0.37272983  0.12469062  0.87673706  1
  Fe  Fe83  1  0.49863363  0.25023620  0.75140685  1
  Fe  Fe84  1  0.50050741  0.50103693  -0.00148959  1
  Fe  Fe85  1  0.87663152  0.12431729  0.62408588  1
  Fe  Fe86  1  0.36974936  0.62551275  0.87575080  1
  Fe  Fe87  1  0.62368966  0.87488183  0.12477772  1
  Fe  Fe88  1  0.62234316  0.12399317  0.12400426  1
  Fe  Fe89  1  0.75036546  0.00249377  0.74989987  1
  Co  Co90  1  0.49978024  -0.00063635  0.25192565  1
  Co  Co91  1  0.12323363  0.62858835  0.37134460  1
  Co  Co92  1  0.37343002  0.11847935  0.12263995  1
  Co  Co93  1  0.49688116  0.24963960  0.00162330  1
  Co  Co94  1  0.62487480  0.62774204  0.37367161  1
  Co  Co95  1  0.62510269  0.37078946  0.36826459  1
  Co  Co96  1  0.25179205  0.24817141  0.24521420  1
  Co  Co97  1  0.12652780  0.37252167  0.87479131  1
  Co  Co98  1  0.37241116  0.87371013  0.37815941  1
  Co  Co99  1  0.49912388  0.25294326  0.49862663  1
  Co  Co100  1  0.87769352  0.62402415  0.12504506  1
  Co  Co101  1  0.62255402  0.12461242  0.87495553  1
  Co  Co102  1  0.00341113  -0.00038262  -0.00354409  1
  Co  Co103  1  0.62514874  0.62770007  0.87452778  1
  Co  Co104  1  0.74540228  0.49705182  0.49788232  1
  Co  Co105  1  0.12944482  0.37066104  0.37535117  1
  Co  Co106  1  0.12550591  0.37780126  0.12794125  1
  Co  Co107  1  0.25151249  0.75115662  0.24812030  1
  Co  Co108  1  0.24758945  0.75177276  0.00290450  1
  Co  Co109  1  0.37375813  0.38108642  0.12551034  1
  Co  Co110  1  0.87643631  0.12339211  0.87543806  1
  Co  Co111  1  0.00346068  0.00357686  0.74706255  1
  Co  Co112  1  0.24973233  0.49721217  0.74917621  1
  Co  Co113  1  0.25652717  0.74978621  0.74827222  1
  Co  Co114  1  0.24912671  0.50136716  0.25507254  1
  Co  Co115  1  0.50036917  0.75090879  0.50182755  1
  Co  Co116  1  0.12977874  0.12592911  0.87680591  1
  Co  Co117  1  0.37814694  0.12514484  0.62535240  1
  Co  Co118  1  0.12348757  0.12918272  0.62166123  1
  Co  Co119  1  0.00164763  -0.00111532  0.25462124  1
  Co  Co120  1  0.12875012  0.62872740  0.87134502  1
  Co  Co121  1  0.87396384  0.87707907  0.62529592  1
  Co  Co122  1  0.00015493  0.49660405  0.25405069  1
  Co  Co123  1  0.24821488  0.74561300  0.50151589  1
  Co  Co124  1  -0.00411679  0.74822575  0.74827045  1
  Co  Co125  1  0.62275107  0.37550231  0.62793099  1
  Co  Co126  1  0.24864336  0.00344493  0.50080101  1
  Co  Co127  1  0.12779548  0.87186536  0.62797287  1
