# generated using pymatgen
data_Fe45Co19
_symmetry_space_group_name_H-M   'P 1'
_cell_length_a   11.41463916
_cell_length_b   11.41538002
_cell_length_c   11.41468113
_cell_angle_alpha   90.00187831
_cell_angle_beta   89.99074052
_cell_angle_gamma   89.99352892
_symmetry_Int_Tables_number   1
_chemical_formula_structural   Fe45Co19
_chemical_formula_sum   'Fe90 Co38'
_cell_volume   1487.36081622
_cell_formula_units_Z   2
loop_
 _symmetry_equiv_pos_site_id
 _symmetry_equiv_pos_as_xyz
  1  'x, y, z'
loop_
 _atom_site_type_symbol
 _atom_site_label
 _atom_site_symmetry_multiplicity
 _atom_site_fract_x
 _atom_site_fract_y
 _atom_site_fract_z
 _atom_site_occupancy
  Fe  Fe0  1  0.12586253  0.12366422  0.37375951  1
  Fe  Fe1  1  0.24931360  -0.00218465  0.49937424  1
  Fe  Fe2  1  0.12367953  0.37368360  0.87575269  1
  Fe  Fe3  1  0.12414078  0.62417929  0.37272318  1
  Fe  Fe4  1  0.75119622  0.75238369  0.00198414  1
  Fe  Fe5  1  0.12229310  0.12525647  0.87795935  1
  Fe  Fe6  1  0.50103881  0.49906681  -0.00037454  1
  Fe  Fe7  1  0.00007342  0.25130930  0.49973369  1
  Fe  Fe8  1  0.36930937  0.37616665  0.62735190  1
  Fe  Fe9  1  0.62469768  0.37067825  0.87142755  1
  Fe  Fe10  1  -0.00213673  0.75043099  0.24983934  1
  Fe  Fe11  1  -0.00060568  0.24893563  0.74954299  1
  Fe  Fe12  1  0.24960737  0.25111186  0.24986392  1
  Fe  Fe13  1  0.37692853  0.62617739  0.87508472  1
  Fe  Fe14  1  0.00178398  0.50077367  0.50036188  1
  Fe  Fe15  1  0.74681735  0.50221502  0.25620172  1
  Fe  Fe16  1  0.24923116  0.49962105  0.00057280  1
  Fe  Fe17  1  0.37732329  0.12713939  0.87493154  1
  Fe  Fe18  1  0.37224074  0.12461821  0.62430564  1
  Fe  Fe19  1  0.62343894  0.37510752  0.12801767  1
  Fe  Fe20  1  0.62706509  0.62704264  0.62377052  1
  Fe  Fe21  1  0.37533682  0.12616550  0.12489954  1
  Fe  Fe22  1  0.12277446  0.62638914  0.87554200  1
  Fe  Fe23  1  0.50132606  -0.00031865  -0.00122763  1
  Fe  Fe24  1  0.37472003  0.37327279  0.87245727  1
  Fe  Fe25  1  0.87692952  0.37640266  0.87419814  1
  Fe  Fe26  1  0.87544039  0.37542013  0.62468775  1
  Fe  Fe27  1  0.50090811  0.00054162  0.49963959  1
  Fe  Fe28  1  -0.00371338  0.75049326  0.00240166  1
  Fe  Fe29  1  0.25128190  0.75086687  0.00121435  1
  Fe  Fe30  1  0.49814066  0.24930843  0.50053105  1
  Fe  Fe31  1  0.62493073  0.62805954  0.87524451  1
  Fe  Fe32  1  0.00092934  0.49912430  0.00359278  1
  Fe  Fe33  1  0.12297662  0.87465393  0.87628608  1
  Fe  Fe34  1  0.12613883  0.87446198  0.37233947  1
  Fe  Fe35  1  0.12691954  0.62580163  0.12710136  1
  Fe  Fe36  1  0.75275970  0.25080763  0.49861447  1
  Fe  Fe37  1  0.62269107  0.12693072  0.12339429  1
  Fe  Fe38  1  0.49883404  0.75107121  0.50219398  1
  Fe  Fe39  1  0.62735006  0.12667684  0.62661132  1
  Fe  Fe40  1  0.24968069  0.25079736  0.00095033  1
  Fe  Fe41  1  -0.00093721  -0.00294795  0.49845216  1
  Fe  Fe42  1  0.87389059  0.37618503  0.12724134  1
  Fe  Fe43  1  0.50486031  0.74573691  0.24697922  1
  Fe  Fe44  1  0.00162158  0.50150828  0.74838022  1
  Fe  Fe45  1  0.12250754  0.87250880  0.62570526  1
  Fe  Fe46  1  0.50083075  0.00312798  0.25142100  1
  Fe  Fe47  1  0.50055542  0.50079437  0.74938460  1
  Fe  Fe48  1  0.37373611  0.87626930  0.62638904  1
  Fe  Fe49  1  0.87159544  0.62296594  0.12594175  1
  Fe  Fe50  1  0.12278938  0.37830497  0.37263034  1
  Fe  Fe51  1  0.37727086  0.87274394  0.87400343  1
  Fe  Fe52  1  -0.00564610  0.75197615  0.75203450  1
  Fe  Fe53  1  0.24824809  -0.00096555  0.24729257  1
  Fe  Fe54  1  0.00111596  0.25089174  0.24845984  1
  Fe  Fe55  1  0.62723634  0.37355800  0.62543290  1
  Fe  Fe56  1  0.37157992  0.62257443  0.62485277  1
  Fe  Fe57  1  0.24914795  -0.00173079  0.00182654  1
  Fe  Fe58  1  0.37788361  0.37691830  0.37268550  1
  Fe  Fe59  1  0.37508369  0.62386943  0.12547522  1
  Fe  Fe60  1  0.12471578  0.12523522  0.62396195  1
  Fe  Fe61  1  0.62759216  0.87267547  0.62610378  1
  Fe  Fe62  1  0.75315091  0.75163576  0.49725485  1
  Fe  Fe63  1  0.74900373  0.49736555  -0.00256672  1
  Fe  Fe64  1  0.74848522  -0.00066911  0.00303115  1
  Fe  Fe65  1  0.87124817  0.87794790  0.36970604  1
  Fe  Fe66  1  0.75125218  0.50239101  0.75025832  1
  Fe  Fe67  1  0.37599909  0.87470329  0.37326621  1
  Fe  Fe68  1  0.75085429  0.25015542  -0.00122555  1
  Fe  Fe69  1  0.75185490  -0.00221098  0.75001217  1
  Fe  Fe70  1  0.24731874  0.00137004  0.75154965  1
  Fe  Fe71  1  0.87624810  0.62794127  0.62268174  1
  Fe  Fe72  1  0.62639545  0.87501034  0.37221296  1
  Fe  Fe73  1  0.25004193  0.74846267  0.75025900  1
  Fe  Fe74  1  0.00099797  -0.00184973  0.00576196  1
  Fe  Fe75  1  0.87543733  0.12224057  0.87634212  1
  Fe  Fe76  1  0.50155728  0.00078879  0.75004585  1
  Fe  Fe77  1  0.50074511  0.49894180  0.49957180  1
  Fe  Fe78  1  0.24908684  0.25221901  0.49784155  1
  Fe  Fe79  1  0.62407142  0.87174882  0.87461431  1
  Fe  Fe80  1  0.37830412  0.37540594  0.12773147  1
  Fe  Fe81  1  0.87726370  0.12433323  0.12644374  1
  Fe  Fe82  1  0.62558572  0.12654946  0.37676500  1
  Fe  Fe83  1  0.75156997  0.49905496  0.49600520  1
  Fe  Fe84  1  0.74951659  0.25001608  0.25194631  1
  Fe  Fe85  1  0.37711821  0.87390653  0.12593541  1
  Fe  Fe86  1  0.37554900  0.62434540  0.37429722  1
  Fe  Fe87  1  0.87560746  0.12300482  0.37351373  1
  Fe  Fe88  1  0.87507203  0.12212216  0.62430353  1
  Fe  Fe89  1  0.24890770  0.74856879  0.49886886  1
  Co  Co90  1  0.75506821  0.74956893  0.75222965  1
  Co  Co91  1  0.87754215  0.37556961  0.37395226  1
  Co  Co92  1  0.50165830  0.25152207  -0.00031138  1
  Co  Co93  1  0.87522730  0.62250189  0.87832717  1
  Co  Co94  1  0.37182318  0.12333561  0.37566261  1
  Co  Co95  1  0.87541899  0.87862928  0.87889148  1
  Co  Co96  1  0.49899117  0.24970000  0.74712581  1
  Co  Co97  1  0.24727699  0.50106638  0.49693916  1
  Co  Co98  1  0.87341155  0.87627522  0.12954353  1
  Co  Co99  1  0.12520507  0.37421902  0.12448318  1
  Co  Co100  1  0.62879886  0.62111705  0.12039950  1
  Co  Co101  1  0.12483597  0.87170307  0.12484634  1
  Co  Co102  1  0.62284600  0.37251749  0.37565292  1
  Co  Co103  1  0.87510998  0.87477282  0.62282949  1
  Co  Co104  1  -0.00076235  0.75328756  0.49511766  1
  Co  Co105  1  0.74946864  -0.00006565  0.49935009  1
  Co  Co106  1  0.50071164  0.74903448  0.00337596  1
  Co  Co107  1  0.24677489  0.50218057  0.75277118  1
  Co  Co108  1  0.62425172  0.62739086  0.38066878  1
  Co  Co109  1  0.87680215  0.62449756  0.37461459  1
  Co  Co110  1  0.12723337  0.37471164  0.62591452  1
  Co  Co111  1  0.00004048  -0.00065444  0.74877002  1
  Co  Co112  1  0.24755119  0.24766882  0.75163080  1
  Co  Co113  1  -0.00068405  0.50039758  0.24662942  1
  Co  Co114  1  0.25008101  0.49910584  0.24937193  1
  Co  Co115  1  -0.00322119  0.25157326  0.00116839  1
  Co  Co116  1  0.74721170  0.00427259  0.24749940  1
  Co  Co117  1  0.49888005  0.74822488  0.74666073  1
  Co  Co118  1  0.74734039  0.74611783  0.24869344  1
  Co  Co119  1  0.50424834  0.50442838  0.25119665  1
  Co  Co120  1  0.49980850  0.24662533  0.25167824  1
  Co  Co121  1  0.62426032  0.87626950  0.12661460  1
  Co  Co122  1  0.00336422  -0.00087408  0.24911312  1
  Co  Co123  1  0.12518929  0.12690148  0.12408787  1
  Co  Co124  1  0.12288337  0.62878484  0.62512036  1
  Co  Co125  1  0.62619524  0.12627728  0.87401990  1
  Co  Co126  1  0.75457391  0.24954029  0.75105703  1
  Co  Co127  1  0.25100781  0.74980156  0.25036501  1
