# generated using pymatgen
data_Fe45Co19
_symmetry_space_group_name_H-M   'P 1'
_cell_length_a   11.41761276
_cell_length_b   11.41485552
_cell_length_c   11.41559310
_cell_angle_alpha   89.99462294
_cell_angle_beta   89.99577103
_cell_angle_gamma   89.99522071
_symmetry_Int_Tables_number   1
_chemical_formula_structural   Fe45Co19
_chemical_formula_sum   'Fe90 Co38'
_cell_volume   1487.79879948
_cell_formula_units_Z   2
loop_
 _symmetry_equiv_pos_site_id
 _symmetry_equiv_pos_as_xyz
  1  'x, y, z'
loop_
 _atom_site_type_symbol
 _atom_site_label
 _atom_site_symmetry_multiplicity
 _atom_site_fract_x
 _atom_site_fract_y
 _atom_site_fract_z
 _atom_site_occupancy
  Fe  Fe0  1  0.37572223  0.87278230  0.87371292  1
  Fe  Fe1  1  0.50614071  0.25451009  0.24968802  1
  Fe  Fe2  1  0.50143902  0.75125564  0.24863216  1
  Fe  Fe3  1  0.37629772  0.62770876  0.87147506  1
  Fe  Fe4  1  0.50371078  -0.00231031  0.25028599  1
  Fe  Fe5  1  0.37789252  0.12675782  0.37289482  1
  Fe  Fe6  1  0.75140749  0.00332142  0.49603191  1
  Fe  Fe7  1  0.75248811  0.74587405  0.50152677  1
  Fe  Fe8  1  0.37407827  0.37637801  0.62372596  1
  Fe  Fe9  1  0.49851322  0.50155267  -0.00007050  1
  Fe  Fe10  1  0.00138896  -0.00124304  0.25257854  1
  Fe  Fe11  1  -0.00221842  0.74732157  0.50091976  1
  Fe  Fe12  1  0.62393726  0.37322477  0.87842702  1
  Fe  Fe13  1  0.12366022  0.87386799  0.87680397  1
  Fe  Fe14  1  0.74945037  0.24834483  0.00191464  1
  Fe  Fe15  1  0.25056022  0.74725956  0.50083886  1
  Fe  Fe16  1  -0.00243693  0.50075669  0.00017038  1
  Fe  Fe17  1  0.87094208  0.87767408  0.12204581  1
  Fe  Fe18  1  0.87244589  0.62517766  0.86834690  1
  Fe  Fe19  1  0.37452458  0.37561584  0.37704659  1
  Fe  Fe20  1  0.74382074  0.25158156  0.25218280  1
  Fe  Fe21  1  0.37630449  0.62459054  0.37297065  1
  Fe  Fe22  1  -0.00139671  0.49993844  0.49979355  1
  Fe  Fe23  1  0.37568223  0.37598244  0.12243933  1
  Fe  Fe24  1  0.87250569  0.37848279  0.62492989  1
  Fe  Fe25  1  0.24941670  0.00199316  0.49673017  1
  Fe  Fe26  1  0.87576310  0.12795016  0.87277735  1
  Fe  Fe27  1  0.49962822  0.50173949  0.50008325  1
  Fe  Fe28  1  0.12513501  0.37304398  0.87923984  1
  Fe  Fe29  1  0.87244777  0.37718303  0.12607861  1
  Fe  Fe30  1  0.12368223  0.12750290  0.62227249  1
  Fe  Fe31  1  0.37719707  0.12568375  0.62745824  1
  Fe  Fe32  1  0.12500408  0.62415236  0.87573016  1
  Fe  Fe33  1  0.12499536  0.87497612  0.12363724  1
  Fe  Fe34  1  0.87433632  0.37517184  0.87381943  1
  Fe  Fe35  1  0.12380172  0.12717388  0.12452584  1
  Fe  Fe36  1  0.25001770  0.50038547  0.75171560  1
  Fe  Fe37  1  0.00026767  -0.00086340  0.75146871  1
  Fe  Fe38  1  0.75111951  0.50278387  -0.00017826  1
  Fe  Fe39  1  0.25053843  0.74724703  0.00177528  1
  Fe  Fe40  1  0.12760973  0.37262847  0.37848162  1
  Fe  Fe41  1  0.62912244  0.87805174  0.12089219  1
  Fe  Fe42  1  0.37416564  0.87307690  0.37451467  1
  Fe  Fe43  1  0.87532345  0.62208912  0.37017423  1
  Fe  Fe44  1  0.62772637  0.62540147  0.62851353  1
  Fe  Fe45  1  0.62504705  0.62230981  0.37186616  1
  Fe  Fe46  1  0.12348212  0.62506456  0.37292229  1
  Fe  Fe47  1  0.62672632  0.37459203  0.61988862  1
  Fe  Fe48  1  -0.00006719  0.25331214  0.74825742  1
  Fe  Fe49  1  -0.00375747  0.74633870  0.00200110  1
  Fe  Fe50  1  -0.00293607  0.00278866  -0.00013743  1
  Fe  Fe51  1  0.12606194  0.37608705  0.12090327  1
  Fe  Fe52  1  0.62623005  0.62825884  0.87193032  1
  Fe  Fe53  1  0.37354846  0.87285582  0.62612318  1
  Fe  Fe54  1  0.50306360  -0.00507115  0.75058265  1
  Fe  Fe55  1  0.62580165  0.87391537  0.37795311  1
  Fe  Fe56  1  0.37460285  0.87495253  0.12531117  1
  Fe  Fe57  1  0.74789909  0.25203885  0.74869722  1
  Fe  Fe58  1  0.87436961  0.87626793  0.62409664  1
  Fe  Fe59  1  0.87136113  0.12370199  0.12902708  1
  Fe  Fe60  1  0.12497151  0.62262641  0.62580545  1
  Fe  Fe61  1  0.50103013  0.74865770  0.00218297  1
  Fe  Fe62  1  0.87051939  0.37562395  0.37708032  1
  Fe  Fe63  1  0.50173497  0.49809269  0.74984133  1
  Fe  Fe64  1  0.50018185  0.74825258  0.50250069  1
  Fe  Fe65  1  0.87511114  0.12491871  0.62580947  1
  Fe  Fe66  1  0.25181559  0.00309412  -0.00110903  1
  Fe  Fe67  1  -0.00053943  0.75121635  0.24737958  1
  Fe  Fe68  1  0.12504304  0.87492745  0.62281749  1
  Fe  Fe69  1  0.00095491  0.00197504  0.49543671  1
  Fe  Fe70  1  -0.00066385  0.75105183  0.74812676  1
  Fe  Fe71  1  0.62202833  0.12803096  0.87444738  1
  Fe  Fe72  1  0.12327188  0.12855627  0.87681646  1
  Fe  Fe73  1  0.62452792  0.62097597  0.12714988  1
  Fe  Fe74  1  0.24958930  0.25012578  0.24936014  1
  Fe  Fe75  1  0.24968284  0.74855114  0.24765353  1
  Fe  Fe76  1  0.49941924  0.00266561  -0.00030193  1
  Fe  Fe77  1  0.24742165  0.00017004  0.25208772  1
  Fe  Fe78  1  0.49856143  -0.00073040  0.49943315  1
  Fe  Fe79  1  0.74955000  0.75021218  0.24750930  1
  Fe  Fe80  1  0.25012503  0.50155035  0.24811209  1
  Fe  Fe81  1  0.37646104  0.37167501  0.87688169  1
  Fe  Fe82  1  0.25112024  0.24926843  0.75101362  1
  Fe  Fe83  1  0.24845494  0.00030869  0.75192298  1
  Fe  Fe84  1  0.12700624  0.37455767  0.62246948  1
  Fe  Fe85  1  -0.00013723  0.25298141  0.25069736  1
  Fe  Fe86  1  0.62400406  0.12490797  0.62363375  1
  Fe  Fe87  1  0.74860535  -0.00458306  0.75358768  1
  Fe  Fe88  1  0.87464705  0.87426293  0.37463313  1
  Fe  Fe89  1  0.37722266  0.12618943  0.12717934  1
  Co  Co90  1  0.75185976  0.74477807  0.00179182  1
  Co  Co91  1  0.74936573  0.75719930  0.74937016  1
  Co  Co92  1  0.74787930  -0.00110674  0.25494009  1
  Co  Co93  1  0.87632187  0.12724787  0.37124858  1
  Co  Co94  1  0.49951891  0.49588570  0.25085830  1
  Co  Co95  1  0.49920658  0.25101733  0.49922935  1
  Co  Co96  1  0.12275015  0.62211457  0.12542418  1
  Co  Co97  1  -0.00455567  0.25010587  0.00235239  1
  Co  Co98  1  0.37742502  0.62437905  0.12682274  1
  Co  Co99  1  0.00191360  0.49497365  0.25158333  1
  Co  Co100  1  0.75104311  0.50553858  0.50042562  1
  Co  Co101  1  0.00309664  0.49749224  0.75087219  1
  Co  Co102  1  0.62698696  0.37798167  0.38076106  1
  Co  Co103  1  0.62173249  0.12486052  0.37675379  1
  Co  Co104  1  0.25427078  0.24676250  0.50080167  1
  Co  Co105  1  0.87651480  0.87263905  0.87741818  1
  Co  Co106  1  0.25012418  0.50283856  0.49924752  1
  Co  Co107  1  0.12561578  0.87165107  0.37553110  1
  Co  Co108  1  0.75109641  0.00401749  -0.00637679  1
  Co  Co109  1  0.74593537  0.49598475  0.75127197  1
  Co  Co110  1  0.75080399  0.24628333  0.49992085  1
  Co  Co111  1  0.12341676  0.13003085  0.37569873  1
  Co  Co112  1  0.50360864  0.75364301  0.74663362  1
  Co  Co113  1  0.25314825  0.24659501  -0.00023063  1
  Co  Co114  1  -0.00421271  0.25241528  0.50066836  1
  Co  Co115  1  0.74760608  0.49722980  0.25022226  1
  Co  Co116  1  0.62499436  0.37915252  0.12101796  1
  Co  Co117  1  0.37581319  0.62384485  0.62838680  1
  Co  Co118  1  0.87549005  0.62097399  0.13013227  1
  Co  Co119  1  0.25259010  0.50227333  -0.00049904  1
  Co  Co120  1  0.62781824  0.87624339  0.61912901  1
  Co  Co121  1  0.87345395  0.62212535  0.63179705  1
  Co  Co122  1  0.24768622  0.74944786  0.74931471  1
  Co  Co123  1  0.62429010  0.87198926  0.88084875  1
  Co  Co124  1  0.37917717  0.12647977  0.87179205  1
  Co  Co125  1  0.50128341  0.25365673  0.74691763  1
  Co  Co126  1  0.50071210  0.24793227  0.00395561  1
  Co  Co127  1  0.62690466  0.12201846  0.12536349  1
