# generated using pymatgen
data_Fe45Co19
_symmetry_space_group_name_H-M   'P 1'
_cell_length_a   11.40857337
_cell_length_b   11.40620481
_cell_length_c   11.40693653
_cell_angle_alpha   90.01650221
_cell_angle_beta   90.00379773
_cell_angle_gamma   89.99138333
_symmetry_Int_Tables_number   1
_chemical_formula_structural   Fe45Co19
_chemical_formula_sum   'Fe90 Co38'
_cell_volume   1484.36773708
_cell_formula_units_Z   2
loop_
 _symmetry_equiv_pos_site_id
 _symmetry_equiv_pos_as_xyz
  1  'x, y, z'
loop_
 _atom_site_type_symbol
 _atom_site_label
 _atom_site_symmetry_multiplicity
 _atom_site_fract_x
 _atom_site_fract_y
 _atom_site_fract_z
 _atom_site_occupancy
  Fe  Fe0  1  0.49997717  0.75148488  0.24944568  1
  Fe  Fe1  1  0.62314434  0.62573896  0.62717642  1
  Fe  Fe2  1  0.87975825  0.63139765  0.87767105  1
  Fe  Fe3  1  0.87358430  0.87382264  0.37604650  1
  Fe  Fe4  1  0.12137309  0.37863671  0.62486072  1
  Fe  Fe5  1  0.74983155  0.00064954  0.50077758  1
  Fe  Fe6  1  0.50311194  0.25113852  0.24967192  1
  Fe  Fe7  1  0.86647011  0.37570354  0.37347136  1
  Fe  Fe8  1  0.50051472  0.49963699  -0.00279589  1
  Fe  Fe9  1  0.12606849  0.12566584  0.37300050  1
  Fe  Fe10  1  0.62547767  0.12520737  0.37442914  1
  Fe  Fe11  1  0.49980672  -0.00156031  0.25159658  1
  Fe  Fe12  1  0.24982806  -0.00311474  0.74939793  1
  Fe  Fe13  1  0.49843002  -0.00474358  -0.00626858  1
  Fe  Fe14  1  0.75225464  0.74919519  0.50423842  1
  Fe  Fe15  1  0.37279074  0.62934653  0.87483285  1
  Fe  Fe16  1  0.37630463  0.62639726  0.62503564  1
  Fe  Fe17  1  0.00125852  -0.00225927  -0.00329032  1
  Fe  Fe18  1  0.87221247  0.37363061  0.87737105  1
  Fe  Fe19  1  0.37454693  0.12693341  0.87345418  1
  Fe  Fe20  1  0.74848699  0.24904543  0.50274723  1
  Fe  Fe21  1  0.87401451  0.12566905  0.37346707  1
  Fe  Fe22  1  0.24895718  -0.00193637  0.49813797  1
  Fe  Fe23  1  0.12379012  0.62955222  0.37935400  1
  Fe  Fe24  1  0.75096166  0.50604975  0.00335927  1
  Fe  Fe25  1  -0.00127708  0.25203252  0.75022344  1
  Fe  Fe26  1  0.24916188  0.24761346  0.24538846  1
  Fe  Fe27  1  0.75077727  0.00009576  -0.00089712  1
  Fe  Fe28  1  0.62842315  0.37670018  0.12640291  1
  Fe  Fe29  1  0.00259541  0.25115373  0.00261093  1
  Fe  Fe30  1  0.87765284  0.12232083  0.62522066  1
  Fe  Fe31  1  0.50214556  0.49885946  0.49895932  1
  Fe  Fe32  1  -0.00021361  0.49823754  -0.00149336  1
  Fe  Fe33  1  0.75004167  0.74568964  0.24480031  1
  Fe  Fe34  1  0.87442876  0.87258877  0.12153132  1
  Fe  Fe35  1  0.12727951  0.37464107  0.87504281  1
  Fe  Fe36  1  0.62712528  0.37722328  0.62607002  1
  Fe  Fe37  1  0.37240930  0.37336206  0.87446604  1
  Fe  Fe38  1  0.49795160  0.75651958  0.75389822  1
  Fe  Fe39  1  0.37445698  0.62709085  0.37627891  1
  Fe  Fe40  1  0.50224779  0.25242382  -0.00099536  1
  Fe  Fe41  1  0.00299217  0.75641736  0.74923979  1
  Fe  Fe42  1  0.74933598  0.00129942  0.24725172  1
  Fe  Fe43  1  0.12481280  0.12429271  0.87338188  1
  Fe  Fe44  1  0.75359083  0.50123624  0.75036877  1
  Fe  Fe45  1  0.12988149  0.87991574  0.12366339  1
  Fe  Fe46  1  0.24898394  0.75015386  0.24892516  1
  Fe  Fe47  1  0.24916736  0.50312985  -0.00111779  1
  Fe  Fe48  1  0.37881591  0.62549272  0.12455345  1
  Fe  Fe49  1  0.87754599  0.12497649  0.12540302  1
  Fe  Fe50  1  0.37167702  0.87520786  0.12092138  1
  Fe  Fe51  1  0.37347587  0.37627381  0.12460752  1
  Fe  Fe52  1  0.24506755  0.75099022  0.74351843  1
  Fe  Fe53  1  0.62535409  0.62835546  0.87459482  1
  Fe  Fe54  1  0.24862650  0.50204946  0.50103418  1
  Fe  Fe55  1  0.50165326  0.49722481  0.25294846  1
  Fe  Fe56  1  0.50036763  0.75171357  0.50036951  1
  Fe  Fe57  1  0.37770654  0.12216143  0.12472166  1
  Fe  Fe58  1  0.24769713  0.24703080  0.00353488  1
  Fe  Fe59  1  0.62226118  0.87892543  0.62617365  1
  Fe  Fe60  1  0.12155165  0.62206946  0.12632743  1
  Fe  Fe61  1  0.50297586  0.24980722  0.50132391  1
  Fe  Fe62  1  0.12114823  0.12068882  0.62465903  1
  Fe  Fe63  1  0.24735165  0.50337109  0.74931489  1
  Fe  Fe64  1  -0.00054994  0.25129235  0.49933211  1
  Fe  Fe65  1  0.37891935  0.12062292  0.62430993  1
  Fe  Fe66  1  0.37290966  0.37199396  0.37719583  1
  Fe  Fe67  1  0.12844618  0.37224901  0.37497406  1
  Fe  Fe68  1  0.74982288  0.24920847  0.74861984  1
  Fe  Fe69  1  -0.00044941  0.25319693  0.24748213  1
  Fe  Fe70  1  0.62464267  0.12370333  0.87390066  1
  Fe  Fe71  1  0.24906411  0.24940092  0.74587151  1
  Fe  Fe72  1  0.37476162  0.37593491  0.62442748  1
  Fe  Fe73  1  0.74834307  0.24740082  0.00284549  1
  Fe  Fe74  1  0.75234523  -0.00124131  0.75131657  1
  Fe  Fe75  1  0.37371793  0.12677736  0.37621211  1
  Fe  Fe76  1  0.00079386  -0.00270418  0.25247964  1
  Fe  Fe77  1  0.62472412  0.87391876  0.12195509  1
  Fe  Fe78  1  0.00125451  0.75280009  0.24955383  1
  Fe  Fe79  1  0.50253900  0.25048693  0.74938461  1
  Fe  Fe80  1  0.25061045  0.50106392  0.25153465  1
  Fe  Fe81  1  0.49956865  0.49864900  0.75254365  1
  Fe  Fe82  1  -0.00226538  0.49672073  0.25171549  1
  Fe  Fe83  1  0.88245715  0.62073606  0.62434353  1
  Fe  Fe84  1  0.75382316  0.75193151  0.74725915  1
  Fe  Fe85  1  0.62693223  0.62417643  0.37480040  1
  Fe  Fe86  1  0.62762522  0.87342768  0.37500555  1
  Fe  Fe87  1  0.37282523  0.87361163  0.37674742  1
  Fe  Fe88  1  0.87634141  0.12489718  0.87481112  1
  Fe  Fe89  1  0.87456028  0.62453932  0.37519247  1
  Co  Co90  1  0.87334374  0.87074807  0.87817277  1
  Co  Co91  1  0.12196616  0.12083751  0.12796395  1
  Co  Co92  1  0.36458659  0.87055404  0.87775952  1
  Co  Co93  1  0.74858884  0.24576898  0.24647364  1
  Co  Co94  1  0.50075314  -0.00079237  0.49540985  1
  Co  Co95  1  -0.00101206  0.00153182  0.49430711  1
  Co  Co96  1  0.49747592  -0.00404062  0.75765193  1
  Co  Co97  1  0.00610924  0.75406450  0.00184658  1
  Co  Co98  1  0.63040750  0.37534878  0.37460139  1
  Co  Co99  1  0.74956188  0.50296853  0.50347355  1
  Co  Co100  1  0.25066048  0.00658865  -0.00147449  1
  Co  Co101  1  0.12657127  0.37820599  0.12508928  1
  Co  Co102  1  0.61820488  0.62554128  0.12531412  1
  Co  Co103  1  0.12198410  0.62665220  0.87269404  1
  Co  Co104  1  0.37806456  0.87749364  0.62374232  1
  Co  Co105  1  0.24854800  0.24828633  0.50499387  1
  Co  Co106  1  0.87866132  0.88060086  0.62373400  1
  Co  Co107  1  0.87593866  0.37583120  0.62430988  1
  Co  Co108  1  -0.00188819  0.49677264  0.75543763  1
  Co  Co109  1  -0.00049480  0.49581668  0.49399925  1
  Co  Co110  1  0.13041397  0.87514307  0.87717162  1
  Co  Co111  1  -0.00416780  0.75180850  0.50063083  1
  Co  Co112  1  -0.00030243  -0.00389062  0.75527906  1
  Co  Co113  1  0.62140315  0.12127845  0.12307580  1
  Co  Co114  1  0.75074148  0.50556897  0.24544974  1
  Co  Co115  1  0.74861604  0.74516733  0.00383061  1
  Co  Co116  1  0.12555961  0.87204225  0.37802987  1
  Co  Co117  1  0.50007505  0.75280142  -0.00304493  1
  Co  Co118  1  0.24574379  0.74387903  0.00360323  1
  Co  Co119  1  0.62315899  0.11991366  0.62729730  1
  Co  Co120  1  0.25160351  0.00018096  0.25310948  1
  Co  Co121  1  0.12072295  0.87816609  0.61971495  1
  Co  Co122  1  0.62927736  0.37635971  0.87531026  1
  Co  Co123  1  0.87175408  0.37472718  0.12460317  1
  Co  Co124  1  0.11836737  0.62258886  0.62253841  1
  Co  Co125  1  0.88258942  0.62679990  0.12409152  1
  Co  Co126  1  0.63154593  0.87251960  0.87475433  1
  Co  Co127  1  0.25090130  0.75074803  0.50482528  1
