# generated using pymatgen
data_Fe45Co19
_symmetry_space_group_name_H-M   'P 1'
_cell_length_a   11.41575864
_cell_length_b   11.41511517
_cell_length_c   11.41487318
_cell_angle_alpha   89.99803678
_cell_angle_beta   89.99682632
_cell_angle_gamma   90.00869755
_symmetry_Int_Tables_number   1
_chemical_formula_structural   Fe45Co19
_chemical_formula_sum   'Fe90 Co38'
_cell_volume   1487.49721195
_cell_formula_units_Z   2
loop_
 _symmetry_equiv_pos_site_id
 _symmetry_equiv_pos_as_xyz
  1  'x, y, z'
loop_
 _atom_site_type_symbol
 _atom_site_label
 _atom_site_symmetry_multiplicity
 _atom_site_fract_x
 _atom_site_fract_y
 _atom_site_fract_z
 _atom_site_occupancy
  Fe  Fe0  1  0.37377961  0.62419895  0.62563995  1
  Fe  Fe1  1  0.37494551  0.37652344  0.62738922  1
  Fe  Fe2  1  0.12733523  0.62215882  0.37348565  1
  Fe  Fe3  1  0.37470037  0.87472422  0.62240156  1
  Fe  Fe4  1  0.62600000  0.12316541  0.87390117  1
  Fe  Fe5  1  -0.00461251  0.74455665  0.74923480  1
  Fe  Fe6  1  0.87599805  0.37587885  0.37457464  1
  Fe  Fe7  1  0.62598730  0.12632750  0.12499918  1
  Fe  Fe8  1  0.87368662  0.62527699  0.37750380  1
  Fe  Fe9  1  0.75155751  -0.00082039  0.50111140  1
  Fe  Fe10  1  0.24484506  0.24970625  -0.00323693  1
  Fe  Fe11  1  0.49984344  0.50050680  0.50084396  1
  Fe  Fe12  1  0.49833711  0.25153971  0.24870009  1
  Fe  Fe13  1  0.24964385  -0.00187731  0.75059569  1
  Fe  Fe14  1  0.62599090  0.37677301  0.37248411  1
  Fe  Fe15  1  0.12475902  0.87439945  0.12511688  1
  Fe  Fe16  1  0.12555083  0.37581045  0.62782213  1
  Fe  Fe17  1  0.49906674  0.50299971  0.75470747  1
  Fe  Fe18  1  -0.00123572  0.50107498  0.24809266  1
  Fe  Fe19  1  0.87664260  0.87311623  0.87653063  1
  Fe  Fe20  1  0.87522286  0.12378193  0.87311371  1
  Fe  Fe21  1  0.75284432  0.50449375  0.75254906  1
  Fe  Fe22  1  0.49944173  0.74822560  0.25199641  1
  Fe  Fe23  1  0.12658032  0.62415908  0.62830150  1
  Fe  Fe24  1  0.75049224  -0.00486837  0.75039882  1
  Fe  Fe25  1  0.50022991  0.25212735  0.50065966  1
  Fe  Fe26  1  0.74860811  0.74950284  0.25168507  1
  Fe  Fe27  1  -0.00105654  0.25157376  0.75282751  1
  Fe  Fe28  1  0.24844853  -0.00036056  0.24973028  1
  Fe  Fe29  1  0.12221935  0.87329703  0.87354389  1
  Fe  Fe30  1  0.50165655  0.24962376  -0.00098685  1
  Fe  Fe31  1  0.25102630  0.74799373  0.49735466  1
  Fe  Fe32  1  0.50073637  -0.00261674  0.75175219  1
  Fe  Fe33  1  0.37466246  0.12363551  0.37531077  1
  Fe  Fe34  1  0.62473567  0.63514658  0.87646969  1
  Fe  Fe35  1  0.24970592  0.49884636  0.24652020  1
  Fe  Fe36  1  0.50051542  -0.00114720  0.49931746  1
  Fe  Fe37  1  0.24975854  0.25231485  0.24908818  1
  Fe  Fe38  1  -0.00060168  0.24798479  0.50297060  1
  Fe  Fe39  1  0.74797347  -0.00354572  -0.00100969  1
  Fe  Fe40  1  0.75172146  0.25234895  0.24898173  1
  Fe  Fe41  1  -0.00090252  0.00021910  0.74542238  1
  Fe  Fe42  1  0.75189729  0.25016038  -0.00223431  1
  Fe  Fe43  1  0.25132114  0.49896833  0.75688817  1
  Fe  Fe44  1  0.87592839  0.12343902  0.37417977  1
  Fe  Fe45  1  0.00063196  0.24934758  0.24698541  1
  Fe  Fe46  1  0.00340136  0.00213978  0.00127487  1
  Fe  Fe47  1  0.49958300  0.25014020  0.75096644  1
  Fe  Fe48  1  0.50302384  0.49973949  0.24591902  1
  Fe  Fe49  1  0.62531382  0.87134158  0.62692783  1
  Fe  Fe50  1  0.37447286  0.37895734  0.37555387  1
  Fe  Fe51  1  0.62568643  0.12469130  0.37412743  1
  Fe  Fe52  1  0.74627467  0.50195509  0.00105467  1
  Fe  Fe53  1  0.00101207  0.74941404  0.25157476  1
  Fe  Fe54  1  0.50006205  0.74861263  0.49614056  1
  Fe  Fe55  1  0.12218098  0.37648551  0.12019844  1
  Fe  Fe56  1  0.37573674  0.62231968  0.12087465  1
  Fe  Fe57  1  0.75009415  0.49958955  0.50014294  1
  Fe  Fe58  1  0.87773929  0.87473229  0.12535379  1
  Fe  Fe59  1  0.12439953  0.87383174  0.62346783  1
  Fe  Fe60  1  0.62401326  0.87269867  0.12407397  1
  Fe  Fe61  1  0.87363594  0.62597616  0.12448532  1
  Fe  Fe62  1  0.87641593  0.37652083  0.12040175  1
  Fe  Fe63  1  0.12439183  0.37673061  0.37545258  1
  Fe  Fe64  1  0.37563153  0.37746157  0.11752369  1
  Fe  Fe65  1  0.62562562  0.37430556  0.87437115  1
  Fe  Fe66  1  0.62571486  0.37586114  0.62838883  1
  Fe  Fe67  1  0.37415843  0.12294023  0.87664119  1
  Fe  Fe68  1  0.62709496  0.12543202  0.62664672  1
  Fe  Fe69  1  0.12365348  0.12340345  0.37572586  1
  Fe  Fe70  1  0.37401490  0.12465878  0.62551202  1
  Fe  Fe71  1  0.24930969  0.25182273  0.75399495  1
  Fe  Fe72  1  0.49975867  0.00042453  0.24811927  1
  Fe  Fe73  1  0.37765495  0.87424756  0.87759521  1
  Fe  Fe74  1  0.87535127  0.86924884  0.62049749  1
  Fe  Fe75  1  0.24824144  0.74779963  -0.00105494  1
  Fe  Fe76  1  0.25181195  0.74909621  0.25095703  1
  Fe  Fe77  1  0.00123602  0.74589142  0.00061618  1
  Fe  Fe78  1  0.25057249  0.25098478  0.50031197  1
  Fe  Fe79  1  0.37390275  0.87686733  0.12361389  1
  Fe  Fe80  1  0.00124611  0.50140526  0.50325884  1
  Fe  Fe81  1  0.37218793  0.12370510  0.12139583  1
  Fe  Fe82  1  0.75058510  -0.00201337  0.24867603  1
  Fe  Fe83  1  0.87605650  0.12363801  0.12515251  1
  Fe  Fe84  1  0.25277721  0.75052479  0.75210544  1
  Fe  Fe85  1  0.12410645  0.87717297  0.37766267  1
  Fe  Fe86  1  0.74944831  0.25107231  0.50068198  1
  Fe  Fe87  1  0.87288583  0.37502103  0.62874370  1
  Fe  Fe88  1  0.87695848  0.87431973  0.37734585  1
  Fe  Fe89  1  0.62659283  0.62785867  0.62580239  1
  Co  Co90  1  0.75140987  0.49980631  0.24731286  1
  Co  Co91  1  0.87756446  0.37883894  0.87857063  1
  Co  Co92  1  0.37469549  0.62058116  0.37348363  1
  Co  Co93  1  0.75282435  0.75333686  0.00121582  1
  Co  Co94  1  0.00118095  -0.00105861  0.24908001  1
  Co  Co95  1  0.24869658  0.49990765  0.50197477  1
  Co  Co96  1  0.24939280  0.00033467  0.50157388  1
  Co  Co97  1  0.62513109  0.62873148  0.12425889  1
  Co  Co98  1  0.37639627  0.62651265  0.87810302  1
  Co  Co99  1  -0.00189016  0.00232838  0.50433181  1
  Co  Co100  1  0.50276341  -0.00099346  0.00000955  1
  Co  Co101  1  0.49751805  0.75137588  0.00303074  1
  Co  Co102  1  0.12677297  0.12409076  0.12594001  1
  Co  Co103  1  0.00058227  0.24529600  -0.00122425  1
  Co  Co104  1  0.12359644  0.12240597  0.87147051  1
  Co  Co105  1  0.75551907  0.74972168  0.75099817  1
  Co  Co106  1  0.00271954  0.50746372  0.00129306  1
  Co  Co107  1  0.12667461  0.12610386  0.62754812  1
  Co  Co108  1  0.37625035  0.37542772  0.87899159  1
  Co  Co109  1  0.24638785  -0.00285714  -0.00253060  1
  Co  Co110  1  0.62391408  0.86914220  0.87418104  1
  Co  Co111  1  -0.00442040  0.50314812  0.74761944  1
  Co  Co112  1  0.62573961  0.62123819  0.37373017  1
  Co  Co113  1  0.24609887  0.50362741  -0.00349294  1
  Co  Co114  1  0.87162521  0.12836903  0.62870935  1
  Co  Co115  1  0.75017757  0.25185035  0.75349996  1
  Co  Co116  1  0.12345607  0.62547552  0.87071527  1
  Co  Co117  1  0.87246614  0.62745914  0.61993396  1
  Co  Co118  1  0.50575416  0.50093090  -0.00325334  1
  Co  Co119  1  0.12587469  0.62617804  0.12776329  1
  Co  Co120  1  0.62570901  0.37267869  0.12480204  1
  Co  Co121  1  0.11874940  0.37848139  0.87713132  1
  Co  Co122  1  0.87410161  0.62427686  0.87949815  1
  Co  Co123  1  0.74513222  0.75032357  0.49713491  1
  Co  Co124  1  0.62434934  0.87681957  0.37293780  1
  Co  Co125  1  0.37493523  0.87651248  0.37457821  1
  Co  Co126  1  0.49644039  0.75009310  0.74798056  1
  Co  Co127  1  0.00507592  0.74632281  0.49910777  1
