# generated using pymatgen
data_Fe45Co19
_symmetry_space_group_name_H-M   'P 1'
_cell_length_a   11.41593061
_cell_length_b   11.41496258
_cell_length_c   11.41453875
_cell_angle_alpha   90.00481508
_cell_angle_beta   90.00501196
_cell_angle_gamma   90.00152448
_symmetry_Int_Tables_number   1
_chemical_formula_structural   Fe45Co19
_chemical_formula_sum   'Fe90 Co38'
_cell_volume   1487.45616332
_cell_formula_units_Z   2
loop_
 _symmetry_equiv_pos_site_id
 _symmetry_equiv_pos_as_xyz
  1  'x, y, z'
loop_
 _atom_site_type_symbol
 _atom_site_label
 _atom_site_symmetry_multiplicity
 _atom_site_fract_x
 _atom_site_fract_y
 _atom_site_fract_z
 _atom_site_occupancy
  Fe  Fe0  1  0.00106819  0.75067526  -0.00286076  1
  Fe  Fe1  1  0.87528307  0.12284623  0.12000502  1
  Fe  Fe2  1  0.62587952  0.87283140  0.62653073  1
  Fe  Fe3  1  0.49946265  0.25233692  0.25224918  1
  Fe  Fe4  1  0.50137542  -0.00208757  0.49796116  1
  Fe  Fe5  1  0.25000863  0.50072682  0.50332506  1
  Fe  Fe6  1  0.75160886  0.49913136  0.50100352  1
  Fe  Fe7  1  0.62293779  0.12646285  0.12502018  1
  Fe  Fe8  1  0.37428249  0.87417190  0.62682059  1
  Fe  Fe9  1  0.74880644  0.00128187  0.75084500  1
  Fe  Fe10  1  0.12627494  0.12734580  0.62676668  1
  Fe  Fe11  1  0.62639001  0.62464138  0.87530993  1
  Fe  Fe12  1  0.87512717  0.87435399  0.12448805  1
  Fe  Fe13  1  0.00174718  0.50035859  -0.00258108  1
  Fe  Fe14  1  0.13179027  0.37494000  0.87298017  1
  Fe  Fe15  1  0.50276291  0.50386585  0.25141418  1
  Fe  Fe16  1  0.87520123  0.12794542  0.62837859  1
  Fe  Fe17  1  0.62214474  0.12663036  0.62430187  1
  Fe  Fe18  1  0.25022453  -0.00195093  0.24852692  1
  Fe  Fe19  1  0.49686544  0.50134289  -0.00035345  1
  Fe  Fe20  1  0.87622287  0.87528370  0.62756512  1
  Fe  Fe21  1  0.25310308  0.00325623  0.75167118  1
  Fe  Fe22  1  0.74739277  0.00134705  0.24826720  1
  Fe  Fe23  1  0.37706889  0.86813874  0.12544942  1
  Fe  Fe24  1  0.37680287  0.37756828  0.62848595  1
  Fe  Fe25  1  0.49945721  0.49811207  0.49790104  1
  Fe  Fe26  1  0.50042448  -0.00246447  0.25141611  1
  Fe  Fe27  1  0.12602081  0.12533769  0.12215874  1
  Fe  Fe28  1  0.37275961  0.62540450  0.37501828  1
  Fe  Fe29  1  -0.00002828  0.25167309  0.49960049  1
  Fe  Fe30  1  0.00035817  0.74957176  0.50099533  1
  Fe  Fe31  1  0.25207421  0.74708336  -0.00295492  1
  Fe  Fe32  1  0.37556475  0.12478354  0.12355400  1
  Fe  Fe33  1  0.24985841  0.25063711  0.24839781  1
  Fe  Fe34  1  -0.00029790  0.00053122  0.50059265  1
  Fe  Fe35  1  0.74664504  0.74344905  0.24942520  1
  Fe  Fe36  1  0.87388088  0.87841719  0.87666336  1
  Fe  Fe37  1  0.00168260  -0.00058310  0.24791958  1
  Fe  Fe38  1  0.50043308  0.75174130  0.49817905  1
  Fe  Fe39  1  0.62350936  0.37632150  0.87447406  1
  Fe  Fe40  1  0.74964792  0.74988979  0.00006325  1
  Fe  Fe41  1  0.74982764  0.00019504  0.50027852  1
  Fe  Fe42  1  0.37422670  0.12557167  0.37559874  1
  Fe  Fe43  1  0.12296737  0.37457772  0.62849607  1
  Fe  Fe44  1  0.00100379  0.24870558  -0.00363372  1
  Fe  Fe45  1  0.62413052  0.62547626  0.62460988  1
  Fe  Fe46  1  0.12163144  0.62289028  0.62744206  1
  Fe  Fe47  1  0.87516706  0.37773705  0.12673900  1
  Fe  Fe48  1  0.49620894  0.24981845  0.75230524  1
  Fe  Fe49  1  0.12465921  0.37592579  0.12288636  1
  Fe  Fe50  1  0.75177384  0.74941653  0.50047490  1
  Fe  Fe51  1  0.49856164  0.25366168  0.49593195  1
  Fe  Fe52  1  0.74886141  0.25064288  0.49886209  1
  Fe  Fe53  1  0.24593984  0.50542612  0.24699732  1
  Fe  Fe54  1  0.24952749  -0.00056764  0.50011667  1
  Fe  Fe55  1  0.12597352  0.87218088  0.12259080  1
  Fe  Fe56  1  0.12457107  0.87586824  0.62923527  1
  Fe  Fe57  1  0.49772499  0.74753506  0.75106148  1
  Fe  Fe58  1  0.12454862  0.87425206  0.37573226  1
  Fe  Fe59  1  0.62332302  0.37540552  0.62644977  1
  Fe  Fe60  1  0.37315300  0.87208858  0.37312312  1
  Fe  Fe61  1  0.74892811  0.50019907  0.74961229  1
  Fe  Fe62  1  0.49650221  0.25387293  0.00029536  1
  Fe  Fe63  1  0.37154404  0.62085933  0.87206038  1
  Fe  Fe64  1  0.62443062  0.12573552  0.87680791  1
  Fe  Fe65  1  0.87453513  0.62421447  0.87511218  1
  Fe  Fe66  1  0.87509682  0.12504255  0.37376470  1
  Fe  Fe67  1  0.00433388  0.74608746  0.24937944  1
  Fe  Fe68  1  0.87693460  0.62391847  0.62822656  1
  Fe  Fe69  1  0.75035337  0.50113442  0.00223977  1
  Fe  Fe70  1  0.12599193  0.12559011  0.37497543  1
  Fe  Fe71  1  0.87354360  0.37791268  0.37034279  1
  Fe  Fe72  1  0.87458313  0.87379414  0.37315756  1
  Fe  Fe73  1  0.25054554  -0.00180212  -0.00069315  1
  Fe  Fe74  1  0.25199108  0.25246222  0.50130225  1
  Fe  Fe75  1  0.74838276  0.25085677  0.00086074  1
  Fe  Fe76  1  0.62406262  0.87267795  0.87403918  1
  Fe  Fe77  1  0.87829419  0.62194228  0.37361082  1
  Fe  Fe78  1  0.49960413  -0.00328213  -0.00073565  1
  Fe  Fe79  1  0.62636300  0.37716735  0.12749100  1
  Fe  Fe80  1  0.12479218  0.37796869  0.37523871  1
  Fe  Fe81  1  0.62158017  0.86878412  0.12456509  1
  Fe  Fe82  1  0.49696078  0.00112876  0.75144925  1
  Fe  Fe83  1  0.00034584  0.25031700  0.24884917  1
  Fe  Fe84  1  0.00098469  0.00474638  0.75572885  1
  Fe  Fe85  1  0.00029532  0.74971708  0.75343071  1
  Fe  Fe86  1  0.87619298  0.37321907  0.62927019  1
  Fe  Fe87  1  0.87307245  0.37287893  0.87313121  1
  Fe  Fe88  1  0.37404954  0.37905508  0.12650967  1
  Fe  Fe89  1  0.24806410  0.74889052  0.50297709  1
  Co  Co90  1  -0.00203480  0.49767201  0.50190222  1
  Co  Co91  1  0.37099863  0.37853375  0.37182310  1
  Co  Co92  1  0.37282666  0.87469496  0.87377964  1
  Co  Co93  1  0.62964449  0.37605109  0.37219747  1
  Co  Co94  1  0.12701339  0.62323155  0.87405557  1
  Co  Co95  1  0.62901504  0.87462510  0.37471264  1
  Co  Co96  1  0.49664961  0.74696169  -0.00668044  1
  Co  Co97  1  0.37826605  0.62476284  0.62289084  1
  Co  Co98  1  0.12399208  0.62630257  0.11894092  1
  Co  Co99  1  0.12462641  0.62264695  0.37924459  1
  Co  Co100  1  0.25093176  0.74654386  0.74777598  1
  Co  Co101  1  0.74788098  0.50616771  0.24630730  1
  Co  Co102  1  0.37254782  0.37801873  0.87366020  1
  Co  Co103  1  0.25132941  0.50100811  0.00281771  1
  Co  Co104  1  0.24999041  0.50098312  0.74531499  1
  Co  Co105  1  0.13138583  0.12824149  0.87699466  1
  Co  Co106  1  0.74478750  -0.00271042  0.00188323  1
  Co  Co107  1  0.62532900  0.62249509  0.38053749  1
  Co  Co108  1  0.37659971  0.62815003  0.12749544  1
  Co  Co109  1  0.87061523  0.12429926  0.87860313  1
  Co  Co110  1  0.75140470  0.74927349  0.75111234  1
  Co  Co111  1  0.75139887  0.24789821  0.24758361  1
  Co  Co112  1  0.00054471  0.24820642  0.75459236  1
  Co  Co113  1  0.37424714  0.12598532  0.88033284  1
  Co  Co114  1  0.37683753  0.12438768  0.62079111  1
  Co  Co115  1  -0.00090232  0.49852162  0.75333082  1
  Co  Co116  1  0.00369577  -0.00060334  -0.00192710  1
  Co  Co117  1  0.50157056  0.50217559  0.75116254  1
  Co  Co118  1  0.25384795  0.25348119  0.00319947  1
  Co  Co119  1  0.62350104  0.12629806  0.37510142  1
  Co  Co120  1  0.00382318  0.50160255  0.24742303  1
  Co  Co121  1  0.24620415  0.74758810  0.25054298  1
  Co  Co122  1  0.12829517  0.87416638  0.87262060  1
  Co  Co123  1  0.62111124  0.62619292  0.11962771  1
  Co  Co124  1  0.74684927  0.25014937  0.75142409  1
  Co  Co125  1  0.87856800  0.62482957  0.12295010  1
  Co  Co126  1  0.25558506  0.24915137  0.74810348  1
  Co  Co127  1  0.50306055  0.74676912  0.25450018  1
