# generated using pymatgen
data_Fe45Co19
_symmetry_space_group_name_H-M   'P 1'
_cell_length_a   11.41363719
_cell_length_b   11.41455546
_cell_length_c   11.41488626
_cell_angle_alpha   89.99995718
_cell_angle_beta   90.00025298
_cell_angle_gamma   90.00137777
_symmetry_Int_Tables_number   1
_chemical_formula_structural   Fe45Co19
_chemical_formula_sum   'Fe90 Co38'
_cell_volume   1487.14958600
_cell_formula_units_Z   2
loop_
 _symmetry_equiv_pos_site_id
 _symmetry_equiv_pos_as_xyz
  1  'x, y, z'
loop_
 _atom_site_type_symbol
 _atom_site_label
 _atom_site_symmetry_multiplicity
 _atom_site_fract_x
 _atom_site_fract_y
 _atom_site_fract_z
 _atom_site_occupancy
  Fe  Fe0  1  0.37281254  0.87212871  0.37695869  1
  Fe  Fe1  1  0.12508112  0.37903956  0.62430752  1
  Fe  Fe2  1  0.87675785  0.12652093  0.37600140  1
  Fe  Fe3  1  0.74854382  0.25102876  0.50221500  1
  Fe  Fe4  1  0.12187036  0.61984155  0.62607567  1
  Fe  Fe5  1  0.87718544  0.37576459  0.62544781  1
  Fe  Fe6  1  0.00463727  0.24977014  0.49915062  1
  Fe  Fe7  1  0.62399729  0.62665947  0.87543022  1
  Fe  Fe8  1  0.87593594  0.87371308  0.87671679  1
  Fe  Fe9  1  0.50067148  0.25216927  0.50014832  1
  Fe  Fe10  1  0.74776449  0.24976742  0.74862112  1
  Fe  Fe11  1  0.62823999  0.62575286  0.37471898  1
  Fe  Fe12  1  0.12719997  0.38257327  0.37563651  1
  Fe  Fe13  1  0.74902531  -0.00141357  0.75021704  1
  Fe  Fe14  1  0.49925775  0.75251728  -0.00017349  1
  Fe  Fe15  1  0.62757498  0.37618953  0.12201696  1
  Fe  Fe16  1  0.24892578  0.75051654  0.00231919  1
  Fe  Fe17  1  0.74879282  0.74948666  0.00204318  1
  Fe  Fe18  1  0.12684604  0.37648326  0.87586038  1
  Fe  Fe19  1  0.37236812  0.37641819  0.37907975  1
  Fe  Fe20  1  0.00174608  0.75185825  0.00089762  1
  Fe  Fe21  1  0.74909895  0.50096918  0.75125988  1
  Fe  Fe22  1  0.75146406  -0.00205941  0.49847532  1
  Fe  Fe23  1  0.00060840  0.25356979  0.25051751  1
  Fe  Fe24  1  0.49932638  -0.00228966  0.25219923  1
  Fe  Fe25  1  0.62469620  0.87524749  0.12535345  1
  Fe  Fe26  1  0.37216347  0.62417266  0.37343228  1
  Fe  Fe27  1  0.00230912  0.25074071  0.75012150  1
  Fe  Fe28  1  0.12522989  0.12274909  0.12597384  1
  Fe  Fe29  1  0.62486764  0.12584535  0.37584932  1
  Fe  Fe30  1  0.50129768  0.25270260  0.25027209  1
  Fe  Fe31  1  0.62149091  0.12563114  0.87544987  1
  Fe  Fe32  1  0.75071265  0.00007369  -0.00107491  1
  Fe  Fe33  1  0.37221717  0.12638848  0.62227803  1
  Fe  Fe34  1  0.50016752  0.49886941  0.25205613  1
  Fe  Fe35  1  0.87634065  0.12407431  0.12571653  1
  Fe  Fe36  1  0.37345341  0.12817983  0.37520230  1
  Fe  Fe37  1  0.87617141  0.62699054  0.12680100  1
  Fe  Fe38  1  0.74948750  -0.00270620  0.25249133  1
  Fe  Fe39  1  0.49726938  -0.00140729  0.74867920  1
  Fe  Fe40  1  0.62514570  0.12272510  0.62353830  1
  Fe  Fe41  1  0.62372853  0.12372974  0.12473076  1
  Fe  Fe42  1  0.87468117  0.87011332  0.37414612  1
  Fe  Fe43  1  0.87316182  0.37526717  0.37567371  1
  Fe  Fe44  1  0.25013482  0.24918483  0.00206050  1
  Fe  Fe45  1  0.87636759  0.62506949  0.62702509  1
  Fe  Fe46  1  0.12716211  0.12244144  0.87565549  1
  Fe  Fe47  1  0.00327424  0.74869165  0.49869101  1
  Fe  Fe48  1  0.25492103  0.50062272  0.75191032  1
  Fe  Fe49  1  0.37566799  0.12892373  0.87529903  1
  Fe  Fe50  1  0.50257616  0.75055647  0.25093227  1
  Fe  Fe51  1  0.24836408  0.74586612  0.50200771  1
  Fe  Fe52  1  0.37690260  0.62644956  0.12527956  1
  Fe  Fe53  1  -0.00046623  -0.00368263  0.25158481  1
  Fe  Fe54  1  0.37420903  0.12528967  0.12729001  1
  Fe  Fe55  1  0.50171553  0.74794576  0.49938216  1
  Fe  Fe56  1  0.37470094  0.37503706  0.12452758  1
  Fe  Fe57  1  0.87630710  0.87468761  0.62396633  1
  Fe  Fe58  1  0.00179012  -0.00140362  0.75163073  1
  Fe  Fe59  1  0.49496440  -0.00272523  0.00003826  1
  Fe  Fe60  1  0.25368283  0.50075203  -0.00075036  1
  Fe  Fe61  1  0.75058974  0.50094209  0.24766362  1
  Fe  Fe62  1  0.74996041  0.50238615  0.50155493  1
  Fe  Fe63  1  0.12383031  0.62153143  0.12782373  1
  Fe  Fe64  1  0.49758762  -0.00165465  0.49901067  1
  Fe  Fe65  1  0.74963044  0.25016727  0.24824962  1
  Fe  Fe66  1  0.74891064  0.75081248  0.74865433  1
  Fe  Fe67  1  0.87779784  0.12468918  0.62443029  1
  Fe  Fe68  1  0.62443262  0.87362939  0.62276553  1
  Fe  Fe69  1  0.87316729  0.37443753  0.87692261  1
  Fe  Fe70  1  0.12593948  0.62510073  0.87452326  1
  Fe  Fe71  1  0.12938055  0.87997567  0.62378326  1
  Fe  Fe72  1  0.61963741  0.38042178  0.62581874  1
  Fe  Fe73  1  0.36951972  0.87105440  0.87120821  1
  Fe  Fe74  1  0.87665967  0.62635055  0.87349767  1
  Fe  Fe75  1  0.49727370  0.49965987  -0.00418958  1
  Fe  Fe76  1  0.38021128  0.62214448  0.62683610  1
  Fe  Fe77  1  0.00417447  0.75224533  0.75019686  1
  Fe  Fe78  1  -0.00190336  0.50005197  -0.00012830  1
  Fe  Fe79  1  0.24821480  0.25210995  0.25190107  1
  Fe  Fe80  1  0.25136822  -0.00181329  0.25199933  1
  Fe  Fe81  1  0.25045954  0.25096336  0.74591435  1
  Fe  Fe82  1  0.62330798  0.37137235  0.87630657  1
  Fe  Fe83  1  0.87682006  0.62833940  0.37238697  1
  Fe  Fe84  1  0.24595566  0.74949656  0.24996176  1
  Fe  Fe85  1  0.87525174  0.12548986  0.87317930  1
  Fe  Fe86  1  -0.00069085  0.24916855  0.00050497  1
  Fe  Fe87  1  0.50077112  0.75055587  0.74943973  1
  Fe  Fe88  1  0.12448111  0.37769677  0.12506479  1
  Fe  Fe89  1  0.12544676  0.87883192  0.12234500  1
  Co  Co90  1  0.49981211  0.24841608  0.74544335  1
  Co  Co91  1  0.62046172  0.62383683  0.12344453  1
  Co  Co92  1  0.49706331  0.50102570  0.75766783  1
  Co  Co93  1  0.24540160  0.25038751  0.50057442  1
  Co  Co94  1  0.25307271  0.50089953  0.24761467  1
  Co  Co95  1  0.62254927  0.62362025  0.62739124  1
  Co  Co96  1  0.37279120  0.63162903  0.87594854  1
  Co  Co97  1  0.12870370  0.87516325  0.87525934  1
  Co  Co98  1  0.37792195  0.37797178  0.62308653  1
  Co  Co99  1  0.75037744  0.24562868  -0.00026351  1
  Co  Co100  1  0.87392722  0.87426954  0.12452448  1
  Co  Co101  1  0.37505990  0.36872871  0.87445739  1
  Co  Co102  1  0.12404561  0.12111835  0.62454258  1
  Co  Co103  1  0.25481526  0.00003701  -0.00054121  1
  Co  Co104  1  0.62793954  0.37462058  0.37518729  1
  Co  Co105  1  -0.00278737  0.50154501  0.49814237  1
  Co  Co106  1  0.25213650  0.00217516  0.49746676  1
  Co  Co107  1  0.24677768  0.74602623  0.74446925  1
  Co  Co108  1  0.74666276  0.75003181  0.24665563  1
  Co  Co109  1  0.12500064  0.62095154  0.37279809  1
  Co  Co110  1  -0.00350268  0.49852967  0.24962300  1
  Co  Co111  1  -0.00078371  0.49894246  0.75289626  1
  Co  Co112  1  0.50176508  0.50226273  0.49449239  1
  Co  Co113  1  0.62487721  0.87360061  0.37728994  1
  Co  Co114  1  -0.00090937  0.00036158  -0.00160927  1
  Co  Co115  1  0.75045334  0.50391877  -0.00136188  1
  Co  Co116  1  0.25309686  0.00241755  0.75045950  1
  Co  Co117  1  0.37337370  0.87263083  0.62407806  1
  Co  Co118  1  0.37429973  0.87197273  0.12833476  1
  Co  Co119  1  -0.00105166  -0.00081761  0.49766369  1
  Co  Co120  1  0.87283005  0.37479577  0.12228677  1
  Co  Co121  1  0.25163744  0.50413445  0.50347006  1
  Co  Co122  1  0.00498585  0.75235341  0.24910258  1
  Co  Co123  1  0.75008930  0.74816962  0.50214626  1
  Co  Co124  1  0.49956440  0.24950608  0.00448491  1
  Co  Co125  1  0.12745682  0.87500295  0.37801921  1
  Co  Co126  1  0.12481191  0.12284568  0.37277707  1
  Co  Co127  1  0.62448869  0.87506367  0.87498920  1
