# generated using pymatgen
data_Fe45Co19
_symmetry_space_group_name_H-M   'P 1'
_cell_length_a   11.41553284
_cell_length_b   11.41461761
_cell_length_c   11.41549056
_cell_angle_alpha   89.99987796
_cell_angle_beta   89.99893842
_cell_angle_gamma   89.99602652
_symmetry_Int_Tables_number   1
_chemical_formula_structural   Fe45Co19
_chemical_formula_sum   'Fe90 Co38'
_cell_volume   1487.48341731
_cell_formula_units_Z   2
loop_
 _symmetry_equiv_pos_site_id
 _symmetry_equiv_pos_as_xyz
  1  'x, y, z'
loop_
 _atom_site_type_symbol
 _atom_site_label
 _atom_site_symmetry_multiplicity
 _atom_site_fract_x
 _atom_site_fract_y
 _atom_site_fract_z
 _atom_site_occupancy
  Fe  Fe0  1  0.24643154  0.50375078  0.50222028  1
  Fe  Fe1  1  0.25201173  0.00036950  0.25103485  1
  Fe  Fe2  1  0.37430467  0.37484248  0.37859593  1
  Fe  Fe3  1  0.12564043  0.12632530  0.37585744  1
  Fe  Fe4  1  0.75374762  0.75058699  0.24816893  1
  Fe  Fe5  1  0.75009798  0.75232529  0.74823243  1
  Fe  Fe6  1  -0.00012299  -0.00184328  0.25325677  1
  Fe  Fe7  1  0.12225255  0.87350543  0.12728992  1
  Fe  Fe8  1  -0.00077045  0.00056223  0.49681124  1
  Fe  Fe9  1  -0.00146450  0.75200507  0.75028154  1
  Fe  Fe10  1  0.62380076  0.12534237  0.12714847  1
  Fe  Fe11  1  0.12755431  0.12462813  0.87208110  1
  Fe  Fe12  1  0.00049061  0.00003134  0.75100814  1
  Fe  Fe13  1  0.12815908  0.37361532  0.37572243  1
  Fe  Fe14  1  0.12542224  0.37270239  0.87660041  1
  Fe  Fe15  1  0.74914464  0.00179010  0.49973309  1
  Fe  Fe16  1  0.62496737  0.12858574  0.37525300  1
  Fe  Fe17  1  0.13030524  0.87084815  0.37412677  1
  Fe  Fe18  1  0.87499920  0.87594469  0.62283494  1
  Fe  Fe19  1  0.24894389  0.50044567  0.74884512  1
  Fe  Fe20  1  0.75112806  0.25059876  0.50291920  1
  Fe  Fe21  1  0.00184907  0.00184270  -0.00105831  1
  Fe  Fe22  1  0.25165431  0.24898567  0.74393390  1
  Fe  Fe23  1  0.87551386  0.62495642  0.87485875  1
  Fe  Fe24  1  0.25030345  0.75368266  0.74769667  1
  Fe  Fe25  1  0.50218855  -0.00079384  -0.00302059  1
  Fe  Fe26  1  0.25209762  0.24886466  0.24965935  1
  Fe  Fe27  1  0.87443020  0.36975820  0.87617782  1
  Fe  Fe28  1  0.62477820  0.87469502  0.12607369  1
  Fe  Fe29  1  0.87542342  0.12244184  0.12813713  1
  Fe  Fe30  1  0.75051469  0.49977074  0.00173553  1
  Fe  Fe31  1  0.50208792  0.50136054  0.49901148  1
  Fe  Fe32  1  0.37687998  0.12749164  0.37889620  1
  Fe  Fe33  1  0.62702666  0.62706645  0.87437776  1
  Fe  Fe34  1  0.74933730  0.74815019  0.50082092  1
  Fe  Fe35  1  0.88039599  0.62209033  0.12889847  1
  Fe  Fe36  1  0.87856160  0.37575456  0.12354038  1
  Fe  Fe37  1  0.62338120  0.62725986  0.62696127  1
  Fe  Fe38  1  0.62249385  0.37453543  0.12530799  1
  Fe  Fe39  1  0.25145837  0.00075514  0.50152481  1
  Fe  Fe40  1  0.24776839  -0.00102886  0.00043473  1
  Fe  Fe41  1  0.62903286  0.62298048  0.37306641  1
  Fe  Fe42  1  0.49747447  0.25121260  0.74687104  1
  Fe  Fe43  1  0.87656106  0.62332330  0.62353101  1
  Fe  Fe44  1  0.62751828  0.37136758  0.87446038  1
  Fe  Fe45  1  0.12211848  0.37362393  0.62305858  1
  Fe  Fe46  1  0.24757612  0.75039524  0.00197678  1
  Fe  Fe47  1  0.50277647  -0.00567128  0.75311854  1
  Fe  Fe48  1  0.74732120  0.00201434  -0.00065743  1
  Fe  Fe49  1  0.62230173  0.62511724  0.12600315  1
  Fe  Fe50  1  0.37557285  0.12391651  0.12525564  1
  Fe  Fe51  1  0.49719306  0.50111881  0.25121319  1
  Fe  Fe52  1  0.87472972  0.87563846  0.87714143  1
  Fe  Fe53  1  0.25243347  0.50307517  0.24794431  1
  Fe  Fe54  1  0.49973798  0.75184730  -0.00314106  1
  Fe  Fe55  1  0.75228324  0.49832542  0.74875948  1
  Fe  Fe56  1  0.12244069  0.12557692  0.62302054  1
  Fe  Fe57  1  0.87792525  0.12697557  0.62419215  1
  Fe  Fe58  1  0.74864814  -0.00062608  0.75014740  1
  Fe  Fe59  1  0.50092814  0.49946434  -0.00260142  1
  Fe  Fe60  1  0.37599909  0.87539988  0.12515724  1
  Fe  Fe61  1  0.24868778  0.24731785  0.00192283  1
  Fe  Fe62  1  0.00203939  0.50349027  0.49629439  1
  Fe  Fe63  1  0.24764980  0.50251419  0.00138722  1
  Fe  Fe64  1  0.37224556  0.37471678  0.87503375  1
  Fe  Fe65  1  0.75389652  0.74938676  0.00371768  1
  Fe  Fe66  1  0.49951125  0.00011028  0.25380731  1
  Fe  Fe67  1  0.87188143  0.87617605  0.37544675  1
  Fe  Fe68  1  -0.00028869  0.25006092  0.25210189  1
  Fe  Fe69  1  0.37552189  0.37509669  0.12347783  1
  Fe  Fe70  1  0.49957368  0.24834378  -0.00084816  1
  Fe  Fe71  1  0.37395909  0.62699616  0.87509279  1
  Fe  Fe72  1  -0.00019481  0.49781549  0.75180643  1
  Fe  Fe73  1  0.87311792  0.12955510  0.87384258  1
  Fe  Fe74  1  0.12287353  0.37489693  0.12499768  1
  Fe  Fe75  1  0.11924632  0.62588037  0.12936206  1
  Fe  Fe76  1  0.62200308  0.12310721  0.62523762  1
  Fe  Fe77  1  0.75058815  0.25085713  0.24832876  1
  Fe  Fe78  1  0.62590661  0.87420839  0.37534887  1
  Fe  Fe79  1  0.12202670  0.87478305  0.62354457  1
  Fe  Fe80  1  0.00062613  0.74706780  0.49578516  1
  Fe  Fe81  1  0.62515821  0.37675807  0.62580828  1
  Fe  Fe82  1  0.12352794  0.62781581  0.87338693  1
  Fe  Fe83  1  0.87165640  0.37859795  0.37702450  1
  Fe  Fe84  1  0.37366715  0.12183874  0.87163204  1
  Fe  Fe85  1  0.37712120  0.62564215  0.62443349  1
  Fe  Fe86  1  0.49439698  0.74839834  0.25386189  1
  Fe  Fe87  1  0.62602789  0.37495293  0.37441730  1
  Fe  Fe88  1  0.49908837  0.50007334  0.75189956  1
  Fe  Fe89  1  0.37982477  0.87492467  0.62097580  1
  Co  Co90  1  0.62492659  0.87467608  0.62242705  1
  Co  Co91  1  0.37035931  0.62393401  0.38004779  1
  Co  Co92  1  0.50035610  0.75346884  0.75224297  1
  Co  Co93  1  0.87091622  0.62194810  0.37429972  1
  Co  Co94  1  0.50137247  -0.00150101  0.49527124  1
  Co  Co95  1  0.12892357  0.62910856  0.36973300  1
  Co  Co96  1  0.24880354  -0.00336605  0.74528473  1
  Co  Co97  1  0.63025812  0.87163934  0.87709269  1
  Co  Co98  1  0.12221772  0.62617907  0.62811682  1
  Co  Co99  1  0.12393655  0.87444049  0.87473347  1
  Co  Co100  1  0.00150098  0.49806854  0.25604169  1
  Co  Co101  1  0.24882481  0.74917563  0.50477563  1
  Co  Co102  1  0.25213821  0.24758844  0.50389196  1
  Co  Co103  1  0.74921615  0.24861495  0.00396202  1
  Co  Co104  1  0.00190361  0.25051238  0.75011942  1
  Co  Co105  1  0.87342105  0.12397129  0.37312404  1
  Co  Co106  1  0.37416138  0.37991082  0.62247521  1
  Co  Co107  1  0.74715596  -0.00049150  0.25169669  1
  Co  Co108  1  0.62453051  0.12901587  0.87214339  1
  Co  Co109  1  0.50034191  0.25245445  0.50350780  1
  Co  Co110  1  -0.00153914  0.75018890  0.00047138  1
  Co  Co111  1  0.37152458  0.87563483  0.87667786  1
  Co  Co112  1  0.75008552  0.25041553  0.74432114  1
  Co  Co113  1  0.49810218  0.25059707  0.25036906  1
  Co  Co114  1  0.12465566  0.12375640  0.12900082  1
  Co  Co115  1  0.74929647  0.49897663  0.24492247  1
  Co  Co116  1  0.37145053  0.87366988  0.37707295  1
  Co  Co117  1  0.00066543  0.49978841  -0.00358760  1
  Co  Co118  1  0.37940904  0.12000425  0.62534023  1
  Co  Co119  1  0.74831629  0.50059246  0.50409481  1
  Co  Co120  1  0.25520229  0.74716079  0.24570461  1
  Co  Co121  1  0.87915030  0.37615370  0.62289792  1
  Co  Co122  1  0.00182089  0.24650155  0.00103149  1
  Co  Co123  1  -0.00188330  0.25012457  0.49585097  1
  Co  Co124  1  0.87571405  0.88042220  0.12443905  1
  Co  Co125  1  -0.00458678  0.75300789  0.25463936  1
  Co  Co126  1  0.37846916  0.62469635  0.12036886  1
  Co  Co127  1  0.50178084  0.74789960  0.49576223  1
