# generated using pymatgen
data_Fe45Co19
_symmetry_space_group_name_H-M   'P 1'
_cell_length_a   11.41474074
_cell_length_b   11.41556850
_cell_length_c   11.41520340
_cell_angle_alpha   89.99322186
_cell_angle_beta   90.00372377
_cell_angle_gamma   89.99484933
_symmetry_Int_Tables_number   1
_chemical_formula_structural   Fe45Co19
_chemical_formula_sum   'Fe90 Co38'
_cell_volume   1487.46667459
_cell_formula_units_Z   2
loop_
 _symmetry_equiv_pos_site_id
 _symmetry_equiv_pos_as_xyz
  1  'x, y, z'
loop_
 _atom_site_type_symbol
 _atom_site_label
 _atom_site_symmetry_multiplicity
 _atom_site_fract_x
 _atom_site_fract_y
 _atom_site_fract_z
 _atom_site_occupancy
  Fe  Fe0  1  0.24607731  0.74927715  0.25173531  1
  Fe  Fe1  1  0.37511001  0.37493629  0.12686286  1
  Fe  Fe2  1  0.75073868  0.49949200  0.49808879  1
  Fe  Fe3  1  0.12465643  0.87667110  0.62376603  1
  Fe  Fe4  1  0.12234630  0.37729545  0.37612928  1
  Fe  Fe5  1  0.37718834  0.12409957  0.87351335  1
  Fe  Fe6  1  -0.00287661  0.25448505  -0.00010661  1
  Fe  Fe7  1  0.12297908  0.62416474  0.87461646  1
  Fe  Fe8  1  0.00023603  0.25064083  0.24722529  1
  Fe  Fe9  1  0.87463535  0.12533623  0.12537381  1
  Fe  Fe10  1  0.62284794  0.37364915  0.37482250  1
  Fe  Fe11  1  0.62824037  0.12136384  0.12247656  1
  Fe  Fe12  1  -0.00496445  -0.00056530  0.74704559  1
  Fe  Fe13  1  0.50529516  0.50227999  0.74916720  1
  Fe  Fe14  1  0.62906053  0.12490708  0.62529316  1
  Fe  Fe15  1  0.50219001  -0.00183143  0.74828341  1
  Fe  Fe16  1  0.49943412  -0.00416103  0.00202300  1
  Fe  Fe17  1  0.37314397  0.62364628  0.62522136  1
  Fe  Fe18  1  0.37514015  0.37574041  0.62581251  1
  Fe  Fe19  1  0.74952558  0.24867928  0.49944873  1
  Fe  Fe20  1  0.87611040  0.62481808  0.87416977  1
  Fe  Fe21  1  0.50076185  -0.00049525  0.50224952  1
  Fe  Fe22  1  0.75579193  0.00286282  0.49693681  1
  Fe  Fe23  1  0.62264131  0.12466786  0.37494634  1
  Fe  Fe24  1  0.75582090  -0.00012156  -0.00470131  1
  Fe  Fe25  1  0.12338632  0.87579097  0.12586897  1
  Fe  Fe26  1  0.37307478  0.87493999  0.62599027  1
  Fe  Fe27  1  0.24803290  0.24996564  0.24995548  1
  Fe  Fe28  1  -0.00438258  0.49874278  0.24590747  1
  Fe  Fe29  1  0.25163552  0.50024503  -0.00101822  1
  Fe  Fe30  1  -0.00274405  0.74715702  0.74312993  1
  Fe  Fe31  1  0.24723117  0.00043686  0.25098384  1
  Fe  Fe32  1  0.37451763  0.12511800  0.62712697  1
  Fe  Fe33  1  0.37898432  0.37069219  0.37389664  1
  Fe  Fe34  1  0.75121562  0.74894520  0.25209136  1
  Fe  Fe35  1  0.63251108  0.87238478  0.62423739  1
  Fe  Fe36  1  0.24862727  -0.00144556  -0.00312493  1
  Fe  Fe37  1  -0.00005770  0.50148194  0.74502547  1
  Fe  Fe38  1  0.62656032  0.62384431  0.12595851  1
  Fe  Fe39  1  0.37851227  0.37587965  0.87438930  1
  Fe  Fe40  1  0.50130831  0.75189009  0.50153527  1
  Fe  Fe41  1  0.50230366  0.25030013  0.00114727  1
  Fe  Fe42  1  0.24866004  0.75033182  -0.00128385  1
  Fe  Fe43  1  0.62678838  0.87406112  0.87503723  1
  Fe  Fe44  1  0.24745380  0.25118204  0.75196255  1
  Fe  Fe45  1  0.50615021  0.25069811  0.74970766  1
  Fe  Fe46  1  0.62763824  0.37769403  0.12515614  1
  Fe  Fe47  1  0.37495268  0.87431152  0.87329354  1
  Fe  Fe48  1  0.87499073  0.37274842  0.37291386  1
  Fe  Fe49  1  0.12371338  0.12520851  0.12231602  1
  Fe  Fe50  1  0.87545378  0.87500391  0.12799758  1
  Fe  Fe51  1  0.86879075  0.37212489  0.63105538  1
  Fe  Fe52  1  0.87893970  0.62519982  0.37684620  1
  Fe  Fe53  1  0.37845537  0.12536304  0.37387527  1
  Fe  Fe54  1  0.74455371  0.50416866  0.75169926  1
  Fe  Fe55  1  0.49992890  0.49923457  0.50040174  1
  Fe  Fe56  1  0.25057057  0.00077039  0.49987577  1
  Fe  Fe57  1  -0.00443649  0.49796510  0.00290485  1
  Fe  Fe58  1  0.24787403  0.74888388  0.50032337  1
  Fe  Fe59  1  0.12371965  0.62265554  0.12478370  1
  Fe  Fe60  1  0.50471103  0.74852146  0.74854023  1
  Fe  Fe61  1  0.75267391  0.49937650  -0.00119377  1
  Fe  Fe62  1  0.37755670  0.62532773  0.87512658  1
  Fe  Fe63  1  0.37526099  0.87478716  0.37363544  1
  Fe  Fe64  1  0.12088725  0.12527006  0.37761366  1
  Fe  Fe65  1  0.11987302  0.62180643  0.37990824  1
  Fe  Fe66  1  0.37779459  0.62801378  0.37344263  1
  Fe  Fe67  1  0.24765347  0.74805583  0.74940377  1
  Fe  Fe68  1  0.37416843  0.12371901  0.12513568  1
  Fe  Fe69  1  -0.00203140  0.25170239  0.50423050  1
  Fe  Fe70  1  0.75108099  0.25059578  -0.00715345  1
  Fe  Fe71  1  0.50208662  -0.00313932  0.24629029  1
  Fe  Fe72  1  0.88006322  0.87492587  0.37480003  1
  Fe  Fe73  1  0.25118861  0.25000532  0.49975816  1
  Fe  Fe74  1  0.12056266  0.12380488  0.87474460  1
  Fe  Fe75  1  0.24947544  0.25119157  -0.00182125  1
  Fe  Fe76  1  0.12102811  0.87505958  0.87285619  1
  Fe  Fe77  1  0.12937568  0.38014584  0.62256931  1
  Fe  Fe78  1  0.75208285  0.75034812  -0.00175486  1
  Fe  Fe79  1  0.62295178  0.62552283  0.37500628  1
  Fe  Fe80  1  0.37579178  0.62654333  0.12748195  1
  Fe  Fe81  1  0.75388770  0.00207956  0.75386281  1
  Fe  Fe82  1  0.12315528  0.37815539  0.87593404  1
  Fe  Fe83  1  0.74769281  0.24801452  0.25072511  1
  Fe  Fe84  1  -0.00125143  0.75018292  0.00163246  1
  Fe  Fe85  1  0.50056583  0.75277634  0.00408113  1
  Fe  Fe86  1  0.12451960  0.12396946  0.62494808  1
  Fe  Fe87  1  0.62569816  0.87543174  0.37473472  1
  Fe  Fe88  1  0.25017339  0.49964910  0.25230416  1
  Fe  Fe89  1  0.11952992  0.87554218  0.37729191  1
  Co  Co90  1  0.87832133  0.12918656  0.37385195  1
  Co  Co91  1  0.49845853  0.50002799  0.00297940  1
  Co  Co92  1  0.88057029  0.12952321  0.87181328  1
  Co  Co93  1  0.62341656  0.62604659  0.88110124  1
  Co  Co94  1  0.00499201  0.25339580  0.74759936  1
  Co  Co95  1  -0.00655024  0.49738318  0.50500816  1
  Co  Co96  1  0.50381510  0.24869307  0.24528825  1
  Co  Co97  1  -0.00512435  0.00187032  0.50337339  1
  Co  Co98  1  0.75248197  0.00099288  0.25344842  1
  Co  Co99  1  -0.00023117  0.00289595  0.24905837  1
  Co  Co100  1  -0.00047518  0.74897556  0.50647286  1
  Co  Co101  1  0.12617014  0.37674687  0.12472358  1
  Co  Co102  1  0.24885108  0.00046710  0.75183732  1
  Co  Co103  1  0.50324451  0.75359041  0.24667830  1
  Co  Co104  1  0.50087457  0.49923476  0.25033942  1
  Co  Co105  1  0.87232547  0.13065748  0.62913572  1
  Co  Co106  1  0.12908048  0.62022825  0.62101788  1
  Co  Co107  1  0.87020800  0.37257954  0.12683110  1
  Co  Co108  1  0.25536525  0.49958797  0.49481269  1
  Co  Co109  1  0.75262672  0.74960523  0.49371844  1
  Co  Co110  1  0.74906168  0.74598023  0.75391496  1
  Co  Co111  1  0.36947208  0.87431768  0.12661236  1
  Co  Co112  1  0.62173125  0.12075071  0.87717997  1
  Co  Co113  1  0.87288083  0.62653022  0.12449723  1
  Co  Co114  1  0.75141300  0.50172951  0.25301796  1
  Co  Co115  1  0.74307006  0.24834921  0.75752816  1
  Co  Co116  1  0.86823748  0.87258980  0.62415081  1
  Co  Co117  1  0.86764494  0.62586287  0.62388848  1
  Co  Co118  1  0.50100785  0.24816889  0.50396672  1
  Co  Co119  1  0.62383687  0.37846257  0.87781480  1
  Co  Co120  1  0.87497122  0.37640434  0.86881531  1
  Co  Co121  1  0.62820875  0.62759711  0.61937208  1
  Co  Co122  1  -0.00328467  -0.00164451  0.00036598  1
  Co  Co123  1  0.25040460  0.50012131  0.75435998  1
  Co  Co124  1  0.00021010  0.74790037  0.24844134  1
  Co  Co125  1  0.87695905  0.87110215  0.87301594  1
  Co  Co126  1  0.62767887  0.37506844  0.62330643  1
  Co  Co127  1  0.63282297  0.87582205  0.12416078  1
