# generated using pymatgen
data_Fe45Co19
_symmetry_space_group_name_H-M   'P 1'
_cell_length_a   11.41604823
_cell_length_b   11.41504138
_cell_length_c   11.41509994
_cell_angle_alpha   90.00284742
_cell_angle_beta   90.00488244
_cell_angle_gamma   90.00314691
_symmetry_Int_Tables_number   1
_chemical_formula_structural   Fe45Co19
_chemical_formula_sum   'Fe90 Co38'
_cell_volume   1487.55489211
_cell_formula_units_Z   2
loop_
 _symmetry_equiv_pos_site_id
 _symmetry_equiv_pos_as_xyz
  1  'x, y, z'
loop_
 _atom_site_type_symbol
 _atom_site_label
 _atom_site_symmetry_multiplicity
 _atom_site_fract_x
 _atom_site_fract_y
 _atom_site_fract_z
 _atom_site_occupancy
  Fe  Fe0  1  0.62468491  0.37754042  0.62491414  1
  Fe  Fe1  1  -0.00320516  0.49754566  0.00250559  1
  Fe  Fe2  1  0.00213485  0.25050284  0.00304946  1
  Fe  Fe3  1  0.25226062  0.00030336  0.25107127  1
  Fe  Fe4  1  0.37491572  0.87241639  0.12397389  1
  Fe  Fe5  1  0.00458218  0.74952028  0.49851577  1
  Fe  Fe6  1  0.62474928  0.62365513  0.62852272  1
  Fe  Fe7  1  0.87439149  0.12608928  0.62153637  1
  Fe  Fe8  1  0.37422662  0.37269962  0.62394461  1
  Fe  Fe9  1  -0.00278593  0.49878860  0.74912482  1
  Fe  Fe10  1  0.62604208  0.37828531  0.12623057  1
  Fe  Fe11  1  0.62554229  0.37866170  0.37506101  1
  Fe  Fe12  1  0.62603972  0.87651505  0.62582028  1
  Fe  Fe13  1  0.62609772  0.62189501  0.86986876  1
  Fe  Fe14  1  -0.00165558  0.00189171  0.25290157  1
  Fe  Fe15  1  0.25240045  0.49972256  0.75209272  1
  Fe  Fe16  1  0.50386409  0.74940482  0.00111635  1
  Fe  Fe17  1  0.87287381  0.37324497  0.87777539  1
  Fe  Fe18  1  0.87560477  0.62660985  0.62324067  1
  Fe  Fe19  1  0.37366449  0.62659048  0.37418766  1
  Fe  Fe20  1  0.24958692  0.24778360  0.75076385  1
  Fe  Fe21  1  0.87636812  0.37375878  0.61839385  1
  Fe  Fe22  1  0.74698241  0.74854399  0.00107917  1
  Fe  Fe23  1  0.74885004  0.74730349  0.25010496  1
  Fe  Fe24  1  0.12571654  0.12279044  0.62381707  1
  Fe  Fe25  1  0.37178295  0.87333930  0.62708194  1
  Fe  Fe26  1  0.50112461  0.25114797  0.24960747  1
  Fe  Fe27  1  0.62600337  0.37672174  0.87229163  1
  Fe  Fe28  1  0.74396707  0.24796556  0.00108362  1
  Fe  Fe29  1  0.24950832  0.00240631  0.00084988  1
  Fe  Fe30  1  0.25221591  0.49691614  0.00190795  1
  Fe  Fe31  1  0.75156262  0.50205643  0.49781324  1
  Fe  Fe32  1  0.00120600  0.74918486  0.75307125  1
  Fe  Fe33  1  0.50130043  0.24761499  0.74745826  1
  Fe  Fe34  1  -0.00176573  -0.00002343  0.74925268  1
  Fe  Fe35  1  0.37333967  0.87096944  0.37386139  1
  Fe  Fe36  1  -0.00017237  0.25111142  0.74751299  1
  Fe  Fe37  1  0.12504479  0.87684939  0.12691481  1
  Fe  Fe38  1  0.12614702  0.87614169  0.62579231  1
  Fe  Fe39  1  0.25381655  0.49659800  0.24751905  1
  Fe  Fe40  1  0.37384577  0.12790174  0.37631592  1
  Fe  Fe41  1  0.37424715  0.62689204  0.62654613  1
  Fe  Fe42  1  0.74760781  0.00150609  0.00339787  1
  Fe  Fe43  1  0.87200322  0.12846490  0.12643605  1
  Fe  Fe44  1  0.24899116  0.49935298  0.49894110  1
  Fe  Fe45  1  0.62579196  0.12205222  0.37031702  1
  Fe  Fe46  1  0.50428713  0.24802161  0.50063190  1
  Fe  Fe47  1  0.12731267  0.12892562  0.12940061  1
  Fe  Fe48  1  0.49651167  0.50094771  0.24826444  1
  Fe  Fe49  1  0.12091928  0.37434149  0.37264556  1
  Fe  Fe50  1  0.12402308  0.37622101  0.87472843  1
  Fe  Fe51  1  0.12579182  0.62416774  0.37227311  1
  Fe  Fe52  1  0.50313306  0.00266542  0.00423010  1
  Fe  Fe53  1  0.62529283  0.87728941  0.87341680  1
  Fe  Fe54  1  0.24731821  0.74855678  0.00017896  1
  Fe  Fe55  1  0.49860291  0.00049520  0.49933200  1
  Fe  Fe56  1  0.37696681  0.37440898  0.37715192  1
  Fe  Fe57  1  0.37601568  0.62704922  0.87490262  1
  Fe  Fe58  1  0.49753164  0.00172935  0.74799681  1
  Fe  Fe59  1  0.50020449  0.74770585  0.24790601  1
  Fe  Fe60  1  0.75566690  0.50032379  0.25110164  1
  Fe  Fe61  1  0.37433806  0.13185449  0.12366794  1
  Fe  Fe62  1  0.24910268  -0.00125883  0.49771549  1
  Fe  Fe63  1  0.12585408  0.87797865  0.87435197  1
  Fe  Fe64  1  0.87442934  0.87312268  0.12483344  1
  Fe  Fe65  1  -0.00033333  0.00209430  0.00314248  1
  Fe  Fe66  1  -0.00689531  0.49644931  0.24903906  1
  Fe  Fe67  1  0.50007952  0.49970620  -0.00013517  1
  Fe  Fe68  1  0.75249126  0.00016648  0.74994550  1
  Fe  Fe69  1  0.00167227  0.74946844  0.24959401  1
  Fe  Fe70  1  0.12482143  0.62152211  0.12493237  1
  Fe  Fe71  1  0.74700400  0.74870683  0.49797962  1
  Fe  Fe72  1  0.49895110  0.50205776  0.50127684  1
  Fe  Fe73  1  0.37378540  0.87543799  0.87471512  1
  Fe  Fe74  1  0.37658859  0.12665935  0.87779843  1
  Fe  Fe75  1  0.87362074  0.62404852  0.87571485  1
  Fe  Fe76  1  0.62290976  0.87715607  0.37047097  1
  Fe  Fe77  1  0.87453035  0.87585374  0.87725740  1
  Fe  Fe78  1  0.37710231  0.37058662  0.87717402  1
  Fe  Fe79  1  0.87455405  0.12593575  0.87618372  1
  Fe  Fe80  1  0.75148294  0.00069279  0.49649691  1
  Fe  Fe81  1  0.24600982  0.25178781  0.49881361  1
  Fe  Fe82  1  0.87694270  0.87193433  0.37565953  1
  Fe  Fe83  1  0.74949489  0.25041112  0.74740950  1
  Fe  Fe84  1  0.12323994  0.12449308  0.87520665  1
  Fe  Fe85  1  0.00189590  0.74958167  -0.00092005  1
  Fe  Fe86  1  0.12622864  0.62285516  0.62679375  1
  Fe  Fe87  1  0.50071229  0.74913780  0.50029975  1
  Fe  Fe88  1  0.87531429  0.87324436  0.62319729  1
  Fe  Fe89  1  0.87642965  0.13226984  0.37705252  1
  Co  Co90  1  0.12410439  0.61968204  0.87716222  1
  Co  Co91  1  -0.00083387  0.00012314  0.49715855  1
  Co  Co92  1  0.74984127  0.50180636  0.00003044  1
  Co  Co93  1  0.12505816  0.37600184  0.12618551  1
  Co  Co94  1  0.24814021  0.74891459  0.49973165  1
  Co  Co95  1  0.62652960  0.12236826  0.13292326  1
  Co  Co96  1  0.00615234  0.25022525  0.50215102  1
  Co  Co97  1  0.62509215  0.12256098  0.87105415  1
  Co  Co98  1  0.87662766  0.37133976  0.38117214  1
  Co  Co99  1  0.62546209  0.62182962  0.12689248  1
  Co  Co100  1  0.37748234  0.37040875  0.12172311  1
  Co  Co101  1  0.87093136  0.37181570  0.12130212  1
  Co  Co102  1  0.49251451  0.00116849  0.24829788  1
  Co  Co103  1  0.12518925  0.12611800  0.37302054  1
  Co  Co104  1  0.75040542  0.75024906  0.75080681  1
  Co  Co105  1  0.62549990  0.87665246  0.12981460  1
  Co  Co106  1  0.62636473  0.12099983  0.62509850  1
  Co  Co107  1  -0.00234784  0.25251519  0.24735793  1
  Co  Co108  1  0.50829535  0.24847843  0.00159624  1
  Co  Co109  1  0.75488182  0.49802931  0.74735027  1
  Co  Co110  1  0.50071506  0.75138763  0.74999918  1
  Co  Co111  1  0.25165367  0.25447764  0.25218175  1
  Co  Co112  1  0.74960274  0.25449470  0.25182150  1
  Co  Co113  1  0.25104570  0.00295078  0.75126695  1
  Co  Co114  1  0.12582127  0.87544501  0.37377338  1
  Co  Co115  1  0.74382035  0.24977055  0.49942537  1
  Co  Co116  1  0.12668175  0.37772638  0.62777367  1
  Co  Co117  1  0.00208260  0.50090309  0.49908594  1
  Co  Co118  1  0.37326730  0.12654789  0.62114993  1
  Co  Co119  1  0.87715460  0.62699550  0.37656621  1
  Co  Co120  1  0.75674316  -0.00060927  0.25194168  1
  Co  Co121  1  0.87531097  0.62736054  0.12384569  1
  Co  Co122  1  0.24601464  0.25174272  -0.00098547  1
  Co  Co123  1  0.37513689  0.62586705  0.12391656  1
  Co  Co124  1  0.49629553  0.49837074  0.74983873  1
  Co  Co125  1  0.24860415  0.74963454  0.24748077  1
  Co  Co126  1  0.24780017  0.74874478  0.75323200  1
  Co  Co127  1  0.62342227  0.62286595  0.37344323  1
