# generated using pymatgen
data_Fe45Co19
_symmetry_space_group_name_H-M   'P 1'
_cell_length_a   11.41549991
_cell_length_b   11.41547857
_cell_length_c   11.41514952
_cell_angle_alpha   90.00195526
_cell_angle_beta   90.00526534
_cell_angle_gamma   90.00582372
_symmetry_Int_Tables_number   1
_chemical_formula_structural   Fe45Co19
_chemical_formula_sum   'Fe90 Co38'
_cell_volume   1487.54686762
_cell_formula_units_Z   2
loop_
 _symmetry_equiv_pos_site_id
 _symmetry_equiv_pos_as_xyz
  1  'x, y, z'
loop_
 _atom_site_type_symbol
 _atom_site_label
 _atom_site_symmetry_multiplicity
 _atom_site_fract_x
 _atom_site_fract_y
 _atom_site_fract_z
 _atom_site_occupancy
  Fe  Fe0  1  0.62598913  0.62608967  0.12598994  1
  Fe  Fe1  1  0.37420104  0.62165671  0.87363395  1
  Fe  Fe2  1  0.87867882  0.37398945  0.37870970  1
  Fe  Fe3  1  0.62630944  0.12498909  0.12715565  1
  Fe  Fe4  1  0.50114102  -0.00032549  -0.00187688  1
  Fe  Fe5  1  0.49538542  0.49417096  0.74811934  1
  Fe  Fe6  1  0.49671585  0.74835807  0.24886702  1
  Fe  Fe7  1  0.87399052  0.12874948  0.62241919  1
  Fe  Fe8  1  0.87434428  0.87383672  0.87675082  1
  Fe  Fe9  1  0.75006377  0.25074861  0.25299910  1
  Fe  Fe10  1  0.87644889  0.62602128  0.87571646  1
  Fe  Fe11  1  0.49960859  0.00132943  0.50335848  1
  Fe  Fe12  1  0.24763737  0.50130764  0.00033715  1
  Fe  Fe13  1  0.50210830  0.75050992  -0.00423235  1
  Fe  Fe14  1  0.00330384  0.75189331  0.00194363  1
  Fe  Fe15  1  0.37249974  0.37503801  0.12451219  1
  Fe  Fe16  1  -0.00357300  -0.00695817  0.24907471  1
  Fe  Fe17  1  0.75201915  0.49502273  0.74798477  1
  Fe  Fe18  1  0.62686253  0.37540149  0.12663300  1
  Fe  Fe19  1  0.87514466  0.37427698  0.12492288  1
  Fe  Fe20  1  0.87549631  0.62650767  0.62234649  1
  Fe  Fe21  1  0.87624253  0.12267046  0.37699901  1
  Fe  Fe22  1  0.49876764  0.25065078  0.25041594  1
  Fe  Fe23  1  0.49990127  -0.00139924  0.24895275  1
  Fe  Fe24  1  0.62262504  0.87687615  0.63021858  1
  Fe  Fe25  1  0.00190756  0.24884860  0.25134092  1
  Fe  Fe26  1  0.12759477  0.62849657  0.13037855  1
  Fe  Fe27  1  0.74820105  0.00068935  -0.00125149  1
  Fe  Fe28  1  0.87376971  0.12376844  0.12627788  1
  Fe  Fe29  1  0.50062376  0.75011545  0.50553760  1
  Fe  Fe30  1  0.12583898  0.37713457  0.12922153  1
  Fe  Fe31  1  0.50046809  0.49904853  0.00062840  1
  Fe  Fe32  1  0.12491770  0.37622484  0.87508832  1
  Fe  Fe33  1  0.12392166  0.12364401  0.87304376  1
  Fe  Fe34  1  0.37486807  0.12386720  0.37296285  1
  Fe  Fe35  1  0.37668540  0.87745631  0.86882085  1
  Fe  Fe36  1  0.37318832  0.12584283  0.62428400  1
  Fe  Fe37  1  0.37308524  0.12401467  0.12636899  1
  Fe  Fe38  1  0.37524793  0.37516062  0.37603415  1
  Fe  Fe39  1  0.12482944  0.12401672  0.62625657  1
  Fe  Fe40  1  0.12730202  0.12109947  0.13012821  1
  Fe  Fe41  1  0.37740890  0.87410193  0.37763788  1
  Fe  Fe42  1  0.00204905  0.50204062  0.00096477  1
  Fe  Fe43  1  0.12863881  0.87697316  0.62897400  1
  Fe  Fe44  1  -0.00139054  0.50422283  0.25177856  1
  Fe  Fe45  1  0.75241502  0.50139245  0.25391782  1
  Fe  Fe46  1  0.12515546  0.62317644  0.62608343  1
  Fe  Fe47  1  0.62288939  0.62500736  0.37516592  1
  Fe  Fe48  1  0.24881257  0.75135995  -0.00362081  1
  Fe  Fe49  1  0.25133754  0.74770334  0.74976677  1
  Fe  Fe50  1  -0.00252905  -0.00088772  0.74940506  1
  Fe  Fe51  1  0.62367067  0.62220878  0.62715091  1
  Fe  Fe52  1  0.49966141  0.49780381  0.50234634  1
  Fe  Fe53  1  -0.00094619  0.25160987  0.74864334  1
  Fe  Fe54  1  0.87515207  0.37365106  0.87776973  1
  Fe  Fe55  1  0.87371582  0.87254997  0.62178961  1
  Fe  Fe56  1  0.50169038  0.25112074  -0.00097322  1
  Fe  Fe57  1  -0.00051892  0.49934147  0.74895097  1
  Fe  Fe58  1  0.12465836  0.37754295  0.37379915  1
  Fe  Fe59  1  0.62459063  0.12565477  0.37518987  1
  Fe  Fe60  1  0.74793095  -0.00131691  0.50047455  1
  Fe  Fe61  1  0.74820312  0.75023938  0.75076727  1
  Fe  Fe62  1  0.62376284  0.62207634  0.87207934  1
  Fe  Fe63  1  0.74951881  0.50005279  -0.00005792  1
  Fe  Fe64  1  0.87358597  0.12665960  0.87433379  1
  Fe  Fe65  1  0.87325950  0.62685869  0.12288303  1
  Fe  Fe66  1  0.62759688  0.87366457  0.12457992  1
  Fe  Fe67  1  0.62775016  0.12597430  0.87141356  1
  Fe  Fe68  1  0.37333466  0.87447915  0.12419525  1
  Fe  Fe69  1  0.12469947  0.37584385  0.62282772  1
  Fe  Fe70  1  0.24828958  -0.00178950  -0.00230333  1
  Fe  Fe71  1  0.25046365  0.74832422  0.49987601  1
  Fe  Fe72  1  0.00156848  0.24841535  0.00223139  1
  Fe  Fe73  1  0.24741868  0.24920682  0.00158288  1
  Fe  Fe74  1  0.24666399  0.24707794  0.49559994  1
  Fe  Fe75  1  0.00106402  0.75008941  0.74907707  1
  Fe  Fe76  1  0.12451142  0.87026583  0.37014978  1
  Fe  Fe77  1  0.87823509  0.63171846  0.38170132  1
  Fe  Fe78  1  0.37411651  0.12610933  0.87497375  1
  Fe  Fe79  1  0.24980998  0.25220920  0.75036666  1
  Fe  Fe80  1  0.74969620  0.49797171  0.49997550  1
  Fe  Fe81  1  0.00266784  -0.00174057  0.50018790  1
  Fe  Fe82  1  0.24928554  -0.00044099  0.49828929  1
  Fe  Fe83  1  0.62729122  0.12962903  0.62528530  1
  Fe  Fe84  1  0.62443714  0.87428524  0.37514522  1
  Fe  Fe85  1  0.49670942  0.50216492  0.24815106  1
  Fe  Fe86  1  0.75316657  0.75198288  0.25189232  1
  Fe  Fe87  1  0.49800554  0.25361379  0.74989479  1
  Fe  Fe88  1  0.24907551  0.50416222  0.49774226  1
  Fe  Fe89  1  0.00335474  -0.00232393  0.00104965  1
  Co  Co90  1  0.37113054  0.37322853  0.62044220  1
  Co  Co91  1  0.00410223  0.24758864  0.49895431  1
  Co  Co92  1  0.75311648  -0.00073571  0.74782746  1
  Co  Co93  1  -0.00697979  0.75211892  0.24641073  1
  Co  Co94  1  0.37203852  0.37537796  0.87847514  1
  Co  Co95  1  0.49956084  0.74851210  0.74988193  1
  Co  Co96  1  0.75189626  0.25511643  0.74913400  1
  Co  Co97  1  0.49904857  0.00488024  0.74787725  1
  Co  Co98  1  0.75027560  -0.00226305  0.25275905  1
  Co  Co99  1  0.49844717  0.24876386  0.49895585  1
  Co  Co100  1  0.75000574  0.25328094  0.49636139  1
  Co  Co101  1  0.12424592  0.87589928  0.87056190  1
  Co  Co102  1  0.62427527  0.37158105  0.62232587  1
  Co  Co103  1  0.25342087  -0.00306931  0.25237591  1
  Co  Co104  1  0.38073702  0.62520735  0.38003889  1
  Co  Co105  1  0.62139798  0.37667698  0.37418216  1
  Co  Co106  1  0.87010370  0.87581073  0.11964616  1
  Co  Co107  1  0.87800287  0.37364863  0.62052798  1
  Co  Co108  1  0.74595532  0.74810026  -0.00384079  1
  Co  Co109  1  0.37444391  0.62657705  0.11901086  1
  Co  Co110  1  0.74941593  0.24961646  0.00129876  1
  Co  Co111  1  0.87514771  0.87256966  0.38196497  1
  Co  Co112  1  0.74308523  0.75012152  0.50270770  1
  Co  Co113  1  0.12111740  0.62898773  0.37141014  1
  Co  Co114  1  0.25052628  0.49878750  0.74897905  1
  Co  Co115  1  0.25149740  0.00310267  0.75071904  1
  Co  Co116  1  0.62634000  0.37559964  0.87569428  1
  Co  Co117  1  0.12988915  0.87251762  0.12949521  1
  Co  Co118  1  0.25426405  0.50503559  0.25263859  1
  Co  Co119  1  0.62506589  0.87812410  0.87110891  1
  Co  Co120  1  0.00654515  0.75190453  0.50445069  1
  Co  Co121  1  0.00116015  0.50244214  0.50035911  1
  Co  Co122  1  0.25798926  0.74580996  0.25362212  1
  Co  Co123  1  0.12302789  0.12068605  0.37042398  1
  Co  Co124  1  0.37533097  0.62433091  0.62525447  1
  Co  Co125  1  0.12428151  0.62482715  0.87328433  1
  Co  Co126  1  0.37387251  0.87581597  0.62678870  1
  Co  Co127  1  0.24992177  0.25054318  0.25171371  1
