# generated using pymatgen
data_Fe45Co19
_symmetry_space_group_name_H-M   'P 1'
_cell_length_a   11.41481963
_cell_length_b   11.41439233
_cell_length_c   11.41435501
_cell_angle_alpha   89.99097230
_cell_angle_beta   90.00860501
_cell_angle_gamma   90.00412146
_symmetry_Int_Tables_number   1
_chemical_formula_structural   Fe45Co19
_chemical_formula_sum   'Fe90 Co38'
_cell_volume   1487.21313980
_cell_formula_units_Z   2
loop_
 _symmetry_equiv_pos_site_id
 _symmetry_equiv_pos_as_xyz
  1  'x, y, z'
loop_
 _atom_site_type_symbol
 _atom_site_label
 _atom_site_symmetry_multiplicity
 _atom_site_fract_x
 _atom_site_fract_y
 _atom_site_fract_z
 _atom_site_occupancy
  Fe  Fe0  1  0.24986615  -0.00001948  0.49950412  1
  Fe  Fe1  1  0.24980132  -0.00161410  0.24798265  1
  Fe  Fe2  1  0.62548529  0.12515480  0.62466928  1
  Fe  Fe3  1  0.37996080  0.62502252  0.37578571  1
  Fe  Fe4  1  0.24712676  0.25056020  0.25076331  1
  Fe  Fe5  1  0.24757769  0.74933223  0.25019427  1
  Fe  Fe6  1  0.00061849  0.75022249  0.49964627  1
  Fe  Fe7  1  0.62294824  0.37591880  0.87734372  1
  Fe  Fe8  1  0.87409651  0.87129449  0.37130448  1
  Fe  Fe9  1  0.87632822  0.12542138  0.87405196  1
  Fe  Fe10  1  0.12431364  0.12507685  0.12554284  1
  Fe  Fe11  1  0.62333535  0.37844196  0.12404147  1
  Fe  Fe12  1  0.12006355  0.87437414  0.87778106  1
  Fe  Fe13  1  0.87444289  0.12730389  0.62587323  1
  Fe  Fe14  1  0.87313706  0.37517614  0.12830950  1
  Fe  Fe15  1  -0.00298044  0.00059664  0.00200959  1
  Fe  Fe16  1  0.12478566  0.37694145  0.37503774  1
  Fe  Fe17  1  0.75147415  0.74937074  0.75305278  1
  Fe  Fe18  1  0.50075508  0.50068929  0.74888001  1
  Fe  Fe19  1  0.12335221  0.87092319  0.12346353  1
  Fe  Fe20  1  0.87432220  0.37478951  0.62475276  1
  Fe  Fe21  1  0.62623706  0.37416115  0.62294729  1
  Fe  Fe22  1  0.87716787  0.37860015  0.87423758  1
  Fe  Fe23  1  0.62717121  0.12422461  0.37327795  1
  Fe  Fe24  1  0.24532640  0.74863094  0.75422485  1
  Fe  Fe25  1  0.62749437  0.87363528  0.87879708  1
  Fe  Fe26  1  0.75465548  -0.00269373  0.00069673  1
  Fe  Fe27  1  0.12754744  0.37898160  0.12118666  1
  Fe  Fe28  1  0.37467197  0.87360037  0.87467141  1
  Fe  Fe29  1  0.50135696  0.75028300  0.74939314  1
  Fe  Fe30  1  0.87343765  0.62692316  0.37106504  1
  Fe  Fe31  1  0.62239084  0.12524903  0.87612870  1
  Fe  Fe32  1  0.12558938  0.12551738  0.62417369  1
  Fe  Fe33  1  0.87598280  0.62453361  0.62747405  1
  Fe  Fe34  1  0.37457284  0.12503334  0.12536916  1
  Fe  Fe35  1  0.50002149  -0.00296179  0.49824037  1
  Fe  Fe36  1  0.37990239  0.37745281  0.37198882  1
  Fe  Fe37  1  0.74918004  0.24974561  0.00131032  1
  Fe  Fe38  1  0.62767057  0.87373595  0.62222822  1
  Fe  Fe39  1  -0.00751251  0.74387604  0.00225107  1
  Fe  Fe40  1  0.75224617  -0.00043652  0.49774528  1
  Fe  Fe41  1  -0.00131878  0.49979554  0.50014537  1
  Fe  Fe42  1  0.37473204  0.12485269  0.37296509  1
  Fe  Fe43  1  0.00170636  -0.00079377  0.74945201  1
  Fe  Fe44  1  0.49407700  0.50051602  0.00151035  1
  Fe  Fe45  1  0.24970401  0.24892779  -0.00194076  1
  Fe  Fe46  1  0.24768140  0.49911182  0.75397394  1
  Fe  Fe47  1  0.12480485  0.62387194  0.37524857  1
  Fe  Fe48  1  0.12129096  0.61935500  0.88032973  1
  Fe  Fe49  1  0.37252835  0.62859885  0.12336498  1
  Fe  Fe50  1  0.74802333  0.50055386  0.75005878  1
  Fe  Fe51  1  0.87601059  0.87332018  0.62769424  1
  Fe  Fe52  1  0.00015472  -0.00050123  0.25044488  1
  Fe  Fe53  1  -0.00056813  0.25139123  0.00137256  1
  Fe  Fe54  1  0.87390093  0.37279116  0.37177900  1
  Fe  Fe55  1  0.87471719  0.12666439  0.12874104  1
  Fe  Fe56  1  0.00199934  0.50170718  0.24661611  1
  Fe  Fe57  1  0.37554060  0.12534997  0.62683252  1
  Fe  Fe58  1  0.12557853  0.62488577  0.62320465  1
  Fe  Fe59  1  0.74828158  0.25057401  0.75197018  1
  Fe  Fe60  1  0.49897443  0.75115610  0.00142757  1
  Fe  Fe61  1  0.37082755  0.87279810  0.62604715  1
  Fe  Fe62  1  0.87433746  0.12959476  0.37047175  1
  Fe  Fe63  1  0.50251386  0.24947121  0.24714889  1
  Fe  Fe64  1  0.25198557  0.50145814  0.24749913  1
  Fe  Fe65  1  0.00140808  0.25039219  0.49804946  1
  Fe  Fe66  1  0.50407508  0.75048882  0.24668978  1
  Fe  Fe67  1  0.74976052  -0.00036617  0.75205828  1
  Fe  Fe68  1  0.00374892  0.25382566  0.75170682  1
  Fe  Fe69  1  0.50014804  -0.00150238  0.75026075  1
  Fe  Fe70  1  0.37317310  0.37500066  0.62592218  1
  Fe  Fe71  1  0.62566247  0.62754719  0.62078104  1
  Fe  Fe72  1  0.62559049  0.11937952  0.12604542  1
  Fe  Fe73  1  0.12591067  0.87545608  0.37648667  1
  Fe  Fe74  1  0.74895035  0.50029334  0.49692221  1
  Fe  Fe75  1  0.50048920  0.25080687  0.50071526  1
  Fe  Fe76  1  0.24933378  0.24997575  0.49711150  1
  Fe  Fe77  1  0.74275880  0.50106324  0.25274111  1
  Fe  Fe78  1  0.74337859  0.75237260  0.24599463  1
  Fe  Fe79  1  0.24687115  0.24976564  0.75392678  1
  Fe  Fe80  1  0.49598380  -0.00048688  0.00039072  1
  Fe  Fe81  1  0.37763085  0.37154756  0.87525381  1
  Fe  Fe82  1  0.75423874  0.50338541  0.00037715  1
  Fe  Fe83  1  0.25221725  0.50069490  0.49864274  1
  Fe  Fe84  1  0.37543713  0.87341889  0.37354038  1
  Fe  Fe85  1  0.62549750  0.62567572  0.87893173  1
  Fe  Fe86  1  0.24842626  0.00062079  0.75324112  1
  Fe  Fe87  1  0.37364044  0.62608266  0.62592463  1
  Fe  Fe88  1  -0.00105007  -0.00044823  0.49903080  1
  Fe  Fe89  1  0.25090427  -0.00119264  -0.00011952  1
  Co  Co90  1  0.74510034  0.25184634  0.24712884  1
  Co  Co91  1  0.12865352  0.62494918  0.12119435  1
  Co  Co92  1  0.37420493  0.37226353  0.12679882  1
  Co  Co93  1  0.50047061  0.49999570  0.50338968  1
  Co  Co94  1  0.37791491  0.62692367  0.87357297  1
  Co  Co95  1  0.50227809  0.25080701  0.74838031  1
  Co  Co96  1  0.00427709  0.49726410  0.74641009  1
  Co  Co97  1  0.00277943  0.74834477  0.75042291  1
  Co  Co98  1  0.75428669  0.75004741  0.50052898  1
  Co  Co99  1  0.62238783  0.62852161  0.37935004  1
  Co  Co100  1  0.12641684  0.87460570  0.62359126  1
  Co  Co101  1  0.62575286  0.87295443  0.37603418  1
  Co  Co102  1  0.49858143  -0.00149954  0.25174677  1
  Co  Co103  1  0.25015833  0.74843490  0.49768303  1
  Co  Co104  1  0.62067630  0.37580169  0.37480570  1
  Co  Co105  1  0.62444693  0.87919262  0.12213962  1
  Co  Co106  1  0.12472463  0.12298948  0.37430578  1
  Co  Co107  1  0.12255764  0.38011219  0.88210002  1
  Co  Co108  1  0.12807642  0.37427642  0.62161345  1
  Co  Co109  1  0.00423076  0.25259354  0.24820871  1
  Co  Co110  1  -0.00652261  0.50354499  0.00711704  1
  Co  Co111  1  0.87622617  0.62086308  0.86964159  1
  Co  Co112  1  0.37771093  0.12631671  0.87497774  1
  Co  Co113  1  0.25737542  0.50073994  -0.00070855  1
  Co  Co114  1  0.12253678  0.12314728  0.87662050  1
  Co  Co115  1  0.75595918  0.75030763  0.00100403  1
  Co  Co116  1  0.24993617  0.75044729  -0.00349085  1
  Co  Co117  1  0.50232146  0.24900500  0.00422927  1
  Co  Co118  1  0.49684599  0.75285201  0.50243264  1
  Co  Co119  1  0.75216687  -0.00247252  0.25064396  1
  Co  Co120  1  0.50100068  0.50443632  0.24568919  1
  Co  Co121  1  0.62588479  0.62419967  0.11854596  1
  Co  Co122  1  0.74936830  0.25070421  0.49853402  1
  Co  Co123  1  0.00462995  0.74762337  0.25004146  1
  Co  Co124  1  0.87062939  0.62531349  0.13349960  1
  Co  Co125  1  0.87717159  0.87274327  0.12868555  1
  Co  Co126  1  0.37429356  0.87252437  0.12564155  1
  Co  Co127  1  0.87689941  0.87496210  0.87310893  1
