# generated using pymatgen
data_Fe45Co19
_symmetry_space_group_name_H-M   'P 1'
_cell_length_a   11.41422842
_cell_length_b   11.41558628
_cell_length_c   11.41537368
_cell_angle_alpha   89.99890793
_cell_angle_beta   90.00071112
_cell_angle_gamma   90.00744288
_symmetry_Int_Tables_number   1
_chemical_formula_structural   Fe45Co19
_chemical_formula_sum   'Fe90 Co38'
_cell_volume   1487.42442538
_cell_formula_units_Z   2
loop_
 _symmetry_equiv_pos_site_id
 _symmetry_equiv_pos_as_xyz
  1  'x, y, z'
loop_
 _atom_site_type_symbol
 _atom_site_label
 _atom_site_symmetry_multiplicity
 _atom_site_fract_x
 _atom_site_fract_y
 _atom_site_fract_z
 _atom_site_occupancy
  Fe  Fe0  1  0.24835999  0.74827573  0.50245278  1
  Fe  Fe1  1  0.50030169  -0.00136258  0.49925634  1
  Fe  Fe2  1  0.37202259  0.62516275  0.37372243  1
  Fe  Fe3  1  0.62525852  0.37775771  0.37666022  1
  Fe  Fe4  1  0.00185065  0.50191841  0.24954547  1
  Fe  Fe5  1  0.50091981  0.74674928  0.49912138  1
  Fe  Fe6  1  0.00046944  0.24731410  0.50181148  1
  Fe  Fe7  1  0.49985822  0.50113218  0.25176185  1
  Fe  Fe8  1  0.24754470  0.50131065  0.50401157  1
  Fe  Fe9  1  0.24897594  0.25222908  0.74780418  1
  Fe  Fe10  1  0.75123125  0.50020890  0.24940026  1
  Fe  Fe11  1  0.12453062  0.37553474  0.12220029  1
  Fe  Fe12  1  0.12745158  0.12102476  0.12400409  1
  Fe  Fe13  1  -0.00146723  0.00016133  -0.00123042  1
  Fe  Fe14  1  0.00228388  0.50113032  0.74951125  1
  Fe  Fe15  1  0.87711384  0.87254651  0.37365057  1
  Fe  Fe16  1  0.87286854  0.12245333  0.12541695  1
  Fe  Fe17  1  0.62529928  0.87286653  0.37425807  1
  Fe  Fe18  1  0.75101071  0.75122447  0.24900255  1
  Fe  Fe19  1  0.49910319  0.74964851  0.24864016  1
  Fe  Fe20  1  0.12417744  0.87210506  0.62611433  1
  Fe  Fe21  1  0.87639075  0.62693285  0.12456119  1
  Fe  Fe22  1  0.12450996  0.37449088  0.87634858  1
  Fe  Fe23  1  0.75063829  0.25059050  0.25105044  1
  Fe  Fe24  1  0.49986780  0.24933936  0.24984449  1
  Fe  Fe25  1  0.49916097  -0.00043440  0.25032592  1
  Fe  Fe26  1  0.87591722  0.12364953  0.37374721  1
  Fe  Fe27  1  0.49798504  0.49982388  -0.00272151  1
  Fe  Fe28  1  0.62754478  0.12405819  0.12337603  1
  Fe  Fe29  1  0.25172359  0.75226325  0.00049251  1
  Fe  Fe30  1  0.24824846  0.24735581  0.50111532  1
  Fe  Fe31  1  0.24627559  0.50126240  0.24857529  1
  Fe  Fe32  1  0.24389072  0.75174709  0.24691097  1
  Fe  Fe33  1  0.62577580  0.37710209  0.12420356  1
  Fe  Fe34  1  0.62691334  0.62373493  0.87385751  1
  Fe  Fe35  1  0.37227275  0.12187656  0.12544456  1
  Fe  Fe36  1  -0.00064390  0.75193576  0.00010722  1
  Fe  Fe37  1  0.00247464  0.50437670  0.50265577  1
  Fe  Fe38  1  0.62575331  0.62457427  0.12354901  1
  Fe  Fe39  1  0.74860425  0.74853167  0.50196164  1
  Fe  Fe40  1  0.75338938  0.25284656  -0.00151506  1
  Fe  Fe41  1  0.12555375  0.12509005  0.87370049  1
  Fe  Fe42  1  0.50028329  0.25175041  -0.00058244  1
  Fe  Fe43  1  -0.00033538  0.25055762  0.75006289  1
  Fe  Fe44  1  0.24957031  0.24743142  0.25183920  1
  Fe  Fe45  1  0.50172586  0.25022069  0.50124174  1
  Fe  Fe46  1  0.12426953  0.87434432  0.87550932  1
  Fe  Fe47  1  0.75060048  -0.00395154  -0.00423521  1
  Fe  Fe48  1  0.37382220  0.37576414  0.37625195  1
  Fe  Fe49  1  0.62977206  0.37755485  0.87254728  1
  Fe  Fe50  1  0.12908866  0.62527151  0.87352891  1
  Fe  Fe51  1  0.62471652  0.12436263  0.37611692  1
  Fe  Fe52  1  0.25112541  -0.00227517  0.75150890  1
  Fe  Fe53  1  0.37619721  0.12743633  0.87379844  1
  Fe  Fe54  1  0.37545417  0.87558808  0.62437887  1
  Fe  Fe55  1  0.37118711  0.62335584  0.87359857  1
  Fe  Fe56  1  0.87363573  0.62412199  0.87387909  1
  Fe  Fe57  1  0.75047238  0.75226994  -0.00330812  1
  Fe  Fe58  1  0.49859019  -0.00020139  -0.00006222  1
  Fe  Fe59  1  0.50579576  0.24922648  0.74948607  1
  Fe  Fe60  1  0.50272322  0.00204275  0.75051757  1
  Fe  Fe61  1  -0.00070711  0.25008718  0.24793578  1
  Fe  Fe62  1  0.62438497  0.87409189  0.12297388  1
  Fe  Fe63  1  0.37526807  0.12393336  0.62505012  1
  Fe  Fe64  1  0.49918121  0.74876802  0.75160924  1
  Fe  Fe65  1  0.00186641  -0.00440201  0.24915684  1
  Fe  Fe66  1  0.37585953  0.62271939  0.62810189  1
  Fe  Fe67  1  0.74730745  0.50420490  0.50323674  1
  Fe  Fe68  1  0.87417886  0.37489714  0.62698097  1
  Fe  Fe69  1  0.87399330  0.87273527  0.63030140  1
  Fe  Fe70  1  0.87637888  0.37630654  0.12278323  1
  Fe  Fe71  1  0.74874513  0.25007756  0.50225860  1
  Fe  Fe72  1  0.37244327  0.87376810  0.37421709  1
  Fe  Fe73  1  0.25001892  0.24963278  -0.00043453  1
  Fe  Fe74  1  0.37443287  0.37584524  0.12412012  1
  Fe  Fe75  1  0.87688152  0.62924408  0.62810596  1
  Fe  Fe76  1  0.37895615  0.37728477  0.62595781  1
  Fe  Fe77  1  -0.00032738  0.50009579  -0.00124214  1
  Fe  Fe78  1  0.37880540  0.87446734  0.87670480  1
  Fe  Fe79  1  0.87349198  0.12633141  0.87314301  1
  Fe  Fe80  1  0.00013768  -0.00120153  0.75007218  1
  Fe  Fe81  1  0.75100969  -0.00183772  0.49970874  1
  Fe  Fe82  1  0.12382217  0.37480729  0.37717509  1
  Fe  Fe83  1  0.00063249  -0.00078770  0.50191228  1
  Fe  Fe84  1  0.87574453  0.37691994  0.37736969  1
  Fe  Fe85  1  0.24698762  0.00280085  0.49764115  1
  Fe  Fe86  1  0.37361349  0.62443777  0.12365422  1
  Fe  Fe87  1  0.87237337  0.12364408  0.62800931  1
  Fe  Fe88  1  0.87734632  0.62730245  0.37366305  1
  Fe  Fe89  1  0.62577404  0.87385999  0.62855677  1
  Co  Co90  1  0.12440143  0.87175958  0.37865298  1
  Co  Co91  1  0.74871659  -0.00130622  0.25174737  1
  Co  Co92  1  0.25256453  0.75423700  0.75046843  1
  Co  Co93  1  0.12378601  0.62601824  0.37636273  1
  Co  Co94  1  0.49846068  0.74688678  -0.00047403  1
  Co  Co95  1  0.50034570  0.50472634  0.49639314  1
  Co  Co96  1  0.25160893  0.49791271  -0.00086312  1
  Co  Co97  1  -0.00066120  0.74948856  0.50131113  1
  Co  Co98  1  0.75261347  0.50231415  0.74563909  1
  Co  Co99  1  0.87641831  0.87504249  0.87227545  1
  Co  Co100  1  0.12026435  0.12615286  0.37420649  1
  Co  Co101  1  0.74772118  -0.00034481  0.75319339  1
  Co  Co102  1  0.75224327  0.49967556  0.00090890  1
  Co  Co103  1  0.24888744  -0.00039879  0.25561715  1
  Co  Co104  1  0.62089749  0.62526287  0.62889216  1
  Co  Co105  1  -0.00065948  0.24782571  0.00080935  1
  Co  Co106  1  0.12524062  0.12379136  0.62814433  1
  Co  Co107  1  0.49873715  0.50037449  0.75511952  1
  Co  Co108  1  0.12744756  0.87894257  0.12057986  1
  Co  Co109  1  0.87529547  0.37585551  0.87231471  1
  Co  Co110  1  0.37347056  0.87636641  0.12555353  1
  Co  Co111  1  0.25294750  -0.00072094  -0.00605003  1
  Co  Co112  1  0.24806568  0.49598015  0.74782489  1
  Co  Co113  1  0.74927969  0.75008013  0.75261553  1
  Co  Co114  1  0.62645332  0.12137764  0.62258008  1
  Co  Co115  1  0.37735235  0.12516137  0.37678717  1
  Co  Co116  1  0.87415556  0.87498797  0.12423652  1
  Co  Co117  1  0.62083285  0.87389944  0.87442026  1
  Co  Co118  1  0.74739415  0.24945240  0.74818301  1
  Co  Co119  1  0.00378957  0.75212483  0.24656672  1
  Co  Co120  1  0.12604524  0.62956057  0.62960341  1
  Co  Co121  1  0.62680003  0.62600329  0.37241217  1
  Co  Co122  1  0.00060512  0.74934486  0.75316820  1
  Co  Co123  1  0.12438738  0.62480813  0.12036506  1
  Co  Co124  1  0.37421391  0.37239853  0.87320135  1
  Co  Co125  1  0.62617293  0.12545678  0.87876386  1
  Co  Co126  1  0.62303324  0.38020320  0.62537889  1
  Co  Co127  1  0.12196473  0.37385353  0.62358238  1
