# generated using pymatgen
data_Fe45Co19
_symmetry_space_group_name_H-M   'P 1'
_cell_length_a   11.41629643
_cell_length_b   11.41616390
_cell_length_c   11.41453114
_cell_angle_alpha   90.01091269
_cell_angle_beta   89.99064690
_cell_angle_gamma   89.99790741
_symmetry_Int_Tables_number   1
_chemical_formula_structural   Fe45Co19
_chemical_formula_sum   'Fe90 Co38'
_cell_volume   1487.65934771
_cell_formula_units_Z   2
loop_
 _symmetry_equiv_pos_site_id
 _symmetry_equiv_pos_as_xyz
  1  'x, y, z'
loop_
 _atom_site_type_symbol
 _atom_site_label
 _atom_site_symmetry_multiplicity
 _atom_site_fract_x
 _atom_site_fract_y
 _atom_site_fract_z
 _atom_site_occupancy
  Fe  Fe0  1  0.62815356  0.37490005  0.87551917  1
  Fe  Fe1  1  0.50304186  0.74876003  0.25271085  1
  Fe  Fe2  1  0.50398631  0.49981308  0.24982274  1
  Fe  Fe3  1  0.50298474  0.49662893  0.50151248  1
  Fe  Fe4  1  0.37429279  0.87394978  0.62836403  1
  Fe  Fe5  1  -0.00382027  0.75119612  0.00010538  1
  Fe  Fe6  1  0.74722273  0.75005378  0.49850958  1
  Fe  Fe7  1  0.87306111  0.37538620  0.37748418  1
  Fe  Fe8  1  0.37475042  0.37562219  0.12595146  1
  Fe  Fe9  1  0.87331635  0.37394356  0.12407693  1
  Fe  Fe10  1  0.12748081  0.12563075  0.62594248  1
  Fe  Fe11  1  0.74768862  0.49989923  0.50420954  1
  Fe  Fe12  1  0.49848260  0.74772516  0.75266954  1
  Fe  Fe13  1  0.00017064  0.74628417  0.74768056  1
  Fe  Fe14  1  -0.00119926  0.50192344  0.50238831  1
  Fe  Fe15  1  0.62923011  0.62740606  0.12116482  1
  Fe  Fe16  1  0.74876156  0.50062390  0.74618674  1
  Fe  Fe17  1  0.25344005  0.74757063  -0.00555049  1
  Fe  Fe18  1  0.12497254  0.87228453  0.37421739  1
  Fe  Fe19  1  0.87600329  0.12363296  0.62635731  1
  Fe  Fe20  1  0.12730859  0.87153761  0.62748642  1
  Fe  Fe21  1  0.49602812  0.25452872  0.49767533  1
  Fe  Fe22  1  0.50127680  0.00094649  0.25154987  1
  Fe  Fe23  1  0.87530765  0.87338158  0.37500340  1
  Fe  Fe24  1  0.12523026  0.62709848  0.12317656  1
  Fe  Fe25  1  0.87612995  0.12375148  0.37598972  1
  Fe  Fe26  1  0.37320028  0.12553134  0.87105943  1
  Fe  Fe27  1  0.00183324  -0.00181300  0.50187571  1
  Fe  Fe28  1  0.62658754  0.12480200  0.87482542  1
  Fe  Fe29  1  -0.00152547  0.50147244  0.24894873  1
  Fe  Fe30  1  0.12497926  0.87391540  0.87197226  1
  Fe  Fe31  1  0.50011390  0.00135620  0.74909742  1
  Fe  Fe32  1  0.37502990  0.12599324  0.12585910  1
  Fe  Fe33  1  0.87201879  0.62456743  0.87714538  1
  Fe  Fe34  1  0.62550329  0.87412236  0.12538920  1
  Fe  Fe35  1  0.37611625  0.62359533  0.62548054  1
  Fe  Fe36  1  0.62371868  0.87628946  0.87505643  1
  Fe  Fe37  1  0.25062623  0.49940908  0.49965992  1
  Fe  Fe38  1  0.75151247  -0.00172834  -0.00151021  1
  Fe  Fe39  1  0.74779292  0.00064461  0.50151643  1
  Fe  Fe40  1  0.25059851  0.25196972  -0.00051753  1
  Fe  Fe41  1  0.87220051  0.87277031  0.12804275  1
  Fe  Fe42  1  0.74999420  0.25000673  0.74807698  1
  Fe  Fe43  1  0.25432596  0.25242329  0.50128171  1
  Fe  Fe44  1  -0.00206695  0.50097249  0.00238689  1
  Fe  Fe45  1  0.12286010  0.62787067  0.37631464  1
  Fe  Fe46  1  0.12592246  0.12392877  0.87388232  1
  Fe  Fe47  1  0.24892009  0.50142278  0.24888076  1
  Fe  Fe48  1  0.75171469  0.24766149  0.25147493  1
  Fe  Fe49  1  0.50260475  0.49918553  0.00027520  1
  Fe  Fe50  1  0.25106514  -0.00072601  -0.00141982  1
  Fe  Fe51  1  0.37359009  0.37761833  0.87315475  1
  Fe  Fe52  1  0.62738763  0.37182754  0.12457196  1
  Fe  Fe53  1  0.12503498  0.37349320  0.37367876  1
  Fe  Fe54  1  0.74964578  0.50317701  0.24947451  1
  Fe  Fe55  1  0.50022077  0.25060450  -0.00262225  1
  Fe  Fe56  1  0.62174806  0.12961107  0.62285173  1
  Fe  Fe57  1  0.87467133  0.87512839  0.62680057  1
  Fe  Fe58  1  0.37587684  0.87516541  0.37332401  1
  Fe  Fe59  1  0.87562099  0.62754824  0.37655482  1
  Fe  Fe60  1  0.24649611  0.50347822  0.75155798  1
  Fe  Fe61  1  -0.00395061  0.24771923  -0.00000317  1
  Fe  Fe62  1  0.12373076  0.37683795  0.87639242  1
  Fe  Fe63  1  0.12401642  0.37709049  0.62472915  1
  Fe  Fe64  1  0.62251855  0.87239867  0.62383501  1
  Fe  Fe65  1  0.74805863  0.75008641  0.75189645  1
  Fe  Fe66  1  0.00090161  -0.00124233  0.24966203  1
  Fe  Fe67  1  0.49856174  0.00112749  -0.00086933  1
  Fe  Fe68  1  -0.00128278  0.25057796  0.50072040  1
  Fe  Fe69  1  0.12353751  0.12729770  0.12677714  1
  Fe  Fe70  1  0.49901747  -0.00014823  0.49955849  1
  Fe  Fe71  1  0.62612238  0.12588440  0.12410971  1
  Fe  Fe72  1  0.37807167  0.62260542  0.37526343  1
  Fe  Fe73  1  -0.00066142  0.50382204  0.74728256  1
  Fe  Fe74  1  0.12602100  0.12741356  0.37328847  1
  Fe  Fe75  1  0.37535715  0.62487888  0.12344100  1
  Fe  Fe76  1  0.12782834  0.87183800  0.12534795  1
  Fe  Fe77  1  0.50048680  0.74844831  -0.00340613  1
  Fe  Fe78  1  0.74745400  0.00056768  0.25271316  1
  Fe  Fe79  1  0.00105545  0.25012775  0.74961474  1
  Fe  Fe80  1  0.12413507  0.37263011  0.12623161  1
  Fe  Fe81  1  -0.00156371  -0.00180798  -0.00012090  1
  Fe  Fe82  1  0.25159906  0.00068428  0.50158191  1
  Fe  Fe83  1  0.49922454  0.25045431  0.25357241  1
  Fe  Fe84  1  0.87430552  0.12034084  0.87182084  1
  Fe  Fe85  1  0.25062281  0.00037741  0.24956295  1
  Fe  Fe86  1  0.37538337  0.87288634  0.12472837  1
  Fe  Fe87  1  0.25230817  0.74906341  0.49956013  1
  Fe  Fe88  1  0.50463427  0.49925524  0.74857528  1
  Fe  Fe89  1  0.87413005  0.37629133  0.87387882  1
  Co  Co90  1  0.62534773  0.37073576  0.62357918  1
  Co  Co91  1  0.12143481  0.62491110  0.87875942  1
  Co  Co92  1  0.87666129  0.37512073  0.62554534  1
  Co  Co93  1  0.75314654  0.24896260  0.50208592  1
  Co  Co94  1  0.24973993  0.49942688  0.00152625  1
  Co  Co95  1  0.25180919  0.74540150  0.75284797  1
  Co  Co96  1  0.62409777  0.12706622  0.37797658  1
  Co  Co97  1  0.87661065  0.87661805  0.86919765  1
  Co  Co98  1  0.49783563  0.75069349  0.49843913  1
  Co  Co99  1  0.74711970  0.74749992  0.25334616  1
  Co  Co100  1  0.62719627  0.62340399  0.87576539  1
  Co  Co101  1  0.37678125  0.12710130  0.62720461  1
  Co  Co102  1  0.00332481  0.00040402  0.74696437  1
  Co  Co103  1  0.74919711  0.49820932  0.00136154  1
  Co  Co104  1  0.50056206  0.25198366  0.75286256  1
  Co  Co105  1  0.25265011  0.25110238  0.25019607  1
  Co  Co106  1  0.37601709  0.87714114  0.87381786  1
  Co  Co107  1  0.37431909  0.12364804  0.37525928  1
  Co  Co108  1  0.87185350  0.62789682  0.12279471  1
  Co  Co109  1  0.25158716  0.74748650  0.25228489  1
  Co  Co110  1  0.24803542  0.25243810  0.74937100  1
  Co  Co111  1  -0.00062219  0.74925986  0.24881739  1
  Co  Co112  1  0.62384671  0.62322089  0.37895471  1
  Co  Co113  1  0.75054533  0.75439393  -0.00374321  1
  Co  Co114  1  -0.00434475  0.25101362  0.25074940  1
  Co  Co115  1  0.62877813  0.37457593  0.37515703  1
  Co  Co116  1  0.37787503  0.61915404  0.87485737  1
  Co  Co117  1  0.12667524  0.62572489  0.62199140  1
  Co  Co118  1  0.62336454  0.62843132  0.62413779  1
  Co  Co119  1  0.74512279  -0.00038165  0.74644409  1
  Co  Co120  1  0.37428210  0.37794975  0.62921148  1
  Co  Co121  1  0.62405044  0.87584469  0.37613536  1
  Co  Co122  1  0.37457914  0.37923720  0.37227970  1
  Co  Co123  1  -0.00004700  0.75198490  0.50265163  1
  Co  Co124  1  0.87451850  0.12175237  0.12577785  1
  Co  Co125  1  0.25054655  -0.00037497  0.74919013  1
  Co  Co126  1  0.75227963  0.24844139  -0.00166640  1
  Co  Co127  1  0.87235764  0.62723941  0.62351780  1
