# generated using pymatgen
data_Fe45Co19
_symmetry_space_group_name_H-M   'P 1'
_cell_length_a   11.41490306
_cell_length_b   11.41457777
_cell_length_c   11.41684217
_cell_angle_alpha   90.00655434
_cell_angle_beta   89.99710315
_cell_angle_gamma   90.01554907
_symmetry_Int_Tables_number   1
_chemical_formula_structural   Fe45Co19
_chemical_formula_sum   'Fe90 Co38'
_cell_volume   1487.57221104
_cell_formula_units_Z   2
loop_
 _symmetry_equiv_pos_site_id
 _symmetry_equiv_pos_as_xyz
  1  'x, y, z'
loop_
 _atom_site_type_symbol
 _atom_site_label
 _atom_site_symmetry_multiplicity
 _atom_site_fract_x
 _atom_site_fract_y
 _atom_site_fract_z
 _atom_site_occupancy
  Fe  Fe0  1  0.87667263  0.12430666  0.62337999  1
  Fe  Fe1  1  0.62676060  0.87745411  0.37355898  1
  Fe  Fe2  1  0.62353799  0.37581218  0.62378521  1
  Fe  Fe3  1  0.62462906  0.12162818  0.12798747  1
  Fe  Fe4  1  0.24428327  0.74710103  0.49888976  1
  Fe  Fe5  1  0.87624719  0.12564619  0.37637002  1
  Fe  Fe6  1  0.62774613  0.37868391  0.37686689  1
  Fe  Fe7  1  0.37192821  0.87474530  0.37849055  1
  Fe  Fe8  1  0.24755007  0.50104007  0.49947911  1
  Fe  Fe9  1  0.12621255  0.62137122  0.12908414  1
  Fe  Fe10  1  0.00360661  0.75153517  -0.00033020  1
  Fe  Fe11  1  0.49818500  0.50039116  0.25082383  1
  Fe  Fe12  1  0.12534123  0.12409417  0.87381099  1
  Fe  Fe13  1  0.00101644  0.75365565  0.75148349  1
  Fe  Fe14  1  0.37606338  0.37272479  0.62258329  1
  Fe  Fe15  1  0.75061777  0.25118613  0.50106731  1
  Fe  Fe16  1  0.24920278  0.74698818  0.24982106  1
  Fe  Fe17  1  0.62784083  0.87558764  0.87435996  1
  Fe  Fe18  1  0.87687114  0.62655759  0.62632504  1
  Fe  Fe19  1  0.62659694  0.87808774  0.12834426  1
  Fe  Fe20  1  0.12677128  0.62664368  0.87268379  1
  Fe  Fe21  1  0.00023925  0.49844267  0.50154677  1
  Fe  Fe22  1  0.00150931  0.25080173  0.50023463  1
  Fe  Fe23  1  0.75063303  0.50007510  0.74958386  1
  Fe  Fe24  1  0.12482281  0.12653712  0.12735295  1
  Fe  Fe25  1  0.24587034  0.24612652  0.50150213  1
  Fe  Fe26  1  0.37446413  0.87264732  0.12443531  1
  Fe  Fe27  1  -0.00330529  0.49434864  0.24683680  1
  Fe  Fe28  1  0.49696117  0.24910330  0.75104638  1
  Fe  Fe29  1  0.87530721  0.62125385  0.37536387  1
  Fe  Fe30  1  0.37453098  0.12472552  0.37689130  1
  Fe  Fe31  1  0.37083097  0.87247653  0.87737647  1
  Fe  Fe32  1  0.37410886  0.37609962  0.12385588  1
  Fe  Fe33  1  0.75068271  0.74948148  0.50105710  1
  Fe  Fe34  1  0.37572776  0.62851445  0.62165764  1
  Fe  Fe35  1  0.25200848  0.50106330  0.74955721  1
  Fe  Fe36  1  0.00343386  0.74867210  0.49843479  1
  Fe  Fe37  1  0.87432975  0.62710605  0.87611963  1
  Fe  Fe38  1  0.24903781  0.00050506  0.00177515  1
  Fe  Fe39  1  0.62380322  0.12554503  0.62550526  1
  Fe  Fe40  1  0.25281645  0.00095665  0.74576641  1
  Fe  Fe41  1  0.12657362  0.87482669  0.62502624  1
  Fe  Fe42  1  0.12470381  0.37459707  0.62883056  1
  Fe  Fe43  1  0.62444977  0.62535515  0.12555592  1
  Fe  Fe44  1  0.87462593  0.12330974  0.87680583  1
  Fe  Fe45  1  0.25076553  0.24973288  0.24990923  1
  Fe  Fe46  1  0.50063341  0.50154253  -0.00001326  1
  Fe  Fe47  1  0.62343791  0.62510051  0.62362973  1
  Fe  Fe48  1  0.00010039  -0.00346461  -0.00149986  1
  Fe  Fe49  1  0.49863785  -0.00028683  0.00152150  1
  Fe  Fe50  1  0.49935307  0.75029845  0.25036795  1
  Fe  Fe51  1  -0.00139481  0.25029494  0.75189883  1
  Fe  Fe52  1  -0.00097360  0.00105212  0.25110156  1
  Fe  Fe53  1  0.25235856  0.24860996  0.75159305  1
  Fe  Fe54  1  0.87496027  0.37745894  0.87876465  1
  Fe  Fe55  1  -0.00156227  -0.00304631  0.75147712  1
  Fe  Fe56  1  0.37417984  0.62904428  0.87921783  1
  Fe  Fe57  1  0.75154183  0.25109026  0.75060983  1
  Fe  Fe58  1  -0.00001985  0.49954776  0.75189513  1
  Fe  Fe59  1  0.62443900  0.12188219  0.87357523  1
  Fe  Fe60  1  0.62236460  0.37500535  0.87446224  1
  Fe  Fe61  1  0.74939448  0.75213183  0.00130994  1
  Fe  Fe62  1  0.62665561  0.37617406  0.12490403  1
  Fe  Fe63  1  0.49867197  0.00015329  0.50032574  1
  Fe  Fe64  1  0.62576358  0.12231837  0.37297267  1
  Fe  Fe65  1  0.00585498  0.00131475  0.49847558  1
  Fe  Fe66  1  0.75243280  0.75012426  0.25036115  1
  Fe  Fe67  1  0.37493276  0.37368286  0.37777704  1
  Fe  Fe68  1  0.00266227  0.25402207  0.00212680  1
  Fe  Fe69  1  0.87539230  0.87615902  0.37732358  1
  Fe  Fe70  1  0.49732580  0.75196323  0.75019477  1
  Fe  Fe71  1  0.75381909  -0.00253062  0.74760059  1
  Fe  Fe72  1  0.49829025  0.24718598  -0.00022054  1
  Fe  Fe73  1  0.62475803  0.87407409  0.62371968  1
  Fe  Fe74  1  0.49916259  0.24981612  0.25106198  1
  Fe  Fe75  1  0.87481033  0.12405983  0.12345613  1
  Fe  Fe76  1  0.24789090  0.49948312  -0.00065022  1
  Fe  Fe77  1  -0.00121761  0.74952183  0.25031762  1
  Fe  Fe78  1  0.62609655  0.62224074  0.37698087  1
  Fe  Fe79  1  0.25045534  0.25003947  -0.00220962  1
  Fe  Fe80  1  0.74794740  0.24874102  -0.00072309  1
  Fe  Fe81  1  0.49570787  -0.00206050  0.74794495  1
  Fe  Fe82  1  0.25050285  0.00082378  0.25108332  1
  Fe  Fe83  1  0.12367547  0.37465870  0.37146295  1
  Fe  Fe84  1  0.37564861  0.62575140  0.37620383  1
  Fe  Fe85  1  0.12371325  0.87506962  0.12830177  1
  Fe  Fe86  1  0.75354645  0.25165804  0.24971888  1
  Fe  Fe87  1  0.62483005  0.62818674  0.87364023  1
  Fe  Fe88  1  0.87408900  0.62172174  0.12147280  1
  Fe  Fe89  1  0.49726981  0.50160566  0.74912686  1
  Co  Co90  1  0.00535934  0.50010603  -0.00081344  1
  Co  Co91  1  0.74896771  0.00063570  0.50139503  1
  Co  Co92  1  0.25052399  0.74901274  0.74775469  1
  Co  Co93  1  0.75044491  0.50042008  0.24886935  1
  Co  Co94  1  0.12412719  0.12747007  0.36981777  1
  Co  Co95  1  0.12912400  0.37539601  0.12773694  1
  Co  Co96  1  0.24704334  0.00370010  0.50121062  1
  Co  Co97  1  0.12991559  0.87573921  0.87362893  1
  Co  Co98  1  0.87449799  0.37658861  0.37596825  1
  Co  Co99  1  0.37562022  0.62512046  0.12265100  1
  Co  Co100  1  0.12554141  0.37411552  0.87165025  1
  Co  Co101  1  0.37659699  0.37619919  0.87612057  1
  Co  Co102  1  0.37754595  0.12779340  0.62209709  1
  Co  Co103  1  0.12199203  0.62116068  0.37076182  1
  Co  Co104  1  0.75034272  -0.00032394  0.00084779  1
  Co  Co105  1  0.37444933  0.12589502  0.12590590  1
  Co  Co106  1  0.50370227  0.24899323  0.49728382  1
  Co  Co107  1  0.87212321  0.87249218  0.87650344  1
  Co  Co108  1  0.75010920  0.75147809  0.74643476  1
  Co  Co109  1  0.87803013  0.87444576  0.62052736  1
  Co  Co110  1  0.49773081  0.49972237  0.49979275  1
  Co  Co111  1  0.87668527  0.37412355  0.62657841  1
  Co  Co112  1  -0.00442873  0.25307980  0.24629297  1
  Co  Co113  1  0.87061247  0.37820525  0.11885622  1
  Co  Co114  1  0.75535623  0.00078997  0.25051733  1
  Co  Co115  1  0.12254436  0.12545922  0.62997571  1
  Co  Co116  1  0.75284114  0.50038421  0.50431580  1
  Co  Co117  1  0.25421789  0.50014853  0.25243250  1
  Co  Co118  1  0.87621694  0.87465812  0.12503829  1
  Co  Co119  1  0.24431856  0.74916826  0.00422035  1
  Co  Co120  1  0.37256831  0.87142003  0.62022566  1
  Co  Co121  1  0.50272221  0.75303276  0.00083705  1
  Co  Co122  1  0.12299592  0.62436636  0.62716440  1
  Co  Co123  1  0.49560984  -0.00072187  0.25113181  1
  Co  Co124  1  0.74571129  0.50187728  -0.00341368  1
  Co  Co125  1  0.50239253  0.75124772  0.49767824  1
  Co  Co126  1  0.37512790  0.12262624  0.87553392  1
  Co  Co127  1  0.12596796  0.87420970  0.37291625  1
