# generated using pymatgen
data_Fe45Co19
_symmetry_space_group_name_H-M   'P 1'
_cell_length_a   11.41633765
_cell_length_b   11.41524412
_cell_length_c   11.41485261
_cell_angle_alpha   90.00805589
_cell_angle_beta   89.99244495
_cell_angle_gamma   89.99856461
_symmetry_Int_Tables_number   1
_chemical_formula_structural   Fe45Co19
_chemical_formula_sum   'Fe90 Co38'
_cell_volume   1487.58677543
_cell_formula_units_Z   2
loop_
 _symmetry_equiv_pos_site_id
 _symmetry_equiv_pos_as_xyz
  1  'x, y, z'
loop_
 _atom_site_type_symbol
 _atom_site_label
 _atom_site_symmetry_multiplicity
 _atom_site_fract_x
 _atom_site_fract_y
 _atom_site_fract_z
 _atom_site_occupancy
  Fe  Fe0  1  0.88064717  0.12760537  0.62329329  1
  Fe  Fe1  1  0.87617702  0.62653480  0.12588929  1
  Fe  Fe2  1  0.12354708  0.87262960  0.12442648  1
  Fe  Fe3  1  0.50171042  0.74838634  0.49354609  1
  Fe  Fe4  1  0.00065277  0.25063966  0.25246188  1
  Fe  Fe5  1  0.75166969  0.50164041  0.50523210  1
  Fe  Fe6  1  0.12310143  0.87465865  0.62433212  1
  Fe  Fe7  1  0.12777400  0.12383551  0.87509983  1
  Fe  Fe8  1  0.24911645  0.50363266  -0.00097552  1
  Fe  Fe9  1  0.50103825  0.50263891  -0.00228969  1
  Fe  Fe10  1  0.74951947  -0.00042860  0.25006053  1
  Fe  Fe11  1  0.74919182  0.25017106  0.50224875  1
  Fe  Fe12  1  0.50059559  0.25130631  0.25236935  1
  Fe  Fe13  1  0.87528523  0.37339860  0.12585039  1
  Fe  Fe14  1  0.24928909  0.25050600  0.24869134  1
  Fe  Fe15  1  0.12359599  0.12708386  0.62352008  1
  Fe  Fe16  1  0.74772651  0.75008634  0.25344394  1
  Fe  Fe17  1  0.37788207  0.87205480  0.12780953  1
  Fe  Fe18  1  0.12755945  0.87220583  0.37613290  1
  Fe  Fe19  1  0.12601969  0.37612337  0.12427118  1
  Fe  Fe20  1  0.75210978  0.75173165  0.74624049  1
  Fe  Fe21  1  0.74763048  0.25222489  0.00100226  1
  Fe  Fe22  1  0.62512545  0.87506642  0.87465288  1
  Fe  Fe23  1  0.62372125  0.12581732  0.12691584  1
  Fe  Fe24  1  0.62436127  0.62516340  0.12618739  1
  Fe  Fe25  1  0.49907802  -0.00104096  0.75039027  1
  Fe  Fe26  1  0.87324410  0.37604801  0.37508564  1
  Fe  Fe27  1  0.25136065  0.25110423  0.74831311  1
  Fe  Fe28  1  0.62296074  0.37412927  0.87059129  1
  Fe  Fe29  1  0.37500045  0.37685597  0.12534943  1
  Fe  Fe30  1  0.74882257  -0.00191431  0.00168422  1
  Fe  Fe31  1  -0.00122192  -0.00322819  -0.00178313  1
  Fe  Fe32  1  0.74892469  0.49934148  0.00054053  1
  Fe  Fe33  1  0.62302826  0.62486752  0.62426571  1
  Fe  Fe34  1  0.87488484  0.12450974  0.37619372  1
  Fe  Fe35  1  0.00137866  0.74767108  0.25352493  1
  Fe  Fe36  1  0.49928389  0.25036897  -0.00052043  1
  Fe  Fe37  1  0.00178672  0.25081206  -0.00200873  1
  Fe  Fe38  1  -0.00047498  0.50191614  -0.00092145  1
  Fe  Fe39  1  -0.00465842  0.74820493  0.50024346  1
  Fe  Fe40  1  0.49877931  0.74895228  0.75098420  1
  Fe  Fe41  1  0.25162532  -0.00277981  0.74676527  1
  Fe  Fe42  1  0.37617730  0.12450326  0.12674760  1
  Fe  Fe43  1  0.62521747  0.87411566  0.62031266  1
  Fe  Fe44  1  0.74983275  0.75003572  0.00008480  1
  Fe  Fe45  1  0.12449499  0.62537957  0.62373052  1
  Fe  Fe46  1  0.38178276  0.37520288  0.62330176  1
  Fe  Fe47  1  -0.00117255  -0.00200051  0.75099298  1
  Fe  Fe48  1  0.37447109  0.37769323  0.37590753  1
  Fe  Fe49  1  0.00014793  0.49660136  0.74853241  1
  Fe  Fe50  1  0.87635446  0.87252375  0.12485156  1
  Fe  Fe51  1  0.87472318  0.62572490  0.87326803  1
  Fe  Fe52  1  0.62037950  0.87455832  0.12701542  1
  Fe  Fe53  1  0.87492593  0.12642975  0.12634340  1
  Fe  Fe54  1  0.00255571  0.50256224  0.25125344  1
  Fe  Fe55  1  0.24722699  0.74708721  -0.00104029  1
  Fe  Fe56  1  0.62527568  0.62595430  0.87349119  1
  Fe  Fe57  1  0.37207821  0.12385965  0.37392284  1
  Fe  Fe58  1  0.49936388  0.50415215  0.25378345  1
  Fe  Fe59  1  0.12801573  0.37564570  0.87407414  1
  Fe  Fe60  1  0.37669710  0.62755348  0.12577035  1
  Fe  Fe61  1  0.12708727  0.37709914  0.37640230  1
  Fe  Fe62  1  0.37391877  0.12383777  0.87584571  1
  Fe  Fe63  1  0.24789824  0.50608501  0.25130842  1
  Fe  Fe64  1  0.12442557  0.12494274  0.12492046  1
  Fe  Fe65  1  0.25040037  -0.00368885  0.50106990  1
  Fe  Fe66  1  0.37331206  0.87267644  0.37149272  1
  Fe  Fe67  1  0.25267010  0.50092148  0.74596103  1
  Fe  Fe68  1  0.25163175  -0.00133181  0.00305121  1
  Fe  Fe69  1  0.74888506  0.49768383  0.74629740  1
  Fe  Fe70  1  0.62493046  0.12456675  0.87401436  1
  Fe  Fe71  1  0.37521836  0.87368562  0.87600781  1
  Fe  Fe72  1  0.37530227  0.37669733  0.87473699  1
  Fe  Fe73  1  0.62554938  0.37689671  0.37677496  1
  Fe  Fe74  1  0.87293858  0.12475763  0.87502118  1
  Fe  Fe75  1  0.37637232  0.62575915  0.62047727  1
  Fe  Fe76  1  0.62608642  0.12428354  0.37390776  1
  Fe  Fe77  1  0.62005155  0.12857529  0.62562762  1
  Fe  Fe78  1  0.49946428  -0.00025736  0.49663232  1
  Fe  Fe79  1  0.87013592  0.87641549  0.38070080  1
  Fe  Fe80  1  -0.00094797  0.49919187  0.50138466  1
  Fe  Fe81  1  0.00077791  -0.00151731  0.25313049  1
  Fe  Fe82  1  0.87344920  0.37356935  0.87299871  1
  Fe  Fe83  1  0.37641880  0.12456108  0.62334894  1
  Fe  Fe84  1  0.25119404  0.75006261  0.74801791  1
  Fe  Fe85  1  -0.00176418  0.75372218  0.75256821  1
  Fe  Fe86  1  0.75078609  0.00017722  0.74543551  1
  Fe  Fe87  1  0.12734996  0.12459286  0.37635080  1
  Fe  Fe88  1  0.25077336  0.25279529  0.50123601  1
  Fe  Fe89  1  0.74944531  0.49864934  0.24760734  1
  Co  Co90  1  0.62164848  0.37635219  0.12638864  1
  Co  Co91  1  0.24725091  0.74599203  0.24810782  1
  Co  Co92  1  0.25151275  0.75363500  0.50325329  1
  Co  Co93  1  0.12758571  0.62597828  0.38219986  1
  Co  Co94  1  0.00136056  0.24988600  0.75391277  1
  Co  Co95  1  0.87786795  0.62467751  0.62924523  1
  Co  Co96  1  0.50082607  0.50281313  0.49790632  1
  Co  Co97  1  0.36905428  0.62637921  0.37831796  1
  Co  Co98  1  0.37418378  0.62629243  0.87460133  1
  Co  Co99  1  0.62082133  0.37364755  0.62507128  1
  Co  Co100  1  0.12897841  0.87630043  0.87451953  1
  Co  Co101  1  0.87074497  0.87544121  0.87478102  1
  Co  Co102  1  0.12331614  0.37294696  0.62529484  1
  Co  Co103  1  0.00118626  0.25318257  0.49597342  1
  Co  Co104  1  0.63000314  0.87697340  0.37937270  1
  Co  Co105  1  0.49953324  0.24922506  0.49578715  1
  Co  Co106  1  0.74836588  0.00586632  0.50496930  1
  Co  Co107  1  0.24993499  0.49728235  0.50366200  1
  Co  Co108  1  0.63014271  0.62139071  0.37518773  1
  Co  Co109  1  0.12174551  0.62537705  0.12302464  1
  Co  Co110  1  0.74921805  0.25116008  0.25082104  1
  Co  Co111  1  0.49921114  0.50326319  0.74971814  1
  Co  Co112  1  0.00038426  0.74977703  -0.00461230  1
  Co  Co113  1  0.24841071  -0.00161955  0.24830491  1
  Co  Co114  1  0.87380901  0.87721198  0.62127606  1
  Co  Co115  1  0.38016295  0.87416342  0.62351027  1
  Co  Co116  1  0.12430290  0.62366346  0.87040793  1
  Co  Co117  1  0.49682615  0.24900163  0.75221898  1
  Co  Co118  1  0.50136909  0.74855206  -0.00116400  1
  Co  Co119  1  0.75051892  0.24901004  0.74730180  1
  Co  Co120  1  0.87620256  0.37095051  0.62528880  1
  Co  Co121  1  0.00273872  -0.00168496  0.49811874  1
  Co  Co122  1  0.25069552  0.25035261  0.00108797  1
  Co  Co123  1  0.50270516  0.74747661  0.25584791  1
  Co  Co124  1  0.75225203  0.74414605  0.50149190  1
  Co  Co125  1  0.49981139  -0.00036036  -0.00021852  1
  Co  Co126  1  0.50046279  -0.00052462  0.25286962  1
  Co  Co127  1  0.87369593  0.62229692  0.37237056  1
