# generated using pymatgen
data_Fe45Co19
_symmetry_space_group_name_H-M   'P 1'
_cell_length_a   11.41502369
_cell_length_b   11.41541510
_cell_length_c   11.41563336
_cell_angle_alpha   90.00218109
_cell_angle_beta   90.01458870
_cell_angle_gamma   90.00416338
_symmetry_Int_Tables_number   1
_chemical_formula_structural   Fe45Co19
_chemical_formula_sum   'Fe90 Co38'
_cell_volume   1487.53955214
_cell_formula_units_Z   2
loop_
 _symmetry_equiv_pos_site_id
 _symmetry_equiv_pos_as_xyz
  1  'x, y, z'
loop_
 _atom_site_type_symbol
 _atom_site_label
 _atom_site_symmetry_multiplicity
 _atom_site_fract_x
 _atom_site_fract_y
 _atom_site_fract_z
 _atom_site_occupancy
  Fe  Fe0  1  0.12598414  0.37717566  0.87383491  1
  Fe  Fe1  1  0.87457610  0.87576054  0.37638323  1
  Fe  Fe2  1  -0.00171540  0.50178510  0.25050616  1
  Fe  Fe3  1  -0.00115233  0.49795171  0.74772097  1
  Fe  Fe4  1  0.24821325  0.50229353  -0.00026359  1
  Fe  Fe5  1  0.37487919  0.37275944  0.87858141  1
  Fe  Fe6  1  0.74985308  0.49836007  0.50364040  1
  Fe  Fe7  1  0.24694363  0.49769463  0.49767612  1
  Fe  Fe8  1  0.62575761  0.87598684  0.87258945  1
  Fe  Fe9  1  0.25291116  -0.00105934  0.24894297  1
  Fe  Fe10  1  0.50326606  0.49833893  0.75075136  1
  Fe  Fe11  1  0.62477132  0.87560054  0.62586812  1
  Fe  Fe12  1  0.87277892  0.37579302  0.87625387  1
  Fe  Fe13  1  0.50028021  0.24921648  0.24920080  1
  Fe  Fe14  1  0.25062754  0.24994572  0.24810274  1
  Fe  Fe15  1  0.75000971  0.25010728  0.49931819  1
  Fe  Fe16  1  0.25216805  0.50086335  0.74997731  1
  Fe  Fe17  1  0.75203929  0.24776301  0.24754205  1
  Fe  Fe18  1  0.62688598  0.37571229  0.37414809  1
  Fe  Fe19  1  0.12668453  0.12324973  0.87394413  1
  Fe  Fe20  1  0.74693313  0.50091096  0.74630777  1
  Fe  Fe21  1  0.74926567  0.24792751  0.00388290  1
  Fe  Fe22  1  0.00053921  0.74857265  0.25089864  1
  Fe  Fe23  1  0.62298815  0.12583831  0.62462663  1
  Fe  Fe24  1  0.87650654  0.12464837  0.37543435  1
  Fe  Fe25  1  0.74971143  0.74872403  0.25283814  1
  Fe  Fe26  1  0.37735193  0.62612634  0.87534009  1
  Fe  Fe27  1  0.37368099  0.87548932  0.87454710  1
  Fe  Fe28  1  0.24979281  0.00160852  0.50145245  1
  Fe  Fe29  1  0.00139761  0.25229213  0.00039575  1
  Fe  Fe30  1  0.37875743  0.62364690  0.62246495  1
  Fe  Fe31  1  -0.00067830  0.75066907  0.50158021  1
  Fe  Fe32  1  0.00057281  0.25662785  0.50004820  1
  Fe  Fe33  1  0.49731716  0.00354830  0.74961461  1
  Fe  Fe34  1  -0.00264320  0.25191767  0.24924633  1
  Fe  Fe35  1  0.62210508  0.62860797  0.12494496  1
  Fe  Fe36  1  0.37629273  0.62547964  0.37843280  1
  Fe  Fe37  1  0.24901786  0.74969291  0.75001184  1
  Fe  Fe38  1  0.12489112  0.12577222  0.62508490  1
  Fe  Fe39  1  0.75003035  0.50178767  0.00179129  1
  Fe  Fe40  1  0.37488347  0.37482343  0.12345865  1
  Fe  Fe41  1  0.12668092  0.87478333  0.37575837  1
  Fe  Fe42  1  -0.00088693  0.25117353  0.75011103  1
  Fe  Fe43  1  0.62400957  0.11884637  0.36977785  1
  Fe  Fe44  1  0.12472281  0.87690719  0.62549913  1
  Fe  Fe45  1  0.87415658  0.62407767  0.87442768  1
  Fe  Fe46  1  0.37633449  0.37370985  0.62351064  1
  Fe  Fe47  1  0.37601117  0.12779388  0.12080872  1
  Fe  Fe48  1  0.49916739  0.50136124  0.25103311  1
  Fe  Fe49  1  0.74966470  -0.00085395  0.50049578  1
  Fe  Fe50  1  0.12339549  0.12432846  0.12604135  1
  Fe  Fe51  1  0.87605890  0.87233573  0.12503995  1
  Fe  Fe52  1  0.12601718  0.87303474  0.12505047  1
  Fe  Fe53  1  0.37596163  0.87669343  0.62437370  1
  Fe  Fe54  1  0.87361916  0.87581195  0.87408791  1
  Fe  Fe55  1  0.74934865  0.75140836  0.50155057  1
  Fe  Fe56  1  0.00029913  -0.00111367  0.00002241  1
  Fe  Fe57  1  0.37721073  0.62832859  0.12281753  1
  Fe  Fe58  1  0.74952003  -0.00003184  0.00396877  1
  Fe  Fe59  1  0.62238572  0.87487562  0.13133552  1
  Fe  Fe60  1  0.12560479  0.37895021  0.12715151  1
  Fe  Fe61  1  0.74993332  0.50272108  0.24870162  1
  Fe  Fe62  1  0.12390220  0.12594027  0.37454829  1
  Fe  Fe63  1  -0.00055031  0.75146732  0.74977175  1
  Fe  Fe64  1  0.50165358  0.25018420  0.49726588  1
  Fe  Fe65  1  0.62190495  0.62576377  0.37914654  1
  Fe  Fe66  1  0.87605480  0.12425590  0.62399233  1
  Fe  Fe67  1  0.75032292  0.74787372  0.74723783  1
  Fe  Fe68  1  0.25297263  0.24723754  0.75153994  1
  Fe  Fe69  1  0.37505485  0.12382203  0.37671861  1
  Fe  Fe70  1  0.74775728  0.75012318  0.00012154  1
  Fe  Fe71  1  0.49914175  0.25009230  0.75302161  1
  Fe  Fe72  1  -0.00134920  -0.00151967  0.25086050  1
  Fe  Fe73  1  -0.00080632  -0.00117146  0.74956407  1
  Fe  Fe74  1  0.62413869  0.12485916  0.87717917  1
  Fe  Fe75  1  0.24658294  0.74789001  -0.00332959  1
  Fe  Fe76  1  0.87675758  0.62261980  0.37890119  1
  Fe  Fe77  1  0.37425019  0.37458975  0.37353753  1
  Fe  Fe78  1  0.50127951  0.74804100  0.75028060  1
  Fe  Fe79  1  0.24796110  0.25199076  0.49928198  1
  Fe  Fe80  1  0.25236075  0.74887337  0.25130571  1
  Fe  Fe81  1  0.87412378  0.12350720  0.87653235  1
  Fe  Fe82  1  0.12344251  0.62266215  0.62415086  1
  Fe  Fe83  1  0.24942681  -0.00054859  -0.00022321  1
  Fe  Fe84  1  0.00234434  0.74623699  -0.00183725  1
  Fe  Fe85  1  0.50291841  0.49986586  -0.00190499  1
  Fe  Fe86  1  0.62511976  0.37463100  0.12566030  1
  Fe  Fe87  1  0.74934037  0.24870411  0.74985097  1
  Fe  Fe88  1  0.49975125  -0.00212009  0.00222275  1
  Fe  Fe89  1  0.24995116  0.74921300  0.50138318  1
  Co  Co90  1  0.24481170  0.25117824  0.00041820  1
  Co  Co91  1  0.12864574  0.37423549  0.62910613  1
  Co  Co92  1  0.00022652  0.50181399  0.00041999  1
  Co  Co93  1  0.62864570  0.37416892  0.87567997  1
  Co  Co94  1  0.87452747  0.37664550  0.12489397  1
  Co  Co95  1  0.12585621  0.87617200  0.87384083  1
  Co  Co96  1  0.62380454  0.37230904  0.62465822  1
  Co  Co97  1  0.12575418  0.62458326  0.12741153  1
  Co  Co98  1  0.75602323  -0.00043808  0.24815807  1
  Co  Co99  1  0.37388122  0.86973561  0.12152994  1
  Co  Co100  1  0.62107596  0.62513801  0.62204321  1
  Co  Co101  1  0.62643271  0.62535193  0.87471214  1
  Co  Co102  1  0.12370956  0.62304278  0.87062702  1
  Co  Co103  1  0.50382246  0.25117801  0.00035003  1
  Co  Co104  1  0.25411535  0.50323272  0.25088158  1
  Co  Co105  1  0.87751754  0.62338024  0.62355850  1
  Co  Co106  1  0.87223257  0.37386943  0.62616782  1
  Co  Co107  1  0.12611455  0.37526849  0.36901387  1
  Co  Co108  1  0.12398689  0.62581852  0.37605170  1
  Co  Co109  1  0.50322218  0.75219073  -0.00327553  1
  Co  Co110  1  0.00028655  -0.00061709  0.49967698  1
  Co  Co111  1  0.87471182  0.62737664  0.12491504  1
  Co  Co112  1  0.00326432  0.49382530  0.50030946  1
  Co  Co113  1  0.49720428  0.75076900  0.25470316  1
  Co  Co114  1  0.87803158  0.12470139  0.12393355  1
  Co  Co115  1  0.50104025  0.75447919  0.49871717  1
  Co  Co116  1  0.37460882  0.12551905  0.88040581  1
  Co  Co117  1  0.49156219  -0.00205028  0.24856575  1
  Co  Co118  1  0.74955148  0.00255400  0.74919445  1
  Co  Co119  1  0.62259990  0.12170680  0.12864030  1
  Co  Co120  1  0.62513412  0.87861148  0.37124968  1
  Co  Co121  1  0.37587735  0.12719087  0.62201661  1
  Co  Co122  1  0.37297642  0.87603725  0.37879710  1
  Co  Co123  1  0.25174514  0.00143014  0.74869921  1
  Co  Co124  1  0.50140426  -0.00083326  0.50030515  1
  Co  Co125  1  0.87415168  0.87740260  0.62587828  1
  Co  Co126  1  0.87204314  0.37675031  0.37369663  1
  Co  Co127  1  0.49990068  0.49603514  0.49858321  1
