# generated using pymatgen
data_Fe45Co19
_symmetry_space_group_name_H-M   'P 1'
_cell_length_a   11.41573353
_cell_length_b   11.41727022
_cell_length_c   11.41546331
_cell_angle_alpha   90.00121651
_cell_angle_beta   89.98542585
_cell_angle_gamma   89.99825803
_symmetry_Int_Tables_number   1
_chemical_formula_structural   Fe45Co19
_chemical_formula_sum   'Fe90 Co38'
_cell_volume   1487.85164989
_cell_formula_units_Z   2
loop_
 _symmetry_equiv_pos_site_id
 _symmetry_equiv_pos_as_xyz
  1  'x, y, z'
loop_
 _atom_site_type_symbol
 _atom_site_label
 _atom_site_symmetry_multiplicity
 _atom_site_fract_x
 _atom_site_fract_y
 _atom_site_fract_z
 _atom_site_occupancy
  Fe  Fe0  1  0.62764819  0.12321066  0.12119898  1
  Fe  Fe1  1  0.50073294  0.24977414  0.74956545  1
  Fe  Fe2  1  0.24854742  0.25227853  0.24937858  1
  Fe  Fe3  1  0.87091481  0.12597847  0.87801109  1
  Fe  Fe4  1  0.62350840  0.37352218  0.37471046  1
  Fe  Fe5  1  0.87050523  0.62611280  0.62550287  1
  Fe  Fe6  1  0.37244800  0.12327650  0.12069088  1
  Fe  Fe7  1  0.87508156  0.37691098  0.62337638  1
  Fe  Fe8  1  0.74833997  0.49973157  0.49908078  1
  Fe  Fe9  1  -0.00013431  0.74852157  0.00001871  1
  Fe  Fe10  1  0.24738686  0.49756761  0.00024329  1
  Fe  Fe11  1  0.75009220  0.24936356  0.49972536  1
  Fe  Fe12  1  0.50422712  0.50251083  0.00156124  1
  Fe  Fe13  1  0.12550798  0.12498605  0.62402052  1
  Fe  Fe14  1  -0.00326432  0.50261202  0.25539297  1
  Fe  Fe15  1  0.37460270  0.12611889  0.62345816  1
  Fe  Fe16  1  0.50078362  0.74933462  0.49777618  1
  Fe  Fe17  1  0.50042223  0.74564293  0.00492653  1
  Fe  Fe18  1  0.37573167  0.37585363  0.87643624  1
  Fe  Fe19  1  0.25342698  0.75195790  0.24705375  1
  Fe  Fe20  1  0.37292388  0.62424989  0.87574180  1
  Fe  Fe21  1  0.38051081  0.87692567  0.37183203  1
  Fe  Fe22  1  0.37592776  0.12483182  0.37647861  1
  Fe  Fe23  1  0.12745945  0.62737179  0.87246321  1
  Fe  Fe24  1  0.74973725  -0.00261499  0.25109550  1
  Fe  Fe25  1  0.87044532  0.62712117  0.87265784  1
  Fe  Fe26  1  0.12911438  0.62325172  0.62664022  1
  Fe  Fe27  1  -0.00105352  0.24933341  0.74889316  1
  Fe  Fe28  1  0.62402285  0.12353788  0.37662814  1
  Fe  Fe29  1  0.50214699  0.50083235  0.49988778  1
  Fe  Fe30  1  0.74753496  0.75297416  0.49951131  1
  Fe  Fe31  1  0.87615257  0.12192642  0.62239934  1
  Fe  Fe32  1  0.87516947  0.37703233  0.12695175  1
  Fe  Fe33  1  0.62829982  0.62799802  0.37080778  1
  Fe  Fe34  1  0.12332309  0.37451116  0.87427841  1
  Fe  Fe35  1  0.50049437  0.00193336  0.75256375  1
  Fe  Fe36  1  0.25069814  -0.00199672  0.24717439  1
  Fe  Fe37  1  -0.00028166  0.25015820  0.25229238  1
  Fe  Fe38  1  0.50155203  0.24933366  -0.00038898  1
  Fe  Fe39  1  0.87710175  0.87548773  0.37752117  1
  Fe  Fe40  1  0.00001902  0.24853600  0.49900858  1
  Fe  Fe41  1  0.24975352  -0.00222755  0.75132549  1
  Fe  Fe42  1  0.86804532  0.62404760  0.12698320  1
  Fe  Fe43  1  0.24838384  0.75468984  0.00360191  1
  Fe  Fe44  1  0.24993432  0.49813298  0.25006005  1
  Fe  Fe45  1  0.12406086  0.87272949  0.37304661  1
  Fe  Fe46  1  0.62086013  0.87391342  0.12685914  1
  Fe  Fe47  1  0.62914207  0.62644974  0.87464790  1
  Fe  Fe48  1  0.62666245  0.37693387  0.12547875  1
  Fe  Fe49  1  0.37542500  0.87462176  0.87761333  1
  Fe  Fe50  1  0.62349061  0.12561602  0.62494282  1
  Fe  Fe51  1  0.75121768  0.25003981  0.25114253  1
  Fe  Fe52  1  0.37591249  0.37611933  0.12393825  1
  Fe  Fe53  1  0.74916076  0.00003588  0.75175804  1
  Fe  Fe54  1  0.12565302  0.62424718  0.12770092  1
  Fe  Fe55  1  -0.00064698  0.25158957  0.00217429  1
  Fe  Fe56  1  0.25013137  -0.00190813  0.50002946  1
  Fe  Fe57  1  0.87619746  0.87270034  0.87345207  1
  Fe  Fe58  1  0.12320108  0.37862830  0.37919537  1
  Fe  Fe59  1  0.12505994  0.12328098  0.37622346  1
  Fe  Fe60  1  0.37606468  0.62417544  0.62658273  1
  Fe  Fe61  1  0.50113565  0.50397974  0.24739364  1
  Fe  Fe62  1  0.37649710  0.37435642  0.37558211  1
  Fe  Fe63  1  0.62222770  0.87510276  0.62479728  1
  Fe  Fe64  1  0.37491486  0.37523775  0.62237018  1
  Fe  Fe65  1  0.37360522  0.62410938  0.37357519  1
  Fe  Fe66  1  0.87399135  0.12410002  0.12467373  1
  Fe  Fe67  1  -0.00088206  0.00107525  0.25211229  1
  Fe  Fe68  1  0.50066882  0.74878004  0.75052587  1
  Fe  Fe69  1  0.00138023  0.74619498  0.49984900  1
  Fe  Fe70  1  -0.00326634  0.74646347  0.25213001  1
  Fe  Fe71  1  0.25143835  0.75000544  0.49932159  1
  Fe  Fe72  1  -0.00011886  0.50123998  0.74874640  1
  Fe  Fe73  1  0.87214287  0.37393137  0.87317681  1
  Fe  Fe74  1  0.12408785  0.87314856  0.62768353  1
  Fe  Fe75  1  -0.00168750  0.50161898  -0.00081755  1
  Fe  Fe76  1  0.12590962  0.12504899  0.12363859  1
  Fe  Fe77  1  0.00254014  -0.00133033  -0.00156171  1
  Fe  Fe78  1  0.37756452  0.87420811  0.62518120  1
  Fe  Fe79  1  0.62968448  0.37161473  0.87246530  1
  Fe  Fe80  1  0.62471115  0.87393964  0.87654944  1
  Fe  Fe81  1  0.24931604  0.25337302  0.74894429  1
  Fe  Fe82  1  0.74855799  -0.00199130  0.49847390  1
  Fe  Fe83  1  0.87680852  0.87481383  0.62564610  1
  Fe  Fe84  1  0.12761926  0.12608767  0.87757713  1
  Fe  Fe85  1  0.37229571  0.12468945  0.87865055  1
  Fe  Fe86  1  0.50328446  0.50003942  0.74895414  1
  Fe  Fe87  1  0.00058796  0.00063854  0.75130839  1
  Fe  Fe88  1  0.50018389  0.24732068  0.24853603  1
  Fe  Fe89  1  0.87743677  0.87563612  0.12411128  1
  Co  Co90  1  0.75001146  0.49864136  -0.00200521  1
  Co  Co91  1  0.25334596  0.75077629  0.74949097  1
  Co  Co92  1  0.62479313  0.62674306  0.62435372  1
  Co  Co93  1  0.87602980  0.37426042  0.37795826  1
  Co  Co94  1  0.63282535  0.62516817  0.12826474  1
  Co  Co95  1  0.75139615  0.25303744  0.00386254  1
  Co  Co96  1  -0.00120282  0.74638192  0.74771009  1
  Co  Co97  1  0.11968795  0.87366340  0.12896585  1
  Co  Co98  1  0.50221820  0.00249017  -0.00248243  1
  Co  Co99  1  0.75089944  0.75232229  0.00169139  1
  Co  Co100  1  0.24623557  -0.00662328  0.00107606  1
  Co  Co101  1  0.49781585  0.74422306  0.24691846  1
  Co  Co102  1  0.61941601  0.87522111  0.37248631  1
  Co  Co103  1  0.12097051  0.37801354  0.12677780  1
  Co  Co104  1  0.62610284  0.37370532  0.62474614  1
  Co  Co105  1  0.74830835  0.50085181  0.74879789  1
  Co  Co106  1  0.25066527  0.49694270  0.75005525  1
  Co  Co107  1  0.12875194  0.62537612  0.37274230  1
  Co  Co108  1  0.87441193  0.12345331  0.37597580  1
  Co  Co109  1  0.62899414  0.12863600  0.87570001  1
  Co  Co110  1  0.38124515  0.87797477  0.12448939  1
  Co  Co111  1  -0.00149246  0.50676005  0.49969359  1
  Co  Co112  1  0.24859477  0.25482272  0.00174201  1
  Co  Co113  1  0.74793473  0.75260714  0.74880112  1
  Co  Co114  1  0.75167348  0.75708597  0.25030194  1
  Co  Co115  1  0.86888632  0.62700828  0.37589178  1
  Co  Co116  1  0.00279512  -0.00186181  0.49937517  1
  Co  Co117  1  0.75259927  0.24753087  0.74555183  1
  Co  Co118  1  0.24920118  0.25027826  0.49857091  1
  Co  Co119  1  0.25202156  0.50115829  0.50053384  1
  Co  Co120  1  0.12265701  0.87139237  0.87134176  1
  Co  Co121  1  0.49908791  0.00082434  0.50103747  1
  Co  Co122  1  0.74980914  -0.00418895  0.00018780  1
  Co  Co123  1  0.49993015  0.25020235  0.49988026  1
  Co  Co124  1  0.12292250  0.37618350  0.62217296  1
  Co  Co125  1  0.37083241  0.62194473  0.12282472  1
  Co  Co126  1  0.75061420  0.49642865  0.25323479  1
  Co  Co127  1  0.50085720  0.00531519  0.24836511  1
