# generated using pymatgen
data_Fe45Co19
_symmetry_space_group_name_H-M   'P 1'
_cell_length_a   11.41506832
_cell_length_b   11.41506309
_cell_length_c   11.41561614
_cell_angle_alpha   89.99465275
_cell_angle_beta   90.00303140
_cell_angle_gamma   90.00803689
_symmetry_Int_Tables_number   1
_chemical_formula_structural   Fe45Co19
_chemical_formula_sum   'Fe90 Co38'
_cell_volume   1487.49728372
_cell_formula_units_Z   2
loop_
 _symmetry_equiv_pos_site_id
 _symmetry_equiv_pos_as_xyz
  1  'x, y, z'
loop_
 _atom_site_type_symbol
 _atom_site_label
 _atom_site_symmetry_multiplicity
 _atom_site_fract_x
 _atom_site_fract_y
 _atom_site_fract_z
 _atom_site_occupancy
  Fe  Fe0  1  0.75242355  0.00288208  -0.00292330  1
  Fe  Fe1  1  -0.00125362  0.74864389  0.50126821  1
  Fe  Fe2  1  -0.00197301  0.24899261  -0.00317106  1
  Fe  Fe3  1  0.87082198  0.37641217  0.87656844  1
  Fe  Fe4  1  -0.00300367  0.49859394  0.50340903  1
  Fe  Fe5  1  0.62236039  0.87650500  0.87559767  1
  Fe  Fe6  1  0.12825984  0.12503261  0.62693353  1
  Fe  Fe7  1  0.24986654  0.50212208  -0.00101597  1
  Fe  Fe8  1  0.62075657  0.87801016  0.37800029  1
  Fe  Fe9  1  0.87321254  0.37653960  0.37503129  1
  Fe  Fe10  1  0.62705636  0.37458743  0.37654446  1
  Fe  Fe11  1  0.25161093  -0.00050284  0.49958659  1
  Fe  Fe12  1  0.12353645  0.37612424  0.37673892  1
  Fe  Fe13  1  0.62261708  0.12606039  0.87571132  1
  Fe  Fe14  1  0.50024436  0.49958988  0.75004359  1
  Fe  Fe15  1  0.62696879  0.62450735  0.62621624  1
  Fe  Fe16  1  0.87408780  0.12457716  0.62794339  1
  Fe  Fe17  1  0.24965567  0.75192976  0.75156834  1
  Fe  Fe18  1  0.62517719  0.62533644  0.12628131  1
  Fe  Fe19  1  0.74927432  0.74995598  0.49923834  1
  Fe  Fe20  1  0.37515276  0.37412076  0.87454440  1
  Fe  Fe21  1  0.87417336  0.87582634  0.62366951  1
  Fe  Fe22  1  0.50266105  0.50222756  0.49950885  1
  Fe  Fe23  1  0.00060861  0.24942327  0.50146183  1
  Fe  Fe24  1  0.50017275  0.74991376  0.00101270  1
  Fe  Fe25  1  0.37506623  0.62685953  0.87511378  1
  Fe  Fe26  1  -0.00144571  0.50224980  -0.00310997  1
  Fe  Fe27  1  0.12796513  0.37803869  0.87204043  1
  Fe  Fe28  1  -0.00142482  0.75131567  0.25022498  1
  Fe  Fe29  1  0.24864206  0.74835862  0.50018419  1
  Fe  Fe30  1  0.50333391  0.49908610  0.25046843  1
  Fe  Fe31  1  0.37623486  0.62670836  0.62548921  1
  Fe  Fe32  1  0.50310758  0.24415384  0.50276516  1
  Fe  Fe33  1  0.49370834  0.00046618  0.74695534  1
  Fe  Fe34  1  -0.00079585  0.00139700  0.50018760  1
  Fe  Fe35  1  0.87473439  0.62480619  0.63098991  1
  Fe  Fe36  1  0.75050197  -0.00086794  0.75135909  1
  Fe  Fe37  1  0.62560870  0.37501883  0.62511041  1
  Fe  Fe38  1  0.12303221  0.87496994  0.37523652  1
  Fe  Fe39  1  0.87571672  0.87463509  0.87636600  1
  Fe  Fe40  1  0.74899008  0.75365021  0.25124033  1
  Fe  Fe41  1  0.87395483  0.12389737  0.37529556  1
  Fe  Fe42  1  0.37760632  0.37349025  0.37608489  1
  Fe  Fe43  1  0.49752543  0.24862285  0.74871844  1
  Fe  Fe44  1  0.25043702  0.75075228  0.25013271  1
  Fe  Fe45  1  0.62670352  0.62446638  0.87468254  1
  Fe  Fe46  1  0.12350439  0.12437635  0.12396400  1
  Fe  Fe47  1  0.37809832  0.62678689  0.37369081  1
  Fe  Fe48  1  0.12355391  0.62381510  0.37482570  1
  Fe  Fe49  1  -0.00071120  0.74822899  -0.00168889  1
  Fe  Fe50  1  0.74906959  0.75250426  0.75085466  1
  Fe  Fe51  1  0.12800782  0.12335772  0.87264109  1
  Fe  Fe52  1  0.74858240  0.24627032  0.50162416  1
  Fe  Fe53  1  0.62581046  0.37394540  0.87773270  1
  Fe  Fe54  1  0.24844687  0.25210397  0.50083632  1
  Fe  Fe55  1  0.25156302  0.49959824  0.50230069  1
  Fe  Fe56  1  0.12265921  0.37512151  0.12437277  1
  Fe  Fe57  1  0.37559709  0.62460964  0.12646666  1
  Fe  Fe58  1  0.74971499  0.25012418  0.75152510  1
  Fe  Fe59  1  0.12631833  0.87474780  0.62402121  1
  Fe  Fe60  1  0.50366816  0.24810271  0.24771436  1
  Fe  Fe61  1  0.49997304  0.75230349  0.74936001  1
  Fe  Fe62  1  0.49648769  0.00274973  -0.00055836  1
  Fe  Fe63  1  -0.00119205  -0.00119399  0.25071467  1
  Fe  Fe64  1  0.37975321  0.87434030  0.37811603  1
  Fe  Fe65  1  0.50009926  0.49962029  -0.00029184  1
  Fe  Fe66  1  0.62718829  0.37265561  0.11945028  1
  Fe  Fe67  1  0.12498742  0.62422822  0.12557326  1
  Fe  Fe68  1  0.12245806  0.62201953  0.63117773  1
  Fe  Fe69  1  0.25080168  0.00034048  0.25029832  1
  Fe  Fe70  1  0.87236978  0.62260731  0.37279832  1
  Fe  Fe71  1  0.12455059  0.87637936  0.12280869  1
  Fe  Fe72  1  0.12751733  0.87605529  0.87917903  1
  Fe  Fe73  1  0.62375031  0.87788908  0.62329199  1
  Fe  Fe74  1  0.24892681  0.49876749  0.25138835  1
  Fe  Fe75  1  0.00124326  -0.00270146  0.75053876  1
  Fe  Fe76  1  0.62502025  0.87796501  0.12309151  1
  Fe  Fe77  1  0.37460602  0.87396284  0.12313865  1
  Fe  Fe78  1  0.75062607  0.74919084  -0.00120540  1
  Fe  Fe79  1  0.37543295  0.12715273  0.12497175  1
  Fe  Fe80  1  0.87384613  0.62275054  0.12700598  1
  Fe  Fe81  1  0.00025492  0.25309365  0.74937440  1
  Fe  Fe82  1  0.87595571  0.12418992  0.12326713  1
  Fe  Fe83  1  0.37460435  0.37493092  0.12578636  1
  Fe  Fe84  1  0.00019128  0.25051104  0.25153990  1
  Fe  Fe85  1  0.75006752  0.25021088  0.24610223  1
  Fe  Fe86  1  0.24754718  0.25027917  0.25110945  1
  Fe  Fe87  1  0.37628443  0.12581283  0.37503957  1
  Fe  Fe88  1  0.25033272  0.24942647  -0.00089622  1
  Fe  Fe89  1  0.75033315  -0.00129772  0.25061989  1
  Co  Co90  1  0.25237368  0.00296460  0.00118899  1
  Co  Co91  1  0.12516801  0.12359974  0.37561383  1
  Co  Co92  1  0.25481189  0.49929420  0.74827389  1
  Co  Co93  1  0.62803994  0.12332557  0.63007816  1
  Co  Co94  1  0.12572352  0.37713850  0.62633424  1
  Co  Co95  1  0.37845225  0.37417467  0.62270210  1
  Co  Co96  1  0.25302370  -0.00416581  0.75054507  1
  Co  Co97  1  0.62552244  0.12289819  0.37204992  1
  Co  Co98  1  0.24909926  0.74703360  0.00024977  1
  Co  Co99  1  0.00079090  0.75535664  0.75186092  1
  Co  Co100  1  0.74708893  0.49619887  0.24768001  1
  Co  Co101  1  0.49963549  0.00566082  0.50444416  1
  Co  Co102  1  0.62644858  0.62575699  0.37261732  1
  Co  Co103  1  -0.00144401  0.00109978  -0.00195745  1
  Co  Co104  1  0.25096778  0.25328914  0.74903927  1
  Co  Co105  1  0.74900606  0.00186733  0.50004154  1
  Co  Co106  1  0.87426488  0.87547821  0.12214046  1
  Co  Co107  1  0.12429012  0.62337842  0.86986012  1
  Co  Co108  1  0.37520231  0.87228063  0.62182397  1
  Co  Co109  1  0.50129364  0.75200868  0.24845497  1
  Co  Co110  1  0.75326843  0.24646869  -0.00059440  1
  Co  Co111  1  0.00121083  0.49863771  0.25091962  1
  Co  Co112  1  0.36923193  0.12698270  0.62522762  1
  Co  Co113  1  0.87386853  0.62623285  0.87056545  1
  Co  Co114  1  0.49887897  0.00138837  0.24836284  1
  Co  Co115  1  0.49769035  0.24930004  0.00017345  1
  Co  Co116  1  0.75045609  0.50217084  0.00014134  1
  Co  Co117  1  0.87671392  0.12391161  0.87058678  1
  Co  Co118  1  0.87630126  0.87523462  0.37787285  1
  Co  Co119  1  0.87163775  0.37254150  0.62431292  1
  Co  Co120  1  0.87790749  0.37586516  0.12322528  1
  Co  Co121  1  0.37492750  0.87302863  0.87752556  1
  Co  Co122  1  0.62622924  0.12301332  0.12173990  1
  Co  Co123  1  0.74996543  0.50160092  0.50191654  1
  Co  Co124  1  0.74861074  0.49818953  0.75002755  1
  Co  Co125  1  -0.00430289  0.49467211  0.75096693  1
  Co  Co126  1  0.50306843  0.74775454  0.50158656  1
  Co  Co127  1  0.37300448  0.12694828  0.87342673  1
