# generated using pymatgen
data_Fe45Co19
_symmetry_space_group_name_H-M   'P 1'
_cell_length_a   11.41450162
_cell_length_b   11.41645327
_cell_length_c   11.41575220
_cell_angle_alpha   90.00655460
_cell_angle_beta   89.99883643
_cell_angle_gamma   89.99792423
_symmetry_Int_Tables_number   1
_chemical_formula_structural   Fe45Co19
_chemical_formula_sum   'Fe90 Co38'
_cell_volume   1487.62232438
_cell_formula_units_Z   2
loop_
 _symmetry_equiv_pos_site_id
 _symmetry_equiv_pos_as_xyz
  1  'x, y, z'
loop_
 _atom_site_type_symbol
 _atom_site_label
 _atom_site_symmetry_multiplicity
 _atom_site_fract_x
 _atom_site_fract_y
 _atom_site_fract_z
 _atom_site_occupancy
  Fe  Fe0  1  0.00218875  0.49965313  0.25184101  1
  Fe  Fe1  1  0.49899585  0.00041652  0.49652637  1
  Fe  Fe2  1  0.12364693  0.62657173  0.12541756  1
  Fe  Fe3  1  0.37406690  0.87599700  0.87776178  1
  Fe  Fe4  1  -0.00345847  0.24789330  0.24762614  1
  Fe  Fe5  1  0.74822107  0.24741960  0.49897717  1
  Fe  Fe6  1  0.00386984  0.75241846  0.74818768  1
  Fe  Fe7  1  0.12739731  0.12399662  0.62471514  1
  Fe  Fe8  1  0.87461647  0.37614428  0.62445192  1
  Fe  Fe9  1  0.49409097  0.25139521  0.74651663  1
  Fe  Fe10  1  0.24403341  0.00029762  0.75495912  1
  Fe  Fe11  1  0.12377894  0.87536057  0.12427844  1
  Fe  Fe12  1  0.87624633  0.37535658  0.87486548  1
  Fe  Fe13  1  0.74862853  0.49995048  0.75055513  1
  Fe  Fe14  1  0.75012567  0.24757034  0.24889803  1
  Fe  Fe15  1  0.74863799  0.50113891  0.49909811  1
  Fe  Fe16  1  0.87478868  0.11974625  0.62615704  1
  Fe  Fe17  1  0.24928711  0.74912881  0.50091591  1
  Fe  Fe18  1  0.87714866  0.62345603  0.62646262  1
  Fe  Fe19  1  0.62195801  0.37299582  0.87677571  1
  Fe  Fe20  1  0.00084213  0.24901883  0.74829713  1
  Fe  Fe21  1  0.87600246  0.87773496  0.87222377  1
  Fe  Fe22  1  0.75153109  0.24939389  0.00224980  1
  Fe  Fe23  1  0.25044748  0.00079491  0.25022565  1
  Fe  Fe24  1  0.74941756  0.75054255  0.74940940  1
  Fe  Fe25  1  0.37859218  0.12362479  0.12653419  1
  Fe  Fe26  1  0.87410439  0.12177334  0.37450032  1
  Fe  Fe27  1  -0.00153474  0.24799155  0.50073338  1
  Fe  Fe28  1  0.50047009  0.49717973  0.49580382  1
  Fe  Fe29  1  0.49782281  0.75120024  0.50117308  1
  Fe  Fe30  1  -0.00407157  0.25115266  0.00376750  1
  Fe  Fe31  1  0.75068015  0.49959576  -0.00121451  1
  Fe  Fe32  1  0.25330661  0.24971700  0.00274015  1
  Fe  Fe33  1  0.87686520  0.88106340  0.62581593  1
  Fe  Fe34  1  0.62375142  0.87348982  0.37458462  1
  Fe  Fe35  1  0.74679826  0.50255960  0.25223079  1
  Fe  Fe36  1  0.12342942  0.37295502  0.12627314  1
  Fe  Fe37  1  0.24999360  0.75019145  0.74881342  1
  Fe  Fe38  1  0.87470030  0.37431605  0.37399313  1
  Fe  Fe39  1  0.50145303  -0.00114960  0.75365012  1
  Fe  Fe40  1  0.87641858  0.62661478  0.37535712  1
  Fe  Fe41  1  0.50313034  0.50106611  0.24946933  1
  Fe  Fe42  1  0.49935453  0.74815868  0.24690567  1
  Fe  Fe43  1  0.37611008  0.87811361  0.12326319  1
  Fe  Fe44  1  0.37438493  0.62542576  0.37303368  1
  Fe  Fe45  1  0.37588566  0.62363031  0.87788044  1
  Fe  Fe46  1  0.00311850  -0.00003547  -0.00271598  1
  Fe  Fe47  1  0.37907387  0.12976515  0.37097327  1
  Fe  Fe48  1  0.62223203  0.12291902  0.12578252  1
  Fe  Fe49  1  0.25623131  0.25135242  0.50245421  1
  Fe  Fe50  1  0.62359912  0.12374042  0.62400013  1
  Fe  Fe51  1  0.62579040  0.37546986  0.12330098  1
  Fe  Fe52  1  0.62280065  0.87463925  0.12176903  1
  Fe  Fe53  1  0.12431788  0.12466450  0.12392296  1
  Fe  Fe54  1  0.12629341  0.12954715  0.37331744  1
  Fe  Fe55  1  0.12242620  0.62604299  0.87594621  1
  Fe  Fe56  1  0.87760342  0.87922377  0.12573866  1
  Fe  Fe57  1  0.37267546  0.12626904  0.87516960  1
  Fe  Fe58  1  0.24788438  0.49881922  0.49530317  1
  Fe  Fe59  1  0.74706844  0.00032865  -0.00319230  1
  Fe  Fe60  1  0.75382704  0.75069751  -0.00004152  1
  Fe  Fe61  1  0.25123286  0.00112651  0.49527834  1
  Fe  Fe62  1  0.62553715  0.87709861  0.62583087  1
  Fe  Fe63  1  0.87816331  0.87766504  0.37496743  1
  Fe  Fe64  1  0.37425076  0.62230245  0.62420547  1
  Fe  Fe65  1  0.49863820  0.75104522  0.75071530  1
  Fe  Fe66  1  0.74785414  -0.00020364  0.25156479  1
  Fe  Fe67  1  0.62354927  0.62775744  0.87895664  1
  Fe  Fe68  1  0.00315540  0.75022208  0.50192860  1
  Fe  Fe69  1  0.75113096  0.24993811  0.74868972  1
  Fe  Fe70  1  0.75093273  0.74976718  0.24949018  1
  Fe  Fe71  1  0.37685508  0.37595622  0.12613722  1
  Fe  Fe72  1  0.37177420  0.87881858  0.62511333  1
  Fe  Fe73  1  0.24940277  0.49892773  0.00060206  1
  Fe  Fe74  1  0.87652971  0.62269198  0.12477663  1
  Fe  Fe75  1  0.62404092  0.12774524  0.87410450  1
  Fe  Fe76  1  0.75067318  0.75144458  0.50115109  1
  Fe  Fe77  1  0.00349704  0.50041321  0.49863966  1
  Fe  Fe78  1  0.12658125  0.37486383  0.62450805  1
  Fe  Fe79  1  0.25071197  0.75112893  0.24917510  1
  Fe  Fe80  1  0.25138304  0.74944637  0.00177893  1
  Fe  Fe81  1  0.87870310  0.62296085  0.87396780  1
  Fe  Fe82  1  0.62346375  0.62514002  0.62403243  1
  Fe  Fe83  1  0.12549710  0.37094807  0.87549302  1
  Fe  Fe84  1  0.24731380  0.49737154  0.25259932  1
  Fe  Fe85  1  0.12410406  0.87424675  0.37413990  1
  Fe  Fe86  1  0.87609028  0.12401792  0.87465172  1
  Fe  Fe87  1  0.62410752  0.37421482  0.62376965  1
  Fe  Fe88  1  0.49969964  0.49906785  0.75253121  1
  Fe  Fe89  1  0.24938442  0.49834291  0.75198239  1
  Co  Co90  1  0.74713597  0.00042990  0.75148969  1
  Co  Co91  1  -0.00128834  0.75024840  0.24879250  1
  Co  Co92  1  0.37529623  0.37252639  0.37130264  1
  Co  Co93  1  0.25259489  0.25078527  0.74707278  1
  Co  Co94  1  0.00284216  0.00190640  0.49815484  1
  Co  Co95  1  0.87269112  0.37871046  0.12818783  1
  Co  Co96  1  0.62657949  0.37215145  0.37577476  1
  Co  Co97  1  0.25053050  0.24955370  0.24609062  1
  Co  Co98  1  0.37440704  0.87216957  0.37445174  1
  Co  Co99  1  0.12536850  0.13173892  0.87807074  1
  Co  Co100  1  0.49573292  0.74895636  0.00240625  1
  Co  Co101  1  0.12669708  0.62289678  0.62669620  1
  Co  Co102  1  0.00618014  0.00134602  0.75251558  1
  Co  Co103  1  0.12615235  0.87103250  0.87870920  1
  Co  Co104  1  0.50361333  0.25343713  0.24817312  1
  Co  Co105  1  0.37164478  0.62262268  0.12750087  1
  Co  Co106  1  0.62185517  0.12605160  0.37419593  1
  Co  Co107  1  0.00153402  0.49847488  0.00117609  1
  Co  Co108  1  0.62455378  0.87078414  0.87735355  1
  Co  Co109  1  0.49672363  0.25035564  0.50350889  1
  Co  Co110  1  0.00330840  0.00256278  0.25119879  1
  Co  Co111  1  0.12539023  0.62871501  0.37291159  1
  Co  Co112  1  0.87411627  0.11933261  0.12346172  1
  Co  Co113  1  -0.00259838  0.75021532  0.00120785  1
  Co  Co114  1  0.12835733  0.87863049  0.62275351  1
  Co  Co115  1  0.00181624  0.49703740  0.74968000  1
  Co  Co116  1  0.24948306  0.00158673  0.00070856  1
  Co  Co117  1  0.62745260  0.62713121  0.12147616  1
  Co  Co118  1  0.49870615  0.50054853  0.00222072  1
  Co  Co119  1  0.49828509  0.24898622  0.00112388  1
  Co  Co120  1  0.37441417  0.37397087  0.87684523  1
  Co  Co121  1  0.37392351  0.38097807  0.62457753  1
  Co  Co122  1  0.49882812  -0.00281130  0.25192762  1
  Co  Co123  1  0.62426930  0.62903086  0.37650258  1
  Co  Co124  1  0.50056059  0.00125323  -0.00329058  1
  Co  Co125  1  0.12388630  0.36803369  0.37494096  1
  Co  Co126  1  0.74785086  -0.00025424  0.49817536  1
  Co  Co127  1  0.37375081  0.11790202  0.62674364  1
