# generated using pymatgen
data_Fe45Co19
_symmetry_space_group_name_H-M   'P 1'
_cell_length_a   11.41416723
_cell_length_b   11.41494992
_cell_length_c   11.41561822
_cell_angle_alpha   89.98988974
_cell_angle_beta   89.99109849
_cell_angle_gamma   89.99663115
_symmetry_Int_Tables_number   1
_chemical_formula_structural   Fe45Co19
_chemical_formula_sum   'Fe90 Co38'
_cell_volume   1487.36536670
_cell_formula_units_Z   2
loop_
 _symmetry_equiv_pos_site_id
 _symmetry_equiv_pos_as_xyz
  1  'x, y, z'
loop_
 _atom_site_type_symbol
 _atom_site_label
 _atom_site_symmetry_multiplicity
 _atom_site_fract_x
 _atom_site_fract_y
 _atom_site_fract_z
 _atom_site_occupancy
  Fe  Fe0  1  0.12518403  0.62271013  0.62557179  1
  Fe  Fe1  1  0.62834425  0.62472511  0.12439256  1
  Fe  Fe2  1  0.50285100  0.75044326  0.74952650  1
  Fe  Fe3  1  0.25060661  0.25108106  0.75048738  1
  Fe  Fe4  1  0.87117638  0.87153360  0.62752759  1
  Fe  Fe5  1  0.12228821  0.62229138  0.37541998  1
  Fe  Fe6  1  0.00021184  0.25085914  0.75006296  1
  Fe  Fe7  1  0.12374520  0.12329743  0.87543568  1
  Fe  Fe8  1  0.12440701  0.12343989  0.37539264  1
  Fe  Fe9  1  0.50025481  -0.00278980  0.24790709  1
  Fe  Fe10  1  0.87505669  0.62968125  0.87087438  1
  Fe  Fe11  1  0.37487627  0.87194005  0.37280556  1
  Fe  Fe12  1  0.87904768  0.12879987  0.12718823  1
  Fe  Fe13  1  0.49725757  -0.00220632  0.00263184  1
  Fe  Fe14  1  0.37648559  0.12583592  0.87597736  1
  Fe  Fe15  1  0.24877820  0.74870367  0.00110992  1
  Fe  Fe16  1  0.12060037  0.37500596  0.12427432  1
  Fe  Fe17  1  0.62541784  0.62502670  0.87760092  1
  Fe  Fe18  1  0.50503787  0.74913650  0.24974587  1
  Fe  Fe19  1  0.11953507  0.62461516  0.12601354  1
  Fe  Fe20  1  0.50229655  0.00062448  0.75166679  1
  Fe  Fe21  1  0.87301904  0.37448596  0.87447498  1
  Fe  Fe22  1  0.87820941  0.87067958  0.12694205  1
  Fe  Fe23  1  0.25053138  0.50106052  0.00141844  1
  Fe  Fe24  1  0.37611599  0.37606994  0.87561325  1
  Fe  Fe25  1  0.87355437  0.87159208  0.37388608  1
  Fe  Fe26  1  0.62678688  0.87321039  0.62041090  1
  Fe  Fe27  1  0.62497722  0.12211201  0.12400676  1
  Fe  Fe28  1  0.12666913  0.12216919  0.62448247  1
  Fe  Fe29  1  0.62422191  0.12450240  0.37430211  1
  Fe  Fe30  1  0.49986943  0.25109388  0.00419974  1
  Fe  Fe31  1  0.62802853  0.87328163  0.37789324  1
  Fe  Fe32  1  0.75136666  -0.00102547  0.24943291  1
  Fe  Fe33  1  -0.00390158  -0.00062374  0.49957772  1
  Fe  Fe34  1  0.87340872  0.12639691  0.62525351  1
  Fe  Fe35  1  0.25133390  -0.00125748  0.00112436  1
  Fe  Fe36  1  -0.00669152  0.49993492  0.49970493  1
  Fe  Fe37  1  0.12202240  0.87634369  0.12354574  1
  Fe  Fe38  1  0.24981019  -0.00123709  0.24944534  1
  Fe  Fe39  1  0.24995218  0.25091792  0.24756903  1
  Fe  Fe40  1  0.74883394  0.50122588  0.74941372  1
  Fe  Fe41  1  0.24808000  0.74967584  0.74949383  1
  Fe  Fe42  1  0.62514550  0.62661814  0.62133397  1
  Fe  Fe43  1  0.62557409  0.87556861  0.87954968  1
  Fe  Fe44  1  0.12404206  0.37709137  0.37547123  1
  Fe  Fe45  1  0.62775405  0.37758301  0.12589175  1
  Fe  Fe46  1  0.12334298  0.87553322  0.87670850  1
  Fe  Fe47  1  0.62501857  0.37534542  0.87691658  1
  Fe  Fe48  1  0.62454115  0.37683356  0.37280398  1
  Fe  Fe49  1  0.12790997  0.87850056  0.62301488  1
  Fe  Fe50  1  0.12373262  0.62345372  0.87391748  1
  Fe  Fe51  1  0.37778150  0.37590663  0.36984984  1
  Fe  Fe52  1  0.75534669  0.50341695  0.49912182  1
  Fe  Fe53  1  0.74778242  -0.00011690  0.75160568  1
  Fe  Fe54  1  0.62393503  0.12548290  0.62293714  1
  Fe  Fe55  1  0.12147725  0.12410167  0.12485436  1
  Fe  Fe56  1  0.49746508  0.50472126  0.49656096  1
  Fe  Fe57  1  0.49958805  0.50139146  0.00280119  1
  Fe  Fe58  1  0.62453270  0.37532552  0.62330139  1
  Fe  Fe59  1  -0.00120444  -0.00271273  0.75083304  1
  Fe  Fe60  1  0.37545405  0.12395906  0.62575938  1
  Fe  Fe61  1  0.37602997  0.87194009  0.87662859  1
  Fe  Fe62  1  -0.00668089  0.50093429  0.00258349  1
  Fe  Fe63  1  0.75551004  0.50188372  0.24922765  1
  Fe  Fe64  1  0.12475221  0.37643135  0.62403538  1
  Fe  Fe65  1  0.37523835  0.62524162  0.87374205  1
  Fe  Fe66  1  0.74608830  0.24910471  0.75094070  1
  Fe  Fe67  1  0.49914328  -0.00082380  0.49863136  1
  Fe  Fe68  1  -0.00085966  0.25140881  0.49929820  1
  Fe  Fe69  1  0.50124960  0.50091763  0.74998641  1
  Fe  Fe70  1  0.37730673  0.37557975  0.62599379  1
  Fe  Fe71  1  0.37715795  0.12640604  0.37163267  1
  Fe  Fe72  1  0.24897983  0.50018082  0.24828460  1
  Fe  Fe73  1  -0.00176952  0.74884451  0.50172466  1
  Fe  Fe74  1  0.24957877  0.25107755  0.00201595  1
  Fe  Fe75  1  0.25430425  0.50206346  0.49993087  1
  Fe  Fe76  1  0.87496970  0.12483000  0.87531524  1
  Fe  Fe77  1  0.87471341  0.12704055  0.37358380  1
  Fe  Fe78  1  0.75017063  0.25012861  0.00117324  1
  Fe  Fe79  1  0.37441311  0.87569748  0.62476732  1
  Fe  Fe80  1  -0.00221259  0.49918358  0.74843296  1
  Fe  Fe81  1  0.25218261  0.24985034  0.49922059  1
  Fe  Fe82  1  0.25286402  0.74715236  0.49988179  1
  Fe  Fe83  1  0.75466369  -0.00170178  0.00114630  1
  Fe  Fe84  1  0.74868251  0.25086891  0.49818783  1
  Fe  Fe85  1  0.12426572  0.37723108  0.87576523  1
  Fe  Fe86  1  0.12480494  0.87667796  0.37772381  1
  Fe  Fe87  1  0.24516521  0.75018697  0.24987379  1
  Fe  Fe88  1  0.37514339  0.62691199  0.12760147  1
  Fe  Fe89  1  0.75095721  0.74942285  0.00089057  1
  Co  Co90  1  0.75487576  0.50205724  0.00117589  1
  Co  Co91  1  -0.00085696  -0.00098275  0.25201905  1
  Co  Co92  1  0.62570865  0.87573927  0.12233167  1
  Co  Co93  1  0.87337239  0.87147878  0.87277535  1
  Co  Co94  1  0.87521266  0.37032991  0.12658088  1
  Co  Co95  1  0.87466317  0.62813813  0.62987612  1
  Co  Co96  1  0.74350954  0.74991062  0.75124554  1
  Co  Co97  1  -0.00030547  0.25103053  -0.00229564  1
  Co  Co98  1  0.75267719  0.74570475  0.49871302  1
  Co  Co99  1  0.62766194  0.62468907  0.37587515  1
  Co  Co100  1  0.37468591  0.87122138  0.12651342  1
  Co  Co101  1  0.25051352  0.49865909  0.75001556  1
  Co  Co102  1  0.87257665  0.37297019  0.62615398  1
  Co  Co103  1  0.49992123  0.25080065  0.49810854  1
  Co  Co104  1  0.50232945  0.50303111  0.24821617  1
  Co  Co105  1  0.25082062  -0.00090646  0.75355212  1
  Co  Co106  1  -0.00385544  0.49749094  0.24933586  1
  Co  Co107  1  0.37547548  0.37715064  0.12622760  1
  Co  Co108  1  0.62438442  0.12391812  0.88049571  1
  Co  Co109  1  0.74651202  0.24814122  0.25006647  1
  Co  Co110  1  0.75166341  0.00125561  0.49937676  1
  Co  Co111  1  0.37462373  0.12331904  0.12549605  1
  Co  Co112  1  0.50152106  0.24919862  0.75037586  1
  Co  Co113  1  -0.00305172  -0.00124171  -0.00110689  1
  Co  Co114  1  0.74591957  0.75121782  0.24890945  1
  Co  Co115  1  0.50242283  0.25048190  0.24636106  1
  Co  Co116  1  0.25350367  0.00135362  0.49642363  1
  Co  Co117  1  0.00465919  0.75195280  0.25223120  1
  Co  Co118  1  0.00505005  0.75253204  0.74844057  1
  Co  Co119  1  0.37377746  0.62661333  0.36852920  1
  Co  Co120  1  0.37553739  0.62571082  0.62838934  1
  Co  Co121  1  0.87696692  0.63102605  0.12882539  1
  Co  Co122  1  0.50139724  0.74745476  0.00246174  1
  Co  Co123  1  0.87306738  0.37243986  0.37320464  1
  Co  Co124  1  0.00251861  0.25202358  0.25316688  1
  Co  Co125  1  0.49755231  0.74795121  0.49809908  1
  Co  Co126  1  0.87745031  0.62870984  0.37040410  1
  Co  Co127  1  -0.00015143  0.74939008  -0.00182761  1
