# generated using pymatgen
data_Fe45Co19
_symmetry_space_group_name_H-M   'P 1'
_cell_length_a   11.41475135
_cell_length_b   11.41555772
_cell_length_c   11.41439775
_cell_angle_alpha   90.00141114
_cell_angle_beta   90.00076393
_cell_angle_gamma   89.99409183
_symmetry_Int_Tables_number   1
_chemical_formula_structural   Fe45Co19
_chemical_formula_sum   'Fe90 Co38'
_cell_volume   1487.36168460
_cell_formula_units_Z   2
loop_
 _symmetry_equiv_pos_site_id
 _symmetry_equiv_pos_as_xyz
  1  'x, y, z'
loop_
 _atom_site_type_symbol
 _atom_site_label
 _atom_site_symmetry_multiplicity
 _atom_site_fract_x
 _atom_site_fract_y
 _atom_site_fract_z
 _atom_site_occupancy
  Fe  Fe0  1  0.12316932  0.12912469  0.37343467  1
  Fe  Fe1  1  0.50124812  -0.00203851  0.00054529  1
  Fe  Fe2  1  -0.00041333  0.00018628  0.24942697  1
  Fe  Fe3  1  0.25001791  0.75169579  0.74995177  1
  Fe  Fe4  1  0.37434542  0.37883314  0.87405182  1
  Fe  Fe5  1  0.49830865  0.74869688  -0.00165251  1
  Fe  Fe6  1  0.25330867  0.74782377  -0.00221259  1
  Fe  Fe7  1  0.12519047  0.37345967  0.62510638  1
  Fe  Fe8  1  0.12272439  0.62352576  0.37417811  1
  Fe  Fe9  1  -0.00108154  0.25065808  0.75043235  1
  Fe  Fe10  1  0.12339825  0.37754551  0.87458996  1
  Fe  Fe11  1  -0.00567504  0.75175402  -0.00294771  1
  Fe  Fe12  1  0.87479595  0.87422950  0.62487944  1
  Fe  Fe13  1  0.75335019  0.50187654  -0.00091366  1
  Fe  Fe14  1  0.87468875  0.37428880  0.62423203  1
  Fe  Fe15  1  0.50116195  0.25129619  0.50152821  1
  Fe  Fe16  1  0.50134515  0.25277360  0.75048238  1
  Fe  Fe17  1  0.37267465  0.87371832  0.61627037  1
  Fe  Fe18  1  0.50171145  -0.00236311  0.25077127  1
  Fe  Fe19  1  0.49847513  0.75036074  0.74766145  1
  Fe  Fe20  1  0.37536987  0.12270990  0.87204788  1
  Fe  Fe21  1  0.12496161  0.37299888  0.37428701  1
  Fe  Fe22  1  0.50058130  0.25057495  -0.00254938  1
  Fe  Fe23  1  0.62501584  0.62494411  0.87386080  1
  Fe  Fe24  1  0.87321701  0.12392842  0.87589007  1
  Fe  Fe25  1  0.62558858  0.37440858  0.12343608  1
  Fe  Fe26  1  0.12455077  0.12747095  0.12612534  1
  Fe  Fe27  1  0.74736043  -0.00002142  0.00651566  1
  Fe  Fe28  1  0.12371105  0.12480003  0.62653805  1
  Fe  Fe29  1  0.62609637  0.62642977  0.12625201  1
  Fe  Fe30  1  0.37322304  0.37669008  0.37644601  1
  Fe  Fe31  1  0.12710070  0.87547755  0.37724160  1
  Fe  Fe32  1  0.24814589  0.50333686  0.50144585  1
  Fe  Fe33  1  0.12044174  0.62919513  0.62766304  1
  Fe  Fe34  1  0.50120080  0.74973662  0.25353619  1
  Fe  Fe35  1  0.75021326  0.24658870  0.24700770  1
  Fe  Fe36  1  0.87528561  0.12497013  0.37473717  1
  Fe  Fe37  1  0.37653325  0.12578279  0.12597045  1
  Fe  Fe38  1  0.87466638  0.37388020  0.37679083  1
  Fe  Fe39  1  0.74758729  0.00193162  0.50374398  1
  Fe  Fe40  1  0.37491976  0.37714237  0.62633847  1
  Fe  Fe41  1  0.24999954  -0.00062660  0.25093580  1
  Fe  Fe42  1  -0.00081903  0.49962274  0.50190547  1
  Fe  Fe43  1  0.12668532  0.12413580  0.87344896  1
  Fe  Fe44  1  0.25133431  0.24995387  -0.00234761  1
  Fe  Fe45  1  -0.00163632  0.25129217  -0.00115758  1
  Fe  Fe46  1  0.74891738  0.74722663  0.49837245  1
  Fe  Fe47  1  0.50044100  0.50036718  0.24973258  1
  Fe  Fe48  1  0.87328275  0.37371153  0.12378301  1
  Fe  Fe49  1  0.74993553  0.24920402  0.74926586  1
  Fe  Fe50  1  0.62735429  0.37689236  0.87487102  1
  Fe  Fe51  1  0.00099454  -0.00530874  0.75179443  1
  Fe  Fe52  1  0.00079932  0.00043749  0.50054908  1
  Fe  Fe53  1  0.25064631  0.50193148  0.24912163  1
  Fe  Fe54  1  0.75429365  0.74813791  0.75158720  1
  Fe  Fe55  1  0.62495980  0.12521000  0.37521821  1
  Fe  Fe56  1  0.12766253  0.37422606  0.12575658  1
  Fe  Fe57  1  -0.00117681  0.49857546  0.24760485  1
  Fe  Fe58  1  0.37317831  0.37622182  0.12392551  1
  Fe  Fe59  1  0.75030078  0.24768875  0.50363923  1
  Fe  Fe60  1  0.24898887  -0.00389157  0.74870101  1
  Fe  Fe61  1  0.37660049  0.12261406  0.37650610  1
  Fe  Fe62  1  -0.00177396  0.75056387  0.25038371  1
  Fe  Fe63  1  -0.00040093  -0.00207712  -0.00080853  1
  Fe  Fe64  1  0.24873770  0.50183446  0.75023456  1
  Fe  Fe65  1  -0.00015185  0.75119495  0.49877022  1
  Fe  Fe66  1  0.37629534  0.62623116  0.37765658  1
  Fe  Fe67  1  0.87174806  0.87676117  0.37268178  1
  Fe  Fe68  1  0.50249068  0.50096159  0.50190279  1
  Fe  Fe69  1  0.75352761  0.74998128  0.00071201  1
  Fe  Fe70  1  0.62607658  0.87385489  0.87454882  1
  Fe  Fe71  1  0.24979751  0.24799386  0.50086673  1
  Fe  Fe72  1  0.25112578  -0.00084094  0.00010198  1
  Fe  Fe73  1  0.62482958  0.12402907  0.87468148  1
  Fe  Fe74  1  0.62532046  0.62418953  0.62441873  1
  Fe  Fe75  1  0.75296358  0.50108016  0.74807608  1
  Fe  Fe76  1  0.74826841  0.00071247  0.74707616  1
  Fe  Fe77  1  0.25007836  0.75002120  0.25242742  1
  Fe  Fe78  1  0.12009115  0.62437539  0.87470580  1
  Fe  Fe79  1  0.12348631  0.62527484  0.12263924  1
  Fe  Fe80  1  0.49822245  0.50343713  -0.00076518  1
  Fe  Fe81  1  0.49940470  0.25244925  0.25073133  1
  Fe  Fe82  1  0.62763776  0.37595117  0.37734466  1
  Fe  Fe83  1  0.50198907  -0.00409506  0.74617346  1
  Fe  Fe84  1  0.62722043  0.87585173  0.37452037  1
  Fe  Fe85  1  0.37673162  0.12415266  0.62471120  1
  Fe  Fe86  1  0.87448636  0.62372491  0.37481725  1
  Fe  Fe87  1  0.12408958  0.87324624  0.12329784  1
  Fe  Fe88  1  0.75049349  0.50170325  0.25052587  1
  Fe  Fe89  1  0.37572332  0.87292892  0.12582765  1
  Co  Co90  1  0.25030330  0.50238790  -0.00111264  1
  Co  Co91  1  0.87806098  0.12315583  0.62691405  1
  Co  Co92  1  0.12746608  0.87322108  0.87787371  1
  Co  Co93  1  0.75177147  0.50185297  0.50212049  1
  Co  Co94  1  -0.00008044  0.25023137  0.50166542  1
  Co  Co95  1  0.74961681  0.24858154  0.00050928  1
  Co  Co96  1  0.37591200  0.87565453  0.87460574  1
  Co  Co97  1  0.62543704  0.62198095  0.37499451  1
  Co  Co98  1  0.12435449  0.87350460  0.62221878  1
  Co  Co99  1  -0.00235591  0.49744401  0.00266284  1
  Co  Co100  1  0.25263385  0.24950003  0.25125664  1
  Co  Co101  1  0.24632448  0.00402875  0.49891470  1
  Co  Co102  1  0.74826028  0.00276745  0.24600278  1
  Co  Co103  1  0.62223733  0.12758453  0.62616103  1
  Co  Co104  1  0.37517719  0.62500211  0.62444594  1
  Co  Co105  1  -0.00281573  0.75594784  0.75416627  1
  Co  Co106  1  0.50424149  0.74970921  0.50004129  1
  Co  Co107  1  0.62871655  0.87086310  0.62591164  1
  Co  Co108  1  0.37407403  0.87488693  0.37952844  1
  Co  Co109  1  0.87511934  0.62582863  0.12682671  1
  Co  Co110  1  0.24674469  0.74597489  0.49836203  1
  Co  Co111  1  0.62018405  0.12774784  0.12535016  1
  Co  Co112  1  0.37520171  0.62383692  0.87100773  1
  Co  Co113  1  -0.00209980  0.49855628  0.74648724  1
  Co  Co114  1  0.74975105  0.74869610  0.25136664  1
  Co  Co115  1  0.87810039  0.12430957  0.12352343  1
  Co  Co116  1  0.87783128  0.62851257  0.62406566  1
  Co  Co117  1  0.62651172  0.37584262  0.62462676  1
  Co  Co118  1  0.50218889  0.50038983  0.74998159  1
  Co  Co119  1  0.87417185  0.37496011  0.87367479  1
  Co  Co120  1  0.37516395  0.62632088  0.12746439  1
  Co  Co121  1  -0.00271014  0.25161519  0.24892152  1
  Co  Co122  1  0.50518546  -0.00186356  0.50158204  1
  Co  Co123  1  0.25081736  0.25100395  0.75038520  1
  Co  Co124  1  0.87524790  0.87514162  0.12808146  1
  Co  Co125  1  0.87950745  0.62122895  0.87372629  1
  Co  Co126  1  0.86975547  0.87952468  0.87534497  1
  Co  Co127  1  0.62422534  0.87053186  0.12572589  1
