# generated using pymatgen
data_Fe45Co19
_symmetry_space_group_name_H-M   'P 1'
_cell_length_a   11.41608644
_cell_length_b   11.41573282
_cell_length_c   11.41559818
_cell_angle_alpha   89.99513022
_cell_angle_beta   89.99418362
_cell_angle_gamma   89.99270431
_symmetry_Int_Tables_number   1
_chemical_formula_structural   Fe45Co19
_chemical_formula_sum   'Fe90 Co38'
_cell_volume   1487.71489286
_cell_formula_units_Z   2
loop_
 _symmetry_equiv_pos_site_id
 _symmetry_equiv_pos_as_xyz
  1  'x, y, z'
loop_
 _atom_site_type_symbol
 _atom_site_label
 _atom_site_symmetry_multiplicity
 _atom_site_fract_x
 _atom_site_fract_y
 _atom_site_fract_z
 _atom_site_occupancy
  Fe  Fe0  1  0.50165835  -0.00110043  0.50100901  1
  Fe  Fe1  1  0.25313179  0.25206790  0.50180633  1
  Fe  Fe2  1  -0.00066325  0.25057508  0.75057352  1
  Fe  Fe3  1  0.75220001  0.25195289  0.24951826  1
  Fe  Fe4  1  0.74726104  -0.00162814  0.24792875  1
  Fe  Fe5  1  0.25044368  0.74654156  0.75365606  1
  Fe  Fe6  1  -0.00194824  0.25081487  0.25108561  1
  Fe  Fe7  1  0.87690603  0.62067425  0.12918962  1
  Fe  Fe8  1  0.62763319  0.87525307  0.87441943  1
  Fe  Fe9  1  0.87615323  0.37680775  0.87537739  1
  Fe  Fe10  1  0.75051565  0.24949739  0.00091162  1
  Fe  Fe11  1  0.87446780  0.12068164  0.37700109  1
  Fe  Fe12  1  0.00145950  0.50092009  0.50127933  1
  Fe  Fe13  1  0.50285307  0.00344129  -0.00059904  1
  Fe  Fe14  1  0.75041167  0.24879123  0.74706713  1
  Fe  Fe15  1  0.37370645  0.62336292  0.37586169  1
  Fe  Fe16  1  0.24888789  -0.00090775  0.50049356  1
  Fe  Fe17  1  0.12488390  0.62574850  0.37355781  1
  Fe  Fe18  1  0.37441217  0.87685641  0.87596327  1
  Fe  Fe19  1  0.24863302  0.00022227  0.74954538  1
  Fe  Fe20  1  0.12408287  0.12399410  0.12428091  1
  Fe  Fe21  1  0.75348773  0.74930335  0.25026370  1
  Fe  Fe22  1  0.12430453  0.87571613  0.87694365  1
  Fe  Fe23  1  0.87701197  0.62292054  0.87467537  1
  Fe  Fe24  1  0.37474345  0.87498130  0.12181060  1
  Fe  Fe25  1  0.12379912  0.37198722  0.12369823  1
  Fe  Fe26  1  0.87406686  0.38037518  0.37223480  1
  Fe  Fe27  1  0.62745661  0.62627885  0.87487078  1
  Fe  Fe28  1  0.62415029  0.87275485  0.37410293  1
  Fe  Fe29  1  0.49690801  0.25299688  0.49916667  1
  Fe  Fe30  1  0.87491277  0.62585883  0.62585739  1
  Fe  Fe31  1  -0.00131179  0.74973754  0.75041247  1
  Fe  Fe32  1  0.75232755  0.75008416  0.00137666  1
  Fe  Fe33  1  0.12701592  0.37445382  0.37570972  1
  Fe  Fe34  1  0.62598807  0.37502768  0.87658255  1
  Fe  Fe35  1  0.75122669  0.74846771  0.49842950  1
  Fe  Fe36  1  0.87399321  0.12217020  0.87377265  1
  Fe  Fe37  1  0.74988833  0.50079166  0.74951097  1
  Fe  Fe38  1  0.12517971  0.62865003  0.12409657  1
  Fe  Fe39  1  0.00240018  0.49799080  0.00038873  1
  Fe  Fe40  1  0.37642174  0.12578596  0.12291087  1
  Fe  Fe41  1  0.87650268  0.37654024  0.62541916  1
  Fe  Fe42  1  0.49893585  0.74808795  -0.00286881  1
  Fe  Fe43  1  0.24331841  0.50197465  0.74986962  1
  Fe  Fe44  1  0.75122125  0.24877505  0.50163243  1
  Fe  Fe45  1  0.49917064  0.74688556  0.75111160  1
  Fe  Fe46  1  0.25236356  0.25116688  -0.00178791  1
  Fe  Fe47  1  -0.00135166  0.74998011  0.49754047  1
  Fe  Fe48  1  0.74824494  -0.00092407  0.00403037  1
  Fe  Fe49  1  0.12525126  0.12503504  0.37503338  1
  Fe  Fe50  1  0.24804030  0.49973901  0.24786328  1
  Fe  Fe51  1  -0.00238792  0.75274058  0.00172247  1
  Fe  Fe52  1  0.37731680  0.37684753  0.12172843  1
  Fe  Fe53  1  0.74844734  0.50057776  0.00243308  1
  Fe  Fe54  1  0.87567759  0.87785454  0.37497855  1
  Fe  Fe55  1  0.37389586  0.87367072  0.62592946  1
  Fe  Fe56  1  0.62450773  0.62837048  0.12682622  1
  Fe  Fe57  1  0.37303798  0.62311056  0.12087945  1
  Fe  Fe58  1  0.25197988  0.25080441  0.24987466  1
  Fe  Fe59  1  0.62620943  0.12574729  0.37600392  1
  Fe  Fe60  1  0.75145080  0.00167292  0.74261899  1
  Fe  Fe61  1  -0.00159945  0.25118936  0.49793178  1
  Fe  Fe62  1  0.37491441  0.38001564  0.87640925  1
  Fe  Fe63  1  0.12564534  0.12344668  0.87669446  1
  Fe  Fe64  1  0.50120898  0.00193776  0.75048165  1
  Fe  Fe65  1  -0.00238648  0.24895536  -0.00037430  1
  Fe  Fe66  1  0.50103920  -0.00095843  0.24900366  1
  Fe  Fe67  1  0.49853958  0.74851133  0.50169132  1
  Fe  Fe68  1  0.50020003  0.24831934  0.75444906  1
  Fe  Fe69  1  0.87567470  0.12262386  0.12593520  1
  Fe  Fe70  1  0.37613301  0.12525623  0.62639389  1
  Fe  Fe71  1  0.24973000  0.49846888  0.50404748  1
  Fe  Fe72  1  0.50291610  0.49918449  0.25135613  1
  Fe  Fe73  1  0.37460453  0.12337824  0.37572026  1
  Fe  Fe74  1  0.25168134  -0.00109951  0.24918077  1
  Fe  Fe75  1  0.12423620  0.87464970  0.12600081  1
  Fe  Fe76  1  0.12371519  0.87303469  0.62583188  1
  Fe  Fe77  1  0.24972393  0.25174555  0.75032460  1
  Fe  Fe78  1  0.62447203  0.37200173  0.12424526  1
  Fe  Fe79  1  0.87371515  0.87716472  0.87385408  1
  Fe  Fe80  1  0.62679244  0.87116823  0.62595653  1
  Fe  Fe81  1  0.25123635  0.75060859  0.49836381  1
  Fe  Fe82  1  0.12496618  0.87452360  0.37102402  1
  Fe  Fe83  1  0.49505019  0.75075427  0.25054802  1
  Fe  Fe84  1  0.12201034  0.12615285  0.62403231  1
  Fe  Fe85  1  0.50149379  0.50346712  0.74964877  1
  Fe  Fe86  1  0.74689662  0.50302295  0.49724783  1
  Fe  Fe87  1  0.49881814  0.25133782  0.25223477  1
  Fe  Fe88  1  0.62380589  0.37460765  0.62443878  1
  Fe  Fe89  1  0.50087968  0.49998508  0.49961921  1
  Co  Co90  1  0.62467305  0.12843517  0.12637095  1
  Co  Co91  1  0.62656527  0.62633951  0.62506670  1
  Co  Co92  1  0.75139683  0.74862143  0.75116935  1
  Co  Co93  1  0.12305167  0.37260339  0.62427877  1
  Co  Co94  1  0.37301004  0.62078154  0.87684828  1
  Co  Co95  1  0.00525840  0.49790624  0.24940782  1
  Co  Co96  1  0.25077374  0.75083773  -0.00182338  1
  Co  Co97  1  0.62174721  0.12812454  0.62362686  1
  Co  Co98  1  0.63038294  0.12311731  0.87437620  1
  Co  Co99  1  0.74858425  -0.00029395  0.50416865  1
  Co  Co100  1  0.37556018  0.87615757  0.37665008  1
  Co  Co101  1  0.24501090  0.49940231  -0.00039691  1
  Co  Co102  1  0.00045904  -0.00087570  0.74927984  1
  Co  Co103  1  0.12292262  0.37336282  0.87538127  1
  Co  Co104  1  0.62347615  0.87061167  0.12472631  1
  Co  Co105  1  0.00245282  0.50094625  0.74872719  1
  Co  Co106  1  0.12156449  0.62715229  0.87795370  1
  Co  Co107  1  0.87544183  0.37783872  0.12535256  1
  Co  Co108  1  0.37287986  0.62479159  0.62529179  1
  Co  Co109  1  0.87599790  0.87230444  0.62402413  1
  Co  Co110  1  0.50466275  0.50190757  0.00040613  1
  Co  Co111  1  0.25330768  0.75030061  0.24969302  1
  Co  Co112  1  0.37228195  0.37782295  0.37371294  1
  Co  Co113  1  0.74483413  0.49997704  0.24982880  1
  Co  Co114  1  0.24964654  -0.00058565  0.00136151  1
  Co  Co115  1  0.00059024  0.00143390  0.25051694  1
  Co  Co116  1  0.12426575  0.62880411  0.62369598  1
  Co  Co117  1  0.87713305  0.62087612  0.37175117  1
  Co  Co118  1  0.37149565  0.12296753  0.87515531  1
  Co  Co119  1  0.37592330  0.37698752  0.62960560  1
  Co  Co120  1  0.62265519  0.62916739  0.37295451  1
  Co  Co121  1  0.88050745  0.12519117  0.62284624  1
  Co  Co122  1  0.62669341  0.37214195  0.37587168  1
  Co  Co123  1  0.49983244  0.24772339  -0.00517654  1
  Co  Co124  1  -0.00058348  -0.00033085  -0.00003000  1
  Co  Co125  1  0.00236691  -0.00253285  0.50020379  1
  Co  Co126  1  0.87630057  0.87702124  0.12705433  1
  Co  Co127  1  -0.00212966  0.74995142  0.25019680  1
