# generated using pymatgen
data_Fe45Co19
_symmetry_space_group_name_H-M   'P 1'
_cell_length_a   11.41479545
_cell_length_b   11.41415896
_cell_length_c   11.41550522
_cell_angle_alpha   89.99962695
_cell_angle_beta   90.00189412
_cell_angle_gamma   90.00072002
_symmetry_Int_Tables_number   1
_chemical_formula_structural   Fe45Co19
_chemical_formula_sum   'Fe90 Co38'
_cell_volume   1487.32948239
_cell_formula_units_Z   2
loop_
 _symmetry_equiv_pos_site_id
 _symmetry_equiv_pos_as_xyz
  1  'x, y, z'
loop_
 _atom_site_type_symbol
 _atom_site_label
 _atom_site_symmetry_multiplicity
 _atom_site_fract_x
 _atom_site_fract_y
 _atom_site_fract_z
 _atom_site_occupancy
  Fe  Fe0  1  0.49988079  0.75044240  0.24825249  1
  Fe  Fe1  1  0.12349917  0.12997448  0.87364217  1
  Fe  Fe2  1  0.00464934  0.74878524  0.24634992  1
  Fe  Fe3  1  0.75006785  -0.00140312  0.75039886  1
  Fe  Fe4  1  0.62730944  0.12607283  0.62451402  1
  Fe  Fe5  1  0.62803415  0.62521495  0.12558636  1
  Fe  Fe6  1  0.75190947  0.25190996  -0.00007733  1
  Fe  Fe7  1  0.12346972  0.37281438  0.63001636  1
  Fe  Fe8  1  0.24853010  -0.00156007  0.49842450  1
  Fe  Fe9  1  0.62471697  0.12587383  0.87580291  1
  Fe  Fe10  1  0.49964425  0.00036737  0.49925266  1
  Fe  Fe11  1  0.12325421  0.37433326  0.37422254  1
  Fe  Fe12  1  0.37327100  0.62267047  0.62706686  1
  Fe  Fe13  1  0.62388540  0.62683236  0.37802803  1
  Fe  Fe14  1  0.37142269  0.87608832  0.12212748  1
  Fe  Fe15  1  0.00010783  -0.00212871  0.49856827  1
  Fe  Fe16  1  0.12615128  0.12617199  0.62689473  1
  Fe  Fe17  1  0.37439427  0.37729304  0.12263573  1
  Fe  Fe18  1  0.00121837  0.50786122  -0.00305487  1
  Fe  Fe19  1  0.37245975  0.62482933  0.37480626  1
  Fe  Fe20  1  0.75043095  -0.00280533  -0.00010029  1
  Fe  Fe21  1  0.37351594  0.87648684  0.62491804  1
  Fe  Fe22  1  0.24723690  -0.00240503  0.75320218  1
  Fe  Fe23  1  0.49912220  -0.00037868  -0.00031575  1
  Fe  Fe24  1  0.75176107  -0.00459925  0.49821621  1
  Fe  Fe25  1  0.62377376  0.87353745  0.62306839  1
  Fe  Fe26  1  0.12421757  0.62502325  0.62603030  1
  Fe  Fe27  1  0.75129859  0.25520916  0.49499416  1
  Fe  Fe28  1  0.75274581  0.74982280  0.50158204  1
  Fe  Fe29  1  0.88036843  0.37520677  0.87595038  1
  Fe  Fe30  1  0.00057318  0.24855530  0.24762315  1
  Fe  Fe31  1  0.62360694  0.37690930  0.87581551  1
  Fe  Fe32  1  0.24642422  0.49998280  0.75654075  1
  Fe  Fe33  1  0.50005157  0.25198043  0.74911168  1
  Fe  Fe34  1  0.75344376  0.50200907  0.74775633  1
  Fe  Fe35  1  0.87728373  0.62516794  0.37577505  1
  Fe  Fe36  1  0.37074520  0.87098377  0.87622943  1
  Fe  Fe37  1  0.75140733  0.74888151  0.74710343  1
  Fe  Fe38  1  0.24816650  0.25076400  0.49940325  1
  Fe  Fe39  1  0.00081343  -0.00007578  0.75051589  1
  Fe  Fe40  1  0.24778211  0.49948101  0.25101139  1
  Fe  Fe41  1  0.37890388  0.37804356  0.87752915  1
  Fe  Fe42  1  0.37263396  0.37595669  0.62609642  1
  Fe  Fe43  1  0.62475503  0.62396833  0.87327543  1
  Fe  Fe44  1  0.87693382  0.37759399  0.12554448  1
  Fe  Fe45  1  0.50104207  -0.00174005  0.75042480  1
  Fe  Fe46  1  0.12898971  0.12089814  0.12739884  1
  Fe  Fe47  1  0.24649726  0.75096444  0.24868445  1
  Fe  Fe48  1  0.00028050  0.74837065  0.74918150  1
  Fe  Fe49  1  0.50037511  -0.00312341  0.24976291  1
  Fe  Fe50  1  0.62487664  0.37459023  0.12487116  1
  Fe  Fe51  1  0.49949421  0.25014098  0.24831374  1
  Fe  Fe52  1  0.37593969  0.12627658  0.87415700  1
  Fe  Fe53  1  0.00062424  0.49970891  0.50039781  1
  Fe  Fe54  1  0.87605784  0.12497707  0.87664598  1
  Fe  Fe55  1  0.75351500  0.25082397  0.75159622  1
  Fe  Fe56  1  0.37529280  0.87257507  0.37630453  1
  Fe  Fe57  1  0.87786139  0.87308736  0.87498629  1
  Fe  Fe58  1  0.87539493  0.12682823  0.37357562  1
  Fe  Fe59  1  0.49988093  0.50221954  0.24860921  1
  Fe  Fe60  1  0.75354143  0.74841949  0.00062724  1
  Fe  Fe61  1  0.24769333  0.49948615  0.49957405  1
  Fe  Fe62  1  0.87255440  0.12435746  0.12563568  1
  Fe  Fe63  1  0.49924328  0.74660617  0.00122905  1
  Fe  Fe64  1  0.12404945  0.37790220  0.12213609  1
  Fe  Fe65  1  0.87807649  0.37627502  0.62347122  1
  Fe  Fe66  1  0.12652738  0.12382849  0.37185794  1
  Fe  Fe67  1  0.87386490  0.12481014  0.62267770  1
  Fe  Fe68  1  0.49808360  0.74782239  0.74880864  1
  Fe  Fe69  1  0.62661171  0.12535980  0.12440189  1
  Fe  Fe70  1  0.37265769  0.12691206  0.37281321  1
  Fe  Fe71  1  0.37545052  0.37572691  0.37481444  1
  Fe  Fe72  1  0.62505045  0.87264651  0.87679956  1
  Fe  Fe73  1  0.00311896  -0.00140655  -0.00014353  1
  Fe  Fe74  1  0.75149479  0.50194108  -0.00036518  1
  Fe  Fe75  1  0.00194051  0.50356670  0.25031166  1
  Fe  Fe76  1  0.37005222  0.62219749  0.12185183  1
  Fe  Fe77  1  0.37276181  0.12485502  0.62735892  1
  Fe  Fe78  1  0.50008752  0.50170651  0.50142195  1
  Fe  Fe79  1  0.37169922  0.12457238  0.12505947  1
  Fe  Fe80  1  0.24794003  0.75076766  0.50126903  1
  Fe  Fe81  1  0.74885180  0.75236812  0.25115471  1
  Fe  Fe82  1  0.62601187  0.12575345  0.37390504  1
  Fe  Fe83  1  0.00127234  0.75279728  0.50011421  1
  Fe  Fe84  1  0.24858094  0.25193932  -0.00096101  1
  Fe  Fe85  1  0.74904115  -0.00426869  0.25073368  1
  Fe  Fe86  1  0.87748542  0.87408112  0.12586866  1
  Fe  Fe87  1  0.62621717  0.37707304  0.62408061  1
  Fe  Fe88  1  0.49866745  0.24977379  0.50137782  1
  Fe  Fe89  1  0.74995581  0.49717675  0.25539458  1
  Co  Co90  1  -0.00474115  0.24719272  0.74746148  1
  Co  Co91  1  0.87753088  0.87230456  0.37209750  1
  Co  Co92  1  0.24645060  0.74988671  0.00419766  1
  Co  Co93  1  0.00118255  0.50342343  0.75233235  1
  Co  Co94  1  0.62490213  0.87422507  0.12205877  1
  Co  Co95  1  0.49997729  0.24920787  0.00103533  1
  Co  Co96  1  0.11751522  0.37104975  0.87449125  1
  Co  Co97  1  0.00281534  0.24871809  0.50024079  1
  Co  Co98  1  0.25205230  0.25257319  0.75325616  1
  Co  Co99  1  0.62268168  0.87265068  0.37789697  1
  Co  Co100  1  0.49605701  0.74724425  0.50267229  1
  Co  Co101  1  0.12484016  0.86874337  0.87591149  1
  Co  Co102  1  0.12459446  0.87603435  0.62609970  1
  Co  Co103  1  0.24850057  0.25429900  0.24883471  1
  Co  Co104  1  0.37353383  0.62541437  0.87676726  1
  Co  Co105  1  0.25106546  0.74921096  0.74592293  1
  Co  Co106  1  0.24770579  0.00183025  -0.00513134  1
  Co  Co107  1  0.87803030  0.62449115  0.62250788  1
  Co  Co108  1  0.25350110  -0.00405603  0.25252761  1
  Co  Co109  1  0.24607853  0.49777116  -0.00612731  1
  Co  Co110  1  0.87426839  0.62674763  0.87315543  1
  Co  Co111  1  0.75170541  0.49916025  0.49730923  1
  Co  Co112  1  0.12730633  0.63167740  0.87534592  1
  Co  Co113  1  -0.00105737  0.74693308  0.00498338  1
  Co  Co114  1  0.50237143  0.50412901  0.00256221  1
  Co  Co115  1  0.87240681  0.62340235  0.12927748  1
  Co  Co116  1  0.75153251  0.25394658  0.25099402  1
  Co  Co117  1  0.00015662  0.24689285  0.00516418  1
  Co  Co118  1  0.12458172  0.87593426  0.37272848  1
  Co  Co119  1  0.87677896  0.87558200  0.62756865  1
  Co  Co120  1  0.12566175  0.62525730  0.37680757  1
  Co  Co121  1  0.88218571  0.37543214  0.37372136  1
  Co  Co122  1  0.12582914  0.87923453  0.12471344  1
  Co  Co123  1  0.61929985  0.37571090  0.37525290  1
  Co  Co124  1  0.62580929  0.62451726  0.62407679  1
  Co  Co125  1  0.12889867  0.62182500  0.12359965  1
  Co  Co126  1  0.49958939  0.50101746  0.74885898  1
  Co  Co127  1  -0.00217653  0.00099672  0.25030270  1
