# generated using pymatgen
data_Fe45Co19
_symmetry_space_group_name_H-M   'P 1'
_cell_length_a   11.41669686
_cell_length_b   11.41543270
_cell_length_c   11.41581008
_cell_angle_alpha   90.01117662
_cell_angle_beta   90.00097245
_cell_angle_gamma   89.99385996
_symmetry_Int_Tables_number   1
_chemical_formula_structural   Fe45Co19
_chemical_formula_sum   'Fe90 Co38'
_cell_volume   1487.78293213
_cell_formula_units_Z   2
loop_
 _symmetry_equiv_pos_site_id
 _symmetry_equiv_pos_as_xyz
  1  'x, y, z'
loop_
 _atom_site_type_symbol
 _atom_site_label
 _atom_site_symmetry_multiplicity
 _atom_site_fract_x
 _atom_site_fract_y
 _atom_site_fract_z
 _atom_site_occupancy
  Fe  Fe0  1  0.49930741  0.24880409  0.25041457  1
  Fe  Fe1  1  0.74822441  0.25665518  0.49870253  1
  Fe  Fe2  1  0.24958340  -0.00165056  0.24777166  1
  Fe  Fe3  1  -0.00026504  0.74868611  0.25161058  1
  Fe  Fe4  1  -0.00048653  0.24765112  0.75036722  1
  Fe  Fe5  1  0.24546485  0.75037905  0.00133285  1
  Fe  Fe6  1  0.37581190  0.87615101  0.62235840  1
  Fe  Fe7  1  0.87447370  0.12658250  0.62043426  1
  Fe  Fe8  1  0.24862421  0.00140721  0.75003276  1
  Fe  Fe9  1  0.37321440  0.62473297  0.87684135  1
  Fe  Fe10  1  0.50164340  0.25008932  -0.00148229  1
  Fe  Fe11  1  0.00033839  -0.00116881  0.49875657  1
  Fe  Fe12  1  0.50254150  0.50224182  0.00112318  1
  Fe  Fe13  1  0.12182448  0.87337049  0.62724331  1
  Fe  Fe14  1  0.50054124  0.50298106  0.24697499  1
  Fe  Fe15  1  0.50339733  0.50012025  0.50527505  1
  Fe  Fe16  1  0.24936027  0.75122923  0.75083860  1
  Fe  Fe17  1  0.62646386  0.37447326  0.12712756  1
  Fe  Fe18  1  -0.00235601  0.50449671  0.75094437  1
  Fe  Fe19  1  0.24948259  0.25089285  0.25141644  1
  Fe  Fe20  1  0.87529559  0.37552595  0.62556425  1
  Fe  Fe21  1  0.37635788  0.87294387  0.12287822  1
  Fe  Fe22  1  0.50024979  0.00171695  0.24984812  1
  Fe  Fe23  1  0.37073718  0.12734823  0.62289805  1
  Fe  Fe24  1  -0.00044467  0.50118123  -0.00174866  1
  Fe  Fe25  1  0.62742419  0.12489386  0.37554617  1
  Fe  Fe26  1  0.00250857  0.25246851  0.49808785  1
  Fe  Fe27  1  0.75326437  0.25235429  0.25218102  1
  Fe  Fe28  1  0.37651370  0.87412755  0.87644411  1
  Fe  Fe29  1  0.62479345  0.87410951  0.87252808  1
  Fe  Fe30  1  0.87390283  0.62358365  0.12280125  1
  Fe  Fe31  1  0.62283627  0.87425917  0.37712214  1
  Fe  Fe32  1  0.12586186  0.12391640  0.37591914  1
  Fe  Fe33  1  -0.00202301  0.24988649  -0.00060342  1
  Fe  Fe34  1  0.50088915  0.74657574  0.24829646  1
  Fe  Fe35  1  0.75173269  -0.00167169  -0.00067985  1
  Fe  Fe36  1  0.12652675  0.37355458  0.62685786  1
  Fe  Fe37  1  0.24746194  0.50052665  0.00270713  1
  Fe  Fe38  1  0.49746901  0.74696868  0.74813786  1
  Fe  Fe39  1  0.12642395  0.62358443  0.37377669  1
  Fe  Fe40  1  0.87890273  0.87699377  0.12681697  1
  Fe  Fe41  1  0.87255227  0.62632007  0.38220623  1
  Fe  Fe42  1  0.62649331  0.62656887  0.87334531  1
  Fe  Fe43  1  0.62162846  0.87333009  0.62512268  1
  Fe  Fe44  1  0.62487007  0.37287986  0.86896205  1
  Fe  Fe45  1  0.75386481  0.74860594  0.74753696  1
  Fe  Fe46  1  0.75366414  -0.00001659  0.25235139  1
  Fe  Fe47  1  0.49664801  0.49905582  0.74733608  1
  Fe  Fe48  1  0.12151154  0.37590725  0.12765997  1
  Fe  Fe49  1  0.12504214  0.62691874  0.62722869  1
  Fe  Fe50  1  0.00161047  0.50008782  0.50014812  1
  Fe  Fe51  1  0.75102106  0.75037761  0.25072472  1
  Fe  Fe52  1  0.75030893  0.49677727  -0.00167556  1
  Fe  Fe53  1  0.37449437  0.62443982  0.37719912  1
  Fe  Fe54  1  0.75140290  0.49840164  0.25309507  1
  Fe  Fe55  1  0.37404822  0.12490039  0.12352206  1
  Fe  Fe56  1  0.24804385  0.49806338  0.50056308  1
  Fe  Fe57  1  0.37627011  0.37612592  0.37683895  1
  Fe  Fe58  1  0.50086750  0.00048501  -0.00084032  1
  Fe  Fe59  1  0.75291763  0.25223917  -0.00255513  1
  Fe  Fe60  1  0.12345137  0.12045988  0.12271925  1
  Fe  Fe61  1  0.25282126  0.49659957  0.74959685  1
  Fe  Fe62  1  0.75026541  0.75222214  0.00028279  1
  Fe  Fe63  1  0.62661801  0.12555648  0.87156593  1
  Fe  Fe64  1  0.75004273  -0.00383906  0.50037713  1
  Fe  Fe65  1  0.62690320  0.62541227  0.37877889  1
  Fe  Fe66  1  0.12108799  0.88028813  0.87468228  1
  Fe  Fe67  1  0.24737614  0.24989673  -0.00199926  1
  Fe  Fe68  1  0.25060997  0.50003656  0.24772578  1
  Fe  Fe69  1  0.62702102  0.12839204  0.62740450  1
  Fe  Fe70  1  0.75315198  0.50225724  0.74690327  1
  Fe  Fe71  1  0.37322546  0.12264302  0.37802484  1
  Fe  Fe72  1  0.37740623  0.87613980  0.37768898  1
  Fe  Fe73  1  0.12366616  0.37492841  0.87354171  1
  Fe  Fe74  1  0.87620788  0.12228469  0.87464571  1
  Fe  Fe75  1  0.12774801  0.12646978  0.62471677  1
  Fe  Fe76  1  0.24902424  0.75067226  0.49994309  1
  Fe  Fe77  1  0.62366540  0.87550420  0.12565004  1
  Fe  Fe78  1  -0.00290368  0.50125123  0.25159306  1
  Fe  Fe79  1  0.12392732  0.87630608  0.37279700  1
  Fe  Fe80  1  -0.00261351  0.24744314  0.25094426  1
  Fe  Fe81  1  0.62827647  0.12586127  0.12501884  1
  Fe  Fe82  1  0.50158919  0.25025929  0.50145336  1
  Fe  Fe83  1  0.37563082  0.37448270  0.12333949  1
  Fe  Fe84  1  0.37341687  0.12555673  0.87492243  1
  Fe  Fe85  1  0.00051580  0.74828292  -0.00340427  1
  Fe  Fe86  1  0.24875813  0.74996913  0.24793167  1
  Fe  Fe87  1  0.75367016  -0.00105740  0.74722718  1
  Fe  Fe88  1  0.88052544  0.86968366  0.62423680  1
  Fe  Fe89  1  0.49954031  0.00238220  0.74844172  1
  Co  Co90  1  0.37314944  0.62668217  0.12223208  1
  Co  Co91  1  0.50236043  0.00331293  0.50197409  1
  Co  Co92  1  0.87574505  0.37631687  0.12596944  1
  Co  Co93  1  0.00511174  0.74923280  0.49709286  1
  Co  Co94  1  0.87765970  0.62737357  0.62006074  1
  Co  Co95  1  0.75616761  0.24845617  0.75192452  1
  Co  Co96  1  0.37092305  0.62525044  0.62472098  1
  Co  Co97  1  -0.00401557  0.00014518  -0.00016186  1
  Co  Co98  1  0.12079307  0.87708969  0.12477945  1
  Co  Co99  1  0.74833151  0.75298694  0.50238171  1
  Co  Co100  1  0.62137945  0.37646593  0.37305972  1
  Co  Co101  1  0.37273506  0.37142842  0.62111943  1
  Co  Co102  1  -0.00191650  0.00316060  0.25319837  1
  Co  Co103  1  0.87310453  0.12498414  0.12434640  1
  Co  Co104  1  0.25008158  0.25141339  0.75395793  1
  Co  Co105  1  0.63044186  0.62418009  0.12499117  1
  Co  Co106  1  0.87734428  0.37475557  0.37708354  1
  Co  Co107  1  0.62653433  0.62604320  0.62544009  1
  Co  Co108  1  0.12224628  0.62442562  0.12654792  1
  Co  Co109  1  0.87326563  0.12619523  0.37949054  1
  Co  Co110  1  0.24714025  0.25311533  0.49589862  1
  Co  Co111  1  0.87635843  0.87352905  0.37622973  1
  Co  Co112  1  0.87723044  0.37595224  0.87195062  1
  Co  Co113  1  -0.00198774  0.00301558  0.74632150  1
  Co  Co114  1  0.74752323  0.49625546  0.50249819  1
  Co  Co115  1  0.12886144  0.62242800  0.87290578  1
  Co  Co116  1  0.24694867  -0.00303114  0.50055472  1
  Co  Co117  1  -0.00020374  0.74542969  0.75518983  1
  Co  Co118  1  0.87156322  0.62515064  0.87738690  1
  Co  Co119  1  0.87605872  0.87555526  0.87239567  1
  Co  Co120  1  0.62659431  0.37207431  0.63204201  1
  Co  Co121  1  0.49904087  0.74682316  0.50172319  1
  Co  Co122  1  0.50336177  0.74760296  0.00076375  1
  Co  Co123  1  0.37494996  0.37688913  0.87919023  1
  Co  Co124  1  0.12375825  0.37654592  0.37141220  1
  Co  Co125  1  0.49484625  0.25047979  0.74948581  1
  Co  Co126  1  0.25162517  -0.00100839  -0.00044455  1
  Co  Co127  1  0.12312843  0.12250821  0.87530368  1
