# generated using pymatgen
data_Fe45Co19
_symmetry_space_group_name_H-M   'P 1'
_cell_length_a   11.40612153
_cell_length_b   11.40638715
_cell_length_c   11.40875895
_cell_angle_alpha   90.00036542
_cell_angle_beta   89.99163535
_cell_angle_gamma   90.01849946
_symmetry_Int_Tables_number   1
_chemical_formula_structural   Fe45Co19
_chemical_formula_sum   'Fe90 Co38'
_cell_volume   1484.30954371
_cell_formula_units_Z   2
loop_
 _symmetry_equiv_pos_site_id
 _symmetry_equiv_pos_as_xyz
  1  'x, y, z'
loop_
 _atom_site_type_symbol
 _atom_site_label
 _atom_site_symmetry_multiplicity
 _atom_site_fract_x
 _atom_site_fract_y
 _atom_site_fract_z
 _atom_site_occupancy
  Fe  Fe0  1  0.25546572  0.75222330  0.24653484  1
  Fe  Fe1  1  0.74855548  0.00167238  0.00069338  1
  Fe  Fe2  1  0.37737472  0.37080566  0.37515499  1
  Fe  Fe3  1  0.50243992  0.75489926  0.49790291  1
  Fe  Fe4  1  0.25194061  0.75097466  0.00364412  1
  Fe  Fe5  1  0.87444025  0.12591733  0.12411592  1
  Fe  Fe6  1  0.00297270  0.00094801  0.49357310  1
  Fe  Fe7  1  0.74427885  0.49586753  -0.00265329  1
  Fe  Fe8  1  0.12534652  0.87397603  0.87524571  1
  Fe  Fe9  1  0.75129449  -0.00053709  0.24953469  1
  Fe  Fe10  1  0.75054573  0.75053304  0.00231029  1
  Fe  Fe11  1  0.62614846  0.62734173  0.62580984  1
  Fe  Fe12  1  0.12739997  0.12724775  0.12651246  1
  Fe  Fe13  1  0.37217047  0.12617506  0.37858355  1
  Fe  Fe14  1  0.00017506  0.49828258  0.25195649  1
  Fe  Fe15  1  0.25062863  0.75183291  0.74709243  1
  Fe  Fe16  1  0.00099000  0.49743193  -0.00243132  1
  Fe  Fe17  1  0.12694454  0.37310428  0.12760302  1
  Fe  Fe18  1  0.12361506  0.37445570  0.62640940  1
  Fe  Fe19  1  0.49960290  0.75265237  0.75087267  1
  Fe  Fe20  1  0.24878323  -0.00078301  0.75093143  1
  Fe  Fe21  1  0.25449200  0.49790625  0.25009638  1
  Fe  Fe22  1  0.62739262  0.87387569  0.87452808  1
  Fe  Fe23  1  0.24519749  -0.00212243  0.49872489  1
  Fe  Fe24  1  0.37819002  0.88041965  0.62351844  1
  Fe  Fe25  1  0.74829776  0.00020867  0.49879827  1
  Fe  Fe26  1  0.12817341  0.36890169  0.37282161  1
  Fe  Fe27  1  -0.00183552  0.74907763  0.00129512  1
  Fe  Fe28  1  0.24826654  0.49811676  0.49860358  1
  Fe  Fe29  1  0.12592352  0.62521575  0.87535495  1
  Fe  Fe30  1  0.50242520  0.50018454  0.49723057  1
  Fe  Fe31  1  0.62689581  0.62835866  0.87390994  1
  Fe  Fe32  1  0.12773719  0.12853496  0.87524272  1
  Fe  Fe33  1  0.12650874  0.62787935  0.37254536  1
  Fe  Fe34  1  -0.00213928  0.74955606  0.24732046  1
  Fe  Fe35  1  0.00138463  0.25116986  0.00093881  1
  Fe  Fe36  1  0.00169674  0.00176112  -0.00150263  1
  Fe  Fe37  1  0.25477515  0.25058868  0.74447795  1
  Fe  Fe38  1  0.37457029  0.62736393  0.87549153  1
  Fe  Fe39  1  0.87343836  0.62578854  0.62439457  1
  Fe  Fe40  1  0.75344670  0.00499440  0.75125416  1
  Fe  Fe41  1  0.50102942  0.00135546  -0.00458562  1
  Fe  Fe42  1  0.49627598  0.24736889  0.50605303  1
  Fe  Fe43  1  0.12579549  0.62255448  0.12500078  1
  Fe  Fe44  1  0.37482052  0.62825470  0.37654671  1
  Fe  Fe45  1  0.62518560  0.12748956  0.37348832  1
  Fe  Fe46  1  0.25097464  0.49786709  0.75185485  1
  Fe  Fe47  1  0.24700358  0.75333338  0.50267648  1
  Fe  Fe48  1  0.00031240  0.24722388  0.49594622  1
  Fe  Fe49  1  0.37654117  0.62338830  0.62395610  1
  Fe  Fe50  1  0.61985722  0.62328319  0.12588954  1
  Fe  Fe51  1  0.37377907  0.87524595  0.87768043  1
  Fe  Fe52  1  0.74369645  0.25134850  0.24375635  1
  Fe  Fe53  1  0.74849923  0.49940330  0.49870753  1
  Fe  Fe54  1  0.12495556  0.87662967  0.12583665  1
  Fe  Fe55  1  0.87165327  0.37054020  0.37370597  1
  Fe  Fe56  1  0.37605735  0.12533049  0.12148930  1
  Fe  Fe57  1  0.74449060  0.49711022  0.25276672  1
  Fe  Fe58  1  0.12394373  0.12432992  0.62510207  1
  Fe  Fe59  1  0.75042616  0.75109648  0.24681877  1
  Fe  Fe60  1  0.86981956  0.36923661  0.87692290  1
  Fe  Fe61  1  0.50127388  0.49894372  0.75355741  1
  Fe  Fe62  1  0.25184234  -0.00040918  0.24978167  1
  Fe  Fe63  1  0.87301235  0.62568554  0.37486037  1
  Fe  Fe64  1  0.12485047  0.62366616  0.62638043  1
  Fe  Fe65  1  0.87484092  0.37530171  0.12537524  1
  Fe  Fe66  1  0.62346776  0.37405095  0.62751406  1
  Fe  Fe67  1  0.00002835  0.00383643  0.25269164  1
  Fe  Fe68  1  0.25050060  0.49593918  -0.00100110  1
  Fe  Fe69  1  0.87350425  0.62036641  0.12352989  1
  Fe  Fe70  1  0.87453313  0.87626548  0.87573828  1
  Fe  Fe71  1  0.87624559  0.37505600  0.62354089  1
  Fe  Fe72  1  0.75039293  0.49926792  0.75110361  1
  Fe  Fe73  1  0.87368023  0.87466695  0.37417368  1
  Fe  Fe74  1  0.62043672  0.12287188  0.62847200  1
  Fe  Fe75  1  0.00062709  0.75140248  0.49970680  1
  Fe  Fe76  1  -0.00510976  0.24580829  0.75042106  1
  Fe  Fe77  1  0.62055180  0.87594133  0.12614176  1
  Fe  Fe78  1  -0.00234226  0.74929788  0.75135676  1
  Fe  Fe79  1  0.87673137  0.87854340  0.62628067  1
  Fe  Fe80  1  0.62604649  0.63007166  0.37504821  1
  Fe  Fe81  1  -0.00229246  0.50004334  0.75314056  1
  Fe  Fe82  1  0.62710168  0.13341394  0.87222231  1
  Fe  Fe83  1  0.00069541  0.49949385  0.49652488  1
  Fe  Fe84  1  0.38161901  0.62068306  0.12343509  1
  Fe  Fe85  1  0.37492366  0.12757799  0.87594762  1
  Fe  Fe86  1  0.62577072  0.87712940  0.62709083  1
  Fe  Fe87  1  0.49656530  -0.00152647  0.25548686  1
  Fe  Fe88  1  0.74977810  0.24740007  0.50464583  1
  Fe  Fe89  1  0.37908648  0.37058642  0.87845683  1
  Co  Co90  1  0.25248111  0.25055474  0.50650038  1
  Co  Co91  1  0.50297748  0.50004357  -0.00878650  1
  Co  Co92  1  -0.00126008  0.24827246  0.25023374  1
  Co  Co93  1  0.50439072  -0.00064104  0.49509047  1
  Co  Co94  1  0.50078335  0.75065738  -0.00125525  1
  Co  Co95  1  0.75074488  0.75248296  0.50142411  1
  Co  Co96  1  0.87051592  0.12929722  0.88238832  1
  Co  Co97  1  0.75573737  0.24573504  0.74281923  1
  Co  Co98  1  0.37917438  0.87886580  0.12151844  1
  Co  Co99  1  0.25552318  0.25035700  0.24601378  1
  Co  Co100  1  0.61580407  0.38208883  0.12637483  1
  Co  Co101  1  0.13104400  0.12954460  0.37357328  1
  Co  Co102  1  0.87302528  0.62419306  0.87762865  1
  Co  Co103  1  0.50061046  0.50090412  0.25835954  1
  Co  Co104  1  0.87946002  0.11974012  0.62021149  1
  Co  Co105  1  0.37528569  0.11501894  0.62379659  1
  Co  Co106  1  0.50023373  0.24777958  0.24687782  1
  Co  Co107  1  0.12483840  0.37174536  0.87158125  1
  Co  Co108  1  0.50579675  0.24807435  0.00382107  1
  Co  Co109  1  0.49721799  0.75219765  0.25143471  1
  Co  Co110  1  0.50051235  -0.00002285  0.75593218  1
  Co  Co111  1  0.86935018  0.12763639  0.37281999  1
  Co  Co112  1  0.62274956  0.36786480  0.37858406  1
  Co  Co113  1  0.62787872  0.87450026  0.37128158  1
  Co  Co114  1  0.49377391  0.24957771  0.74472608  1
  Co  Co115  1  0.12563553  0.87215235  0.36926832  1
  Co  Co116  1  0.37216321  0.87539377  0.37897361  1
  Co  Co117  1  0.24984998  0.25310752  0.00190741  1
  Co  Co118  1  0.62188353  0.11696251  0.12823553  1
  Co  Co119  1  0.12020642  0.87735348  0.62800212  1
  Co  Co120  1  0.75221508  0.75080525  0.74981952  1
  Co  Co121  1  0.24855707  0.00055028  -0.00030479  1
  Co  Co122  1  0.87591123  0.87835428  0.12396715  1
  Co  Co123  1  0.74201970  0.25191186  0.01005733  1
  Co  Co124  1  0.38177926  0.37785768  0.12304083  1
  Co  Co125  1  0.37670934  0.38231776  0.62376822  1
  Co  Co126  1  0.62635023  0.36602052  0.86901261  1
  Co  Co127  1  -0.00135984  0.00417751  0.75562364  1
