# generated using pymatgen
data_Fe45Co19
_symmetry_space_group_name_H-M   'P 1'
_cell_length_a   11.41478763
_cell_length_b   11.41508977
_cell_length_c   11.41447033
_cell_angle_alpha   89.99197494
_cell_angle_beta   89.99000539
_cell_angle_gamma   90.00463209
_symmetry_Int_Tables_number   1
_chemical_formula_structural   Fe45Co19
_chemical_formula_sum   'Fe90 Co38'
_cell_volume   1487.31486431
_cell_formula_units_Z   2
loop_
 _symmetry_equiv_pos_site_id
 _symmetry_equiv_pos_as_xyz
  1  'x, y, z'
loop_
 _atom_site_type_symbol
 _atom_site_label
 _atom_site_symmetry_multiplicity
 _atom_site_fract_x
 _atom_site_fract_y
 _atom_site_fract_z
 _atom_site_occupancy
  Fe  Fe0  1  -0.00120931  0.75054630  0.50497945  1
  Fe  Fe1  1  0.49713852  0.74860648  0.25092080  1
  Fe  Fe2  1  0.87256295  0.37281508  0.87608582  1
  Fe  Fe3  1  0.49632677  0.49897081  0.25042492  1
  Fe  Fe4  1  0.50080962  0.50031275  -0.00210001  1
  Fe  Fe5  1  0.12808554  0.37584925  0.62679393  1
  Fe  Fe6  1  0.75118477  0.74897428  -0.00199880  1
  Fe  Fe7  1  0.25255743  0.25456670  0.24834723  1
  Fe  Fe8  1  0.62339487  0.37567805  0.37579245  1
  Fe  Fe9  1  0.37315422  0.87535917  0.12504342  1
  Fe  Fe10  1  0.37411173  0.62248621  0.62657116  1
  Fe  Fe11  1  0.37312562  0.12483200  0.87377831  1
  Fe  Fe12  1  0.87536348  0.12381880  0.12371680  1
  Fe  Fe13  1  0.87454784  0.37634031  0.62370380  1
  Fe  Fe14  1  -0.00038871  0.25037564  0.00077188  1
  Fe  Fe15  1  0.62441805  0.12454175  0.37463326  1
  Fe  Fe16  1  0.00087959  0.00089020  0.50144431  1
  Fe  Fe17  1  0.75152391  0.50046553  0.25139969  1
  Fe  Fe18  1  0.37449315  0.12467169  0.12401098  1
  Fe  Fe19  1  0.62457191  0.12645073  0.62564485  1
  Fe  Fe20  1  0.25063628  0.25414802  -0.00056572  1
  Fe  Fe21  1  0.62876796  0.62622497  0.62383632  1
  Fe  Fe22  1  0.00194263  0.49928592  0.00108584  1
  Fe  Fe23  1  0.50068688  0.74793287  0.49895745  1
  Fe  Fe24  1  0.49950996  0.49884072  0.50216800  1
  Fe  Fe25  1  0.87804415  0.87413103  0.37669248  1
  Fe  Fe26  1  0.00227523  0.49920300  0.50000652  1
  Fe  Fe27  1  0.87658321  0.37468631  0.37597505  1
  Fe  Fe28  1  0.00214182  -0.00037868  0.25162165  1
  Fe  Fe29  1  0.49774190  0.25177025  0.25067173  1
  Fe  Fe30  1  0.49877164  0.00058303  0.50206288  1
  Fe  Fe31  1  0.75058123  0.49989679  -0.00129219  1
  Fe  Fe32  1  0.12575688  0.87778309  0.62844400  1
  Fe  Fe33  1  0.37181575  0.62185882  0.37671342  1
  Fe  Fe34  1  0.12583185  0.87257369  0.87054334  1
  Fe  Fe35  1  0.62589418  0.37550875  0.62587643  1
  Fe  Fe36  1  0.37075459  0.62400134  0.12152379  1
  Fe  Fe37  1  0.12390186  0.12749825  0.37718041  1
  Fe  Fe38  1  0.87185493  0.12549296  0.87433864  1
  Fe  Fe39  1  0.50179721  0.25113787  -0.00233546  1
  Fe  Fe40  1  0.62538128  0.37628525  0.12352804  1
  Fe  Fe41  1  0.87537617  0.87432919  0.12448002  1
  Fe  Fe42  1  0.12701636  0.12477050  0.87236170  1
  Fe  Fe43  1  0.62371744  0.62494283  0.87423187  1
  Fe  Fe44  1  -0.00106355  0.25160934  0.24963069  1
  Fe  Fe45  1  0.62786230  0.87206695  0.62510891  1
  Fe  Fe46  1  0.62436882  0.12301830  0.12449874  1
  Fe  Fe47  1  0.75166351  0.25045184  0.24937870  1
  Fe  Fe48  1  0.12411817  0.37637111  0.87409031  1
  Fe  Fe49  1  0.62521264  0.87450732  0.12551898  1
  Fe  Fe50  1  0.62739767  0.87405078  0.87285587  1
  Fe  Fe51  1  0.62521284  0.62491159  0.12583709  1
  Fe  Fe52  1  0.00167321  0.75016824  -0.00031162  1
  Fe  Fe53  1  0.25037934  0.00033552  0.50176763  1
  Fe  Fe54  1  0.87383842  0.87639184  0.87099629  1
  Fe  Fe55  1  0.12623233  0.12640459  0.12367222  1
  Fe  Fe56  1  0.62339519  0.87470979  0.37527526  1
  Fe  Fe57  1  0.87719856  0.12524418  0.62470536  1
  Fe  Fe58  1  0.00087599  -0.00067190  -0.00227295  1
  Fe  Fe59  1  0.49931233  0.75006709  0.00035095  1
  Fe  Fe60  1  0.49738214  0.25174305  0.50092291  1
  Fe  Fe61  1  0.49912865  -0.00140045  0.74896038  1
  Fe  Fe62  1  0.50017630  -0.00102250  -0.00115587  1
  Fe  Fe63  1  0.74974004  0.50233076  0.49830595  1
  Fe  Fe64  1  0.75128812  0.00001690  0.25095171  1
  Fe  Fe65  1  0.37278667  0.87123153  0.87297375  1
  Fe  Fe66  1  0.12069178  0.62246165  0.63105074  1
  Fe  Fe67  1  0.00091160  0.24972503  0.74783413  1
  Fe  Fe68  1  0.87821574  0.62584473  0.37661934  1
  Fe  Fe69  1  0.12590188  0.87311400  0.12635591  1
  Fe  Fe70  1  0.12577983  0.62587079  0.37221324  1
  Fe  Fe71  1  0.49885289  0.74753408  0.74909145  1
  Fe  Fe72  1  0.37264485  0.12657929  0.62811796  1
  Fe  Fe73  1  0.24835013  -0.00116914  0.25267654  1
  Fe  Fe74  1  0.75087788  0.24902291  0.49946863  1
  Fe  Fe75  1  0.50042108  0.25321622  0.74968756  1
  Fe  Fe76  1  0.75030598  0.74812135  0.25328076  1
  Fe  Fe77  1  0.37509142  0.12524739  0.37469832  1
  Fe  Fe78  1  0.75041666  0.50042526  0.75074498  1
  Fe  Fe79  1  0.12668839  0.62405558  0.12695995  1
  Fe  Fe80  1  0.24759839  0.74873883  0.50327827  1
  Fe  Fe81  1  0.75087446  0.00041197  0.50086068  1
  Fe  Fe82  1  0.62822931  0.12586304  0.87428928  1
  Fe  Fe83  1  0.24933095  -0.00198557  -0.00173502  1
  Fe  Fe84  1  0.87640729  0.62466293  0.12570339  1
  Fe  Fe85  1  0.25077670  0.25191967  0.50220979  1
  Fe  Fe86  1  0.37412574  0.87485304  0.37738681  1
  Fe  Fe87  1  0.12652713  0.37581394  0.37414576  1
  Fe  Fe88  1  0.87980352  0.62467207  0.87179535  1
  Fe  Fe89  1  0.37579493  0.37991639  0.87200961  1
  Co  Co90  1  0.62238186  0.62280895  0.37467062  1
  Co  Co91  1  0.87750174  0.12564442  0.37641336  1
  Co  Co92  1  0.74887844  0.25020068  0.00284718  1
  Co  Co93  1  0.12038966  0.62580335  0.87209420  1
  Co  Co94  1  0.12304610  0.37523061  0.12507231  1
  Co  Co95  1  0.62684802  0.37557150  0.87414488  1
  Co  Co96  1  0.74910622  0.00209634  0.74741291  1
  Co  Co97  1  0.37221237  0.37732430  0.62759586  1
  Co  Co98  1  0.87515683  0.62235023  0.62472304  1
  Co  Co99  1  0.00001219  0.00292628  0.75039219  1
  Co  Co100  1  0.37592516  0.62474774  0.87635724  1
  Co  Co101  1  0.37699774  0.37572435  0.11996534  1
  Co  Co102  1  0.12681128  0.12508944  0.62554740  1
  Co  Co103  1  -0.00162358  0.49504940  0.75012513  1
  Co  Co104  1  0.75062521  0.25069180  0.74721384  1
  Co  Co105  1  0.87568522  0.37647474  0.12389448  1
  Co  Co106  1  0.50200147  0.50144197  0.74792099  1
  Co  Co107  1  0.49853975  -0.00039355  0.25003090  1
  Co  Co108  1  0.24922062  0.25245461  0.75150556  1
  Co  Co109  1  -0.00209071  0.75218088  0.74707032  1
  Co  Co110  1  -0.00002012  0.74989364  0.24908788  1
  Co  Co111  1  0.37410535  0.37744262  0.37952143  1
  Co  Co112  1  0.24696649  0.50148015  0.50203260  1
  Co  Co113  1  0.25164755  0.49687203  0.24782899  1
  Co  Co114  1  0.87234048  0.87581837  0.62645513  1
  Co  Co115  1  0.37539760  0.87225472  0.62451702  1
  Co  Co116  1  0.74957956  -0.00104276  -0.00040869  1
  Co  Co117  1  0.25213123  -0.00101006  0.74934925  1
  Co  Co118  1  0.25159333  0.75074963  0.25126266  1
  Co  Co119  1  0.00148301  0.25240691  0.50261812  1
  Co  Co120  1  0.12399131  0.87231211  0.37797164  1
  Co  Co121  1  0.24982676  0.74608608  0.74827283  1
  Co  Co122  1  0.24901047  0.50394448  0.75301843  1
  Co  Co123  1  0.75258688  0.74619340  0.75098983  1
  Co  Co124  1  0.24711651  0.74859079  -0.00190933  1
  Co  Co125  1  0.75152678  0.74868554  0.49721806  1
  Co  Co126  1  0.00009303  0.49983192  0.25095803  1
  Co  Co127  1  0.24676664  0.49956261  -0.00265681  1
