# generated using pymatgen
data_Fe45Co19
_symmetry_space_group_name_H-M   'P 1'
_cell_length_a   11.41558480
_cell_length_b   11.41542673
_cell_length_c   11.41674377
_cell_angle_alpha   90.00174473
_cell_angle_beta   89.99872753
_cell_angle_gamma   90.00175981
_symmetry_Int_Tables_number   1
_chemical_formula_structural   Fe45Co19
_chemical_formula_sum   'Fe90 Co38'
_cell_volume   1487.75894202
_cell_formula_units_Z   2
loop_
 _symmetry_equiv_pos_site_id
 _symmetry_equiv_pos_as_xyz
  1  'x, y, z'
loop_
 _atom_site_type_symbol
 _atom_site_label
 _atom_site_symmetry_multiplicity
 _atom_site_fract_x
 _atom_site_fract_y
 _atom_site_fract_z
 _atom_site_occupancy
  Fe  Fe0  1  0.25058327  0.74970938  0.50236867  1
  Fe  Fe1  1  0.00200695  0.24894039  -0.00142485  1
  Fe  Fe2  1  0.87515033  0.62438295  0.87637003  1
  Fe  Fe3  1  0.50119972  0.74638068  -0.00505362  1
  Fe  Fe4  1  0.37583747  0.12914948  0.62634944  1
  Fe  Fe5  1  0.25102722  0.25282506  0.24595084  1
  Fe  Fe6  1  0.75001773  0.74986885  0.75016315  1
  Fe  Fe7  1  0.00139858  0.00155507  0.75006658  1
  Fe  Fe8  1  0.00187178  0.24990247  0.75225382  1
  Fe  Fe9  1  0.12503478  0.87409163  0.62514258  1
  Fe  Fe10  1  0.87358878  0.37658421  0.37899446  1
  Fe  Fe11  1  0.49489022  0.00051811  0.49765516  1
  Fe  Fe12  1  0.49817434  0.24926279  -0.00214118  1
  Fe  Fe13  1  0.74884810  0.25233492  0.25213187  1
  Fe  Fe14  1  0.74935826  0.00100209  0.50231647  1
  Fe  Fe15  1  0.12474834  0.37577630  0.37314504  1
  Fe  Fe16  1  0.50001498  0.49944051  0.24885588  1
  Fe  Fe17  1  0.12202336  0.37688127  0.62425476  1
  Fe  Fe18  1  0.62747078  0.12263956  0.87480897  1
  Fe  Fe19  1  0.87647700  0.12652775  0.62416265  1
  Fe  Fe20  1  0.75218236  0.49908815  0.74674062  1
  Fe  Fe21  1  0.87603469  0.87436448  0.62510255  1
  Fe  Fe22  1  0.49935819  0.25099839  0.25216200  1
  Fe  Fe23  1  0.00023614  -0.00083199  0.00041011  1
  Fe  Fe24  1  0.50051941  0.74905424  0.25261568  1
  Fe  Fe25  1  0.62321213  0.87378364  0.12413639  1
  Fe  Fe26  1  0.00128634  -0.00129258  0.24905168  1
  Fe  Fe27  1  -0.00187292  0.50239015  0.24853770  1
  Fe  Fe28  1  0.37346782  0.38040487  0.88039678  1
  Fe  Fe29  1  0.37303750  0.12457197  0.12575430  1
  Fe  Fe30  1  0.62118268  0.37186903  0.62463308  1
  Fe  Fe31  1  0.12703435  0.62242045  0.87569012  1
  Fe  Fe32  1  0.87385135  0.12567122  0.12579738  1
  Fe  Fe33  1  0.87269870  0.62474110  0.37518173  1
  Fe  Fe34  1  0.87880987  0.37499006  0.62183397  1
  Fe  Fe35  1  0.74882541  0.74865890  0.50054085  1
  Fe  Fe36  1  0.62814992  0.62589062  0.12685597  1
  Fe  Fe37  1  0.36933464  0.12174450  0.87603719  1
  Fe  Fe38  1  0.74975663  0.24915504  0.74931663  1
  Fe  Fe39  1  0.87408625  0.12457597  0.37584570  1
  Fe  Fe40  1  0.87544366  0.87392515  0.37546895  1
  Fe  Fe41  1  0.24892012  0.49993888  0.24394382  1
  Fe  Fe42  1  0.62819859  0.62124777  0.37443805  1
  Fe  Fe43  1  0.87326563  0.12274602  0.87479646  1
  Fe  Fe44  1  0.74988594  -0.00319548  0.24809399  1
  Fe  Fe45  1  0.00210301  0.74948472  0.75174067  1
  Fe  Fe46  1  0.75040495  0.50304693  0.00295139  1
  Fe  Fe47  1  0.12687242  0.87473019  0.37362020  1
  Fe  Fe48  1  0.62084341  0.12851443  0.62555182  1
  Fe  Fe49  1  0.87446255  0.37614493  0.87615863  1
  Fe  Fe50  1  0.25218366  0.75073757  0.74976018  1
  Fe  Fe51  1  0.25104092  0.25298891  0.50047970  1
  Fe  Fe52  1  0.11909670  0.62814492  0.12213865  1
  Fe  Fe53  1  0.62756853  0.87734500  0.87482111  1
  Fe  Fe54  1  0.62325696  0.62583510  0.62717583  1
  Fe  Fe55  1  0.12635466  0.62618458  0.37551485  1
  Fe  Fe56  1  0.12900921  0.87948094  0.87404861  1
  Fe  Fe57  1  0.62378432  0.87459591  0.37679066  1
  Fe  Fe58  1  0.74891902  0.24827151  0.00001781  1
  Fe  Fe59  1  0.37347343  0.62559194  0.37425122  1
  Fe  Fe60  1  0.62536874  0.12442232  0.12601874  1
  Fe  Fe61  1  0.37443856  0.37653630  0.37350537  1
  Fe  Fe62  1  0.37547135  0.62608925  0.62556218  1
  Fe  Fe63  1  0.88043016  0.62431110  0.62379021  1
  Fe  Fe64  1  0.49752922  0.74916733  0.75420150  1
  Fe  Fe65  1  0.87642964  0.86814292  0.12406655  1
  Fe  Fe66  1  0.49850677  0.00006895  -0.00017500  1
  Fe  Fe67  1  0.62319378  0.37463950  0.12439741  1
  Fe  Fe68  1  0.12542046  0.37730250  0.87833991  1
  Fe  Fe69  1  0.00147001  0.00010533  0.49961073  1
  Fe  Fe70  1  0.87163897  0.87725438  0.87425398  1
  Fe  Fe71  1  0.49804647  0.49958204  0.75160606  1
  Fe  Fe72  1  0.62194387  0.87371213  0.62410918  1
  Fe  Fe73  1  0.12874691  0.12408464  0.37337324  1
  Fe  Fe74  1  0.49770134  -0.00060454  0.75022931  1
  Fe  Fe75  1  0.25384475  -0.00140435  0.50051379  1
  Fe  Fe76  1  0.49908245  0.49988370  0.50021922  1
  Fe  Fe77  1  0.49548860  -0.00092017  0.25269628  1
  Fe  Fe78  1  0.62526778  0.12605282  0.37572139  1
  Fe  Fe79  1  0.24977778  0.50012262  0.50170035  1
  Fe  Fe80  1  -0.00015812  0.24944252  0.25202012  1
  Fe  Fe81  1  0.87658080  0.37426158  0.12390371  1
  Fe  Fe82  1  0.62602219  0.37734043  0.87577224  1
  Fe  Fe83  1  0.12551584  0.12604043  0.62529106  1
  Fe  Fe84  1  0.25014192  0.75234970  0.24595098  1
  Fe  Fe85  1  0.24950999  0.50021632  0.74754607  1
  Fe  Fe86  1  0.25101180  0.75265507  0.00019508  1
  Fe  Fe87  1  0.25003231  0.25154512  0.75243026  1
  Fe  Fe88  1  0.37663052  0.62511687  0.12236863  1
  Fe  Fe89  1  0.12690498  0.12440779  0.12440369  1
  Co  Co90  1  0.75291311  0.49837086  0.24639024  1
  Co  Co91  1  -0.00054848  0.50048257  0.00104457  1
  Co  Co92  1  0.37889130  0.37610911  0.12297654  1
  Co  Co93  1  0.50069368  0.74599444  0.49696209  1
  Co  Co94  1  0.00108780  0.74907982  0.25412345  1
  Co  Co95  1  0.37031527  0.12759017  0.37287625  1
  Co  Co96  1  0.00312773  0.50237963  0.49703592  1
  Co  Co97  1  0.00099483  0.50001831  0.75196197  1
  Co  Co98  1  0.25214473  -0.00028584  0.74536929  1
  Co  Co99  1  0.25029775  0.25219918  0.00124883  1
  Co  Co100  1  0.12157823  0.87352224  0.12530019  1
  Co  Co101  1  0.74881026  0.24963519  0.50066144  1
  Co  Co102  1  0.49756684  0.25093840  0.75728678  1
  Co  Co103  1  0.50340806  0.50398080  0.00021427  1
  Co  Co104  1  0.12380448  0.62562632  0.62613381  1
  Co  Co105  1  0.37099330  0.62114254  0.87640931  1
  Co  Co106  1  0.62523803  0.37731457  0.37575247  1
  Co  Co107  1  0.37811731  0.87193438  0.62427630  1
  Co  Co108  1  0.37367735  0.87005872  0.37444697  1
  Co  Co109  1  0.74661549  0.74900293  -0.00255891  1
  Co  Co110  1  0.37383549  0.87672749  0.87550209  1
  Co  Co111  1  0.25242581  -0.00465370  0.24753069  1
  Co  Co112  1  0.37627886  0.37433728  0.62630587  1
  Co  Co113  1  0.74799583  0.50020864  0.50448141  1
  Co  Co114  1  0.74856094  0.75184444  0.25156345  1
  Co  Co115  1  0.12836734  0.12210908  0.87678211  1
  Co  Co116  1  0.12061237  0.37333907  0.12593109  1
  Co  Co117  1  0.75115141  -0.00137531  0.00441222  1
  Co  Co118  1  0.24702573  0.49962314  0.00717713  1
  Co  Co119  1  0.49725128  0.25129119  0.49557639  1
  Co  Co120  1  0.00123270  0.74988679  0.49853947  1
  Co  Co121  1  0.00235481  0.24909190  0.49779856  1
  Co  Co122  1  0.62768052  0.62139966  0.87047855  1
  Co  Co123  1  0.00217413  0.75269809  -0.00694691  1
  Co  Co124  1  0.74846463  0.00139544  0.74576204  1
  Co  Co125  1  0.37994142  0.87220535  0.12423876  1
  Co  Co126  1  0.87665213  0.63104102  0.12311786  1
  Co  Co127  1  0.25027657  -0.00397014  0.00544142  1
