# generated using pymatgen
data_Fe45Co19
_symmetry_space_group_name_H-M   'P 1'
_cell_length_a   11.41448863
_cell_length_b   11.41405766
_cell_length_c   11.41535932
_cell_angle_alpha   90.00410306
_cell_angle_beta   90.00420818
_cell_angle_gamma   89.99589678
_symmetry_Int_Tables_number   1
_chemical_formula_structural   Fe45Co19
_chemical_formula_sum   'Fe90 Co38'
_cell_volume   1487.25728543
_cell_formula_units_Z   2
loop_
 _symmetry_equiv_pos_site_id
 _symmetry_equiv_pos_as_xyz
  1  'x, y, z'
loop_
 _atom_site_type_symbol
 _atom_site_label
 _atom_site_symmetry_multiplicity
 _atom_site_fract_x
 _atom_site_fract_y
 _atom_site_fract_z
 _atom_site_occupancy
  Fe  Fe0  1  0.62628805  0.12769718  0.12457685  1
  Fe  Fe1  1  0.49866941  0.49730612  0.00183927  1
  Fe  Fe2  1  0.87748338  0.62629485  0.37589619  1
  Fe  Fe3  1  0.62438906  0.62443440  0.37604458  1
  Fe  Fe4  1  0.75040513  0.75157854  0.50060463  1
  Fe  Fe5  1  0.12641451  0.62527558  0.87990808  1
  Fe  Fe6  1  0.12433693  0.87533323  0.87546732  1
  Fe  Fe7  1  0.62464163  0.87374067  0.37357086  1
  Fe  Fe8  1  0.87517782  0.62623658  0.87746673  1
  Fe  Fe9  1  0.12570473  0.12389794  0.12411970  1
  Fe  Fe10  1  0.37775983  0.87719944  0.87363653  1
  Fe  Fe11  1  0.50052516  0.00120622  0.49817218  1
  Fe  Fe12  1  0.37442579  0.62524977  0.37400411  1
  Fe  Fe13  1  0.87625070  0.37477541  0.87387810  1
  Fe  Fe14  1  0.00016623  0.24997492  0.50234399  1
  Fe  Fe15  1  0.62749904  0.37213299  0.12564837  1
  Fe  Fe16  1  0.87401606  0.62507328  0.12135633  1
  Fe  Fe17  1  0.12824328  0.62621753  0.11919000  1
  Fe  Fe18  1  0.25094023  0.24756885  0.25026193  1
  Fe  Fe19  1  0.74793199  0.74936294  0.74937198  1
  Fe  Fe20  1  0.12463270  0.87324342  0.37351525  1
  Fe  Fe21  1  0.37493691  0.37499293  0.12671182  1
  Fe  Fe22  1  0.37373538  0.87506970  0.62539550  1
  Fe  Fe23  1  0.50025739  0.49943360  0.25094639  1
  Fe  Fe24  1  0.25051953  0.74973487  0.75185062  1
  Fe  Fe25  1  0.12509800  0.12670676  0.37522382  1
  Fe  Fe26  1  0.00000685  0.24633641  0.74701892  1
  Fe  Fe27  1  0.62490358  0.87576620  0.62584325  1
  Fe  Fe28  1  0.25054015  0.00129562  -0.00273584  1
  Fe  Fe29  1  0.62225600  0.12865856  0.87526340  1
  Fe  Fe30  1  0.25372346  0.24809286  0.00033049  1
  Fe  Fe31  1  0.74491774  0.75371236  0.00009773  1
  Fe  Fe32  1  0.87501464  0.87671638  0.62551257  1
  Fe  Fe33  1  0.12640349  0.87619231  0.62554255  1
  Fe  Fe34  1  0.12494704  0.37442930  0.12365815  1
  Fe  Fe35  1  0.00022055  0.50109804  0.24704836  1
  Fe  Fe36  1  0.37419062  0.87403992  0.12636169  1
  Fe  Fe37  1  0.74945721  0.49830981  0.74946145  1
  Fe  Fe38  1  0.49734792  0.25177432  0.50349607  1
  Fe  Fe39  1  0.49938635  0.24766300  0.24981127  1
  Fe  Fe40  1  0.87527756  0.87246185  0.37362912  1
  Fe  Fe41  1  0.74781091  0.00239094  0.25294896  1
  Fe  Fe42  1  0.75098077  0.49933405  0.25177136  1
  Fe  Fe43  1  0.62365675  0.62538700  0.12469926  1
  Fe  Fe44  1  0.74863264  0.49722256  -0.00174287  1
  Fe  Fe45  1  0.87325156  0.12608992  0.37692678  1
  Fe  Fe46  1  0.00017457  -0.00201164  0.00181433  1
  Fe  Fe47  1  0.49938892  0.00355357  0.74706156  1
  Fe  Fe48  1  0.62302198  0.62166656  0.62314814  1
  Fe  Fe49  1  0.12589358  0.37412171  0.87665744  1
  Fe  Fe50  1  0.62236696  0.62404268  0.87503198  1
  Fe  Fe51  1  0.24999068  -0.00011033  0.49667243  1
  Fe  Fe52  1  0.00001330  -0.00008260  0.49990713  1
  Fe  Fe53  1  0.12598251  0.62604064  0.62421383  1
  Fe  Fe54  1  0.12427195  0.37597738  0.37352110  1
  Fe  Fe55  1  0.24976010  0.50254896  0.24772667  1
  Fe  Fe56  1  0.00026499  0.74946577  0.75033837  1
  Fe  Fe57  1  0.24968677  0.74991912  0.49775266  1
  Fe  Fe58  1  0.74727907  -0.00103308  -0.00033367  1
  Fe  Fe59  1  0.74893805  0.00216407  0.75047891  1
  Fe  Fe60  1  0.00382591  0.74840812  0.24801157  1
  Fe  Fe61  1  0.25187257  0.00085861  0.25260279  1
  Fe  Fe62  1  0.50070554  0.74950674  0.75048259  1
  Fe  Fe63  1  0.24864657  0.24426497  0.75221089  1
  Fe  Fe64  1  0.25269555  0.49991349  0.50170456  1
  Fe  Fe65  1  0.49984036  0.74964964  0.49958988  1
  Fe  Fe66  1  0.00024000  0.00129225  0.24985743  1
  Fe  Fe67  1  0.62547828  0.37286475  0.37626540  1
  Fe  Fe68  1  0.49986364  0.00343992  0.25349020  1
  Fe  Fe69  1  0.37549905  0.62395100  0.87769107  1
  Fe  Fe70  1  0.37561721  0.37296099  0.87183253  1
  Fe  Fe71  1  0.49907785  0.74932746  0.24879352  1
  Fe  Fe72  1  0.00071544  0.49901334  0.50063769  1
  Fe  Fe73  1  0.87613408  0.62412308  0.62495650  1
  Fe  Fe74  1  0.50150076  -0.00063105  0.00154546  1
  Fe  Fe75  1  0.36936403  0.12479838  0.62325908  1
  Fe  Fe76  1  0.87353848  0.87500020  0.12697968  1
  Fe  Fe77  1  0.75133720  0.49773873  0.49993964  1
  Fe  Fe78  1  0.87381442  0.87461250  0.87362434  1
  Fe  Fe79  1  -0.00410305  0.24977152  0.24769940  1
  Fe  Fe80  1  0.75414416  0.25315996  0.50339830  1
  Fe  Fe81  1  0.12767204  0.37440247  0.62656988  1
  Fe  Fe82  1  0.87547250  0.12515326  0.87557580  1
  Fe  Fe83  1  0.49663919  0.49820681  0.74487956  1
  Fe  Fe84  1  0.00275766  0.00254611  0.74904243  1
  Fe  Fe85  1  0.00306968  0.50158055  0.75244155  1
  Fe  Fe86  1  0.37423418  0.37371746  0.37490823  1
  Fe  Fe87  1  0.62918920  0.12581670  0.62286285  1
  Fe  Fe88  1  -0.00373314  0.24983094  0.00340700  1
  Fe  Fe89  1  0.62212542  0.37048191  0.87220057  1
  Co  Co90  1  0.49955851  0.24756451  0.74428060  1
  Co  Co91  1  0.36952191  0.37245422  0.62766848  1
  Co  Co92  1  0.37641035  0.62683889  0.12334646  1
  Co  Co93  1  0.12785598  0.12335399  0.62265671  1
  Co  Co94  1  0.87763702  0.37803732  0.62829935  1
  Co  Co95  1  0.62520013  0.37632775  0.62473743  1
  Co  Co96  1  0.75167408  0.25081029  -0.00150367  1
  Co  Co97  1  0.00066114  0.49814880  -0.00042528  1
  Co  Co98  1  0.62608367  0.12996160  0.37712233  1
  Co  Co99  1  0.75109923  0.25011728  0.74898209  1
  Co  Co100  1  0.62363956  0.87581534  0.12970558  1
  Co  Co101  1  0.37462755  0.12262715  0.12521891  1
  Co  Co102  1  0.87278891  0.37833780  0.12478597  1
  Co  Co103  1  0.50245430  0.75217672  -0.00064619  1
  Co  Co104  1  0.24805017  0.74836398  0.25009450  1
  Co  Co105  1  0.37492396  0.62787016  0.62523787  1
  Co  Co106  1  0.00036484  0.75175382  0.50059364  1
  Co  Co107  1  0.37971241  0.12506044  0.87557531  1
  Co  Co108  1  0.49716308  0.25139141  0.00286312  1
  Co  Co109  1  0.87276237  0.12141318  0.12419757  1
  Co  Co110  1  0.12214758  0.12550148  0.87917248  1
  Co  Co111  1  0.25214038  0.75293108  -0.00146007  1
  Co  Co112  1  0.37495336  0.12728852  0.37717316  1
  Co  Co113  1  0.00000289  0.75373053  0.00106202  1
  Co  Co114  1  0.74994285  0.74812290  0.24985286  1
  Co  Co115  1  0.12522888  0.62322997  0.37701772  1
  Co  Co116  1  0.49576779  0.49765585  0.50044628  1
  Co  Co117  1  0.37604670  0.87336042  0.37465430  1
  Co  Co118  1  0.24907774  0.00212278  0.75367408  1
  Co  Co119  1  0.87353042  0.12190249  0.62388288  1
  Co  Co120  1  0.25251591  0.49664008  0.00022700  1
  Co  Co121  1  0.24948792  0.50235179  0.75075398  1
  Co  Co122  1  0.74906843  -0.00311610  0.49672098  1
  Co  Co123  1  0.62317604  0.87731059  0.87098797  1
  Co  Co124  1  0.24794138  0.25119452  0.49754617  1
  Co  Co125  1  0.87750902  0.37563024  0.37426735  1
  Co  Co126  1  0.75348814  0.24976437  0.24926768  1
  Co  Co127  1  0.12814258  0.87722111  0.12556733  1
