# generated using pymatgen
data_Fe45Co19
_symmetry_space_group_name_H-M   'P 1'
_cell_length_a   11.41627409
_cell_length_b   11.41467617
_cell_length_c   11.41663642
_cell_angle_alpha   90.00125427
_cell_angle_beta   89.99586589
_cell_angle_gamma   89.99902541
_symmetry_Int_Tables_number   1
_chemical_formula_structural   Fe45Co19
_chemical_formula_sum   'Fe90 Co38'
_cell_volume   1487.73695628
_cell_formula_units_Z   2
loop_
 _symmetry_equiv_pos_site_id
 _symmetry_equiv_pos_as_xyz
  1  'x, y, z'
loop_
 _atom_site_type_symbol
 _atom_site_label
 _atom_site_symmetry_multiplicity
 _atom_site_fract_x
 _atom_site_fract_y
 _atom_site_fract_z
 _atom_site_occupancy
  Fe  Fe0  1  0.74942743  0.00128444  0.75172627  1
  Fe  Fe1  1  0.74647035  0.50249222  0.25245287  1
  Fe  Fe2  1  -0.00475249  -0.00360347  0.49884757  1
  Fe  Fe3  1  0.37612133  0.37458872  0.37249360  1
  Fe  Fe4  1  0.87584670  0.37446395  0.87385891  1
  Fe  Fe5  1  0.37788949  0.12328536  0.37327746  1
  Fe  Fe6  1  0.87659260  0.62587365  0.62531288  1
  Fe  Fe7  1  0.74977050  0.49885718  -0.00078417  1
  Fe  Fe8  1  0.37445719  0.37548551  0.62648637  1
  Fe  Fe9  1  -0.00151993  0.00206399  0.00205251  1
  Fe  Fe10  1  0.74973994  0.24689913  0.49915514  1
  Fe  Fe11  1  0.87499019  0.37278713  0.37320166  1
  Fe  Fe12  1  0.50152831  0.75251957  0.75111148  1
  Fe  Fe13  1  0.50237187  0.00066166  0.24846101  1
  Fe  Fe14  1  -0.00136754  0.75096896  0.25046030  1
  Fe  Fe15  1  0.62766868  0.87409651  0.87834183  1
  Fe  Fe16  1  0.62187575  0.12175274  0.62447737  1
  Fe  Fe17  1  0.74724869  0.24971472  0.75049287  1
  Fe  Fe18  1  0.37548346  0.62814971  0.37447084  1
  Fe  Fe19  1  0.25284272  -0.00452875  0.49661838  1
  Fe  Fe20  1  0.00182912  0.49726382  0.24936168  1
  Fe  Fe21  1  0.62913067  0.87335288  0.12180289  1
  Fe  Fe22  1  0.50000776  -0.00259491  0.00097975  1
  Fe  Fe23  1  0.74669041  0.00656579  0.24779434  1
  Fe  Fe24  1  0.25005955  0.00039726  0.00014340  1
  Fe  Fe25  1  0.25027262  0.50081236  0.25076888  1
  Fe  Fe26  1  0.37612148  0.12209986  0.62800240  1
  Fe  Fe27  1  0.12388423  0.12230114  0.62286995  1
  Fe  Fe28  1  0.49642694  0.25271873  0.00155651  1
  Fe  Fe29  1  0.25045209  0.50104791  0.49950563  1
  Fe  Fe30  1  0.12429053  0.62696208  0.62293269  1
  Fe  Fe31  1  0.25206401  0.49999884  0.00021628  1
  Fe  Fe32  1  0.49945265  0.50019973  0.49866118  1
  Fe  Fe33  1  0.87213296  0.87704866  0.12638173  1
  Fe  Fe34  1  0.87596814  0.87677667  0.87468610  1
  Fe  Fe35  1  0.00147623  0.00179112  0.24762847  1
  Fe  Fe36  1  0.25118364  0.24860825  0.49983786  1
  Fe  Fe37  1  0.12703195  0.87353481  0.12461547  1
  Fe  Fe38  1  0.37658987  0.62624687  0.87539201  1
  Fe  Fe39  1  0.49801580  0.75376919  0.49975777  1
  Fe  Fe40  1  0.37271070  0.87402861  0.87635563  1
  Fe  Fe41  1  0.24632256  -0.00164779  0.75199539  1
  Fe  Fe42  1  0.62688864  0.87836266  0.37693999  1
  Fe  Fe43  1  0.87811755  0.62303092  0.87438530  1
  Fe  Fe44  1  0.37761130  0.12324580  0.87381510  1
  Fe  Fe45  1  0.75456795  0.75173054  0.49733833  1
  Fe  Fe46  1  0.87295866  0.37049474  0.12777361  1
  Fe  Fe47  1  0.87508194  0.12669058  0.37110681  1
  Fe  Fe48  1  0.62461956  0.37505753  0.62552339  1
  Fe  Fe49  1  0.24621411  0.49886636  0.74929747  1
  Fe  Fe50  1  0.00002065  0.49859601  0.50060278  1
  Fe  Fe51  1  0.37500549  0.37528304  0.87256250  1
  Fe  Fe52  1  0.49851283  0.24808054  0.50248047  1
  Fe  Fe53  1  0.62783796  0.87792964  0.62298767  1
  Fe  Fe54  1  0.12433377  0.62845017  0.37539463  1
  Fe  Fe55  1  0.74968243  0.74865261  0.75167027  1
  Fe  Fe56  1  0.00269305  0.75375516  0.75035137  1
  Fe  Fe57  1  0.74866739  0.50160373  0.75042415  1
  Fe  Fe58  1  0.24899897  0.00061339  0.25138542  1
  Fe  Fe59  1  0.12403726  0.12626847  0.87726898  1
  Fe  Fe60  1  0.50355580  0.74843627  0.24837843  1
  Fe  Fe61  1  0.00333840  0.25220210  0.74950077  1
  Fe  Fe62  1  0.37394446  0.87621202  0.62751923  1
  Fe  Fe63  1  0.87507275  0.12691236  0.87737632  1
  Fe  Fe64  1  0.37875014  0.62394751  0.12393099  1
  Fe  Fe65  1  0.62349751  0.37266556  0.37449860  1
  Fe  Fe66  1  0.87548198  0.37476202  0.62540755  1
  Fe  Fe67  1  0.50248328  0.50002902  0.75103296  1
  Fe  Fe68  1  0.62305642  0.12672192  0.87785923  1
  Fe  Fe69  1  0.87666058  0.12454452  0.62751273  1
  Fe  Fe70  1  -0.00018336  0.49612963  0.00221402  1
  Fe  Fe71  1  -0.00324141  0.75586429  0.49731992  1
  Fe  Fe72  1  0.12461295  0.62589390  0.12437843  1
  Fe  Fe73  1  0.62317739  0.62576958  0.88052812  1
  Fe  Fe74  1  0.49957050  0.24754765  0.24707561  1
  Fe  Fe75  1  0.12518167  0.37180297  0.37604825  1
  Fe  Fe76  1  0.74912199  0.74556949  0.25091201  1
  Fe  Fe77  1  0.12839750  0.12977653  0.12360411  1
  Fe  Fe78  1  0.37253257  0.87462184  0.12628160  1
  Fe  Fe79  1  0.37509718  0.62607102  0.62603667  1
  Fe  Fe80  1  0.62335008  0.37664344  0.12546392  1
  Fe  Fe81  1  0.62464820  0.62634814  0.62212566  1
  Fe  Fe82  1  0.24795088  0.25038391  0.74998873  1
  Fe  Fe83  1  0.75015817  0.50072662  0.49827993  1
  Fe  Fe84  1  -0.00163082  0.75107880  0.00147879  1
  Fe  Fe85  1  0.12323587  0.12506375  0.37653242  1
  Fe  Fe86  1  0.12308238  0.62346426  0.87668090  1
  Fe  Fe87  1  0.24612235  0.75188828  0.75123615  1
  Fe  Fe88  1  0.13054387  0.36944922  0.12328679  1
  Fe  Fe89  1  0.87396845  0.62348470  0.12604853  1
  Co  Co90  1  0.49617145  -0.00204494  0.49966282  1
  Co  Co91  1  0.00086568  0.00059600  0.75164967  1
  Co  Co92  1  0.50005343  0.25031879  0.74899847  1
  Co  Co93  1  0.62420855  0.62657936  0.37913995  1
  Co  Co94  1  0.75475378  0.74892174  -0.00056851  1
  Co  Co95  1  0.50170546  0.50317541  0.25186055  1
  Co  Co96  1  0.49871475  0.49605037  -0.00110092  1
  Co  Co97  1  0.87775162  0.62267012  0.37413042  1
  Co  Co98  1  0.62203512  0.12423791  0.37770965  1
  Co  Co99  1  0.25006540  0.74725996  0.24758842  1
  Co  Co100  1  -0.00125209  0.25081930  0.00122319  1
  Co  Co101  1  0.25021372  0.74794186  0.00041605  1
  Co  Co102  1  0.37327405  0.37577686  0.12857025  1
  Co  Co103  1  -0.00184010  0.24926982  0.49988988  1
  Co  Co104  1  0.50226312  -0.00393772  0.75210571  1
  Co  Co105  1  0.62509420  0.37318334  0.87466591  1
  Co  Co106  1  0.00194788  0.49720807  0.74794749  1
  Co  Co107  1  0.25172370  0.75268451  0.50060141  1
  Co  Co108  1  0.87316577  0.87584353  0.62975897  1
  Co  Co109  1  0.49855362  0.75335369  0.00129933  1
  Co  Co110  1  0.75160087  0.00131078  -0.00072572  1
  Co  Co111  1  0.87376492  0.12786036  0.12493585  1
  Co  Co112  1  0.00207493  0.24983514  0.24864415  1
  Co  Co113  1  0.74615221  0.24678333  0.24985452  1
  Co  Co114  1  0.37589498  0.87319437  0.36920144  1
  Co  Co115  1  0.62499543  0.62381391  0.11945479  1
  Co  Co116  1  0.74894757  0.25195937  0.00105769  1
  Co  Co117  1  0.12410063  0.87821358  0.62234511  1
  Co  Co118  1  0.25105471  0.24753127  0.25336729  1
  Co  Co119  1  0.25553700  0.24911475  -0.00279451  1
  Co  Co120  1  0.12582255  0.37375956  0.62186437  1
  Co  Co121  1  0.12389464  0.87618436  0.87955557  1
  Co  Co122  1  0.62369277  0.12604086  0.11898669  1
  Co  Co123  1  0.12561842  0.87359166  0.37279336  1
  Co  Co124  1  0.12552513  0.37520002  0.87843230  1
  Co  Co125  1  0.87138359  0.87913732  0.36827107  1
  Co  Co126  1  0.37394476  0.12286274  0.12510429  1
  Co  Co127  1  0.75433936  0.00388052  0.50049626  1
