# generated using pymatgen
data_Fe45Co19
_symmetry_space_group_name_H-M   'P 1'
_cell_length_a   11.41456020
_cell_length_b   11.41560355
_cell_length_c   11.41618349
_cell_angle_alpha   90.01088519
_cell_angle_beta   90.00996209
_cell_angle_gamma   90.01053196
_symmetry_Int_Tables_number   1
_chemical_formula_structural   Fe45Co19
_chemical_formula_sum   'Fe90 Co38'
_cell_volume   1487.57537212
_cell_formula_units_Z   2
loop_
 _symmetry_equiv_pos_site_id
 _symmetry_equiv_pos_as_xyz
  1  'x, y, z'
loop_
 _atom_site_type_symbol
 _atom_site_label
 _atom_site_symmetry_multiplicity
 _atom_site_fract_x
 _atom_site_fract_y
 _atom_site_fract_z
 _atom_site_occupancy
  Fe  Fe0  1  0.12328921  0.37329692  0.37537108  1
  Fe  Fe1  1  0.87307237  0.12095823  0.12417367  1
  Fe  Fe2  1  0.25437413  0.50003787  0.50238523  1
  Fe  Fe3  1  0.00093809  0.75107093  0.00179895  1
  Fe  Fe4  1  0.87376699  0.37471421  0.12789083  1
  Fe  Fe5  1  0.74806085  -0.00167496  0.50054971  1
  Fe  Fe6  1  0.87514242  0.12548791  0.37463647  1
  Fe  Fe7  1  0.00002165  0.74712998  0.74905364  1
  Fe  Fe8  1  0.74975843  0.75000516  0.75020452  1
  Fe  Fe9  1  -0.00113136  0.25064297  0.74976124  1
  Fe  Fe10  1  0.62691930  0.12882908  0.87842177  1
  Fe  Fe11  1  0.37237149  0.12361770  0.12452711  1
  Fe  Fe12  1  0.12617296  0.62417120  0.87537521  1
  Fe  Fe13  1  0.75009705  0.75257987  0.00051773  1
  Fe  Fe14  1  0.37744565  0.87531672  0.37212407  1
  Fe  Fe15  1  0.24827165  0.50045011  0.24974711  1
  Fe  Fe16  1  0.74923970  0.25390025  0.75223832  1
  Fe  Fe17  1  0.62670356  0.12579826  0.37435825  1
  Fe  Fe18  1  0.37698003  0.62306082  0.12492543  1
  Fe  Fe19  1  0.62763944  0.12585480  0.12326121  1
  Fe  Fe20  1  0.74731355  0.74728121  0.24672609  1
  Fe  Fe21  1  0.00112611  0.00027169  0.49921095  1
  Fe  Fe22  1  0.62477060  0.87673908  0.12700596  1
  Fe  Fe23  1  0.12470000  0.87545140  0.62688417  1
  Fe  Fe24  1  0.87100119  0.12376709  0.62642647  1
  Fe  Fe25  1  0.25407650  0.25323110  0.00181148  1
  Fe  Fe26  1  0.87318669  0.62390479  0.12385433  1
  Fe  Fe27  1  0.12547169  0.37381038  0.87435464  1
  Fe  Fe28  1  0.37720210  0.62575424  0.37401327  1
  Fe  Fe29  1  0.87562700  0.87452950  0.37188817  1
  Fe  Fe30  1  0.00169642  0.74913229  0.24723554  1
  Fe  Fe31  1  0.87522578  0.37787077  0.62728198  1
  Fe  Fe32  1  0.00388654  0.00129139  0.24862367  1
  Fe  Fe33  1  0.12508413  0.62566327  0.37637919  1
  Fe  Fe34  1  0.37711625  0.12664439  0.62447316  1
  Fe  Fe35  1  0.25014566  0.75070745  0.50068997  1
  Fe  Fe36  1  0.62276075  0.62455313  0.62534548  1
  Fe  Fe37  1  0.50086086  0.00098869  0.00082717  1
  Fe  Fe38  1  0.62491131  0.62190536  0.87694869  1
  Fe  Fe39  1  0.87377650  0.87807614  0.62799965  1
  Fe  Fe40  1  0.24917975  0.74912853  0.24837687  1
  Fe  Fe41  1  0.50006185  0.24683565  0.24897106  1
  Fe  Fe42  1  0.62498864  0.87595924  0.87400639  1
  Fe  Fe43  1  0.49728410  0.49465499  -0.00127701  1
  Fe  Fe44  1  0.50020092  0.74857206  0.75220315  1
  Fe  Fe45  1  0.62597116  0.37240492  0.12431769  1
  Fe  Fe46  1  0.25066322  0.74919499  0.74888762  1
  Fe  Fe47  1  0.00320228  0.00209783  0.75366730  1
  Fe  Fe48  1  -0.00228441  0.24861071  0.00030252  1
  Fe  Fe49  1  -0.00024463  0.49909793  -0.00099180  1
  Fe  Fe50  1  0.12523468  0.37574734  0.62456607  1
  Fe  Fe51  1  0.50356690  0.00361339  0.74887057  1
  Fe  Fe52  1  0.12386649  0.37341836  0.12618936  1
  Fe  Fe53  1  0.37432119  0.12527826  0.87570684  1
  Fe  Fe54  1  0.74487973  0.49765779  0.49942172  1
  Fe  Fe55  1  0.37947667  0.37558483  0.37410434  1
  Fe  Fe56  1  -0.00074841  0.74938317  0.50146677  1
  Fe  Fe57  1  0.87252862  0.37538885  0.37195717  1
  Fe  Fe58  1  -0.00022408  0.50088665  0.25019372  1
  Fe  Fe59  1  0.87321461  0.62044305  0.62699920  1
  Fe  Fe60  1  0.12498155  0.12565360  0.62475700  1
  Fe  Fe61  1  0.50669225  0.50404287  0.25149835  1
  Fe  Fe62  1  0.87211135  0.12353680  0.87584966  1
  Fe  Fe63  1  0.37456024  0.87746203  0.87370348  1
  Fe  Fe64  1  0.25176045  0.25112297  0.49918451  1
  Fe  Fe65  1  0.25373268  0.50034375  0.74631203  1
  Fe  Fe66  1  0.61646710  0.37253294  0.62583645  1
  Fe  Fe67  1  0.37462726  0.12380538  0.37520167  1
  Fe  Fe68  1  0.87122912  0.62394619  0.37483866  1
  Fe  Fe69  1  0.37708342  0.87629982  0.62719186  1
  Fe  Fe70  1  0.50292432  0.00155470  0.50143984  1
  Fe  Fe71  1  0.75150828  0.49535336  -0.00221430  1
  Fe  Fe72  1  0.49910680  0.75182674  0.00157224  1
  Fe  Fe73  1  0.37496466  0.62397235  0.87652069  1
  Fe  Fe74  1  0.24926850  0.25036496  0.25134374  1
  Fe  Fe75  1  0.75092941  0.75240290  0.50220628  1
  Fe  Fe76  1  0.24417669  0.00002699  -0.00398137  1
  Fe  Fe77  1  0.87560456  0.87758274  0.87618949  1
  Fe  Fe78  1  0.24609837  0.00070006  0.25240875  1
  Fe  Fe79  1  0.37408147  0.87726122  0.12603841  1
  Fe  Fe80  1  0.25004485  0.74994064  0.00160160  1
  Fe  Fe81  1  -0.00161333  0.25043881  0.50029873  1
  Fe  Fe82  1  0.74915678  0.25193176  0.49915379  1
  Fe  Fe83  1  0.24854614  -0.00044234  0.49979339  1
  Fe  Fe84  1  0.87367330  0.62156476  0.87270708  1
  Fe  Fe85  1  0.25277742  0.25006064  0.74817746  1
  Fe  Fe86  1  0.25156358  0.49721694  0.00186235  1
  Fe  Fe87  1  0.49995341  0.75034428  0.49967631  1
  Fe  Fe88  1  0.62341595  0.87382459  0.37207653  1
  Fe  Fe89  1  0.00000851  0.50044952  0.50013632  1
  Co  Co90  1  0.12497555  0.87156305  0.87394120  1
  Co  Co91  1  0.74652191  0.50208344  0.24924573  1
  Co  Co92  1  0.49984078  0.50138335  0.49813333  1
  Co  Co93  1  0.49747343  0.50093328  0.75188913  1
  Co  Co94  1  0.74665686  -0.00007864  0.75100843  1
  Co  Co95  1  0.37873910  0.62760936  0.62438363  1
  Co  Co96  1  -0.00175274  0.24824287  0.24928535  1
  Co  Co97  1  0.62406313  0.37240179  0.37266114  1
  Co  Co98  1  0.12526105  0.62468020  0.62337900  1
  Co  Co99  1  0.62206463  0.37264726  0.87760860  1
  Co  Co100  1  0.38119956  0.37178876  0.62371102  1
  Co  Co101  1  0.12631260  0.87584771  0.12412911  1
  Co  Co102  1  0.12359409  0.12766543  0.37675803  1
  Co  Co103  1  0.74921629  0.00026808  0.25154663  1
  Co  Co104  1  0.24937690  0.00174597  0.75029691  1
  Co  Co105  1  0.62511887  0.62264043  0.11697897  1
  Co  Co106  1  0.75096481  0.24825396  0.24973791  1
  Co  Co107  1  0.37716314  0.37667168  0.13145239  1
  Co  Co108  1  0.74489110  0.49594572  0.75056635  1
  Co  Co109  1  0.62727711  0.62855685  0.37910970  1
  Co  Co110  1  0.12518954  0.62319542  0.12387144  1
  Co  Co111  1  0.50007734  0.24712385  0.49576542  1
  Co  Co112  1  0.12393504  0.87327443  0.37497244  1
  Co  Co113  1  0.87517130  0.87729775  0.12539150  1
  Co  Co114  1  0.62443648  0.87329866  0.62620381  1
  Co  Co115  1  0.49538522  0.25056960  0.00225377  1
  Co  Co116  1  0.12735546  0.12800122  0.12401276  1
  Co  Co117  1  0.37421168  0.37412590  0.87198012  1
  Co  Co118  1  0.49909633  0.24724415  0.75463839  1
  Co  Co119  1  0.50133790  0.74717951  0.24625915  1
  Co  Co120  1  0.12654170  0.13139606  0.87506276  1
  Co  Co121  1  0.62762566  0.12986530  0.62533810  1
  Co  Co122  1  0.75390527  0.25202806  -0.00015210  1
  Co  Co123  1  0.87738806  0.37633235  0.87244538  1
  Co  Co124  1  0.00388272  0.00129235  -0.00137865  1
  Co  Co125  1  0.74848050  -0.00245402  -0.00022625  1
  Co  Co126  1  0.00329281  0.50039246  0.75014930  1
  Co  Co127  1  0.50008119  0.00308448  0.24896794  1
