# generated using pymatgen
data_Fe45Co19
_symmetry_space_group_name_H-M   'P 1'
_cell_length_a   11.41460110
_cell_length_b   11.41362119
_cell_length_c   11.41402750
_cell_angle_alpha   89.98969409
_cell_angle_beta   89.99848150
_cell_angle_gamma   90.00018834
_symmetry_Int_Tables_number   1
_chemical_formula_structural   Fe45Co19
_chemical_formula_sum   'Fe90 Co38'
_cell_volume   1487.04154139
_cell_formula_units_Z   2
loop_
 _symmetry_equiv_pos_site_id
 _symmetry_equiv_pos_as_xyz
  1  'x, y, z'
loop_
 _atom_site_type_symbol
 _atom_site_label
 _atom_site_symmetry_multiplicity
 _atom_site_fract_x
 _atom_site_fract_y
 _atom_site_fract_z
 _atom_site_occupancy
  Fe  Fe0  1  0.37447200  0.37365452  0.12388912  1
  Fe  Fe1  1  0.49780374  0.74889046  -0.00096865  1
  Fe  Fe2  1  -0.00029010  0.74831475  0.49939836  1
  Fe  Fe3  1  0.37142925  0.12787530  0.62740124  1
  Fe  Fe4  1  0.25135663  0.74953233  -0.00125855  1
  Fe  Fe5  1  0.62549709  0.62429341  0.12524589  1
  Fe  Fe6  1  0.87689786  0.37285150  0.37605830  1
  Fe  Fe7  1  0.00039393  0.75020962  0.25066856  1
  Fe  Fe8  1  0.87766097  0.87577810  0.87548506  1
  Fe  Fe9  1  0.24913708  0.75040447  0.50056831  1
  Fe  Fe10  1  0.37199791  0.62336985  0.37621465  1
  Fe  Fe11  1  0.12555878  0.12440946  0.37447099  1
  Fe  Fe12  1  -0.00042864  0.74536598  -0.00098721  1
  Fe  Fe13  1  0.62265089  0.37435299  0.87067385  1
  Fe  Fe14  1  0.50150079  0.00147264  0.75000783  1
  Fe  Fe15  1  0.75174845  0.50051274  0.49941648  1
  Fe  Fe16  1  0.49982784  0.74802813  0.74976621  1
  Fe  Fe17  1  0.12189869  0.37449827  0.62447021  1
  Fe  Fe18  1  0.62339470  0.37385098  0.62558963  1
  Fe  Fe19  1  0.37340653  0.62169284  0.12579890  1
  Fe  Fe20  1  0.87102314  0.13062419  0.12475632  1
  Fe  Fe21  1  0.24697355  0.49622982  0.25391705  1
  Fe  Fe22  1  0.00172831  0.24972824  0.24833426  1
  Fe  Fe23  1  0.50095019  0.00190470  0.50211817  1
  Fe  Fe24  1  0.00047352  0.74898595  0.75013680  1
  Fe  Fe25  1  0.74901112  0.49662993  0.25336839  1
  Fe  Fe26  1  0.37178641  0.12765012  0.12449350  1
  Fe  Fe27  1  0.75203162  0.00002088  -0.00036205  1
  Fe  Fe28  1  0.62330075  0.87455975  0.87527091  1
  Fe  Fe29  1  0.12665478  0.62309079  0.12400190  1
  Fe  Fe30  1  -0.00063908  0.24808431  0.74912904  1
  Fe  Fe31  1  0.62767971  0.12593997  0.12655248  1
  Fe  Fe32  1  0.12624598  0.62251125  0.62541059  1
  Fe  Fe33  1  0.25027020  0.00049696  0.24946396  1
  Fe  Fe34  1  0.12613161  0.61962947  0.87468827  1
  Fe  Fe35  1  0.75312033  0.49691474  -0.00020945  1
  Fe  Fe36  1  0.37538176  0.87585061  0.62715196  1
  Fe  Fe37  1  0.49992036  0.49943050  -0.00113364  1
  Fe  Fe38  1  0.24952504  0.75136188  0.24957886  1
  Fe  Fe39  1  0.50121607  0.25078450  0.25137841  1
  Fe  Fe40  1  0.12467338  0.87801022  0.37643239  1
  Fe  Fe41  1  0.49938015  0.74871635  0.50061552  1
  Fe  Fe42  1  0.24774569  0.00028730  0.74992277  1
  Fe  Fe43  1  0.63091505  0.12744030  0.87178241  1
  Fe  Fe44  1  0.75251793  0.24899910  0.50098541  1
  Fe  Fe45  1  0.12474842  0.87680331  0.87773570  1
  Fe  Fe46  1  0.75171601  0.75004132  0.00047291  1
  Fe  Fe47  1  0.62955346  0.12424639  0.37302060  1
  Fe  Fe48  1  0.50333610  0.24918488  -0.00088570  1
  Fe  Fe49  1  0.12372180  0.12652663  0.87373510  1
  Fe  Fe50  1  0.12433308  0.87764627  0.12201218  1
  Fe  Fe51  1  0.12289040  0.37628949  0.12159777  1
  Fe  Fe52  1  0.12321379  0.87916356  0.62280925  1
  Fe  Fe53  1  0.62437621  0.87621990  0.12416240  1
  Fe  Fe54  1  0.24722418  0.25048332  0.50080571  1
  Fe  Fe55  1  -0.00167320  0.24404981  0.50146114  1
  Fe  Fe56  1  0.37473956  0.87740887  0.37635150  1
  Fe  Fe57  1  0.49996107  0.00127701  0.24936800  1
  Fe  Fe58  1  0.62994201  0.12504439  0.62876469  1
  Fe  Fe59  1  -0.00181520  0.00511510  0.00067317  1
  Fe  Fe60  1  0.75057499  0.74984216  0.50054131  1
  Fe  Fe61  1  0.37438238  0.87739947  0.12224229  1
  Fe  Fe62  1  0.87919827  0.37062258  0.87903267  1
  Fe  Fe63  1  0.37535159  0.37341823  0.37807640  1
  Fe  Fe64  1  0.00129654  0.50367276  0.49732600  1
  Fe  Fe65  1  0.49868564  0.00203395  -0.00234885  1
  Fe  Fe66  1  0.87376457  0.11999861  0.62968962  1
  Fe  Fe67  1  0.62722139  0.62286668  0.87337934  1
  Fe  Fe68  1  0.62549846  0.37421664  0.12546709  1
  Fe  Fe69  1  0.37309016  0.12834538  0.87351302  1
  Fe  Fe70  1  -0.00435722  0.50101481  0.75017911  1
  Fe  Fe71  1  0.74969575  0.75111504  0.24976668  1
  Fe  Fe72  1  0.24850190  0.75073447  0.75057656  1
  Fe  Fe73  1  0.62691570  0.62407693  0.62634570  1
  Fe  Fe74  1  0.37453309  0.62235537  0.87393320  1
  Fe  Fe75  1  0.24618033  0.25332524  -0.00269582  1
  Fe  Fe76  1  0.62578172  0.87713194  0.37557531  1
  Fe  Fe77  1  0.87399223  0.87795752  0.37579770  1
  Fe  Fe78  1  0.75437313  0.49646928  0.74876705  1
  Fe  Fe79  1  0.49812255  0.50163701  0.50313558  1
  Fe  Fe80  1  0.50177886  0.49857302  0.25290769  1
  Fe  Fe81  1  0.50239155  0.24678578  0.50064231  1
  Fe  Fe82  1  -0.00277389  0.00176764  0.24886218  1
  Fe  Fe83  1  0.75162246  0.75239113  0.74903514  1
  Fe  Fe84  1  0.00142925  0.50026790  0.25202733  1
  Fe  Fe85  1  0.87710464  0.87813329  0.62504046  1
  Fe  Fe86  1  0.87428005  0.62375634  0.12685453  1
  Fe  Fe87  1  0.25492862  0.49248109  0.74884570  1
  Fe  Fe88  1  0.37298601  0.12636244  0.37424797  1
  Fe  Fe89  1  0.49974112  0.74941355  0.25051827  1
  Co  Co90  1  0.12846315  0.12409514  0.12599601  1
  Co  Co91  1  0.87667116  0.37355561  0.12632617  1
  Co  Co92  1  0.50147391  0.24768429  0.74912406  1
  Co  Co93  1  -0.00351727  0.50300184  0.00057605  1
  Co  Co94  1  0.24602668  0.25449731  0.75191361  1
  Co  Co95  1  0.87760080  0.87397027  0.12296759  1
  Co  Co96  1  0.37735024  0.36876294  0.62303302  1
  Co  Co97  1  0.11863422  0.37778903  0.87393753  1
  Co  Co98  1  0.12695110  0.62759146  0.37574322  1
  Co  Co99  1  0.75479031  0.25560356  0.74782123  1
  Co  Co100  1  0.37995238  0.37084201  0.87558743  1
  Co  Co101  1  0.12058333  0.37095802  0.37870037  1
  Co  Co102  1  0.62434763  0.37388509  0.38044343  1
  Co  Co103  1  0.87466543  0.62503243  0.37363656  1
  Co  Co104  1  0.62341549  0.87410991  0.62414964  1
  Co  Co105  1  0.00270622  0.24656378  0.00177390  1
  Co  Co106  1  0.75009954  0.00126843  0.50156409  1
  Co  Co107  1  0.49666781  0.50009968  0.74721176  1
  Co  Co108  1  -0.00144752  0.00387253  0.49842474  1
  Co  Co109  1  0.25051057  0.00197420  -0.00246617  1
  Co  Co110  1  0.25118028  0.49617404  -0.00286344  1
  Co  Co111  1  0.74959254  -0.00494675  0.75155561  1
  Co  Co112  1  0.75222576  -0.00153310  0.24746658  1
  Co  Co113  1  0.62477192  0.62544331  0.37625915  1
  Co  Co114  1  0.37505788  0.87609967  0.87227175  1
  Co  Co115  1  0.25048022  0.00166216  0.50061116  1
  Co  Co116  1  0.87287571  0.12702001  0.87317754  1
  Co  Co117  1  0.00205642  0.00046974  0.75182503  1
  Co  Co118  1  0.24846445  0.49640652  0.50120172  1
  Co  Co119  1  0.37157196  0.62687482  0.62478470  1
  Co  Co120  1  0.24800497  0.25328925  0.25067298  1
  Co  Co121  1  0.87295864  0.62590887  0.87356278  1
  Co  Co122  1  0.87923127  0.37586024  0.62069011  1
  Co  Co123  1  0.87231250  0.12640711  0.37204145  1
  Co  Co124  1  0.74781013  0.25484669  0.25187782  1
  Co  Co125  1  0.74817525  0.25319261  -0.00091092  1
  Co  Co126  1  0.12555849  0.12485769  0.62547046  1
  Co  Co127  1  0.87523493  0.62590294  0.62478194  1
