# generated using pymatgen
data_Fe45Co19
_symmetry_space_group_name_H-M   'P 1'
_cell_length_a   11.41621074
_cell_length_b   11.41603636
_cell_length_c   11.41457335
_cell_angle_alpha   90.00839753
_cell_angle_beta   89.99000590
_cell_angle_gamma   89.99956483
_symmetry_Int_Tables_number   1
_chemical_formula_structural   Fe45Co19
_chemical_formula_sum   'Fe90 Co38'
_cell_volume   1487.63707196
_cell_formula_units_Z   2
loop_
 _symmetry_equiv_pos_site_id
 _symmetry_equiv_pos_as_xyz
  1  'x, y, z'
loop_
 _atom_site_type_symbol
 _atom_site_label
 _atom_site_symmetry_multiplicity
 _atom_site_fract_x
 _atom_site_fract_y
 _atom_site_fract_z
 _atom_site_occupancy
  Fe  Fe0  1  0.49982464  0.74685215  0.24752471  1
  Fe  Fe1  1  0.75269036  0.25217409  0.50301400  1
  Fe  Fe2  1  0.62632507  0.12368799  0.62708046  1
  Fe  Fe3  1  0.00113792  0.74726103  0.74831296  1
  Fe  Fe4  1  0.00033754  0.49889045  0.50036183  1
  Fe  Fe5  1  0.49863205  -0.00131118  -0.00041224  1
  Fe  Fe6  1  0.24732989  -0.00036958  0.24922160  1
  Fe  Fe7  1  0.24859149  -0.00184921  0.49946496  1
  Fe  Fe8  1  0.50118821  0.50088910  0.49824193  1
  Fe  Fe9  1  -0.00011568  -0.00098162  0.50032607  1
  Fe  Fe10  1  -0.00052971  0.24966025  0.25050434  1
  Fe  Fe11  1  0.49967651  0.50130996  0.00143658  1
  Fe  Fe12  1  0.12506733  0.87360748  0.87481829  1
  Fe  Fe13  1  0.12872607  0.62350072  0.87523814  1
  Fe  Fe14  1  0.37280449  0.37669364  0.87468195  1
  Fe  Fe15  1  0.50255595  0.00229498  0.25183666  1
  Fe  Fe16  1  0.87509877  0.12415501  0.12289427  1
  Fe  Fe17  1  0.24871496  0.49993833  0.50256690  1
  Fe  Fe18  1  0.74879481  0.49945558  -0.00109768  1
  Fe  Fe19  1  0.62531973  0.37522775  0.87089956  1
  Fe  Fe20  1  0.24963176  0.25115416  0.50201866  1
  Fe  Fe21  1  0.87910275  0.37422842  0.63137526  1
  Fe  Fe22  1  0.12800498  0.12695455  0.87607070  1
  Fe  Fe23  1  0.24754819  0.25464188  0.00546103  1
  Fe  Fe24  1  0.49746849  0.75153927  0.00093766  1
  Fe  Fe25  1  0.62666193  0.12455167  0.12366252  1
  Fe  Fe26  1  0.62713675  0.62601676  0.37582064  1
  Fe  Fe27  1  0.24945589  -0.00007257  0.74935852  1
  Fe  Fe28  1  0.87394847  0.62445869  0.87503047  1
  Fe  Fe29  1  0.12478775  0.62352069  0.12413233  1
  Fe  Fe30  1  0.00027154  -0.00165987  0.24913621  1
  Fe  Fe31  1  0.12073978  0.87047340  0.37518701  1
  Fe  Fe32  1  0.50304338  -0.00075173  0.49733762  1
  Fe  Fe33  1  0.12292410  0.62748018  0.37659001  1
  Fe  Fe34  1  0.87526133  0.62323899  0.62542508  1
  Fe  Fe35  1  0.12481873  0.37447455  0.37373224  1
  Fe  Fe36  1  0.37300684  0.12588028  0.37668181  1
  Fe  Fe37  1  0.12286427  0.37579089  0.63013206  1
  Fe  Fe38  1  0.12501127  0.12737385  0.37553228  1
  Fe  Fe39  1  0.37347402  0.62427758  0.87541174  1
  Fe  Fe40  1  0.74753733  0.74897565  0.74821937  1
  Fe  Fe41  1  0.87670178  0.37777778  0.12397335  1
  Fe  Fe42  1  0.50188756  0.75024799  0.50213244  1
  Fe  Fe43  1  0.25024358  -0.00262342  0.00189047  1
  Fe  Fe44  1  0.62417611  0.62462273  0.87360326  1
  Fe  Fe45  1  0.24987152  0.74958298  0.50149357  1
  Fe  Fe46  1  0.25068288  0.74876503  0.74814016  1
  Fe  Fe47  1  0.87544680  0.12708594  0.37867070  1
  Fe  Fe48  1  -0.00107736  -0.00091374  -0.00229265  1
  Fe  Fe49  1  0.74949017  0.25240284  -0.00040118  1
  Fe  Fe50  1  0.62583139  0.12667453  0.87296504  1
  Fe  Fe51  1  0.50070688  0.24978201  -0.00138141  1
  Fe  Fe52  1  0.75117409  0.49750756  0.50160690  1
  Fe  Fe53  1  0.74902111  0.00052944  0.25383827  1
  Fe  Fe54  1  0.87251551  0.12832663  0.87393723  1
  Fe  Fe55  1  0.00301139  0.49631479  -0.00613983  1
  Fe  Fe56  1  0.37720196  0.62332839  0.62549642  1
  Fe  Fe57  1  0.75150069  0.25044143  0.24907623  1
  Fe  Fe58  1  0.62314157  0.37653692  0.12633755  1
  Fe  Fe59  1  0.62234949  0.37725983  0.62897258  1
  Fe  Fe60  1  0.37493790  0.37444397  0.37497730  1
  Fe  Fe61  1  0.75484539  0.74826963  0.24695551  1
  Fe  Fe62  1  0.62633425  0.87512495  0.12599817  1
  Fe  Fe63  1  0.62409068  0.87379476  0.87250518  1
  Fe  Fe64  1  0.12285827  0.12689303  0.62461598  1
  Fe  Fe65  1  0.00190441  0.25322514  -0.00349669  1
  Fe  Fe66  1  0.62593411  0.37385853  0.37477560  1
  Fe  Fe67  1  0.75155929  0.75055303  0.00161212  1
  Fe  Fe68  1  0.75104340  -0.00222536  -0.00399368  1
  Fe  Fe69  1  -0.00196442  0.75106532  0.00268881  1
  Fe  Fe70  1  0.49880935  0.00081067  0.75166950  1
  Fe  Fe71  1  0.37665394  0.87588465  0.62624716  1
  Fe  Fe72  1  0.74981737  0.50148220  0.24973223  1
  Fe  Fe73  1  0.24879998  0.75073090  0.24805554  1
  Fe  Fe74  1  0.74800459  -0.00232800  0.49696240  1
  Fe  Fe75  1  0.49968009  0.24911351  0.25059314  1
  Fe  Fe76  1  0.37432671  0.62420113  0.37421890  1
  Fe  Fe77  1  -0.00138823  0.00243015  0.75172193  1
  Fe  Fe78  1  0.87615394  0.62704630  0.37802949  1
  Fe  Fe79  1  -0.00168651  0.50220627  0.25173802  1
  Fe  Fe80  1  0.74895548  0.75268812  0.50206671  1
  Fe  Fe81  1  0.37309245  0.12536160  0.87575578  1
  Fe  Fe82  1  0.25189641  0.49808645  0.24717351  1
  Fe  Fe83  1  0.37381940  0.12578653  0.12541485  1
  Fe  Fe84  1  0.49872618  0.24903532  0.50316814  1
  Fe  Fe85  1  0.87384461  0.87720358  0.62695677  1
  Fe  Fe86  1  0.25453217  0.24955099  0.74596987  1
  Fe  Fe87  1  0.12423047  0.87341968  0.62560436  1
  Fe  Fe88  1  0.25265507  0.75238969  0.00230698  1
  Fe  Fe89  1  0.37659823  0.87448203  0.37358646  1
  Co  Co90  1  0.62434755  0.86947150  0.37214240  1
  Co  Co91  1  0.12397685  0.62355290  0.62364387  1
  Co  Co92  1  -0.00088266  0.24599463  0.75374898  1
  Co  Co93  1  0.12387183  0.87482821  0.12285185  1
  Co  Co94  1  0.49849425  0.50088322  0.75216042  1
  Co  Co95  1  0.87691846  0.87324530  0.37495264  1
  Co  Co96  1  0.87615088  0.87068557  0.87234015  1
  Co  Co97  1  0.74988104  0.25001586  0.74847489  1
  Co  Co98  1  0.75051890  0.50133379  0.75013297  1
  Co  Co99  1  0.24840821  0.49609469  0.00327588  1
  Co  Co100  1  0.87252695  0.37497805  0.87255162  1
  Co  Co101  1  0.87414440  0.12390481  0.62275303  1
  Co  Co102  1  0.37611774  0.87660165  0.12817483  1
  Co  Co103  1  0.50046094  0.74835620  0.74936634  1
  Co  Co104  1  0.25135710  0.50251933  0.74711373  1
  Co  Co105  1  0.49715834  0.24917973  0.74998164  1
  Co  Co106  1  0.87455234  0.37502437  0.37337585  1
  Co  Co107  1  0.62424655  0.62175377  0.62458843  1
  Co  Co108  1  0.00041593  0.25294864  0.49972947  1
  Co  Co109  1  0.00055531  0.50319034  0.75375290  1
  Co  Co110  1  0.62501138  0.62529589  0.12359902  1
  Co  Co111  1  0.12322844  0.12549899  0.12359946  1
  Co  Co112  1  0.62458717  0.87798754  0.62769047  1
  Co  Co113  1  0.13007858  0.37421619  0.86811044  1
  Co  Co114  1  0.37556582  0.12081311  0.62284645  1
  Co  Co115  1  0.87342633  0.87876544  0.12466246  1
  Co  Co116  1  0.37382591  0.62331419  0.12436170  1
  Co  Co117  1  0.75229746  0.00043569  0.75361073  1
  Co  Co118  1  -0.00127326  0.75031066  0.50377318  1
  Co  Co119  1  0.24969729  0.25107559  0.24801822  1
  Co  Co120  1  0.12023002  0.37644175  0.12824252  1
  Co  Co121  1  0.62664215  0.13075526  0.37745730  1
  Co  Co122  1  -0.00308085  0.74906837  0.24548908  1
  Co  Co123  1  0.37712912  0.37824399  0.62373327  1
  Co  Co124  1  0.37987666  0.37510154  0.12533155  1
  Co  Co125  1  0.87650231  0.61936159  0.12082710  1
  Co  Co126  1  0.37398514  0.87511824  0.87228030  1
  Co  Co127  1  0.50123735  0.50176471  0.25155724  1
