# generated using pymatgen
data_Fe45Co19
_symmetry_space_group_name_H-M   'P 1'
_cell_length_a   11.41538980
_cell_length_b   11.41642275
_cell_length_c   11.41648738
_cell_angle_alpha   89.99481616
_cell_angle_beta   89.98632496
_cell_angle_gamma   89.99623185
_symmetry_Int_Tables_number   1
_chemical_formula_structural   Fe45Co19
_chemical_formula_sum   'Fe90 Co38'
_cell_volume   1487.82987221
_cell_formula_units_Z   2
loop_
 _symmetry_equiv_pos_site_id
 _symmetry_equiv_pos_as_xyz
  1  'x, y, z'
loop_
 _atom_site_type_symbol
 _atom_site_label
 _atom_site_symmetry_multiplicity
 _atom_site_fract_x
 _atom_site_fract_y
 _atom_site_fract_z
 _atom_site_occupancy
  Fe  Fe0  1  0.62918649  0.87712869  0.87575747  1
  Fe  Fe1  1  0.12293181  0.87365551  0.87533371  1
  Fe  Fe2  1  0.49996382  0.24749362  0.24901576  1
  Fe  Fe3  1  0.75036546  0.00476466  0.25467996  1
  Fe  Fe4  1  0.87481316  0.87724471  0.62531346  1
  Fe  Fe5  1  0.87638216  0.37691071  0.62526710  1
  Fe  Fe6  1  -0.00104929  0.49949768  0.49673844  1
  Fe  Fe7  1  0.75000879  0.25034694  0.74835100  1
  Fe  Fe8  1  -0.00005488  0.24865988  0.74997141  1
  Fe  Fe9  1  -0.00348419  0.74599906  0.24724288  1
  Fe  Fe10  1  0.12954125  0.37479028  0.36999135  1
  Fe  Fe11  1  0.12382364  0.12643552  0.87715486  1
  Fe  Fe12  1  0.87584508  0.12307759  0.12500282  1
  Fe  Fe13  1  0.62869632  0.87789841  0.12628428  1
  Fe  Fe14  1  0.50089114  -0.00081445  -0.00055771  1
  Fe  Fe15  1  0.12474294  0.12366897  0.12418328  1
  Fe  Fe16  1  0.74996112  0.49845615  0.49815590  1
  Fe  Fe17  1  0.62089053  0.37738510  0.62916198  1
  Fe  Fe18  1  0.62903887  0.12218925  0.62109413  1
  Fe  Fe19  1  -0.00125809  0.00039961  0.49688469  1
  Fe  Fe20  1  0.75058819  0.25233457  0.00297894  1
  Fe  Fe21  1  0.37473967  0.12443381  0.37301975  1
  Fe  Fe22  1  0.25256971  0.25165539  0.50164298  1
  Fe  Fe23  1  -0.00421992  0.74896427  0.00220760  1
  Fe  Fe24  1  0.50073559  0.49721839  -0.00360262  1
  Fe  Fe25  1  0.37563903  0.62489258  0.62375758  1
  Fe  Fe26  1  0.62537510  0.87463221  0.37267050  1
  Fe  Fe27  1  0.75148903  0.75028341  0.50035166  1
  Fe  Fe28  1  -0.00172101  0.74873136  0.50191864  1
  Fe  Fe29  1  0.50062236  0.00058365  0.49768292  1
  Fe  Fe30  1  0.00094839  0.25188115  0.49992104  1
  Fe  Fe31  1  0.62512744  0.37705581  0.12677598  1
  Fe  Fe32  1  0.49727961  0.49803737  0.49841252  1
  Fe  Fe33  1  0.50017622  0.25036637  -0.00021250  1
  Fe  Fe34  1  -0.00311311  0.00242070  0.75206429  1
  Fe  Fe35  1  0.75177810  0.74939045  0.74911235  1
  Fe  Fe36  1  0.24937590  -0.00314893  0.50054645  1
  Fe  Fe37  1  0.87620376  0.37435496  0.87786758  1
  Fe  Fe38  1  0.37454399  0.12265235  0.12577072  1
  Fe  Fe39  1  0.00088942  0.25114349  0.24694928  1
  Fe  Fe40  1  -0.00499774  -0.00103098  -0.00115776  1
  Fe  Fe41  1  0.12459602  0.62371335  0.62370886  1
  Fe  Fe42  1  0.62574606  0.87725156  0.62481857  1
  Fe  Fe43  1  0.25046471  0.49912890  0.75045630  1
  Fe  Fe44  1  0.87302857  0.12503410  0.62129669  1
  Fe  Fe45  1  0.50168105  0.75082619  0.50083220  1
  Fe  Fe46  1  0.87582740  0.38242059  0.12457815  1
  Fe  Fe47  1  0.49901174  0.74852000  0.24784087  1
  Fe  Fe48  1  0.37509303  0.87348540  0.37337170  1
  Fe  Fe49  1  0.24964459  -0.00250903  -0.00028393  1
  Fe  Fe50  1  0.49960361  0.75006037  0.75101240  1
  Fe  Fe51  1  0.12385496  0.62002902  0.12552302  1
  Fe  Fe52  1  0.24973871  0.49831632  -0.00004165  1
  Fe  Fe53  1  0.87591597  0.87384776  0.37215498  1
  Fe  Fe54  1  0.12590873  0.62795251  0.87533518  1
  Fe  Fe55  1  0.75006554  0.50027613  0.75337620  1
  Fe  Fe56  1  0.62525907  0.62550582  0.37580816  1
  Fe  Fe57  1  0.50179812  0.75278904  0.00015596  1
  Fe  Fe58  1  0.75221773  0.74499542  0.24830592  1
  Fe  Fe59  1  0.24963319  0.25123214  0.00150859  1
  Fe  Fe60  1  0.87212210  0.37190321  0.37240239  1
  Fe  Fe61  1  0.62686440  0.62548691  0.87687349  1
  Fe  Fe62  1  0.49700126  0.50295642  0.25250843  1
  Fe  Fe63  1  0.12495535  0.12515221  0.37341619  1
  Fe  Fe64  1  0.12338264  0.87404124  0.37199627  1
  Fe  Fe65  1  0.12536610  0.37572663  0.62510515  1
  Fe  Fe66  1  0.37538075  0.87568245  0.12392706  1
  Fe  Fe67  1  0.12608423  0.12454172  0.62426439  1
  Fe  Fe68  1  0.62924759  0.12585062  0.87746150  1
  Fe  Fe69  1  0.62612186  0.62354505  0.62456542  1
  Fe  Fe70  1  0.12182314  0.87721301  0.12662964  1
  Fe  Fe71  1  0.62495485  0.62192474  0.12376886  1
  Fe  Fe72  1  0.37290865  0.37590563  0.12860380  1
  Fe  Fe73  1  0.62542955  0.37085297  0.37272020  1
  Fe  Fe74  1  0.50018728  0.00092306  0.75091472  1
  Fe  Fe75  1  0.37806493  0.37099623  0.86895452  1
  Fe  Fe76  1  0.25214415  0.74713797  0.24651402  1
  Fe  Fe77  1  0.37366209  0.12580199  0.87299125  1
  Fe  Fe78  1  0.75407574  0.74955452  0.00282638  1
  Fe  Fe79  1  0.49806395  0.25046194  0.50313113  1
  Fe  Fe80  1  0.25408350  0.49744265  0.49836798  1
  Fe  Fe81  1  0.12571092  0.62557408  0.37548962  1
  Fe  Fe82  1  0.62501837  0.12340576  0.12504559  1
  Fe  Fe83  1  0.25083968  0.75385512  0.74735483  1
  Fe  Fe84  1  0.37284743  0.62894824  0.87874612  1
  Fe  Fe85  1  0.00023484  0.50140876  0.75186492  1
  Fe  Fe86  1  0.24881356  0.75346646  0.50310018  1
  Fe  Fe87  1  -0.00279636  0.74797468  0.74891861  1
  Fe  Fe88  1  0.25007645  -0.00302165  0.74912573  1
  Fe  Fe89  1  0.12291349  0.37173267  0.87696138  1
  Co  Co90  1  0.50453117  0.24256933  0.74722287  1
  Co  Co91  1  -0.00063708  0.25040554  0.00441993  1
  Co  Co92  1  0.49936882  0.50602977  0.75391044  1
  Co  Co93  1  0.87434480  0.62188048  0.62386113  1
  Co  Co94  1  0.12679707  0.37833697  0.12770588  1
  Co  Co95  1  0.24557688  0.25068624  0.74939960  1
  Co  Co96  1  0.62547784  0.13020277  0.37614834  1
  Co  Co97  1  0.75095071  0.00112161  0.75031020  1
  Co  Co98  1  0.87475220  0.13170228  0.37697506  1
  Co  Co99  1  0.87463117  0.61682592  0.12361107  1
  Co  Co100  1  0.24874950  0.24595589  0.24767396  1
  Co  Co101  1  0.75288420  0.00058165  0.00062752  1
  Co  Co102  1  0.87456577  0.62402634  0.87692957  1
  Co  Co103  1  0.37511514  0.62934781  0.37882955  1
  Co  Co104  1  -0.00140149  0.00321536  0.25218466  1
  Co  Co105  1  0.24962248  -0.00151264  0.24958741  1
  Co  Co106  1  0.37477954  0.87429875  0.87663451  1
  Co  Co107  1  0.87310434  0.87764367  0.12878785  1
  Co  Co108  1  0.37162666  0.12441270  0.62616571  1
  Co  Co109  1  -0.00006000  0.49928091  0.25491898  1
  Co  Co110  1  0.75127393  0.24901433  0.24465174  1
  Co  Co111  1  0.74841424  0.25404221  0.50370408  1
  Co  Co112  1  0.24652022  0.75164671  0.00409681  1
  Co  Co113  1  0.25416623  0.50544358  0.25127391  1
  Co  Co114  1  0.00421387  0.50143825  -0.00304171  1
  Co  Co115  1  0.87459035  0.62513619  0.37624648  1
  Co  Co116  1  0.87268790  0.12878844  0.87637573  1
  Co  Co117  1  0.37462290  0.37145014  0.37055162  1
  Co  Co118  1  0.37757795  0.37443579  0.63102236  1
  Co  Co119  1  0.62346436  0.37132101  0.87252786  1
  Co  Co120  1  0.12007292  0.87662378  0.62627831  1
  Co  Co121  1  0.50100290  -0.00016116  0.25064496  1
  Co  Co122  1  0.37820296  0.62411222  0.11905362  1
  Co  Co123  1  0.75130267  -0.00182618  0.49414199  1
  Co  Co124  1  0.37909114  0.87594483  0.62445434  1
  Co  Co125  1  0.74632471  0.49836130  -0.00324027  1
  Co  Co126  1  0.87371939  0.87416519  0.87421748  1
  Co  Co127  1  0.74803448  0.50169092  0.25312383  1
