# generated using pymatgen
data_Fe45Co19
_symmetry_space_group_name_H-M   'P 1'
_cell_length_a   11.41531735
_cell_length_b   11.41386384
_cell_length_c   11.41422569
_cell_angle_alpha   90.00516355
_cell_angle_beta   89.98661618
_cell_angle_gamma   89.99601679
_symmetry_Int_Tables_number   1
_chemical_formula_structural   Fe45Co19
_chemical_formula_sum   'Fe90 Co38'
_cell_volume   1487.19226404
_cell_formula_units_Z   2
loop_
 _symmetry_equiv_pos_site_id
 _symmetry_equiv_pos_as_xyz
  1  'x, y, z'
loop_
 _atom_site_type_symbol
 _atom_site_label
 _atom_site_symmetry_multiplicity
 _atom_site_fract_x
 _atom_site_fract_y
 _atom_site_fract_z
 _atom_site_occupancy
  Fe  Fe0  1  0.49810313  0.74752566  0.74915218  1
  Fe  Fe1  1  0.62496264  0.87332056  0.37454487  1
  Fe  Fe2  1  -0.00081892  0.74718888  0.75156561  1
  Fe  Fe3  1  0.49898398  0.49713218  0.50188356  1
  Fe  Fe4  1  0.00187656  0.75265557  -0.00210993  1
  Fe  Fe5  1  0.00033189  0.00037547  0.50187565  1
  Fe  Fe6  1  0.37648273  0.87881362  0.37267188  1
  Fe  Fe7  1  0.37119152  0.37489081  0.63032828  1
  Fe  Fe8  1  0.62556409  0.12658395  0.12319434  1
  Fe  Fe9  1  0.12333592  0.12897207  0.37760393  1
  Fe  Fe10  1  0.87725237  0.37494368  0.12633420  1
  Fe  Fe11  1  0.24820876  0.49955187  0.00042186  1
  Fe  Fe12  1  0.62366185  0.87420366  0.87379836  1
  Fe  Fe13  1  0.25102490  0.25145332  0.25346410  1
  Fe  Fe14  1  0.37156207  0.12078955  0.12659847  1
  Fe  Fe15  1  0.87310621  0.62325905  0.37518792  1
  Fe  Fe16  1  0.12740907  0.37595952  0.87405531  1
  Fe  Fe17  1  0.75346330  0.24977241  0.50091767  1
  Fe  Fe18  1  0.37421773  0.62071051  0.87296956  1
  Fe  Fe19  1  0.87784036  0.87993706  0.87668470  1
  Fe  Fe20  1  0.87796667  0.37440709  0.37368860  1
  Fe  Fe21  1  0.37373810  0.87408336  0.62387576  1
  Fe  Fe22  1  0.87584859  0.87811218  0.37409471  1
  Fe  Fe23  1  0.62617937  0.87342689  0.62571997  1
  Fe  Fe24  1  0.24926472  -0.00088884  0.50015963  1
  Fe  Fe25  1  0.87497484  0.12429966  0.62591909  1
  Fe  Fe26  1  0.25013976  0.74819330  0.75005035  1
  Fe  Fe27  1  0.50208110  0.00114494  0.50229611  1
  Fe  Fe28  1  0.74759048  0.00092450  0.25014511  1
  Fe  Fe29  1  0.75226905  0.74808579  0.75221320  1
  Fe  Fe30  1  0.12479640  0.87137585  0.62389442  1
  Fe  Fe31  1  0.12099351  0.37217255  0.37567907  1
  Fe  Fe32  1  0.25574858  0.25039436  -0.00484315  1
  Fe  Fe33  1  0.12493931  0.62747880  0.12471122  1
  Fe  Fe34  1  0.00276322  0.24886499  0.75031520  1
  Fe  Fe35  1  0.12251966  0.87406845  0.37431776  1
  Fe  Fe36  1  0.12708988  0.12976525  0.62201669  1
  Fe  Fe37  1  0.49659026  0.75174924  -0.00114101  1
  Fe  Fe38  1  0.00305567  0.00679763  0.24558465  1
  Fe  Fe39  1  0.37445263  0.62417431  0.12376960  1
  Fe  Fe40  1  0.37591743  0.12471340  0.37588273  1
  Fe  Fe41  1  0.12990557  0.11976853  0.87621794  1
  Fe  Fe42  1  0.74830657  0.50090683  0.25054767  1
  Fe  Fe43  1  0.37537374  0.37598683  0.12493003  1
  Fe  Fe44  1  0.62399328  0.87423445  0.12577768  1
  Fe  Fe45  1  0.37155493  0.87982014  0.87230529  1
  Fe  Fe46  1  0.25187405  0.75204536  0.25028088  1
  Fe  Fe47  1  0.25044490  0.75512581  0.00032231  1
  Fe  Fe48  1  0.87547304  0.62330021  0.12343836  1
  Fe  Fe49  1  0.24739171  0.49854237  0.24933340  1
  Fe  Fe50  1  0.75095726  0.75147034  -0.00075113  1
  Fe  Fe51  1  0.50136946  0.50066011  0.24960595  1
  Fe  Fe52  1  0.62517574  0.62677707  0.12396258  1
  Fe  Fe53  1  0.12639978  0.62621165  0.37605572  1
  Fe  Fe54  1  0.87536847  0.87964968  0.12410012  1
  Fe  Fe55  1  0.00361577  0.50319371  0.75056738  1
  Fe  Fe56  1  0.00263349  0.00081030  0.74856900  1
  Fe  Fe57  1  0.62451116  0.37177019  0.12302367  1
  Fe  Fe58  1  0.74841297  0.49908647  -0.00240688  1
  Fe  Fe59  1  0.75324919  0.24876349  0.25079842  1
  Fe  Fe60  1  0.74829474  0.00116998  0.75112733  1
  Fe  Fe61  1  0.00191446  0.49979472  -0.00005013  1
  Fe  Fe62  1  0.49673390  0.25095727  0.75474726  1
  Fe  Fe63  1  0.50291022  0.49742567  -0.00335848  1
  Fe  Fe64  1  0.75188244  0.74928614  0.49946386  1
  Fe  Fe65  1  0.62303829  0.12645001  0.87563894  1
  Fe  Fe66  1  0.87652110  0.37512616  0.87415352  1
  Fe  Fe67  1  0.37415801  0.12858713  0.62453245  1
  Fe  Fe68  1  0.49841824  0.74934646  0.49981678  1
  Fe  Fe69  1  0.49897094  -0.00009804  0.00126375  1
  Fe  Fe70  1  0.62548509  0.62416124  0.62358703  1
  Fe  Fe71  1  0.74860606  0.00194556  0.50211213  1
  Fe  Fe72  1  0.87594665  0.37761881  0.62741265  1
  Fe  Fe73  1  -0.00049538  0.50069367  0.50097816  1
  Fe  Fe74  1  0.62326538  0.37361586  0.37561661  1
  Fe  Fe75  1  -0.00087689  0.24549456  0.00001712  1
  Fe  Fe76  1  0.87526122  0.87419095  0.62533464  1
  Fe  Fe77  1  0.37451416  0.62264362  0.37631306  1
  Fe  Fe78  1  0.62632830  0.37271882  0.62588701  1
  Fe  Fe79  1  0.12637117  0.62784726  0.62098940  1
  Fe  Fe80  1  0.62418025  0.12778106  0.37802659  1
  Fe  Fe81  1  0.25044451  0.49648633  0.50097285  1
  Fe  Fe82  1  0.12395494  0.37098179  0.12560751  1
  Fe  Fe83  1  0.49972061  0.74834618  0.25076925  1
  Fe  Fe84  1  0.75147161  0.24792105  0.75169900  1
  Fe  Fe85  1  0.75295331  0.24820703  -0.00202535  1
  Fe  Fe86  1  0.74735453  0.50175584  0.75406379  1
  Fe  Fe87  1  0.49829599  0.24905121  0.24885350  1
  Fe  Fe88  1  -0.00304464  0.74803956  0.25067104  1
  Fe  Fe89  1  0.50007032  0.00083430  0.74731193  1
  Co  Co90  1  0.87601050  0.12307954  0.37614560  1
  Co  Co91  1  -0.00181093  0.24569288  0.24676741  1
  Co  Co92  1  -0.00462463  0.25051992  0.50310358  1
  Co  Co93  1  0.87582380  0.62367359  0.87769551  1
  Co  Co94  1  0.87331727  0.62307045  0.62515905  1
  Co  Co95  1  0.00203381  0.50127112  0.24964569  1
  Co  Co96  1  0.12691509  0.62631434  0.87788376  1
  Co  Co97  1  0.12598195  0.87771255  0.87087635  1
  Co  Co98  1  0.49775471  0.25317384  0.50096950  1
  Co  Co99  1  0.62584759  0.36963170  0.87660749  1
  Co  Co100  1  0.50444694  0.00254530  0.25034909  1
  Co  Co101  1  0.75183066  0.74974824  0.24914897  1
  Co  Co102  1  0.25241179  0.25363553  0.49791431  1
  Co  Co103  1  0.37695401  0.37646763  0.37234038  1
  Co  Co104  1  -0.00363239  0.74930505  0.49858278  1
  Co  Co105  1  0.24522398  0.00026980  0.25195892  1
  Co  Co106  1  0.37431411  0.62383108  0.62445918  1
  Co  Co107  1  0.24767368  -0.00717034  0.00506858  1
  Co  Co108  1  0.13228097  0.13073824  0.12281079  1
  Co  Co109  1  0.24459710  0.50214032  0.74778477  1
  Co  Co110  1  0.37310149  0.38163485  0.87194313  1
  Co  Co111  1  0.24906659  0.00036805  0.74254502  1
  Co  Co112  1  0.50433714  0.49876201  0.74991964  1
  Co  Co113  1  0.12504737  0.37290561  0.62418456  1
  Co  Co114  1  0.74634507  -0.00003492  -0.00287545  1
  Co  Co115  1  0.00617037  0.00224373  0.00349694  1
  Co  Co116  1  0.49367967  0.24850645  -0.00118595  1
  Co  Co117  1  0.37703081  0.87788130  0.13023546  1
  Co  Co118  1  0.62409615  0.62487982  0.37692482  1
  Co  Co119  1  0.74986332  0.49776404  0.49825832  1
  Co  Co120  1  0.24870347  0.24876868  0.75366691  1
  Co  Co121  1  0.37198159  0.11753380  0.87441723  1
  Co  Co122  1  0.25212187  0.75307273  0.49753762  1
  Co  Co123  1  0.12252495  0.87184540  0.12895793  1
  Co  Co124  1  0.62394253  0.12858344  0.62616955  1
  Co  Co125  1  0.87729547  0.12182459  0.87420348  1
  Co  Co126  1  0.62398449  0.62801743  0.87580409  1
  Co  Co127  1  0.87201765  0.12190539  0.12282118  1
