# generated using pymatgen
data_Fe45Co19
_symmetry_space_group_name_H-M   'P 1'
_cell_length_a   11.41617631
_cell_length_b   11.41496705
_cell_length_c   11.41635735
_cell_angle_alpha   89.98404561
_cell_angle_beta   89.99400336
_cell_angle_gamma   89.99991666
_symmetry_Int_Tables_number   1
_chemical_formula_structural   Fe45Co19
_chemical_formula_sum   'Fe90 Co38'
_cell_volume   1487.72569871
_cell_formula_units_Z   2
loop_
 _symmetry_equiv_pos_site_id
 _symmetry_equiv_pos_as_xyz
  1  'x, y, z'
loop_
 _atom_site_type_symbol
 _atom_site_label
 _atom_site_symmetry_multiplicity
 _atom_site_fract_x
 _atom_site_fract_y
 _atom_site_fract_z
 _atom_site_occupancy
  Fe  Fe0  1  0.50071496  0.00029546  0.00089004  1
  Fe  Fe1  1  0.12343701  0.87198017  0.62222258  1
  Fe  Fe2  1  0.62948818  0.37701086  0.87962659  1
  Fe  Fe3  1  0.12226411  0.37511093  0.37542501  1
  Fe  Fe4  1  0.12564439  0.87680279  0.87651860  1
  Fe  Fe5  1  -0.00420995  -0.00298153  0.00125984  1
  Fe  Fe6  1  0.87497204  0.37469127  0.12400313  1
  Fe  Fe7  1  0.25146814  0.74957777  -0.00174551  1
  Fe  Fe8  1  0.12878135  0.62373088  0.87370655  1
  Fe  Fe9  1  0.24822584  0.25064245  0.24874683  1
  Fe  Fe10  1  0.62504167  0.37655451  0.62208570  1
  Fe  Fe11  1  -0.00180759  0.49928627  -0.00206259  1
  Fe  Fe12  1  0.87447196  0.62652731  0.87188659  1
  Fe  Fe13  1  0.12325150  0.12171814  0.37593044  1
  Fe  Fe14  1  -0.00023956  0.49748321  0.75134233  1
  Fe  Fe15  1  0.87145846  0.12093597  0.12757354  1
  Fe  Fe16  1  0.37517387  0.37559177  0.37369611  1
  Fe  Fe17  1  0.37534753  0.12758083  0.12493812  1
  Fe  Fe18  1  0.24745008  0.49901024  0.24817757  1
  Fe  Fe19  1  0.00299827  0.75499410  0.25007088  1
  Fe  Fe20  1  0.37556998  0.87633341  0.87347845  1
  Fe  Fe21  1  0.37502197  0.62250165  0.62882619  1
  Fe  Fe22  1  -0.00226621  0.24925638  0.25010105  1
  Fe  Fe23  1  0.24958063  0.24990796  0.50048016  1
  Fe  Fe24  1  0.75029639  -0.00160494  0.50374685  1
  Fe  Fe25  1  0.12308382  0.62813069  0.62532896  1
  Fe  Fe26  1  0.12372688  0.62648465  0.12428829  1
  Fe  Fe27  1  0.87627149  0.87706138  0.37370820  1
  Fe  Fe28  1  0.12183654  0.37410128  0.62456923  1
  Fe  Fe29  1  -0.00126095  0.25063519  -0.00250386  1
  Fe  Fe30  1  -0.00076989  0.49939625  0.24986795  1
  Fe  Fe31  1  0.62530064  0.62212132  0.87821081  1
  Fe  Fe32  1  0.49999787  0.25227844  0.00043109  1
  Fe  Fe33  1  0.75227895  0.25175453  0.49954020  1
  Fe  Fe34  1  0.24769198  0.25120790  0.75064947  1
  Fe  Fe35  1  0.24991939  0.50054763  0.50161481  1
  Fe  Fe36  1  0.75222827  0.49872410  0.25020360  1
  Fe  Fe37  1  0.50041249  0.74687003  0.75220217  1
  Fe  Fe38  1  0.37470918  0.62420203  0.12491711  1
  Fe  Fe39  1  0.62543202  0.62443711  0.62378343  1
  Fe  Fe40  1  0.37262571  0.87484636  0.12671628  1
  Fe  Fe41  1  0.24898559  -0.00102229  0.74762693  1
  Fe  Fe42  1  0.62623333  0.12546423  0.87514997  1
  Fe  Fe43  1  0.75158455  0.49836764  0.74910466  1
  Fe  Fe44  1  0.75626516  0.50196427  0.49939062  1
  Fe  Fe45  1  0.37336923  0.37784301  0.87392052  1
  Fe  Fe46  1  0.62698775  0.12437628  0.12585469  1
  Fe  Fe47  1  0.50110737  -0.00014604  0.25136932  1
  Fe  Fe48  1  0.49944547  0.25007320  0.49905767  1
  Fe  Fe49  1  0.50355645  0.25271036  0.75054962  1
  Fe  Fe50  1  0.37436612  0.12405808  0.37491054  1
  Fe  Fe51  1  0.12778379  0.87762441  0.37794181  1
  Fe  Fe52  1  0.62646127  0.62449688  0.12354475  1
  Fe  Fe53  1  0.87511337  0.12202949  0.37381662  1
  Fe  Fe54  1  0.37546819  0.12500217  0.87405601  1
  Fe  Fe55  1  0.62698536  0.37509873  0.12372916  1
  Fe  Fe56  1  0.49996802  0.75017507  0.24963416  1
  Fe  Fe57  1  0.74881823  0.75189550  0.25113271  1
  Fe  Fe58  1  0.62396468  0.87419976  0.37953301  1
  Fe  Fe59  1  0.37372787  0.62339668  0.37306420  1
  Fe  Fe60  1  -0.00252638  0.75318679  -0.00177183  1
  Fe  Fe61  1  0.37699600  0.12526086  0.62577650  1
  Fe  Fe62  1  0.87414084  0.12874125  0.62790194  1
  Fe  Fe63  1  -0.00163766  0.24829433  0.49989579  1
  Fe  Fe64  1  0.75429470  0.74716224  0.50039758  1
  Fe  Fe65  1  0.37687953  0.37665491  0.62577466  1
  Fe  Fe66  1  0.62572925  0.62386473  0.37512653  1
  Fe  Fe67  1  0.50080207  0.49910048  0.24848438  1
  Fe  Fe68  1  0.62617027  0.12547973  0.37618905  1
  Fe  Fe69  1  0.62540099  0.37534504  0.37508664  1
  Fe  Fe70  1  0.87571527  0.62867557  0.12775785  1
  Fe  Fe71  1  0.24930849  0.49620508  0.00255669  1
  Fe  Fe72  1  0.12454472  0.62612323  0.37595870  1
  Fe  Fe73  1  0.37189304  0.87669458  0.37499169  1
  Fe  Fe74  1  0.75271128  0.75164306  -0.00227755  1
  Fe  Fe75  1  0.12423130  0.12591790  0.62483626  1
  Fe  Fe76  1  0.49731633  0.74685963  0.49958547  1
  Fe  Fe77  1  0.87633229  0.86916049  0.62975920  1
  Fe  Fe78  1  0.62531118  0.87554810  0.87519189  1
  Fe  Fe79  1  0.74660581  -0.00071396  0.74757845  1
  Fe  Fe80  1  0.00064977  0.00015221  0.74895736  1
  Fe  Fe81  1  -0.00445185  0.50369196  0.50006048  1
  Fe  Fe82  1  0.49837595  0.74817959  -0.00118639  1
  Fe  Fe83  1  0.62723156  0.87603298  0.12325090  1
  Fe  Fe84  1  0.12577168  0.12516771  0.87597423  1
  Fe  Fe85  1  0.37692829  0.87545297  0.62400218  1
  Fe  Fe86  1  0.25132152  0.00153888  0.00157880  1
  Fe  Fe87  1  0.50376996  0.00037519  0.74648880  1
  Fe  Fe88  1  0.87243376  0.12647444  0.87176949  1
  Fe  Fe89  1  0.12454971  0.12583185  0.12320121  1
  Co  Co90  1  0.12161338  0.37350733  0.12506062  1
  Co  Co91  1  0.87742129  0.37309032  0.62544010  1
  Co  Co92  1  -0.00233306  -0.00010626  0.50384403  1
  Co  Co93  1  0.37491963  0.37380571  0.12721179  1
  Co  Co94  1  0.00206587  0.25079815  0.75275757  1
  Co  Co95  1  0.25008771  0.00156464  0.50279633  1
  Co  Co96  1  0.87142159  0.87539105  0.12679514  1
  Co  Co97  1  0.74671566  -0.00126973  0.25263538  1
  Co  Co98  1  0.75511233  0.50261348  0.00144284  1
  Co  Co99  1  0.62493691  0.12756125  0.62260249  1
  Co  Co100  1  0.24828351  0.74881689  0.25049495  1
  Co  Co101  1  0.50012195  0.00135820  0.49960050  1
  Co  Co102  1  0.25051099  0.25200347  -0.00068776  1
  Co  Co103  1  0.00482733  0.74991986  0.75485116  1
  Co  Co104  1  0.75148374  0.25127277  0.25032025  1
  Co  Co105  1  0.62370528  0.87048284  0.62236853  1
  Co  Co106  1  0.87368223  0.87561365  0.86956778  1
  Co  Co107  1  0.50392141  0.49950241  0.75210732  1
  Co  Co108  1  0.87725253  0.62851574  0.63028750  1
  Co  Co109  1  0.24834583  0.00230297  0.24792476  1
  Co  Co110  1  0.12770179  0.87424949  0.12179702  1
  Co  Co111  1  0.50169052  0.24996959  0.24992570  1
  Co  Co112  1  0.75129288  0.24758160  0.00200340  1
  Co  Co113  1  0.74529613  0.74815102  0.75190360  1
  Co  Co114  1  -0.00280838  0.74921615  0.49650959  1
  Co  Co115  1  0.87574731  0.62628152  0.36950480  1
  Co  Co116  1  0.49829931  0.49947464  0.00106651  1
  Co  Co117  1  0.37206100  0.62108341  0.87374749  1
  Co  Co118  1  0.12565064  0.37489604  0.87575277  1
  Co  Co119  1  0.25018227  0.75177448  0.74971267  1
  Co  Co120  1  0.00259903  -0.00250284  0.24705479  1
  Co  Co121  1  0.87751975  0.37484675  0.37556681  1
  Co  Co122  1  0.75124707  -0.00052376  -0.00299145  1
  Co  Co123  1  0.87306116  0.37233355  0.87473897  1
  Co  Co124  1  0.24687368  0.49839930  0.74663248  1
  Co  Co125  1  0.74620784  0.25345167  0.74922733  1
  Co  Co126  1  0.49885538  0.50116448  0.49886633  1
  Co  Co127  1  0.25181566  0.74796216  0.50082318  1
