# generated using pymatgen
data_Fe45Co19
_symmetry_space_group_name_H-M   'P 1'
_cell_length_a   11.41532065
_cell_length_b   11.41618471
_cell_length_c   11.41520293
_cell_angle_alpha   90.00811325
_cell_angle_beta   89.99736590
_cell_angle_gamma   90.00786564
_symmetry_Int_Tables_number   1
_chemical_formula_structural   Fe45Co19
_chemical_formula_sum   'Fe90 Co38'
_cell_volume   1487.62246969
_cell_formula_units_Z   2
loop_
 _symmetry_equiv_pos_site_id
 _symmetry_equiv_pos_as_xyz
  1  'x, y, z'
loop_
 _atom_site_type_symbol
 _atom_site_label
 _atom_site_symmetry_multiplicity
 _atom_site_fract_x
 _atom_site_fract_y
 _atom_site_fract_z
 _atom_site_occupancy
  Fe  Fe0  1  0.74878682  0.00080477  0.24854884  1
  Fe  Fe1  1  0.74941242  0.49754128  -0.00266175  1
  Fe  Fe2  1  0.00460623  0.74875988  -0.00206028  1
  Fe  Fe3  1  0.62546348  0.87419977  0.37484017  1
  Fe  Fe4  1  0.62788784  0.12825737  0.87725375  1
  Fe  Fe5  1  0.87530052  0.62558411  0.62499276  1
  Fe  Fe6  1  0.37499451  0.87442345  0.37523535  1
  Fe  Fe7  1  0.12380421  0.87374760  0.37408337  1
  Fe  Fe8  1  0.75227151  0.25299726  0.75194116  1
  Fe  Fe9  1  0.12787258  0.12426339  0.62371105  1
  Fe  Fe10  1  0.50068382  0.74751119  0.50163816  1
  Fe  Fe11  1  0.37359062  0.87220735  0.87547009  1
  Fe  Fe12  1  0.62109291  0.37526314  0.62794528  1
  Fe  Fe13  1  0.25022735  -0.00006843  0.25035118  1
  Fe  Fe14  1  0.00068997  0.50234612  0.50066702  1
  Fe  Fe15  1  -0.00188253  0.24810244  0.25087568  1
  Fe  Fe16  1  0.49743003  0.49994378  -0.00401413  1
  Fe  Fe17  1  0.87475218  0.87396659  0.37548754  1
  Fe  Fe18  1  0.87453098  0.62531803  0.87587379  1
  Fe  Fe19  1  0.12338797  0.62497889  0.37421955  1
  Fe  Fe20  1  0.12744660  0.12513184  0.37696109  1
  Fe  Fe21  1  0.50014719  0.25052003  -0.00058649  1
  Fe  Fe22  1  0.24883817  0.74888433  0.50252479  1
  Fe  Fe23  1  0.50238312  0.00343425  0.25216848  1
  Fe  Fe24  1  0.87281249  0.12493140  0.62473248  1
  Fe  Fe25  1  0.25229384  -0.00034821  0.74996961  1
  Fe  Fe26  1  0.87099312  0.12423438  0.11896752  1
  Fe  Fe27  1  0.00011495  0.25012795  0.50164368  1
  Fe  Fe28  1  0.49932947  0.00321637  0.75166253  1
  Fe  Fe29  1  0.50082094  0.74839441  0.24836527  1
  Fe  Fe30  1  0.37521914  0.37658874  0.12516267  1
  Fe  Fe31  1  0.75258911  0.50120338  0.24934459  1
  Fe  Fe32  1  0.12221198  0.87606064  0.12602248  1
  Fe  Fe33  1  0.50068524  0.24776564  0.49832272  1
  Fe  Fe34  1  0.37552396  0.12486130  0.12509293  1
  Fe  Fe35  1  0.62826096  0.12550943  0.62368340  1
  Fe  Fe36  1  0.13449326  0.62609287  0.87137400  1
  Fe  Fe37  1  0.87458192  0.87375268  0.11840595  1
  Fe  Fe38  1  0.62643387  0.62370706  0.37463970  1
  Fe  Fe39  1  0.25105821  0.74897485  0.24798296  1
  Fe  Fe40  1  0.87040664  0.12572218  0.37958168  1
  Fe  Fe41  1  -0.00112171  -0.00084800  0.50024180  1
  Fe  Fe42  1  0.12481359  0.12552999  0.12439951  1
  Fe  Fe43  1  0.12481710  0.37450624  0.87328415  1
  Fe  Fe44  1  0.37700803  0.87766001  0.62362732  1
  Fe  Fe45  1  0.12436383  0.37645538  0.37428488  1
  Fe  Fe46  1  0.74923255  0.49865355  0.75085751  1
  Fe  Fe47  1  0.87494734  0.37552201  0.37564341  1
  Fe  Fe48  1  0.12687541  0.12544794  0.87475767  1
  Fe  Fe49  1  0.62516391  0.62329200  0.12411536  1
  Fe  Fe50  1  0.62282000  0.62450370  0.87258789  1
  Fe  Fe51  1  0.49937306  0.74869080  0.00004401  1
  Fe  Fe52  1  0.00293410  0.50070463  -0.00365257  1
  Fe  Fe53  1  0.12496455  0.62209650  0.12715517  1
  Fe  Fe54  1  0.24872083  -0.00186898  0.00001877  1
  Fe  Fe55  1  0.87776346  0.37708454  0.12383528  1
  Fe  Fe56  1  0.62588163  0.87474360  0.12331848  1
  Fe  Fe57  1  0.25078170  0.25170382  0.25088399  1
  Fe  Fe58  1  0.37558443  0.62404936  0.37344794  1
  Fe  Fe59  1  0.37327492  0.62261900  0.12358562  1
  Fe  Fe60  1  0.49770342  0.74696661  0.74926894  1
  Fe  Fe61  1  0.37193055  0.62038087  0.62757860  1
  Fe  Fe62  1  -0.00104086  0.00030469  0.75453229  1
  Fe  Fe63  1  0.37595339  0.37725041  0.37628402  1
  Fe  Fe64  1  0.50100314  0.00279198  0.49825704  1
  Fe  Fe65  1  0.75027177  -0.00284313  0.75447376  1
  Fe  Fe66  1  0.74863384  0.75158944  0.75246813  1
  Fe  Fe67  1  0.50195250  0.50172636  0.50153993  1
  Fe  Fe68  1  0.25065795  0.25195954  0.00007765  1
  Fe  Fe69  1  -0.00283747  0.00252925  0.24919116  1
  Fe  Fe70  1  0.12603256  0.37886491  0.62572905  1
  Fe  Fe71  1  0.74782867  0.25091446  0.24971422  1
  Fe  Fe72  1  -0.00179703  0.24903724  -0.00190897  1
  Fe  Fe73  1  0.12292865  0.37624812  0.12700140  1
  Fe  Fe74  1  0.74840894  0.49805177  0.50255851  1
  Fe  Fe75  1  -0.00474741  0.74642778  0.24933298  1
  Fe  Fe76  1  0.87674705  0.87297835  0.62727187  1
  Fe  Fe77  1  0.25357930  0.25243917  0.74737305  1
  Fe  Fe78  1  0.12414671  0.87508148  0.62531058  1
  Fe  Fe79  1  0.50237436  0.24771685  0.25274790  1
  Fe  Fe80  1  -0.00098630  0.24916235  0.75019637  1
  Fe  Fe81  1  0.87859706  0.37742525  0.62791684  1
  Fe  Fe82  1  0.62315474  0.37587767  0.12556225  1
  Fe  Fe83  1  0.62283550  0.87454048  0.62672177  1
  Fe  Fe84  1  0.50166567  0.00062843  -0.00149260  1
  Fe  Fe85  1  0.37630747  0.87577183  0.12537416  1
  Fe  Fe86  1  0.00299281  0.74783131  0.75050864  1
  Fe  Fe87  1  0.49594996  0.24922337  0.75103470  1
  Fe  Fe88  1  0.74913202  0.75112453  0.50159676  1
  Fe  Fe89  1  0.75225334  0.74629338  0.24759675  1
  Co  Co90  1  0.24920653  0.49754197  -0.00015437  1
  Co  Co91  1  0.37547242  0.37414947  0.87580730  1
  Co  Co92  1  0.87354380  0.62423201  0.37974517  1
  Co  Co93  1  0.37024906  0.62819370  0.87485488  1
  Co  Co94  1  0.87809689  0.37642204  0.87366674  1
  Co  Co95  1  0.00167715  0.00109427  -0.00295906  1
  Co  Co96  1  0.63072518  0.12495278  0.37871660  1
  Co  Co97  1  0.75074018  0.25604642  -0.00072738  1
  Co  Co98  1  0.00162260  0.50354312  0.75237923  1
  Co  Co99  1  0.37798995  0.37626257  0.62224493  1
  Co  Co100  1  0.75062245  -0.00503631  0.50361649  1
  Co  Co101  1  0.62612342  0.12591072  0.12119002  1
  Co  Co102  1  0.74745379  -0.00396865  -0.00554707  1
  Co  Co103  1  0.12742170  0.87424950  0.87325201  1
  Co  Co104  1  0.74597319  0.74933336  -0.00267487  1
  Co  Co105  1  0.87276843  0.12681085  0.87665406  1
  Co  Co106  1  0.00143845  0.74972359  0.50142530  1
  Co  Co107  1  0.49951250  0.50096812  0.24888668  1
  Co  Co108  1  0.62414999  0.37768134  0.37453967  1
  Co  Co109  1  0.61946187  0.87196426  0.87327811  1
  Co  Co110  1  0.49693532  0.50087720  0.75246515  1
  Co  Co111  1  0.87814897  0.87139275  0.87782182  1
  Co  Co112  1  0.74992840  0.25610293  0.50325989  1
  Co  Co113  1  0.87556760  0.62419452  0.11844062  1
  Co  Co114  1  0.37317126  0.12488634  0.62244624  1
  Co  Co115  1  0.12664711  0.62213557  0.62728437  1
  Co  Co116  1  0.62269716  0.37414347  0.87294206  1
  Co  Co117  1  0.24880021  0.75180832  0.00462219  1
  Co  Co118  1  0.37265635  0.12576544  0.87694923  1
  Co  Co119  1  0.25166186  0.75310174  0.74414929  1
  Co  Co120  1  0.37141214  0.12475533  0.37543243  1
  Co  Co121  1  0.25012402  0.25319338  0.50143820  1
  Co  Co122  1  0.25046309  0.49937546  0.24972524  1
  Co  Co123  1  0.25375787  0.49485870  0.75140093  1
  Co  Co124  1  0.24970635  0.50146836  0.49844551  1
  Co  Co125  1  -0.00296735  0.50194483  0.25105020  1
  Co  Co126  1  0.24933908  -0.00276810  0.50006877  1
  Co  Co127  1  0.62632238  0.62493430  0.62718883  1
