# generated using pymatgen
data_Fe45Co19
_symmetry_space_group_name_H-M   'P 1'
_cell_length_a   11.41507192
_cell_length_b   11.41485229
_cell_length_c   11.41580877
_cell_angle_alpha   90.00069798
_cell_angle_beta   90.00282971
_cell_angle_gamma   90.00091710
_symmetry_Int_Tables_number   1
_chemical_formula_structural   Fe45Co19
_chemical_formula_sum   'Fe90 Co38'
_cell_volume   1487.49540413
_cell_formula_units_Z   2
loop_
 _symmetry_equiv_pos_site_id
 _symmetry_equiv_pos_as_xyz
  1  'x, y, z'
loop_
 _atom_site_type_symbol
 _atom_site_label
 _atom_site_symmetry_multiplicity
 _atom_site_fract_x
 _atom_site_fract_y
 _atom_site_fract_z
 _atom_site_occupancy
  Fe  Fe0  1  0.62441997  0.12535654  0.62409024  1
  Fe  Fe1  1  0.37311354  0.37372432  0.87314890  1
  Fe  Fe2  1  0.24754999  0.74913629  0.50246337  1
  Fe  Fe3  1  0.62458049  0.62316006  0.37470566  1
  Fe  Fe4  1  0.37337016  0.87207306  0.37352445  1
  Fe  Fe5  1  0.12560422  0.37841842  0.87768394  1
  Fe  Fe6  1  0.12461794  0.62193806  0.37703108  1
  Fe  Fe7  1  0.12674652  0.87868117  0.87680556  1
  Fe  Fe8  1  0.75041754  0.00075489  0.74798118  1
  Fe  Fe9  1  0.62629519  0.37588145  0.87493461  1
  Fe  Fe10  1  0.62320152  0.87439067  0.62486334  1
  Fe  Fe11  1  0.75249340  -0.00054960  0.00248370  1
  Fe  Fe12  1  0.37373506  0.87475043  0.62732419  1
  Fe  Fe13  1  0.12914396  0.37758680  0.37180498  1
  Fe  Fe14  1  0.12402290  0.61965694  0.12315566  1
  Fe  Fe15  1  0.87373481  0.87659610  0.37337838  1
  Fe  Fe16  1  0.37219753  0.12921519  0.37358252  1
  Fe  Fe17  1  0.24751779  0.74826351  0.24948262  1
  Fe  Fe18  1  0.75167987  0.50150646  0.00025275  1
  Fe  Fe19  1  0.62489624  0.37791562  0.12590101  1
  Fe  Fe20  1  0.00116012  0.25114725  0.49863163  1
  Fe  Fe21  1  0.49508250  -0.00024196  0.24902582  1
  Fe  Fe22  1  0.37396558  0.37249020  0.62652969  1
  Fe  Fe23  1  0.62196144  0.87500791  0.12409568  1
  Fe  Fe24  1  0.87344624  0.37489853  0.37578217  1
  Fe  Fe25  1  0.87666886  0.62622222  0.12618565  1
  Fe  Fe26  1  0.37506988  0.12860576  0.87077429  1
  Fe  Fe27  1  0.62518078  0.87789369  0.37626736  1
  Fe  Fe28  1  0.37334431  0.62466813  0.62520597  1
  Fe  Fe29  1  0.62267816  0.12415712  0.87704936  1
  Fe  Fe30  1  0.62404694  0.62429943  0.62560377  1
  Fe  Fe31  1  0.87664425  0.12588717  0.87438547  1
  Fe  Fe32  1  0.00322198  0.25113145  0.75056515  1
  Fe  Fe33  1  0.12662040  0.87711599  0.37486057  1
  Fe  Fe34  1  0.49712185  0.49905757  0.49815692  1
  Fe  Fe35  1  0.49146436  -0.00292404  0.00016218  1
  Fe  Fe36  1  0.74880750  0.24860091  0.74950278  1
  Fe  Fe37  1  0.49903211  0.74866651  0.75344727  1
  Fe  Fe38  1  0.00427814  0.74913651  0.74887153  1
  Fe  Fe39  1  0.12583983  0.38083905  0.62559009  1
  Fe  Fe40  1  0.25005263  0.00234423  0.75020677  1
  Fe  Fe41  1  0.25155133  0.75142831  -0.00084335  1
  Fe  Fe42  1  0.87540528  0.37277499  0.87665200  1
  Fe  Fe43  1  0.75006153  0.74938851  0.74936693  1
  Fe  Fe44  1  0.87686056  0.12306162  0.12699556  1
  Fe  Fe45  1  0.00262557  0.75093261  0.50092648  1
  Fe  Fe46  1  0.74920817  0.75108700  0.24959126  1
  Fe  Fe47  1  0.24968875  0.25150869  0.50097085  1
  Fe  Fe48  1  0.62614164  0.37532144  0.62365511  1
  Fe  Fe49  1  0.37338830  0.62448329  0.37441368  1
  Fe  Fe50  1  0.49902634  0.74962544  0.49986342  1
  Fe  Fe51  1  0.00183050  0.75124623  0.24930054  1
  Fe  Fe52  1  0.12638292  0.62035380  0.87567486  1
  Fe  Fe53  1  0.49667021  0.00062523  0.50181984  1
  Fe  Fe54  1  0.87442973  0.37518229  0.62271596  1
  Fe  Fe55  1  0.00195351  0.75128039  0.00024207  1
  Fe  Fe56  1  0.62543431  0.37606540  0.37539111  1
  Fe  Fe57  1  0.00290123  0.24830004  0.00086929  1
  Fe  Fe58  1  0.74985045  0.74944698  0.49964656  1
  Fe  Fe59  1  0.50047184  0.25113992  0.25046158  1
  Fe  Fe60  1  0.24866211  0.24944181  0.00042840  1
  Fe  Fe61  1  0.87907058  0.62324352  0.62210099  1
  Fe  Fe62  1  0.12776315  0.88036576  0.12393722  1
  Fe  Fe63  1  0.62136276  0.12399367  0.12386365  1
  Fe  Fe64  1  0.75244249  0.50147601  0.25102966  1
  Fe  Fe65  1  0.50123089  0.74916443  0.24978016  1
  Fe  Fe66  1  0.49914303  0.50177361  -0.00081830  1
  Fe  Fe67  1  0.49938488  0.25206144  -0.00041011  1
  Fe  Fe68  1  0.75235810  0.50094730  0.74932651  1
  Fe  Fe69  1  0.00114211  0.00086086  0.75086511  1
  Fe  Fe70  1  0.74846004  0.24845029  0.24911694  1
  Fe  Fe71  1  0.87828449  0.37460550  0.12532230  1
  Fe  Fe72  1  0.62308416  0.87608302  0.87445850  1
  Fe  Fe73  1  0.12804795  0.12071768  0.12483846  1
  Fe  Fe74  1  0.87706264  0.87530047  0.62558332  1
  Fe  Fe75  1  0.12470565  0.12474580  0.62370595  1
  Fe  Fe76  1  0.49743387  0.50000946  0.75166633  1
  Fe  Fe77  1  0.87335276  0.12319454  0.37487958  1
  Fe  Fe78  1  0.25206730  0.00014238  0.49959166  1
  Fe  Fe79  1  0.00384173  0.24885906  0.25085234  1
  Fe  Fe80  1  0.24697523  0.74758357  0.74841322  1
  Fe  Fe81  1  0.37296743  0.37352174  0.12866707  1
  Fe  Fe82  1  0.37681238  0.62709912  0.12403887  1
  Fe  Fe83  1  0.74938430  0.24890894  0.00176996  1
  Fe  Fe84  1  0.74705515  0.74928666  0.00078670  1
  Fe  Fe85  1  0.87603255  0.62628528  0.87520618  1
  Fe  Fe86  1  0.49946327  0.24990852  0.50006469  1
  Fe  Fe87  1  -0.00061033  0.00008183  0.49914840  1
  Fe  Fe88  1  0.87614171  0.87441613  0.87623200  1
  Fe  Fe89  1  0.62662863  0.12257639  0.37491214  1
  Co  Co90  1  0.74946251  -0.00042151  0.24628276  1
  Co  Co91  1  0.25173907  0.50050753  0.75041766  1
  Co  Co92  1  0.87688640  0.87289558  0.12519146  1
  Co  Co93  1  0.50076426  0.75001028  -0.00281705  1
  Co  Co94  1  0.25281873  0.00030125  0.25148072  1
  Co  Co95  1  0.25083621  0.50176691  0.24841110  1
  Co  Co96  1  0.00018688  0.49948452  0.25138758  1
  Co  Co97  1  0.12575338  0.12279357  0.87664879  1
  Co  Co98  1  -0.00122109  0.49938458  0.75237325  1
  Co  Co99  1  0.37423034  0.12918895  0.12655950  1
  Co  Co100  1  0.50310790  0.25072335  0.74963102  1
  Co  Co101  1  0.12587617  0.87839714  0.62474186  1
  Co  Co102  1  0.49957085  0.00149732  0.74835073  1
  Co  Co103  1  0.24599216  0.24933033  0.24795137  1
  Co  Co104  1  0.87853791  0.12698842  0.62533954  1
  Co  Co105  1  0.49679269  0.49981187  0.25106154  1
  Co  Co106  1  0.62404339  0.62317213  0.12593776  1
  Co  Co107  1  0.74963031  0.24810439  0.49981441  1
  Co  Co108  1  0.00159241  -0.00066610  0.25086844  1
  Co  Co109  1  0.74997442  0.50222834  0.49910487  1
  Co  Co110  1  0.87752663  0.62758200  0.37515228  1
  Co  Co111  1  0.12387474  0.37709973  0.12438438  1
  Co  Co112  1  0.24512124  0.25143595  0.75041055  1
  Co  Co113  1  0.25309934  0.49829871  0.00193771  1
  Co  Co114  1  0.25259407  0.49961422  0.49922886  1
  Co  Co115  1  0.37306901  0.87293880  0.87028781  1
  Co  Co116  1  -0.00274017  0.50022584  -0.00097797  1
  Co  Co117  1  -0.00189605  -0.00017256  0.00039925  1
  Co  Co118  1  0.37255611  0.12812315  0.62719725  1
  Co  Co119  1  0.12334146  0.61968146  0.62335319  1
  Co  Co120  1  0.37284090  0.86974772  0.12784881  1
  Co  Co121  1  0.62531882  0.62321461  0.87384920  1
  Co  Co122  1  0.25746047  0.00087881  -0.00060124  1
  Co  Co123  1  0.00027285  0.49746406  0.49617430  1
  Co  Co124  1  0.37233538  0.62642235  0.87677485  1
  Co  Co125  1  0.75078830  -0.00007454  0.50332737  1
  Co  Co126  1  0.37245037  0.37244596  0.37283656  1
  Co  Co127  1  0.12675196  0.12375790  0.37710959  1
