# generated using pymatgen
data_Fe45Co19
_symmetry_space_group_name_H-M   'P 1'
_cell_length_a   11.41530894
_cell_length_b   11.41491695
_cell_length_c   11.41557216
_cell_angle_alpha   90.00013329
_cell_angle_beta   89.99912388
_cell_angle_gamma   90.00929049
_symmetry_Int_Tables_number   1
_chemical_formula_structural   Fe45Co19
_chemical_formula_sum   'Fe90 Co38'
_cell_volume   1487.50386700
_cell_formula_units_Z   2
loop_
 _symmetry_equiv_pos_site_id
 _symmetry_equiv_pos_as_xyz
  1  'x, y, z'
loop_
 _atom_site_type_symbol
 _atom_site_label
 _atom_site_symmetry_multiplicity
 _atom_site_fract_x
 _atom_site_fract_y
 _atom_site_fract_z
 _atom_site_occupancy
  Fe  Fe0  1  0.25022704  -0.00000318  0.49948036  1
  Fe  Fe1  1  0.75356731  0.75327993  0.24590952  1
  Fe  Fe2  1  0.87681904  0.37475867  0.37451759  1
  Fe  Fe3  1  0.62408192  0.12365719  0.12756335  1
  Fe  Fe4  1  0.24962327  0.49916594  0.24804069  1
  Fe  Fe5  1  0.62605509  0.37420613  0.37346512  1
  Fe  Fe6  1  0.12282025  0.37462682  0.62351662  1
  Fe  Fe7  1  0.75089802  0.24859272  0.49918713  1
  Fe  Fe8  1  0.49944405  0.50173579  0.24988550  1
  Fe  Fe9  1  0.00023613  0.00045471  0.75517610  1
  Fe  Fe10  1  0.24884124  0.75369745  0.24835321  1
  Fe  Fe11  1  0.37494164  0.62642573  0.12543354  1
  Fe  Fe12  1  0.49806962  0.74969089  0.50413486  1
  Fe  Fe13  1  0.49893599  0.50184599  0.50054966  1
  Fe  Fe14  1  0.49938877  0.50081382  0.00145199  1
  Fe  Fe15  1  0.50042417  0.25038588  -0.00103600  1
  Fe  Fe16  1  0.62971645  0.12417423  0.87144139  1
  Fe  Fe17  1  0.25148305  0.25394000  0.74909497  1
  Fe  Fe18  1  0.49834988  0.50189779  0.74815798  1
  Fe  Fe19  1  0.62485097  0.37533463  0.12626046  1
  Fe  Fe20  1  0.12569128  0.62433238  0.62782407  1
  Fe  Fe21  1  0.12421145  0.12509157  0.62873564  1
  Fe  Fe22  1  0.74904084  0.50319825  0.00233963  1
  Fe  Fe23  1  0.25005096  0.75128868  0.50377301  1
  Fe  Fe24  1  0.62450404  0.12428874  0.37430853  1
  Fe  Fe25  1  0.87614792  0.62984449  0.37514022  1
  Fe  Fe26  1  0.00224054  0.50192939  0.00144764  1
  Fe  Fe27  1  0.37389419  0.62962044  0.37366988  1
  Fe  Fe28  1  -0.00366701  0.49700492  0.75042452  1
  Fe  Fe29  1  0.49766675  0.25030510  0.24997647  1
  Fe  Fe30  1  0.49946224  -0.00252728  0.25158253  1
  Fe  Fe31  1  0.75274762  0.24832954  0.24920121  1
  Fe  Fe32  1  -0.00231383  0.75522055  0.24718620  1
  Fe  Fe33  1  0.62417543  0.87190012  0.37481494  1
  Fe  Fe34  1  0.25015569  -0.00149171  0.25131741  1
  Fe  Fe35  1  0.50016653  0.24915176  0.50093524  1
  Fe  Fe36  1  0.37438221  0.12311812  0.62547546  1
  Fe  Fe37  1  0.87605806  0.11517584  0.12697196  1
  Fe  Fe38  1  0.24939849  -0.00300945  0.75435648  1
  Fe  Fe39  1  0.12386105  0.12570715  0.37059907  1
  Fe  Fe40  1  0.75360247  0.25582736  0.74965830  1
  Fe  Fe41  1  0.87810640  0.87377341  0.62168241  1
  Fe  Fe42  1  -0.00068246  0.24726761  0.49920884  1
  Fe  Fe43  1  0.75204801  0.50224433  0.24908292  1
  Fe  Fe44  1  0.50046723  0.00166286  -0.00262324  1
  Fe  Fe45  1  0.62579635  0.37725931  0.62463594  1
  Fe  Fe46  1  0.24988558  0.75019985  -0.00150300  1
  Fe  Fe47  1  0.87306149  0.62385839  0.87627341  1
  Fe  Fe48  1  0.00065975  0.50281504  0.49875147  1
  Fe  Fe49  1  0.12561736  0.62586434  0.87459293  1
  Fe  Fe50  1  0.12240638  0.37302005  0.37212264  1
  Fe  Fe51  1  0.00005504  0.75077385  0.75135920  1
  Fe  Fe52  1  0.12466773  0.37439081  0.87713334  1
  Fe  Fe53  1  0.25122815  0.25259085  0.00305548  1
  Fe  Fe54  1  0.87515012  0.12453804  0.62727524  1
  Fe  Fe55  1  0.37761669  0.87159505  0.87190534  1
  Fe  Fe56  1  0.12240308  0.87432706  0.37865758  1
  Fe  Fe57  1  0.75052758  -0.00264452  0.50015786  1
  Fe  Fe58  1  0.74751396  0.74904505  0.75073138  1
  Fe  Fe59  1  0.87585444  0.11911296  0.37249643  1
  Fe  Fe60  1  0.12476821  0.62699230  0.37242515  1
  Fe  Fe61  1  0.75053245  0.50073309  0.49955418  1
  Fe  Fe62  1  0.62615045  0.87431659  0.12334291  1
  Fe  Fe63  1  0.12352682  0.87998690  0.11819241  1
  Fe  Fe64  1  0.87289525  0.62629290  0.62436308  1
  Fe  Fe65  1  -0.00334719  0.25178022  0.75360944  1
  Fe  Fe66  1  0.25115241  0.49787749  0.75042275  1
  Fe  Fe67  1  0.37328915  0.62510554  0.87424427  1
  Fe  Fe68  1  0.49757137  -0.00122330  0.49958320  1
  Fe  Fe69  1  0.37357179  0.12317977  0.12559065  1
  Fe  Fe70  1  0.50363162  0.74733060  -0.00107148  1
  Fe  Fe71  1  0.25034260  0.49975572  0.49975726  1
  Fe  Fe72  1  0.75077346  0.24713507  0.00235290  1
  Fe  Fe73  1  -0.00288689  0.75088408  0.00046081  1
  Fe  Fe74  1  0.37591152  0.87481781  0.12412909  1
  Fe  Fe75  1  0.62691981  0.12330866  0.62687254  1
  Fe  Fe76  1  0.37475959  0.37335785  0.37488989  1
  Fe  Fe77  1  0.12335595  0.87570801  0.62595863  1
  Fe  Fe78  1  0.12360786  0.62656398  0.12538683  1
  Fe  Fe79  1  0.62137133  0.87567026  0.62795440  1
  Fe  Fe80  1  0.12297001  0.37356853  0.12716744  1
  Fe  Fe81  1  0.87182051  0.87739857  0.87976368  1
  Fe  Fe82  1  0.25050548  0.24887011  0.49950214  1
  Fe  Fe83  1  0.62495137  0.87590001  0.87392110  1
  Fe  Fe84  1  0.49922766  0.25059748  0.74990288  1
  Fe  Fe85  1  -0.00130854  0.24302157  0.00000576  1
  Fe  Fe86  1  0.37303069  0.12691107  0.87510746  1
  Fe  Fe87  1  0.87686246  0.37659871  0.12413038  1
  Fe  Fe88  1  0.62660469  0.37765270  0.87525361  1
  Fe  Fe89  1  0.62544879  0.62865252  0.37410112  1
  Co  Co90  1  0.62679273  0.62098154  0.87377630  1
  Co  Co91  1  0.74711990  -0.00412839  0.25243557  1
  Co  Co92  1  0.00089896  0.00315759  0.50113178  1
  Co  Co93  1  0.25265616  -0.00208203  -0.00437427  1
  Co  Co94  1  0.24841131  0.50012004  0.00227634  1
  Co  Co95  1  -0.00046612  0.50168182  0.25073163  1
  Co  Co96  1  0.00363215  0.74640414  0.50181856  1
  Co  Co97  1  0.37564680  0.37639991  0.87595556  1
  Co  Co98  1  0.24737915  0.75195281  0.74997902  1
  Co  Co99  1  0.74507426  0.00322978  0.00011601  1
  Co  Co100  1  0.87773658  0.87450785  0.37852318  1
  Co  Co101  1  0.62453883  0.62564506  0.12706611  1
  Co  Co102  1  0.74784435  0.75304733  0.50204799  1
  Co  Co103  1  0.12332285  0.87256573  0.87787257  1
  Co  Co104  1  0.37531489  0.87624939  0.62851982  1
  Co  Co105  1  0.37615685  0.12438725  0.37442589  1
  Co  Co106  1  0.74828115  0.74758912  0.00076993  1
  Co  Co107  1  0.37442649  0.87251999  0.37510785  1
  Co  Co108  1  0.87667979  0.62485846  0.12396158  1
  Co  Co109  1  0.12805713  0.12165427  0.12469978  1
  Co  Co110  1  0.50036673  0.75067976  0.24788775  1
  Co  Co111  1  0.62796984  0.62303082  0.62432680  1
  Co  Co112  1  0.50300673  0.74530542  0.74863513  1
  Co  Co113  1  0.00220286  0.00575719  -0.00738515  1
  Co  Co114  1  0.37691718  0.37574901  0.12530117  1
  Co  Co115  1  0.25169052  0.25034860  0.24892617  1
  Co  Co116  1  0.87658036  0.37469841  0.61977662  1
  Co  Co117  1  0.75445090  0.49790589  0.74900497  1
  Co  Co118  1  0.87464750  0.37619535  0.88225865  1
  Co  Co119  1  0.49863590  0.00366214  0.75284602  1
  Co  Co120  1  0.12971005  0.12836451  0.87468158  1
  Co  Co121  1  0.75187173  -0.00443298  0.74662832  1
  Co  Co122  1  0.37578687  0.37461191  0.62308867  1
  Co  Co123  1  0.00346490  -0.00481257  0.25021515  1
  Co  Co124  1  0.37174347  0.62623777  0.62628607  1
  Co  Co125  1  0.87460812  0.88218463  0.11911657  1
  Co  Co126  1  -0.00297732  0.24730052  0.24695429  1
  Co  Co127  1  0.86917515  0.12304572  0.87241693  1
