# generated using pymatgen
data_Fe45Co19
_symmetry_space_group_name_H-M   'P 1'
_cell_length_a   11.41445240
_cell_length_b   11.41720471
_cell_length_c   11.41602516
_cell_angle_alpha   89.99401823
_cell_angle_beta   89.99705932
_cell_angle_gamma   90.00350510
_symmetry_Int_Tables_number   1
_chemical_formula_structural   Fe45Co19
_chemical_formula_sum   'Fe90 Co38'
_cell_volume   1487.74939692
_cell_formula_units_Z   2
loop_
 _symmetry_equiv_pos_site_id
 _symmetry_equiv_pos_as_xyz
  1  'x, y, z'
loop_
 _atom_site_type_symbol
 _atom_site_label
 _atom_site_symmetry_multiplicity
 _atom_site_fract_x
 _atom_site_fract_y
 _atom_site_fract_z
 _atom_site_occupancy
  Fe  Fe0  1  -0.00264112  0.24844536  0.50345577  1
  Fe  Fe1  1  -0.00260592  0.49957163  -0.00177392  1
  Fe  Fe2  1  0.12404102  0.87491135  0.87517758  1
  Fe  Fe3  1  0.87419676  0.37598071  0.37541824  1
  Fe  Fe4  1  0.37510532  0.87692779  0.12503871  1
  Fe  Fe5  1  0.74993177  0.50257484  0.75390654  1
  Fe  Fe6  1  0.50542250  0.00053932  0.25229313  1
  Fe  Fe7  1  0.25007311  0.24763962  -0.00116109  1
  Fe  Fe8  1  0.50071499  0.25107307  0.24738883  1
  Fe  Fe9  1  0.75090836  0.74968372  -0.00206806  1
  Fe  Fe10  1  0.50124144  0.25038101  0.50371443  1
  Fe  Fe11  1  -0.00143055  0.25022692  0.24924775  1
  Fe  Fe12  1  0.74621070  0.74664643  0.49980964  1
  Fe  Fe13  1  0.74964030  0.24914668  0.50222093  1
  Fe  Fe14  1  0.75347507  -0.00062809  0.75314842  1
  Fe  Fe15  1  -0.00593417  0.25047788  0.00190762  1
  Fe  Fe16  1  0.24843734  -0.00030947  0.25161014  1
  Fe  Fe17  1  0.12427065  0.37380732  0.87468703  1
  Fe  Fe18  1  -0.00103984  0.75603495  0.74500642  1
  Fe  Fe19  1  0.12496554  0.37528433  0.37781943  1
  Fe  Fe20  1  0.25319532  -0.00067678  0.50068858  1
  Fe  Fe21  1  0.37706043  0.87068799  0.62529371  1
  Fe  Fe22  1  0.62406496  0.87662792  0.62469070  1
  Fe  Fe23  1  0.87324193  0.87609587  0.37807629  1
  Fe  Fe24  1  0.75491426  0.49893973  -0.00502563  1
  Fe  Fe25  1  0.62761780  0.37470418  0.11992755  1
  Fe  Fe26  1  0.24981875  -0.00257189  0.74929879  1
  Fe  Fe27  1  0.37777670  0.37669986  0.37386999  1
  Fe  Fe28  1  0.50119474  0.75239268  -0.00242056  1
  Fe  Fe29  1  0.50043659  0.25107960  -0.00497217  1
  Fe  Fe30  1  0.11786294  0.12262946  0.87139415  1
  Fe  Fe31  1  0.87384618  0.62495902  0.37582556  1
  Fe  Fe32  1  0.37788802  0.12487196  0.37552948  1
  Fe  Fe33  1  0.87309133  0.37454801  0.62812953  1
  Fe  Fe34  1  0.62292110  0.12299341  0.62945319  1
  Fe  Fe35  1  0.25139113  0.50073589  -0.00177323  1
  Fe  Fe36  1  0.12281981  0.87438396  0.38178975  1
  Fe  Fe37  1  0.87420954  0.12263250  0.37283165  1
  Fe  Fe38  1  0.00045273  0.50009130  0.24976571  1
  Fe  Fe39  1  0.37602600  0.37600241  0.63013727  1
  Fe  Fe40  1  0.62404436  0.37452831  0.37570189  1
  Fe  Fe41  1  0.12633595  0.37639734  0.62312059  1
  Fe  Fe42  1  0.37435637  0.87346958  0.87418084  1
  Fe  Fe43  1  0.25578956  0.50457479  0.50104831  1
  Fe  Fe44  1  0.24986804  0.50312134  0.75073498  1
  Fe  Fe45  1  0.24930097  0.00088940  -0.00149119  1
  Fe  Fe46  1  0.25151734  0.49925840  0.24857616  1
  Fe  Fe47  1  0.00037126  0.50008034  0.74945275  1
  Fe  Fe48  1  0.37550509  0.12385092  0.12528130  1
  Fe  Fe49  1  0.62528128  0.62345394  0.12052906  1
  Fe  Fe50  1  -0.00155732  0.75187015  0.25084201  1
  Fe  Fe51  1  0.25039158  0.24999340  0.24953128  1
  Fe  Fe52  1  0.62620044  0.12487348  0.12264838  1
  Fe  Fe53  1  0.12589582  0.37494210  0.12365366  1
  Fe  Fe54  1  0.25187640  0.24973214  0.50147968  1
  Fe  Fe55  1  0.87473744  0.62400679  0.12506693  1
  Fe  Fe56  1  0.12685016  0.87528820  0.12377800  1
  Fe  Fe57  1  0.49913086  0.00008890  -0.00333985  1
  Fe  Fe58  1  0.62736002  0.87777545  0.12185574  1
  Fe  Fe59  1  -0.00254833  0.50178116  0.50243674  1
  Fe  Fe60  1  0.24714285  0.24826386  0.74905155  1
  Fe  Fe61  1  0.74623451  0.75077928  0.75357745  1
  Fe  Fe62  1  0.87283905  0.62716221  0.62735403  1
  Fe  Fe63  1  0.12267361  0.12076264  0.62526808  1
  Fe  Fe64  1  0.37755012  0.12374743  0.62712627  1
  Fe  Fe65  1  0.12575589  0.62672525  0.12412572  1
  Fe  Fe66  1  0.37596458  0.62542857  0.12528167  1
  Fe  Fe67  1  0.12292601  0.12309782  0.12522211  1
  Fe  Fe68  1  0.37994146  0.87517856  0.37643008  1
  Fe  Fe69  1  0.74620237  0.00348071  0.49764990  1
  Fe  Fe70  1  0.12270588  0.62898354  0.87520913  1
  Fe  Fe71  1  0.12689096  0.62933977  0.62292867  1
  Fe  Fe72  1  0.87355941  0.87970826  0.12625528  1
  Fe  Fe73  1  0.49730581  0.49637267  -0.00428423  1
  Fe  Fe74  1  0.62404725  0.37664514  0.63001726  1
  Fe  Fe75  1  0.75427206  0.00526761  -0.00416376  1
  Fe  Fe76  1  0.74922294  0.24732051  0.75496164  1
  Fe  Fe77  1  0.74805915  0.50047140  0.24966667  1
  Fe  Fe78  1  0.74853975  0.49949772  0.50156446  1
  Fe  Fe79  1  -0.00176184  0.75186964  0.00175295  1
  Fe  Fe80  1  0.37576529  0.12535161  0.87195381  1
  Fe  Fe81  1  0.12508387  0.62602773  0.37661688  1
  Fe  Fe82  1  0.61998381  0.62284734  0.62763410  1
  Fe  Fe83  1  0.74817373  0.75083079  0.24943524  1
  Fe  Fe84  1  0.12404404  0.12411455  0.37780426  1
  Fe  Fe85  1  0.50312992  0.75041259  0.24840430  1
  Fe  Fe86  1  0.37566447  0.62941352  0.87196797  1
  Fe  Fe87  1  0.25145371  0.75087212  0.25190804  1
  Fe  Fe88  1  0.75129270  0.24908158  0.24650722  1
  Fe  Fe89  1  0.62124396  0.62271096  0.37498169  1
  Co  Co90  1  0.88268827  0.12594772  0.87018021  1
  Co  Co91  1  0.50099898  0.25039918  0.75156581  1
  Co  Co92  1  0.87295878  0.12543094  0.62849199  1
  Co  Co93  1  0.86698680  0.87374499  0.61988595  1
  Co  Co94  1  0.49823763  -0.00352390  0.75123517  1
  Co  Co95  1  -0.00349606  -0.00804956  0.74475639  1
  Co  Co96  1  0.74469667  -0.00060694  0.25293757  1
  Co  Co97  1  0.50253649  0.49855395  0.24529834  1
  Co  Co98  1  0.00298447  -0.00274321  0.25139240  1
  Co  Co99  1  0.24731938  0.75156268  0.75011402  1
  Co  Co100  1  0.37820313  0.62929582  0.63111201  1
  Co  Co101  1  0.87588376  0.11924512  0.12850411  1
  Co  Co102  1  0.37052831  0.37172123  0.87140647  1
  Co  Co103  1  -0.00316736  0.74862704  0.50255457  1
  Co  Co104  1  0.50618587  0.75245217  0.75391409  1
  Co  Co105  1  0.37397710  0.37303950  0.12289431  1
  Co  Co106  1  -0.00403853  0.00110370  0.50454251  1
  Co  Co107  1  0.25490681  0.74751718  0.49743827  1
  Co  Co108  1  0.62493207  0.62374469  0.87867599  1
  Co  Co109  1  0.50028993  0.74738040  0.50080036  1
  Co  Co110  1  0.87557508  0.37303379  0.87075370  1
  Co  Co111  1  0.50272490  0.00134693  0.50066775  1
  Co  Co112  1  0.75439563  0.24574584  -0.00205119  1
  Co  Co113  1  0.37988602  0.62349888  0.37124856  1
  Co  Co114  1  0.49876073  0.49931055  0.50340615  1
  Co  Co115  1  0.00256337  0.25254641  0.74473571  1
  Co  Co116  1  0.62836230  0.37505419  0.87459241  1
  Co  Co117  1  0.87329907  0.37788520  0.12626912  1
  Co  Co118  1  0.12832785  0.87491980  0.61957256  1
  Co  Co119  1  0.62724693  0.87874052  0.87720742  1
  Co  Co120  1  0.25148743  0.75049592  0.00034029  1
  Co  Co121  1  0.87448988  0.87315968  0.87590414  1
  Co  Co122  1  0.62319375  0.12237527  0.87346593  1
  Co  Co123  1  0.87742755  0.62902138  0.87257123  1
  Co  Co124  1  0.62406642  0.13028816  0.37477452  1
  Co  Co125  1  0.62436837  0.87199859  0.37766010  1
  Co  Co126  1  -0.00043747  -0.00183787  -0.00028649  1
  Co  Co127  1  0.49922156  0.49959014  0.75481395  1
