# generated using pymatgen
data_Fe45Co19
_symmetry_space_group_name_H-M   'P 1'
_cell_length_a   11.41496708
_cell_length_b   11.41616601
_cell_length_c   11.41469986
_cell_angle_alpha   90.00090800
_cell_angle_beta   90.00137002
_cell_angle_gamma   90.00486069
_symmetry_Int_Tables_number   1
_chemical_formula_structural   Fe45Co19
_chemical_formula_sum   'Fe90 Co38'
_cell_volume   1487.50842373
_cell_formula_units_Z   2
loop_
 _symmetry_equiv_pos_site_id
 _symmetry_equiv_pos_as_xyz
  1  'x, y, z'
loop_
 _atom_site_type_symbol
 _atom_site_label
 _atom_site_symmetry_multiplicity
 _atom_site_fract_x
 _atom_site_fract_y
 _atom_site_fract_z
 _atom_site_occupancy
  Fe  Fe0  1  0.12489426  0.12316495  0.12503295  1
  Fe  Fe1  1  0.24944684  0.50125820  0.24854221  1
  Fe  Fe2  1  0.62532004  0.87455680  0.12315497  1
  Fe  Fe3  1  0.50363826  0.25426274  0.75096427  1
  Fe  Fe4  1  0.62222931  0.62582740  0.62492182  1
  Fe  Fe5  1  0.75212063  0.24946665  0.24601368  1
  Fe  Fe6  1  0.87534645  0.12254702  0.87156296  1
  Fe  Fe7  1  0.12587234  0.37444375  0.37527734  1
  Fe  Fe8  1  0.12243486  0.12491075  0.87148404  1
  Fe  Fe9  1  0.87058960  0.37501072  0.87742404  1
  Fe  Fe10  1  0.12310485  0.62288519  0.62792415  1
  Fe  Fe11  1  0.37627898  0.37299927  0.12263693  1
  Fe  Fe12  1  0.37281101  0.12402635  0.37336296  1
  Fe  Fe13  1  0.12581926  0.87501587  0.62748022  1
  Fe  Fe14  1  0.62668815  0.87571268  0.37859163  1
  Fe  Fe15  1  0.50507131  -0.00635823  0.75109337  1
  Fe  Fe16  1  0.00089857  0.75065671  0.25126353  1
  Fe  Fe17  1  0.12482877  0.37570790  0.87608162  1
  Fe  Fe18  1  0.00303178  0.00333560  0.50189739  1
  Fe  Fe19  1  -0.00208629  0.25124387  0.24782085  1
  Fe  Fe20  1  0.25126306  0.50189218  0.75222525  1
  Fe  Fe21  1  0.62326205  0.12506725  0.12243874  1
  Fe  Fe22  1  0.62587346  0.12418360  0.87556520  1
  Fe  Fe23  1  0.87862054  0.12658239  0.62853219  1
  Fe  Fe24  1  -0.00256412  0.50355401  -0.00291310  1
  Fe  Fe25  1  0.87747711  0.87585033  0.12324894  1
  Fe  Fe26  1  0.87320840  0.37427788  0.62428240  1
  Fe  Fe27  1  0.24682306  0.75008976  0.25219195  1
  Fe  Fe28  1  0.49893331  0.75090995  0.50007443  1
  Fe  Fe29  1  0.62563703  0.37350998  0.37761865  1
  Fe  Fe30  1  0.37519984  0.62427368  0.37416638  1
  Fe  Fe31  1  0.00288662  -0.00261149  0.25159924  1
  Fe  Fe32  1  0.25213975  -0.00012165  -0.00125519  1
  Fe  Fe33  1  0.37753196  0.12379760  0.62878348  1
  Fe  Fe34  1  0.12377422  0.37614698  0.12148466  1
  Fe  Fe35  1  -0.00406660  0.24800929  0.00035987  1
  Fe  Fe36  1  0.87483584  0.87517195  0.38000311  1
  Fe  Fe37  1  0.12643980  0.87519456  0.87337177  1
  Fe  Fe38  1  0.25301614  0.50329009  -0.00203268  1
  Fe  Fe39  1  0.37845312  0.62818076  0.12318181  1
  Fe  Fe40  1  0.37281518  0.87497762  0.62923650  1
  Fe  Fe41  1  0.37759644  0.12265260  0.87255055  1
  Fe  Fe42  1  0.00014677  0.74795229  0.50140309  1
  Fe  Fe43  1  0.62630737  0.12456537  0.37554291  1
  Fe  Fe44  1  0.37929870  0.62573394  0.63066515  1
  Fe  Fe45  1  0.50161113  0.49933551  0.24754994  1
  Fe  Fe46  1  0.24925889  0.74805733  0.50161298  1
  Fe  Fe47  1  0.00047435  0.50084971  0.24983562  1
  Fe  Fe48  1  0.49811392  -0.00126829  0.24821545  1
  Fe  Fe49  1  0.87527535  0.62576721  0.37561906  1
  Fe  Fe50  1  0.87506273  0.12577904  0.37415645  1
  Fe  Fe51  1  0.74775453  0.50300557  0.00092109  1
  Fe  Fe52  1  0.87541445  0.62568103  0.12473312  1
  Fe  Fe53  1  0.62103252  0.62757974  0.87608332  1
  Fe  Fe54  1  0.87285513  0.87560422  0.87440544  1
  Fe  Fe55  1  0.50154703  0.24911576  0.50075120  1
  Fe  Fe56  1  0.87329080  0.37325584  0.37632448  1
  Fe  Fe57  1  0.37754889  0.37629255  0.62464351  1
  Fe  Fe58  1  0.62543781  0.37115395  0.11963754  1
  Fe  Fe59  1  0.50117043  0.75238828  0.24958047  1
  Fe  Fe60  1  0.75091062  0.75195567  0.25091305  1
  Fe  Fe61  1  0.49983675  0.24869686  0.24910299  1
  Fe  Fe62  1  0.75263962  0.00216224  0.00121872  1
  Fe  Fe63  1  0.74844274  0.75321297  0.74639973  1
  Fe  Fe64  1  0.74641997  0.49965808  0.75037623  1
  Fe  Fe65  1  0.12417584  0.37381211  0.62719315  1
  Fe  Fe66  1  0.75029712  0.00292241  0.50482314  1
  Fe  Fe67  1  0.49637608  -0.00473193  -0.00020672  1
  Fe  Fe68  1  0.49935270  -0.00023682  0.50042775  1
  Fe  Fe69  1  0.12583291  0.87415810  0.12206589  1
  Fe  Fe70  1  0.37531026  0.37568867  0.37587752  1
  Fe  Fe71  1  0.25017517  0.24959728  0.24819339  1
  Fe  Fe72  1  0.12372727  0.62648373  0.12148268  1
  Fe  Fe73  1  0.62481355  0.62599039  0.37416700  1
  Fe  Fe74  1  0.25313989  0.74821304  -0.00582342  1
  Fe  Fe75  1  0.24798344  0.24751827  0.50248800  1
  Fe  Fe76  1  0.37169936  0.87603106  0.37421358  1
  Fe  Fe77  1  0.74698381  0.25029923  0.74876005  1
  Fe  Fe78  1  0.25178050  0.24770296  -0.00143412  1
  Fe  Fe79  1  0.74824830  0.49980652  0.24764889  1
  Fe  Fe80  1  0.25075619  0.50163805  0.50108577  1
  Fe  Fe81  1  0.37809974  0.37747774  0.87606788  1
  Fe  Fe82  1  -0.00137370  0.74945126  0.75189078  1
  Fe  Fe83  1  0.24677524  0.00340630  0.50204438  1
  Fe  Fe84  1  0.25093773  0.25000361  0.75075209  1
  Fe  Fe85  1  0.74887332  0.50235961  0.50035012  1
  Fe  Fe86  1  -0.00049524  0.49935063  0.50009036  1
  Fe  Fe87  1  0.75089792  0.74943547  0.00187748  1
  Fe  Fe88  1  0.74975114  -0.00143253  0.24931042  1
  Fe  Fe89  1  -0.00299373  0.50008934  0.75305348  1
  Co  Co90  1  0.00050332  -0.00008754  -0.00252141  1
  Co  Co91  1  0.00087801  0.24975863  0.49986469  1
  Co  Co92  1  0.74975502  0.24609435  0.50299996  1
  Co  Co93  1  0.12470303  0.62373886  0.37645378  1
  Co  Co94  1  0.12196316  0.12803837  0.63101463  1
  Co  Co95  1  0.49760887  0.75584479  -0.00246168  1
  Co  Co96  1  0.50114283  0.50043767  0.00133680  1
  Co  Co97  1  -0.00129148  0.75021848  -0.00398211  1
  Co  Co98  1  0.12418793  0.62339628  0.87440740  1
  Co  Co99  1  0.62395244  0.62923228  0.12403095  1
  Co  Co100  1  0.74932954  0.74745634  0.50093809  1
  Co  Co101  1  0.50435527  0.49536931  0.75089341  1
  Co  Co102  1  0.49734354  0.24846828  -0.00261910  1
  Co  Co103  1  0.87560740  0.87407482  0.62292586  1
  Co  Co104  1  0.12547127  0.87450727  0.37838145  1
  Co  Co105  1  0.87061993  0.62664028  0.87360113  1
  Co  Co106  1  0.62144864  0.12387078  0.62747770  1
  Co  Co107  1  0.87472283  0.37905633  0.12175640  1
  Co  Co108  1  0.63102041  0.87601426  0.87865245  1
  Co  Co109  1  0.62751003  0.37262152  0.88056945  1
  Co  Co110  1  0.24859984  -0.00088090  0.25006670  1
  Co  Co111  1  0.37171745  0.87251286  0.12669481  1
  Co  Co112  1  -0.00143381  0.25438083  0.75317267  1
  Co  Co113  1  0.74941622  -0.00154131  0.74664542  1
  Co  Co114  1  0.87478278  0.62397557  0.62624063  1
  Co  Co115  1  0.75537585  0.24471487  0.00178929  1
  Co  Co116  1  0.87763334  0.11989626  0.12791956  1
  Co  Co117  1  0.50429312  0.75668467  0.75183897  1
  Co  Co118  1  -0.00077612  -0.00419586  0.74997247  1
  Co  Co119  1  0.38215339  0.62496218  0.87129720  1
  Co  Co120  1  0.62612232  0.87511083  0.61987174  1
  Co  Co121  1  0.12546519  0.12717075  0.37210245  1
  Co  Co122  1  0.49950058  0.50163982  0.49926461  1
  Co  Co123  1  0.37477491  0.12443205  0.12524036  1
  Co  Co124  1  0.24845733  0.74584615  0.75133576  1
  Co  Co125  1  0.62585381  0.37567052  0.62065832  1
  Co  Co126  1  0.37104710  0.87478913  0.86930590  1
  Co  Co127  1  0.24771417  0.00295733  0.74952715  1
