# generated using pymatgen
data_Fe45Co19
_symmetry_space_group_name_H-M   'P 1'
_cell_length_a   11.41397495
_cell_length_b   11.41451897
_cell_length_c   11.41384374
_cell_angle_alpha   89.99690115
_cell_angle_beta   89.99467565
_cell_angle_gamma   89.99636438
_symmetry_Int_Tables_number   1
_chemical_formula_structural   Fe45Co19
_chemical_formula_sum   'Fe90 Co38'
_cell_volume   1487.05300228
_cell_formula_units_Z   2
loop_
 _symmetry_equiv_pos_site_id
 _symmetry_equiv_pos_as_xyz
  1  'x, y, z'
loop_
 _atom_site_type_symbol
 _atom_site_label
 _atom_site_symmetry_multiplicity
 _atom_site_fract_x
 _atom_site_fract_y
 _atom_site_fract_z
 _atom_site_occupancy
  Fe  Fe0  1  -0.00069782  0.49828945  -0.00111968  1
  Fe  Fe1  1  0.87266473  0.37292013  0.12298058  1
  Fe  Fe2  1  0.87514085  0.12578777  0.62265366  1
  Fe  Fe3  1  0.25073818  0.24515931  0.00099549  1
  Fe  Fe4  1  0.12810943  0.62894568  0.37197468  1
  Fe  Fe5  1  -0.00143967  0.24922745  0.24746179  1
  Fe  Fe6  1  0.12522786  0.87644066  0.62656540  1
  Fe  Fe7  1  0.37703696  0.37393569  0.12234455  1
  Fe  Fe8  1  0.75007549  0.75206944  0.75008531  1
  Fe  Fe9  1  0.50078354  0.75450396  0.75249414  1
  Fe  Fe10  1  0.12495830  0.11924747  0.12743307  1
  Fe  Fe11  1  0.00147107  0.75129589  0.50062741  1
  Fe  Fe12  1  0.50535399  0.00080925  -0.00065861  1
  Fe  Fe13  1  0.49910684  0.50089198  0.24766722  1
  Fe  Fe14  1  0.87005026  0.87633738  0.87819403  1
  Fe  Fe15  1  -0.00198338  0.75215044  0.75117400  1
  Fe  Fe16  1  0.38249554  0.12812832  0.87368283  1
  Fe  Fe17  1  0.49865797  0.24841419  0.24684226  1
  Fe  Fe18  1  0.49894984  -0.00116293  0.49821614  1
  Fe  Fe19  1  0.74148732  0.24401101  0.00237436  1
  Fe  Fe20  1  0.75060971  0.50025013  0.49540099  1
  Fe  Fe21  1  0.25143511  0.50131842  0.49931486  1
  Fe  Fe22  1  0.12600749  0.37379049  0.37279676  1
  Fe  Fe23  1  0.87235481  0.87772661  0.12362451  1
  Fe  Fe24  1  0.37416685  0.62799384  0.37429348  1
  Fe  Fe25  1  -0.00231312  0.49861390  0.25080210  1
  Fe  Fe26  1  0.50736480  0.75373911  0.00123351  1
  Fe  Fe27  1  0.25181940  0.75256492  0.75242088  1
  Fe  Fe28  1  0.37842944  0.37061008  0.87675151  1
  Fe  Fe29  1  -0.00440689  -0.00119195  0.75047511  1
  Fe  Fe30  1  0.62411381  0.12333664  0.37265917  1
  Fe  Fe31  1  0.37725305  0.62503196  0.62584804  1
  Fe  Fe32  1  0.87550297  0.12660936  0.37550822  1
  Fe  Fe33  1  0.12281490  0.12453679  0.87352321  1
  Fe  Fe34  1  0.25075234  0.24889448  0.49985955  1
  Fe  Fe35  1  0.00140996  0.25040884  0.49980777  1
  Fe  Fe36  1  0.50104261  0.49893148  0.75277807  1
  Fe  Fe37  1  -0.00245828  0.49834951  0.75179626  1
  Fe  Fe38  1  -0.00125071  0.25082982  0.75160860  1
  Fe  Fe39  1  0.12565772  0.37275373  0.87565775  1
  Fe  Fe40  1  0.25204643  0.24675024  0.24696202  1
  Fe  Fe41  1  0.37010968  0.87150812  0.37466266  1
  Fe  Fe42  1  0.37781970  0.62837492  0.87879621  1
  Fe  Fe43  1  0.37471503  0.37415630  0.62565794  1
  Fe  Fe44  1  0.25197014  0.50344777  0.24618997  1
  Fe  Fe45  1  0.12678229  0.37407818  0.62698518  1
  Fe  Fe46  1  -0.00140771  0.00052787  0.00067605  1
  Fe  Fe47  1  0.74718795  0.24777460  0.74985862  1
  Fe  Fe48  1  0.62609557  0.87596007  0.37292958  1
  Fe  Fe49  1  0.62677612  0.87748394  0.62640446  1
  Fe  Fe50  1  0.62572303  0.37643579  0.62328807  1
  Fe  Fe51  1  0.87438263  0.62782688  0.37412068  1
  Fe  Fe52  1  0.50060867  0.24871656  0.50221137  1
  Fe  Fe53  1  0.87290435  0.37335142  0.62253134  1
  Fe  Fe54  1  0.00195542  0.75321281  0.00191579  1
  Fe  Fe55  1  0.24631561  0.75127108  0.00401208  1
  Fe  Fe56  1  0.12683894  0.12422986  0.62680975  1
  Fe  Fe57  1  0.00189372  -0.00164887  0.49632679  1
  Fe  Fe58  1  0.87321888  0.62648664  0.62342701  1
  Fe  Fe59  1  0.37355803  0.87657414  0.62268044  1
  Fe  Fe60  1  0.37146340  0.88172447  0.12320832  1
  Fe  Fe61  1  0.74990893  0.49939033  0.75232088  1
  Fe  Fe62  1  0.50153366  0.75061841  0.49996995  1
  Fe  Fe63  1  0.87180709  0.37121405  0.87852826  1
  Fe  Fe64  1  0.75005406  0.24975998  0.24954563  1
  Fe  Fe65  1  0.62245461  0.12049102  0.62822777  1
  Fe  Fe66  1  0.87392371  0.87367613  0.37624915  1
  Fe  Fe67  1  0.62438089  0.37508559  0.37386936  1
  Fe  Fe68  1  0.87296622  0.62688064  0.87739752  1
  Fe  Fe69  1  0.75253404  0.00127886  0.24737008  1
  Fe  Fe70  1  0.75065214  -0.00026194  0.50060597  1
  Fe  Fe71  1  0.62478076  0.62449102  0.62494569  1
  Fe  Fe72  1  0.37624889  0.12507316  0.37451037  1
  Fe  Fe73  1  0.25032455  0.50101915  0.00032508  1
  Fe  Fe74  1  0.74554568  0.50196421  0.00134813  1
  Fe  Fe75  1  0.50491051  0.49928637  -0.00018464  1
  Fe  Fe76  1  0.25422428  -0.00043364  0.75462351  1
  Fe  Fe77  1  0.00020201  0.50003712  0.49833899  1
  Fe  Fe78  1  0.12540961  0.62479537  0.62763560  1
  Fe  Fe79  1  0.87258007  0.12562360  0.87828257  1
  Fe  Fe80  1  0.12395052  0.62657751  0.87597448  1
  Fe  Fe81  1  0.24756266  0.00094889  0.49588914  1
  Fe  Fe82  1  0.37583967  0.37517226  0.37407504  1
  Fe  Fe83  1  0.00367744  0.75423333  0.24594150  1
  Fe  Fe84  1  0.25177119  0.50003796  0.75340278  1
  Fe  Fe85  1  0.87423202  0.62503293  0.12456747  1
  Fe  Fe86  1  0.74884621  0.75015691  0.24753675  1
  Fe  Fe87  1  0.49760843  0.75303944  0.24648888  1
  Fe  Fe88  1  0.12547848  0.37541653  0.12431921  1
  Fe  Fe89  1  0.62411661  0.62511354  0.37220085  1
  Co  Co90  1  0.62492439  0.62709000  0.87395865  1
  Co  Co91  1  0.87628491  0.12579326  0.12404050  1
  Co  Co92  1  0.12829323  0.88432400  0.12468472  1
  Co  Co93  1  0.74599084  0.00458833  0.00355374  1
  Co  Co94  1  0.00332871  0.24839830  0.00129406  1
  Co  Co95  1  0.37594517  0.87276293  0.88192726  1
  Co  Co96  1  0.25088340  0.00513482  -0.00666512  1
  Co  Co97  1  0.75534329  0.00078764  0.74819397  1
  Co  Co98  1  0.87487397  0.87387468  0.62214348  1
  Co  Co99  1  0.62232247  0.12093853  0.86886525  1
  Co  Co100  1  0.25071156  0.74900505  0.24005569  1
  Co  Co101  1  0.75251006  0.49879701  0.25095184  1
  Co  Co102  1  0.50469539  0.24722735  0.00363353  1
  Co  Co103  1  0.12842810  0.86935466  0.37337795  1
  Co  Co104  1  0.62081048  0.12147495  0.13200026  1
  Co  Co105  1  0.63048182  0.88019146  0.87295639  1
  Co  Co106  1  0.12104594  0.62194001  0.12418646  1
  Co  Co107  1  0.24987058  0.00141864  0.25581604  1
  Co  Co108  1  0.49899262  0.50062614  0.49888961  1
  Co  Co109  1  0.25156458  0.24827528  0.75282087  1
  Co  Co110  1  0.62518687  0.37540565  0.12789029  1
  Co  Co111  1  0.50228203  0.25190377  0.74571285  1
  Co  Co112  1  0.62500446  0.62475505  0.12832468  1
  Co  Co113  1  0.37967842  0.62547159  0.11991833  1
  Co  Co114  1  0.12363769  0.87610231  0.87505435  1
  Co  Co115  1  0.74585431  0.24774219  0.49968129  1
  Co  Co116  1  0.49712266  -0.00374407  0.25268420  1
  Co  Co117  1  0.74643245  0.74991984  0.00191753  1
  Co  Co118  1  0.25025901  0.74809203  0.50411745  1
  Co  Co119  1  0.37447131  0.12310949  0.62493705  1
  Co  Co120  1  0.87501926  0.37082244  0.37645242  1
  Co  Co121  1  0.74643757  0.75044938  0.49929342  1
  Co  Co122  1  -0.00157206  -0.00164251  0.25329994  1
  Co  Co123  1  0.62467024  0.37270922  0.87512965  1
  Co  Co124  1  0.12313299  0.12872741  0.37271656  1
  Co  Co125  1  0.49489412  -0.00574753  0.75123683  1
  Co  Co126  1  0.37682783  0.11933816  0.12527193  1
  Co  Co127  1  0.62638325  0.87812036  0.12756681  1
