# generated using pymatgen
data_Fe45Co19
_symmetry_space_group_name_H-M   'P 1'
_cell_length_a   11.41532585
_cell_length_b   11.41590535
_cell_length_c   11.41373227
_cell_angle_alpha   90.00135529
_cell_angle_beta   89.99277183
_cell_angle_gamma   89.99714843
_symmetry_Int_Tables_number   1
_chemical_formula_structural   Fe45Co19
_chemical_formula_sum   'Fe90 Co38'
_cell_volume   1487.39511024
_cell_formula_units_Z   2
loop_
 _symmetry_equiv_pos_site_id
 _symmetry_equiv_pos_as_xyz
  1  'x, y, z'
loop_
 _atom_site_type_symbol
 _atom_site_label
 _atom_site_symmetry_multiplicity
 _atom_site_fract_x
 _atom_site_fract_y
 _atom_site_fract_z
 _atom_site_occupancy
  Fe  Fe0  1  0.75030654  0.50096057  0.24983458  1
  Fe  Fe1  1  0.37331663  0.12307834  0.12529875  1
  Fe  Fe2  1  0.12735338  0.62349274  0.12132494  1
  Fe  Fe3  1  0.75212756  0.25269134  0.50295627  1
  Fe  Fe4  1  0.00258700  0.00296013  0.49957234  1
  Fe  Fe5  1  0.62138091  0.37502299  0.62914560  1
  Fe  Fe6  1  0.50013300  0.00169994  0.50001438  1
  Fe  Fe7  1  0.38029594  0.37247708  0.87029721  1
  Fe  Fe8  1  0.62666468  0.62464419  0.62732835  1
  Fe  Fe9  1  0.87175113  0.12487097  0.87303302  1
  Fe  Fe10  1  0.62865948  0.13290195  0.87603559  1
  Fe  Fe11  1  0.12256216  0.87451389  0.87481316  1
  Fe  Fe12  1  0.24914932  -0.00253646  0.24959358  1
  Fe  Fe13  1  -0.00243564  0.74746565  0.50393365  1
  Fe  Fe14  1  0.87440083  0.12585359  0.37446703  1
  Fe  Fe15  1  0.12629372  0.62711971  0.37536572  1
  Fe  Fe16  1  0.87793165  0.87836534  0.63079018  1
  Fe  Fe17  1  0.74884137  0.49548295  -0.00526614  1
  Fe  Fe18  1  0.24718979  0.49691699  0.24838406  1
  Fe  Fe19  1  0.74824358  0.49567607  0.75519315  1
  Fe  Fe20  1  0.12624055  0.12622869  0.12504346  1
  Fe  Fe21  1  0.24650082  0.00051022  0.74997240  1
  Fe  Fe22  1  0.75154898  -0.00271556  -0.00030785  1
  Fe  Fe23  1  0.62539399  0.87206906  0.87565647  1
  Fe  Fe24  1  0.37211900  0.62244973  0.62539315  1
  Fe  Fe25  1  -0.00224221  -0.00030272  -0.00039225  1
  Fe  Fe26  1  0.75317533  0.75068861  0.50225044  1
  Fe  Fe27  1  0.12285783  0.37298330  0.87574420  1
  Fe  Fe28  1  0.87863183  0.37897644  0.62818103  1
  Fe  Fe29  1  0.24975870  0.49744227  0.75256725  1
  Fe  Fe30  1  0.37291431  0.12545946  0.87321512  1
  Fe  Fe31  1  0.00165503  0.49895334  -0.00135374  1
  Fe  Fe32  1  0.49830841  0.74859473  0.50031356  1
  Fe  Fe33  1  0.49819955  0.24892305  0.50477115  1
  Fe  Fe34  1  0.62416187  0.37432191  0.37526794  1
  Fe  Fe35  1  0.87297204  0.12239932  0.62834613  1
  Fe  Fe36  1  -0.00023739  0.24820017  0.74985170  1
  Fe  Fe37  1  0.49808669  0.74835556  -0.00140434  1
  Fe  Fe38  1  0.12418365  0.87686892  0.62454443  1
  Fe  Fe39  1  0.25219135  0.25319109  0.00055651  1
  Fe  Fe40  1  0.12499358  0.37271254  0.37443666  1
  Fe  Fe41  1  0.37491892  0.87531866  0.87470507  1
  Fe  Fe42  1  0.75076222  0.49947044  0.50074286  1
  Fe  Fe43  1  0.74829992  0.00113519  0.25015820  1
  Fe  Fe44  1  0.62616334  0.12730402  0.12249014  1
  Fe  Fe45  1  0.49924059  0.24877510  0.24874868  1
  Fe  Fe46  1  0.24954152  0.24768209  0.50232416  1
  Fe  Fe47  1  0.50042143  0.50230992  0.25018789  1
  Fe  Fe48  1  0.87646569  0.87386657  0.37302789  1
  Fe  Fe49  1  -0.00252283  0.75230957  0.00072161  1
  Fe  Fe50  1  -0.00014315  0.24758527  0.50110101  1
  Fe  Fe51  1  0.50030022  0.50231269  -0.00661855  1
  Fe  Fe52  1  0.62612556  0.12756094  0.37792623  1
  Fe  Fe53  1  0.49945098  0.50028673  0.50142314  1
  Fe  Fe54  1  0.50377723  0.00467175  0.75068642  1
  Fe  Fe55  1  0.24914596  -0.00449230  0.00236860  1
  Fe  Fe56  1  0.24920368  0.75166311  0.74985923  1
  Fe  Fe57  1  0.12395970  0.87275412  0.37525043  1
  Fe  Fe58  1  -0.00332077  0.74556006  0.24658953  1
  Fe  Fe59  1  0.75059109  0.25127779  0.24774917  1
  Fe  Fe60  1  0.62649406  0.62542020  0.37684734  1
  Fe  Fe61  1  0.87513361  0.62563323  0.87407073  1
  Fe  Fe62  1  0.87656488  0.37753601  0.37385750  1
  Fe  Fe63  1  0.37458599  0.87840984  0.62521910  1
  Fe  Fe64  1  0.62230215  0.87231536  0.37230446  1
  Fe  Fe65  1  0.75031842  -0.00269761  0.49969597  1
  Fe  Fe66  1  0.12739992  0.62420382  0.62521790  1
  Fe  Fe67  1  0.62344191  0.87563326  0.62599038  1
  Fe  Fe68  1  0.00060597  0.00195509  0.25003084  1
  Fe  Fe69  1  0.37163998  0.62425954  0.11993328  1
  Fe  Fe70  1  0.50056048  0.00217372  -0.00139065  1
  Fe  Fe71  1  -0.00283302  0.24845739  0.00108027  1
  Fe  Fe72  1  0.12882915  0.62647861  0.87797903  1
  Fe  Fe73  1  0.62261137  0.37427814  0.12164866  1
  Fe  Fe74  1  0.87754974  0.37811335  0.12527259  1
  Fe  Fe75  1  0.37299018  0.12496880  0.37448354  1
  Fe  Fe76  1  -0.00019648  0.25003118  0.24857860  1
  Fe  Fe77  1  0.62162823  0.87386167  0.12637010  1
  Fe  Fe78  1  0.37220932  0.62409285  0.37616905  1
  Fe  Fe79  1  0.49790789  0.74677128  0.75103342  1
  Fe  Fe80  1  0.37431737  0.37546634  0.37637481  1
  Fe  Fe81  1  0.25144815  0.75225246  0.24563980  1
  Fe  Fe82  1  0.12526790  0.37429421  0.62586197  1
  Fe  Fe83  1  0.00099561  0.50261375  0.49918015  1
  Fe  Fe84  1  0.62680931  0.62498502  0.12039167  1
  Fe  Fe85  1  0.75219460  0.74700721  0.24726221  1
  Fe  Fe86  1  0.12668467  0.12655163  0.87592404  1
  Fe  Fe87  1  0.37695536  0.87428875  0.37300771  1
  Fe  Fe88  1  0.75215883  0.75200468  0.75053021  1
  Fe  Fe89  1  0.37698229  0.37664169  0.12427911  1
  Co  Co90  1  0.36873897  0.62735423  0.87669521  1
  Co  Co91  1  0.62871314  0.62839172  0.87422900  1
  Co  Co92  1  0.12578260  0.12696428  0.37154098  1
  Co  Co93  1  0.24746680  0.49849512  0.49933544  1
  Co  Co94  1  0.87692121  0.87536798  0.87183164  1
  Co  Co95  1  0.49544041  0.24746581  0.00184289  1
  Co  Co96  1  0.87412160  0.62365757  0.37681432  1
  Co  Co97  1  0.50152573  0.00498777  0.25059561  1
  Co  Co98  1  0.87475905  0.12344941  0.12594919  1
  Co  Co99  1  0.25112167  0.75231853  0.50088112  1
  Co  Co100  1  0.12616152  0.12535543  0.62702626  1
  Co  Co101  1  0.87448634  0.62053746  0.12030738  1
  Co  Co102  1  0.24914665  0.25181740  0.75101747  1
  Co  Co103  1  0.49950180  0.50465167  0.75303898  1
  Co  Co104  1  0.49881468  0.74342348  0.24874897  1
  Co  Co105  1  0.24775346  0.00001150  0.49749308  1
  Co  Co106  1  0.24976736  0.75728427  0.00180247  1
  Co  Co107  1  0.00432396  0.50196544  0.75197974  1
  Co  Co108  1  0.37061238  0.12149648  0.62674758  1
  Co  Co109  1  0.25079367  0.49280659  -0.00266065  1
  Co  Co110  1  0.87964518  0.37453570  0.87391244  1
  Co  Co111  1  0.00291522  0.50171075  0.25077996  1
  Co  Co112  1  0.00291063  0.00277224  0.75249077  1
  Co  Co113  1  0.61863039  0.36770899  0.87478323  1
  Co  Co114  1  0.49973785  0.24360191  0.74473324  1
  Co  Co115  1  0.37448666  0.37660248  0.62652762  1
  Co  Co116  1  0.12046638  0.87585943  0.12593934  1
  Co  Co117  1  0.75173559  0.25420107  0.74854969  1
  Co  Co118  1  0.75332076  0.75360050  0.00089397  1
  Co  Co119  1  0.38135851  0.87622938  0.12515951  1
  Co  Co120  1  0.12263789  0.37345831  0.12326965  1
  Co  Co121  1  0.62985111  0.12452795  0.62291978  1
  Co  Co122  1  0.87485756  0.87718898  0.12734975  1
  Co  Co123  1  0.00196538  0.74744083  0.74952288  1
  Co  Co124  1  0.25151129  0.25281698  0.24771262  1
  Co  Co125  1  0.75520417  0.25444537  0.00106909  1
  Co  Co126  1  0.74572715  -0.00114710  0.75278344  1
  Co  Co127  1  0.87297918  0.62132285  0.62933202  1
