# generated using pymatgen
data_Fe45Co19
_symmetry_space_group_name_H-M   'P 1'
_cell_length_a   11.41428323
_cell_length_b   11.41461442
_cell_length_c   11.41399703
_cell_angle_alpha   89.99480951
_cell_angle_beta   89.99985040
_cell_angle_gamma   90.00901926
_symmetry_Int_Tables_number   1
_chemical_formula_structural   Fe45Co19
_chemical_formula_sum   'Fe90 Co38'
_cell_volume   1487.12556183
_cell_formula_units_Z   2
loop_
 _symmetry_equiv_pos_site_id
 _symmetry_equiv_pos_as_xyz
  1  'x, y, z'
loop_
 _atom_site_type_symbol
 _atom_site_label
 _atom_site_symmetry_multiplicity
 _atom_site_fract_x
 _atom_site_fract_y
 _atom_site_fract_z
 _atom_site_occupancy
  Fe  Fe0  1  -0.00141917  0.50127001  0.75001812  1
  Fe  Fe1  1  0.49937519  0.75010319  0.49887658  1
  Fe  Fe2  1  0.49850758  0.50002298  0.75004987  1
  Fe  Fe3  1  0.62405590  0.62404679  0.37567985  1
  Fe  Fe4  1  0.62371061  0.62368752  0.62311343  1
  Fe  Fe5  1  0.12443043  0.12273090  0.12518269  1
  Fe  Fe6  1  0.62647270  0.62493422  0.87488500  1
  Fe  Fe7  1  0.62953456  0.12578581  0.87163314  1
  Fe  Fe8  1  0.50255229  0.25093813  -0.00101275  1
  Fe  Fe9  1  0.12560474  0.87626449  0.37372715  1
  Fe  Fe10  1  0.12184208  0.87510812  0.62627192  1
  Fe  Fe11  1  0.24959742  0.49923232  0.00247754  1
  Fe  Fe12  1  0.87568344  0.62612416  0.62026497  1
  Fe  Fe13  1  0.37527220  0.62447773  0.87733973  1
  Fe  Fe14  1  0.12743898  0.12589849  0.37404913  1
  Fe  Fe15  1  0.50062543  0.74906100  0.74891507  1
  Fe  Fe16  1  0.37613729  0.87492998  0.62410704  1
  Fe  Fe17  1  0.25016491  0.49963441  0.74919384  1
  Fe  Fe18  1  0.24775373  0.74914605  0.49911443  1
  Fe  Fe19  1  0.87509584  0.87532833  0.37639962  1
  Fe  Fe20  1  0.62434523  0.37386782  0.12856261  1
  Fe  Fe21  1  0.75267327  0.49970908  0.25310711  1
  Fe  Fe22  1  0.50055339  0.00115513  0.49935273  1
  Fe  Fe23  1  0.62619479  0.12422717  0.12515418  1
  Fe  Fe24  1  0.62594335  0.87705704  0.12570589  1
  Fe  Fe25  1  -0.00091184  0.24842204  0.25175937  1
  Fe  Fe26  1  -0.00352075  0.50014382  0.25557128  1
  Fe  Fe27  1  0.12383186  0.62428480  0.12802391  1
  Fe  Fe28  1  0.87280562  0.12421787  0.12406806  1
  Fe  Fe29  1  0.25023398  0.25072794  0.00462156  1
  Fe  Fe30  1  0.74899825  0.75388465  0.50247463  1
  Fe  Fe31  1  0.75133873  0.00042590  0.25104435  1
  Fe  Fe32  1  0.25029421  0.00120678  0.50123754  1
  Fe  Fe33  1  0.25019483  0.74880989  0.74856631  1
  Fe  Fe34  1  0.24786299  0.50076688  0.49675489  1
  Fe  Fe35  1  0.74619132  0.49559065  0.49794804  1
  Fe  Fe36  1  0.25388046  0.74948202  0.25120242  1
  Fe  Fe37  1  0.49892788  0.75168349  0.25151218  1
  Fe  Fe38  1  0.87386473  0.37393864  0.87514081  1
  Fe  Fe39  1  0.62778751  0.37412364  0.87082539  1
  Fe  Fe40  1  0.12598158  0.12517378  0.87557595  1
  Fe  Fe41  1  0.00459256  0.25154900  0.49839500  1
  Fe  Fe42  1  0.87267122  0.12611179  0.87552588  1
  Fe  Fe43  1  -0.00193191  -0.00287408  0.00025852  1
  Fe  Fe44  1  0.37643038  0.37195310  0.62301012  1
  Fe  Fe45  1  0.00237150  0.50120449  0.49507780  1
  Fe  Fe46  1  -0.00112640  0.74656109  0.74925018  1
  Fe  Fe47  1  0.62498844  0.12402930  0.37530247  1
  Fe  Fe48  1  0.12617647  0.37584494  0.13082190  1
  Fe  Fe49  1  0.87435557  0.87386864  0.87191572  1
  Fe  Fe50  1  0.62763187  0.87527100  0.87046364  1
  Fe  Fe51  1  0.75289630  0.50184004  0.74839693  1
  Fe  Fe52  1  0.37441041  0.37406735  0.87610932  1
  Fe  Fe53  1  0.37746587  0.12997971  0.62268344  1
  Fe  Fe54  1  0.62358002  0.62331918  0.12562539  1
  Fe  Fe55  1  0.25502618  0.00353434  0.25100346  1
  Fe  Fe56  1  -0.00106295  -0.00016099  0.50004578  1
  Fe  Fe57  1  0.49615082  0.50006612  0.25335577  1
  Fe  Fe58  1  0.87575055  0.37332601  0.62190425  1
  Fe  Fe59  1  0.37526696  0.62352917  0.62197781  1
  Fe  Fe60  1  0.50348670  -0.00010549  -0.00231481  1
  Fe  Fe61  1  0.49609699  0.24571667  0.25021363  1
  Fe  Fe62  1  0.75327172  0.00020077  0.74113660  1
  Fe  Fe63  1  0.37211701  0.12554276  0.87767244  1
  Fe  Fe64  1  0.12286935  0.87706125  0.12809007  1
  Fe  Fe65  1  -0.00101686  0.24917137  0.74950194  1
  Fe  Fe66  1  0.12342884  0.12508799  0.62710821  1
  Fe  Fe67  1  0.87241586  0.12741886  0.37918484  1
  Fe  Fe68  1  0.37729842  0.87919669  0.12415897  1
  Fe  Fe69  1  0.49874203  0.00209298  0.74948591  1
  Fe  Fe70  1  0.62354527  0.87716076  0.37602962  1
  Fe  Fe71  1  0.50170549  0.75085427  -0.00069713  1
  Fe  Fe72  1  0.74970386  0.74993198  0.25086989  1
  Fe  Fe73  1  0.12515263  0.37599267  0.62570109  1
  Fe  Fe74  1  0.12520476  0.37356097  0.87478976  1
  Fe  Fe75  1  0.87383569  0.37284042  0.12707237  1
  Fe  Fe76  1  0.37418720  0.87574965  0.87512262  1
  Fe  Fe77  1  0.12441236  0.62448363  0.87614153  1
  Fe  Fe78  1  -0.00275303  0.74984734  0.25216958  1
  Fe  Fe79  1  0.37171270  0.37011022  0.37628929  1
  Fe  Fe80  1  0.87518885  0.62612399  0.12356908  1
  Fe  Fe81  1  0.75139929  0.75132163  0.00031055  1
  Fe  Fe82  1  0.37741424  0.62316557  0.12321729  1
  Fe  Fe83  1  0.74919931  0.49822202  0.00115156  1
  Fe  Fe84  1  0.25042842  0.00193546  0.74895449  1
  Fe  Fe85  1  0.12400272  0.87552588  0.87295142  1
  Fe  Fe86  1  -0.00045953  0.49948661  0.00073559  1
  Fe  Fe87  1  -0.00098888  0.25036489  0.00133535  1
  Fe  Fe88  1  0.74316468  0.25262805  0.50136892  1
  Fe  Fe89  1  0.24875651  0.75153461  0.00185061  1
  Co  Co90  1  0.87430983  0.37074429  0.37733233  1
  Co  Co91  1  0.12429839  0.62410343  0.62529410  1
  Co  Co92  1  0.24945498  0.24994584  0.74878633  1
  Co  Co93  1  0.75093572  -0.00166933  0.00016132  1
  Co  Co94  1  0.87472669  0.87558758  0.12783678  1
  Co  Co95  1  0.50170346  0.49506923  0.49825331  1
  Co  Co96  1  0.87999193  0.87262931  0.62414066  1
  Co  Co97  1  0.12816216  0.37403443  0.37043517  1
  Co  Co98  1  0.74883160  0.25197561  0.00143025  1
  Co  Co99  1  0.74989981  0.74876471  0.74615860  1
  Co  Co100  1  0.87550834  0.12910740  0.61945386  1
  Co  Co101  1  0.37481606  0.87671654  0.37696459  1
  Co  Co102  1  0.37661718  0.37610884  0.12477879  1
  Co  Co103  1  0.37719162  0.12101562  0.11997771  1
  Co  Co104  1  -0.00223020  0.00375794  0.74968162  1
  Co  Co105  1  0.87171098  0.62684435  0.37864076  1
  Co  Co106  1  0.49889213  0.24915009  0.75237164  1
  Co  Co107  1  0.37508210  0.12736674  0.38020492  1
  Co  Co108  1  0.75088834  0.24830668  0.25103472  1
  Co  Co109  1  0.24713730  -0.00243497  0.00039521  1
  Co  Co110  1  0.50300773  0.49758554  -0.00161945  1
  Co  Co111  1  0.12587465  0.62590806  0.37099632  1
  Co  Co112  1  0.75281220  0.24953793  0.74578904  1
  Co  Co113  1  0.62292370  0.12520345  0.62540434  1
  Co  Co114  1  0.25302809  0.24556248  0.24651779  1
  Co  Co115  1  0.49924843  0.00089170  0.25169011  1
  Co  Co116  1  -0.00319414  0.00309263  0.25269704  1
  Co  Co117  1  0.62291645  0.37503731  0.63098880  1
  Co  Co118  1  0.62441861  0.37484199  0.36815166  1
  Co  Co119  1  0.87509190  0.62547570  0.87753261  1
  Co  Co120  1  0.25389258  0.50146081  0.25153061  1
  Co  Co121  1  0.75025048  -0.00127693  0.50301377  1
  Co  Co122  1  0.24583405  0.24917550  0.50203978  1
  Co  Co123  1  0.37630636  0.62560421  0.37795682  1
  Co  Co124  1  0.50624481  0.25308609  0.49811948  1
  Co  Co125  1  0.00300897  0.74975407  0.49703197  1
  Co  Co126  1  0.62114890  0.87625158  0.62506058  1
  Co  Co127  1  0.00018382  0.75281519  0.00097584  1
