# generated using pymatgen
data_Fe45Co19
_symmetry_space_group_name_H-M   'P 1'
_cell_length_a   11.41457945
_cell_length_b   11.41477418
_cell_length_c   11.41491870
_cell_angle_alpha   90.00191985
_cell_angle_beta   90.00598547
_cell_angle_gamma   90.00165124
_symmetry_Int_Tables_number   1
_chemical_formula_structural   Fe45Co19
_chemical_formula_sum   'Fe90 Co38'
_cell_volume   1487.30507451
_cell_formula_units_Z   2
loop_
 _symmetry_equiv_pos_site_id
 _symmetry_equiv_pos_as_xyz
  1  'x, y, z'
loop_
 _atom_site_type_symbol
 _atom_site_label
 _atom_site_symmetry_multiplicity
 _atom_site_fract_x
 _atom_site_fract_y
 _atom_site_fract_z
 _atom_site_occupancy
  Fe  Fe0  1  0.62395111  0.87321400  0.37802668  1
  Fe  Fe1  1  0.12440316  0.12418057  0.37496470  1
  Fe  Fe2  1  0.37766746  0.62751910  0.12899217  1
  Fe  Fe3  1  0.25183576  0.75006466  0.00092541  1
  Fe  Fe4  1  -0.00336707  -0.00154978  0.00212447  1
  Fe  Fe5  1  0.12297085  0.37280685  0.87648885  1
  Fe  Fe6  1  0.24810981  0.50113567  0.75304863  1
  Fe  Fe7  1  0.50138161  -0.00084408  0.75043889  1
  Fe  Fe8  1  0.62668929  0.87416296  0.62571347  1
  Fe  Fe9  1  0.24985056  0.25172289  0.24865903  1
  Fe  Fe10  1  0.12466564  0.87475732  0.87811536  1
  Fe  Fe11  1  0.12649908  0.12099854  0.62370658  1
  Fe  Fe12  1  0.24973902  0.24936023  0.49867734  1
  Fe  Fe13  1  0.37133630  0.87406445  0.62548870  1
  Fe  Fe14  1  0.37517433  0.12587888  0.87318216  1
  Fe  Fe15  1  0.50007871  0.25052151  0.49826279  1
  Fe  Fe16  1  0.62466967  0.37653841  0.62466381  1
  Fe  Fe17  1  0.49800339  0.74782590  0.50085169  1
  Fe  Fe18  1  0.87591074  0.12803195  0.87381716  1
  Fe  Fe19  1  0.12362970  0.12465852  0.87624878  1
  Fe  Fe20  1  0.62459924  0.12455612  0.62333480  1
  Fe  Fe21  1  0.74826643  -0.00161440  0.75322073  1
  Fe  Fe22  1  0.37624872  0.87327378  0.37380569  1
  Fe  Fe23  1  0.50222594  0.49959479  0.25121639  1
  Fe  Fe24  1  0.87836346  0.87337228  0.37480033  1
  Fe  Fe25  1  0.75112152  0.25318046  0.00476676  1
  Fe  Fe26  1  0.25153809  0.25044369  0.00063576  1
  Fe  Fe27  1  0.24955518  -0.00219033  0.24949655  1
  Fe  Fe28  1  0.75137417  -0.00067222  0.49767334  1
  Fe  Fe29  1  0.87512339  0.37513018  0.62701012  1
  Fe  Fe30  1  0.50047632  0.00216751  0.00250228  1
  Fe  Fe31  1  0.62600976  0.63150414  0.87547640  1
  Fe  Fe32  1  0.87220028  0.62145550  0.12477098  1
  Fe  Fe33  1  0.12219826  0.62619067  0.37680031  1
  Fe  Fe34  1  -0.00338354  0.75219504  0.00618756  1
  Fe  Fe35  1  0.24858199  0.74933989  0.25071782  1
  Fe  Fe36  1  0.24923443  0.50248740  0.49718323  1
  Fe  Fe37  1  0.12423154  0.37663848  0.12511390  1
  Fe  Fe38  1  0.00011436  -0.00088705  0.74956515  1
  Fe  Fe39  1  0.00001397  0.24974227  0.49992680  1
  Fe  Fe40  1  0.62504360  0.12646855  0.87705838  1
  Fe  Fe41  1  0.00212161  0.75146221  0.74581411  1
  Fe  Fe42  1  0.12910967  0.87640213  0.62126735  1
  Fe  Fe43  1  0.12302925  0.62723726  0.87624241  1
  Fe  Fe44  1  0.87232503  0.87145134  0.87500698  1
  Fe  Fe45  1  0.75277254  0.75034354  0.50132403  1
  Fe  Fe46  1  0.87628131  0.37506862  0.37409400  1
  Fe  Fe47  1  -0.00093949  0.25019032  0.24816326  1
  Fe  Fe48  1  0.37812106  0.87244528  0.87441755  1
  Fe  Fe49  1  0.62687891  0.62548587  0.62494186  1
  Fe  Fe50  1  0.74634500  0.49546458  0.24857397  1
  Fe  Fe51  1  0.37425315  0.12429952  0.62607737  1
  Fe  Fe52  1  0.87514755  0.62621399  0.37399056  1
  Fe  Fe53  1  0.49889523  0.00011121  0.50025829  1
  Fe  Fe54  1  0.50255478  0.50443322  0.00046604  1
  Fe  Fe55  1  0.75011046  0.25088668  0.49815040  1
  Fe  Fe56  1  0.50202421  -0.00081152  0.24675675  1
  Fe  Fe57  1  0.87316804  0.12398285  0.37211615  1
  Fe  Fe58  1  0.37577047  0.62783531  0.87384066  1
  Fe  Fe59  1  0.74965949  0.75199259  0.24829233  1
  Fe  Fe60  1  0.87454420  0.12292605  0.62541406  1
  Fe  Fe61  1  -0.00245018  0.24945024  0.00380996  1
  Fe  Fe62  1  0.37097105  0.62669068  0.62664384  1
  Fe  Fe63  1  0.49943337  0.50221489  0.49938844  1
  Fe  Fe64  1  0.62520736  0.62561931  0.37471633  1
  Fe  Fe65  1  0.87631971  0.62425664  0.62593523  1
  Fe  Fe66  1  0.37609372  0.37563161  0.62656944  1
  Fe  Fe67  1  0.24856313  0.24970990  0.75058661  1
  Fe  Fe68  1  0.74811885  0.24989382  0.74913765  1
  Fe  Fe69  1  0.50112930  0.50237858  0.75035771  1
  Fe  Fe70  1  0.37801833  0.37442946  0.87544063  1
  Fe  Fe71  1  0.75220077  0.50198358  0.75526496  1
  Fe  Fe72  1  0.12483001  0.62494729  0.12397594  1
  Fe  Fe73  1  0.12398000  0.37713005  0.62335853  1
  Fe  Fe74  1  0.86894937  0.12070056  0.12821931  1
  Fe  Fe75  1  0.62666367  0.12680047  0.37134325  1
  Fe  Fe76  1  0.62374103  0.37343378  0.87711279  1
  Fe  Fe77  1  0.00206650  0.50080231  0.25154131  1
  Fe  Fe78  1  -0.00079790  0.49938148  0.75256204  1
  Fe  Fe79  1  0.25242935  -0.00142194  0.00060222  1
  Fe  Fe80  1  0.75153765  0.49945652  0.49884711  1
  Fe  Fe81  1  0.62805388  0.87578292  0.12033225  1
  Fe  Fe82  1  0.12671752  0.12234023  0.12394253  1
  Fe  Fe83  1  0.12214755  0.87281225  0.37609223  1
  Fe  Fe84  1  -0.00324443  0.49912987  -0.00306913  1
  Fe  Fe85  1  0.00037882  -0.00280521  0.24807338  1
  Fe  Fe86  1  0.37569080  0.12380587  0.37205043  1
  Fe  Fe87  1  0.25128350  0.50099049  0.00076428  1
  Fe  Fe88  1  0.37797883  0.37490949  0.12476507  1
  Fe  Fe89  1  0.37408857  0.37695102  0.37357901  1
  Co  Co90  1  0.62918333  0.12462688  0.12772697  1
  Co  Co91  1  0.75037090  -0.00002885  -0.00481184  1
  Co  Co92  1  0.37317268  0.12473591  0.12740556  1
  Co  Co93  1  0.24726295  0.75025107  0.75249337  1
  Co  Co94  1  0.37802526  0.62567261  0.37112662  1
  Co  Co95  1  0.87224484  0.87787576  0.62518145  1
  Co  Co96  1  0.12511836  0.37521423  0.37402472  1
  Co  Co97  1  0.24974572  -0.00075414  0.75314051  1
  Co  Co98  1  -0.00124341  0.74927274  0.24579581  1
  Co  Co99  1  0.74718582  -0.00546979  0.25365513  1
  Co  Co100  1  0.49982495  0.74975492  0.74633125  1
  Co  Co101  1  0.25082604  0.74796744  0.49646070  1
  Co  Co102  1  0.75167424  0.74743717  0.00280013  1
  Co  Co103  1  0.50095137  0.24961904  0.74935631  1
  Co  Co104  1  -0.00144320  0.50008297  0.49822762  1
  Co  Co105  1  0.87110425  0.87837005  0.12578206  1
  Co  Co106  1  0.12731251  0.87518001  0.12433071  1
  Co  Co107  1  0.49904348  0.24501159  0.00178877  1
  Co  Co108  1  0.62045047  0.37447763  0.12189759  1
  Co  Co109  1  -0.00142694  0.00000481  0.49910973  1
  Co  Co110  1  0.62642854  0.62483310  0.12723345  1
  Co  Co111  1  0.74997028  0.25576658  0.24754322  1
  Co  Co112  1  0.62374040  0.87093214  0.87656674  1
  Co  Co113  1  0.00274599  0.24877662  0.74681532  1
  Co  Co114  1  0.50035440  0.74909800  0.00329544  1
  Co  Co115  1  0.25172757  0.00012370  0.49591947  1
  Co  Co116  1  0.87727742  0.38040623  0.12551299  1
  Co  Co117  1  0.37437466  0.87350719  0.12598779  1
  Co  Co118  1  0.24884073  0.50193282  0.24871025  1
  Co  Co119  1  0.75060860  0.74983512  0.74839709  1
  Co  Co120  1  -0.00101810  0.74985356  0.50390490  1
  Co  Co121  1  0.50046446  0.25026448  0.25072438  1
  Co  Co122  1  0.87779411  0.63072419  0.87542749  1
  Co  Co123  1  0.87534901  0.37026299  0.87391087  1
  Co  Co124  1  0.12547753  0.62286049  0.62457117  1
  Co  Co125  1  0.62424667  0.37577892  0.37732130  1
  Co  Co126  1  0.74912785  0.50032393  -0.00345188  1
  Co  Co127  1  0.50449749  0.75316543  0.24897549  1
