# generated using pymatgen
data_Fe45Co19
_symmetry_space_group_name_H-M   'P 1'
_cell_length_a   11.41576739
_cell_length_b   11.41405010
_cell_length_c   11.41557442
_cell_angle_alpha   90.00273737
_cell_angle_beta   90.00456393
_cell_angle_gamma   89.99957751
_symmetry_Int_Tables_number   1
_chemical_formula_structural   Fe45Co19
_chemical_formula_sum   'Fe90 Co38'
_cell_volume   1487.45094813
_cell_formula_units_Z   2
loop_
 _symmetry_equiv_pos_site_id
 _symmetry_equiv_pos_as_xyz
  1  'x, y, z'
loop_
 _atom_site_type_symbol
 _atom_site_label
 _atom_site_symmetry_multiplicity
 _atom_site_fract_x
 _atom_site_fract_y
 _atom_site_fract_z
 _atom_site_occupancy
  Fe  Fe0  1  0.87567994  0.12749152  0.12278633  1
  Fe  Fe1  1  0.75036026  0.25107683  0.25193445  1
  Fe  Fe2  1  0.87474660  0.62603013  0.62488599  1
  Fe  Fe3  1  0.87339104  0.87536140  0.87529045  1
  Fe  Fe4  1  0.75344513  0.49959677  0.25046112  1
  Fe  Fe5  1  0.37388876  0.37573790  0.62350219  1
  Fe  Fe6  1  0.62433848  0.37658240  0.37599250  1
  Fe  Fe7  1  0.62517386  0.87661037  0.87314871  1
  Fe  Fe8  1  0.37377257  0.12838940  0.37338267  1
  Fe  Fe9  1  -0.00365625  0.50087565  0.24783227  1
  Fe  Fe10  1  0.74944924  0.00143894  0.00005783  1
  Fe  Fe11  1  0.62611838  0.37551393  0.12578856  1
  Fe  Fe12  1  0.50234741  0.75202966  0.25061059  1
  Fe  Fe13  1  0.49664192  0.74864754  0.74672045  1
  Fe  Fe14  1  0.74928512  0.75131549  0.74981485  1
  Fe  Fe15  1  0.74747667  0.24736079  -0.00003829  1
  Fe  Fe16  1  0.00194295  -0.00082791  0.49892048  1
  Fe  Fe17  1  0.24699994  0.25141367  0.50075918  1
  Fe  Fe18  1  0.87559207  0.87335665  0.37630994  1
  Fe  Fe19  1  0.74861030  0.75095558  0.49969842  1
  Fe  Fe20  1  0.62662416  0.62339347  0.12634013  1
  Fe  Fe21  1  0.37604389  0.62552350  0.12558265  1
  Fe  Fe22  1  0.37431750  0.87280146  0.87594630  1
  Fe  Fe23  1  0.37607285  0.87044954  0.37727668  1
  Fe  Fe24  1  0.49927553  0.00135636  0.75074514  1
  Fe  Fe25  1  0.50057396  0.50015020  -0.00081772  1
  Fe  Fe26  1  0.75133628  0.24194979  0.74879283  1
  Fe  Fe27  1  0.36887163  0.62334040  0.62489529  1
  Fe  Fe28  1  0.24717353  0.25177872  0.00175164  1
  Fe  Fe29  1  0.24895858  0.25080911  0.75011589  1
  Fe  Fe30  1  0.12687381  0.87357876  0.87613948  1
  Fe  Fe31  1  0.25247584  0.50132476  -0.00133489  1
  Fe  Fe32  1  -0.00362924  0.50037862  0.00038953  1
  Fe  Fe33  1  0.12602691  0.87280390  0.62480503  1
  Fe  Fe34  1  0.62663888  0.87950278  0.12906725  1
  Fe  Fe35  1  0.49968268  0.24885062  0.74873699  1
  Fe  Fe36  1  0.24947456  -0.00073311  0.49770820  1
  Fe  Fe37  1  0.87689816  0.36990224  0.87471976  1
  Fe  Fe38  1  0.00018853  -0.00007297  0.24881078  1
  Fe  Fe39  1  0.49677556  0.49691655  0.25154137  1
  Fe  Fe40  1  0.50033531  -0.00086261  0.49662423  1
  Fe  Fe41  1  0.49678038  0.50155729  0.49936841  1
  Fe  Fe42  1  0.00254304  0.25114410  0.50232699  1
  Fe  Fe43  1  0.12515688  0.38048040  0.62874813  1
  Fe  Fe44  1  0.24784686  0.74974479  0.24940707  1
  Fe  Fe45  1  0.87790607  0.12764336  0.37720029  1
  Fe  Fe46  1  0.62689201  0.62287663  0.62507368  1
  Fe  Fe47  1  0.37226728  0.87338139  0.12391470  1
  Fe  Fe48  1  0.24861143  0.25316778  0.24807249  1
  Fe  Fe49  1  0.62358512  0.62582746  0.37586705  1
  Fe  Fe50  1  0.62394997  0.87681270  0.62469081  1
  Fe  Fe51  1  0.12533368  0.12294171  0.62471477  1
  Fe  Fe52  1  0.87776706  0.86872899  0.12284148  1
  Fe  Fe53  1  0.00084127  0.74840906  0.74926888  1
  Fe  Fe54  1  0.50009882  0.00166459  0.00252471  1
  Fe  Fe55  1  0.87374661  0.37192820  0.62447718  1
  Fe  Fe56  1  0.50195599  0.75023593  0.00156954  1
  Fe  Fe57  1  0.12343347  0.62559823  0.12444423  1
  Fe  Fe58  1  -0.00028624  0.50075079  0.50216302  1
  Fe  Fe59  1  0.37456450  0.12317686  0.62405411  1
  Fe  Fe60  1  0.25319934  0.49909344  0.25309141  1
  Fe  Fe61  1  0.62475776  0.12077737  0.36826408  1
  Fe  Fe62  1  0.00240142  0.25141327  0.24545350  1
  Fe  Fe63  1  0.50242022  0.24859522  0.00290134  1
  Fe  Fe64  1  0.12330703  0.87286307  0.37470067  1
  Fe  Fe65  1  0.75057672  0.75032494  0.25023425  1
  Fe  Fe66  1  -0.00104692  0.00243374  0.75015052  1
  Fe  Fe67  1  0.75223705  0.49789565  0.49846432  1
  Fe  Fe68  1  0.12696135  0.62471382  0.87152937  1
  Fe  Fe69  1  0.37441784  0.12593947  0.87551029  1
  Fe  Fe70  1  0.87421158  0.87692974  0.62565415  1
  Fe  Fe71  1  0.37723700  0.37564485  0.87534388  1
  Fe  Fe72  1  0.12269734  0.12681011  0.87644108  1
  Fe  Fe73  1  0.62643582  0.37463524  0.62487801  1
  Fe  Fe74  1  0.87574585  0.62621506  0.37623787  1
  Fe  Fe75  1  0.75059327  0.49991453  -0.00049240  1
  Fe  Fe76  1  0.87242194  0.62856947  0.87745910  1
  Fe  Fe77  1  0.75228859  0.49929350  0.75110941  1
  Fe  Fe78  1  0.00183787  -0.00082037  0.00199172  1
  Fe  Fe79  1  0.74888851  0.00192455  0.49961162  1
  Fe  Fe80  1  0.25024599  -0.00038420  0.75073823  1
  Fe  Fe81  1  0.37492838  0.12695797  0.12731402  1
  Fe  Fe82  1  0.62385688  0.62486610  0.87284316  1
  Fe  Fe83  1  0.12459134  0.62679755  0.37846162  1
  Fe  Fe84  1  0.50251628  0.24825405  0.49835925  1
  Fe  Fe85  1  0.12121957  0.37530131  0.87389153  1
  Fe  Fe86  1  0.12334949  0.37600725  0.37400233  1
  Fe  Fe87  1  0.24924823  -0.00088348  0.25094375  1
  Fe  Fe88  1  0.24920069  0.00002031  0.00134187  1
  Fe  Fe89  1  0.62441826  0.37445362  0.87147221  1
  Co  Co90  1  0.37474084  0.37557758  0.12303549  1
  Co  Co91  1  0.00383052  0.25215460  0.00467730  1
  Co  Co92  1  0.62297130  0.12349512  0.87489997  1
  Co  Co93  1  0.00362278  0.74864536  -0.00285459  1
  Co  Co94  1  0.87818569  0.37331970  0.37573083  1
  Co  Co95  1  -0.00425431  0.50208539  0.75067444  1
  Co  Co96  1  0.50102085  0.25321015  0.24943115  1
  Co  Co97  1  0.12595167  0.38106837  0.12485900  1
  Co  Co98  1  -0.00016997  0.74969854  0.50233004  1
  Co  Co99  1  0.25004965  0.75095925  0.50162846  1
  Co  Co100  1  0.87676512  0.12396628  0.62026016  1
  Co  Co101  1  0.87928231  0.12534717  0.87851299  1
  Co  Co102  1  0.25024535  0.49905444  0.49538583  1
  Co  Co103  1  0.74455859  0.75180306  0.00048805  1
  Co  Co104  1  0.25186782  0.49779114  0.75384378  1
  Co  Co105  1  0.87367837  0.62881975  0.12260187  1
  Co  Co106  1  0.12435763  0.12654686  0.37393796  1
  Co  Co107  1  0.12430815  0.87365483  0.12568531  1
  Co  Co108  1  0.12699852  0.12256658  0.12569088  1
  Co  Co109  1  0.37516515  0.87891330  0.62377359  1
  Co  Co110  1  0.74683395  0.24788925  0.49685147  1
  Co  Co111  1  0.49447958  -0.00277421  0.25061501  1
  Co  Co112  1  0.25160739  0.75197517  0.74927576  1
  Co  Co113  1  0.87314274  0.37416074  0.12420597  1
  Co  Co114  1  0.62665593  0.87611456  0.37424973  1
  Co  Co115  1  -0.00017808  0.74886763  0.25150797  1
  Co  Co116  1  0.62491907  0.12246883  0.13011281  1
  Co  Co117  1  0.00006952  0.24735466  0.74686240  1
  Co  Co118  1  0.75783715  -0.00070631  0.24870013  1
  Co  Co119  1  0.49984008  0.74811328  0.50286844  1
  Co  Co120  1  0.24918101  0.74777471  0.00044738  1
  Co  Co121  1  0.12792088  0.62326718  0.62569176  1
  Co  Co122  1  0.37570346  0.62907942  0.37370427  1
  Co  Co123  1  0.37680198  0.62659310  0.87554750  1
  Co  Co124  1  0.37482013  0.37137645  0.37728193  1
  Co  Co125  1  0.49845113  0.50027543  0.74779567  1
  Co  Co126  1  0.62297905  0.12293958  0.62497834  1
  Co  Co127  1  0.75100683  0.00382683  0.75038594  1
