# generated using pymatgen
data_Fe45Co19
_symmetry_space_group_name_H-M   'P 1'
_cell_length_a   11.42396889
_cell_length_b   11.42319702
_cell_length_c   11.42346411
_cell_angle_alpha   89.99377056
_cell_angle_beta   90.00229214
_cell_angle_gamma   90.00194775
_symmetry_Int_Tables_number   1
_chemical_formula_structural   Fe45Co19
_chemical_formula_sum   'Fe90 Co38'
_cell_volume   1490.74203392
_cell_formula_units_Z   2
loop_
 _symmetry_equiv_pos_site_id
 _symmetry_equiv_pos_as_xyz
  1  'x, y, z'
loop_
 _atom_site_type_symbol
 _atom_site_label
 _atom_site_symmetry_multiplicity
 _atom_site_fract_x
 _atom_site_fract_y
 _atom_site_fract_z
 _atom_site_occupancy
  Fe  Fe0  1  0.12474814  0.87484261  0.12538654  1
  Fe  Fe1  1  0.50196148  0.49836366  0.25157609  1
  Fe  Fe2  1  0.25278041  0.75195897  0.00078188  1
  Fe  Fe3  1  0.87467774  0.37639780  0.62891694  1
  Fe  Fe4  1  0.50179212  0.24966337  0.75117241  1
  Fe  Fe5  1  0.87382843  0.62288244  0.12054807  1
  Fe  Fe6  1  0.50249821  0.50140347  0.75178251  1
  Fe  Fe7  1  0.62689732  0.37692483  0.62629771  1
  Fe  Fe8  1  0.00006481  0.75010191  0.50130156  1
  Fe  Fe9  1  0.50146409  -0.00033719  0.24860099  1
  Fe  Fe10  1  0.62718705  0.62520512  0.12325937  1
  Fe  Fe11  1  0.87370176  0.62318981  0.87970206  1
  Fe  Fe12  1  0.74939484  0.74816550  0.50108556  1
  Fe  Fe13  1  -0.00092048  0.74878179  0.24902668  1
  Fe  Fe14  1  0.75106415  0.00202324  0.24812655  1
  Fe  Fe15  1  0.49906399  0.25164419  0.25213273  1
  Fe  Fe16  1  0.75184427  0.24869743  0.24920278  1
  Fe  Fe17  1  0.50053015  0.00096465  0.50203181  1
  Fe  Fe18  1  0.50250328  0.00163835  0.74960261  1
  Fe  Fe19  1  -0.00239759  0.00321741  0.24936421  1
  Fe  Fe20  1  0.12286810  0.87558251  0.62456790  1
  Fe  Fe21  1  0.37547695  0.12592369  0.12377658  1
  Fe  Fe22  1  0.12289869  0.87670366  0.37544209  1
  Fe  Fe23  1  0.37583617  0.62330433  0.62457446  1
  Fe  Fe24  1  0.87590268  0.62316992  0.62320896  1
  Fe  Fe25  1  0.62683964  0.87485545  0.37534218  1
  Fe  Fe26  1  0.12302777  0.62494947  0.12058139  1
  Fe  Fe27  1  -0.00200540  0.24870088  0.49931651  1
  Fe  Fe28  1  0.74840954  0.24931325  0.75182204  1
  Fe  Fe29  1  0.25225414  0.24758780  0.49936610  1
  Fe  Fe30  1  0.25174583  0.24915774  0.25111981  1
  Fe  Fe31  1  0.24833347  0.25304172  -0.00337870  1
  Fe  Fe32  1  0.87506197  0.12554467  0.87624553  1
  Fe  Fe33  1  0.37522284  0.87619894  0.62688830  1
  Fe  Fe34  1  0.49819811  0.75306618  0.00185380  1
  Fe  Fe35  1  0.12419430  0.12677830  0.12335474  1
  Fe  Fe36  1  0.37522061  0.62458806  0.87675528  1
  Fe  Fe37  1  0.50135820  0.74804341  0.74891648  1
  Fe  Fe38  1  0.24763525  0.49667956  -0.00105932  1
  Fe  Fe39  1  0.87401661  0.87346847  0.87197626  1
  Fe  Fe40  1  0.87415209  0.37662455  0.37416856  1
  Fe  Fe41  1  0.25009805  0.74752112  0.24929684  1
  Fe  Fe42  1  0.37457585  0.37601181  0.12474253  1
  Fe  Fe43  1  0.75042723  -0.00160392  -0.00011458  1
  Fe  Fe44  1  -0.00133485  0.50056653  0.24902966  1
  Fe  Fe45  1  0.00147758  0.25367579  -0.00157386  1
  Fe  Fe46  1  0.74949690  0.50139461  0.49711721  1
  Fe  Fe47  1  0.75166674  0.74786335  0.25044576  1
  Fe  Fe48  1  0.87452867  0.87421977  0.12510665  1
  Fe  Fe49  1  -0.00290157  0.24823498  0.25009460  1
  Fe  Fe50  1  0.24867010  0.50099399  0.24943120  1
  Fe  Fe51  1  0.24950633  0.00229505  0.25073762  1
  Fe  Fe52  1  0.00102741  0.50245378  0.75198655  1
  Fe  Fe53  1  0.49924844  -0.00284403  0.00003378  1
  Fe  Fe54  1  0.50115396  0.25223815  -0.00245587  1
  Fe  Fe55  1  0.12453450  0.37385984  0.37417896  1
  Fe  Fe56  1  0.49869300  0.25150783  0.49888378  1
  Fe  Fe57  1  0.24820127  0.49985584  0.50127491  1
  Fe  Fe58  1  0.62557103  0.87351306  0.87389208  1
  Fe  Fe59  1  0.12201524  0.62370395  0.37712850  1
  Fe  Fe60  1  0.24853739  0.50097408  0.75106032  1
  Fe  Fe61  1  0.74813734  0.74543481  0.74871537  1
  Fe  Fe62  1  0.75299509  0.00026131  0.50531577  1
  Fe  Fe63  1  0.62535741  0.12587414  0.12278945  1
  Fe  Fe64  1  0.37424121  0.37437561  0.62799864  1
  Fe  Fe65  1  0.87557249  0.87589380  0.37670305  1
  Fe  Fe66  1  0.62720190  0.37478420  0.12700713  1
  Fe  Fe67  1  0.50165078  0.49755346  0.49754682  1
  Fe  Fe68  1  0.74950245  0.00151627  0.74768150  1
  Fe  Fe69  1  0.50280933  0.49763091  -0.00133889  1
  Fe  Fe70  1  0.00100740  0.74650620  0.75167024  1
  Fe  Fe71  1  0.74937295  0.25303088  -0.00288714  1
  Fe  Fe72  1  0.75167482  0.25082774  0.50157465  1
  Fe  Fe73  1  0.12453965  0.87400352  0.87474967  1
  Fe  Fe74  1  0.50075882  0.75033464  0.50144349  1
  Fe  Fe75  1  0.25001394  0.00299158  0.50024007  1
  Fe  Fe76  1  0.37457140  0.87530789  0.37413507  1
  Fe  Fe77  1  0.37475502  0.12586749  0.87382393  1
  Fe  Fe78  1  -0.00055905  0.00152371  0.74796501  1
  Fe  Fe79  1  -0.00123603  -0.00200910  0.00002976  1
  Fe  Fe80  1  0.37626801  0.62375832  0.37494774  1
  Fe  Fe81  1  0.62693619  0.12619037  0.37675755  1
  Fe  Fe82  1  0.24942944  0.74921425  0.50111346  1
  Fe  Fe83  1  0.24879925  0.74833527  0.74895302  1
  Fe  Fe84  1  0.12471769  0.37333927  0.62642459  1
  Fe  Fe85  1  0.49862872  0.75071671  0.24695774  1
  Fe  Fe86  1  0.24825995  0.00248292  0.74967453  1
  Fe  Fe87  1  0.25123958  -0.00131503  -0.00133923  1
  Fe  Fe88  1  0.00249719  0.24763525  0.75217736  1
  Fe  Fe89  1  0.87423107  0.37676390  0.12358703  1
  Co  Co90  1  0.37185444  0.37745482  0.37462723  1
  Co  Co91  1  -0.00155103  0.75250423  -0.00067714  1
  Co  Co92  1  0.87485752  0.12663635  0.11962768  1
  Co  Co93  1  0.75062719  0.75276248  -0.00024296  1
  Co  Co94  1  0.87534226  0.12844796  0.62785035  1
  Co  Co95  1  0.75064899  0.50225111  0.25109587  1
  Co  Co96  1  0.12334968  0.62408168  0.62405198  1
  Co  Co97  1  0.37228130  0.87715744  0.12800752  1
  Co  Co98  1  0.87578747  0.87090366  0.62743889  1
  Co  Co99  1  0.62447176  0.62177812  0.62305625  1
  Co  Co100  1  0.74770438  0.49549897  -0.00245840  1
  Co  Co101  1  0.12293412  0.12556948  0.37488312  1
  Co  Co102  1  0.87589561  0.37489617  0.87205220  1
  Co  Co103  1  0.12667099  0.62618126  0.87940828  1
  Co  Co104  1  0.62917604  0.37239179  0.37438741  1
  Co  Co105  1  -0.00277915  0.00222542  0.50307390  1
  Co  Co106  1  0.37603860  0.37596311  0.87317336  1
  Co  Co107  1  0.62284499  0.62727782  0.37342346  1
  Co  Co108  1  0.00156652  0.49605584  -0.00114495  1
  Co  Co109  1  0.12474841  0.12679284  0.62352354  1
  Co  Co110  1  0.37542592  0.87475863  0.87048101  1
  Co  Co111  1  0.12347423  0.37648531  0.87115860  1
  Co  Co112  1  0.37576113  0.62061042  0.12331682  1
  Co  Co113  1  0.37758204  0.12354874  0.37411180  1
  Co  Co114  1  0.74972781  0.50349672  0.75253367  1
  Co  Co115  1  0.87247999  0.12407759  0.37665083  1
  Co  Co116  1  0.62493104  0.62738327  0.87940615  1
  Co  Co117  1  0.62521524  0.12796263  0.62364281  1
  Co  Co118  1  0.62580253  0.12329615  0.87712273  1
  Co  Co119  1  0.62534268  0.87423166  0.62609316  1
  Co  Co120  1  -0.00001551  0.49625220  0.50101170  1
  Co  Co121  1  0.62586112  0.37558454  0.87120776  1
  Co  Co122  1  0.12466566  0.37371524  0.12862954  1
  Co  Co123  1  0.24798722  0.24905630  0.75261328  1
  Co  Co124  1  0.37589396  0.12609942  0.62754013  1
  Co  Co125  1  0.87793222  0.62471703  0.37713426  1
  Co  Co126  1  0.12400884  0.12300377  0.87726232  1
  Co  Co127  1  0.62755473  0.87461210  0.12547376  1
