# generated using pymatgen
data_Fe45Co19
_symmetry_space_group_name_H-M   'P 1'
_cell_length_a   11.41528500
_cell_length_b   11.41552019
_cell_length_c   11.41373157
_cell_angle_alpha   89.99419233
_cell_angle_beta   89.99028437
_cell_angle_gamma   90.00500143
_symmetry_Int_Tables_number   1
_chemical_formula_structural   Fe45Co19
_chemical_formula_sum   'Fe90 Co38'
_cell_volume   1487.33949294
_cell_formula_units_Z   2
loop_
 _symmetry_equiv_pos_site_id
 _symmetry_equiv_pos_as_xyz
  1  'x, y, z'
loop_
 _atom_site_type_symbol
 _atom_site_label
 _atom_site_symmetry_multiplicity
 _atom_site_fract_x
 _atom_site_fract_y
 _atom_site_fract_z
 _atom_site_occupancy
  Fe  Fe0  1  0.25027213  0.24946291  0.49820896  1
  Fe  Fe1  1  0.37262653  0.87475029  0.62360723  1
  Fe  Fe2  1  0.12409135  0.12547147  0.12397911  1
  Fe  Fe3  1  0.25013325  0.00162057  0.75146814  1
  Fe  Fe4  1  0.62586724  0.37513505  0.37571182  1
  Fe  Fe5  1  0.24907665  0.49672029  0.00044533  1
  Fe  Fe6  1  0.86785074  0.37748785  0.62334565  1
  Fe  Fe7  1  0.12418804  0.12696212  0.62530806  1
  Fe  Fe8  1  0.37603862  0.87587999  0.37607970  1
  Fe  Fe9  1  -0.00093340  0.24961549  -0.00136621  1
  Fe  Fe10  1  0.87522643  0.86991860  0.62907121  1
  Fe  Fe11  1  0.25108645  0.74864658  0.75119206  1
  Fe  Fe12  1  0.74997543  -0.00412501  -0.00325739  1
  Fe  Fe13  1  -0.00136067  0.50174833  0.74587712  1
  Fe  Fe14  1  0.74892252  0.25371563  -0.00504213  1
  Fe  Fe15  1  0.62821239  0.12624895  0.12401830  1
  Fe  Fe16  1  -0.00044827  0.50181114  0.24735641  1
  Fe  Fe17  1  0.87254681  0.37561882  0.12378023  1
  Fe  Fe18  1  0.24703369  0.49839790  0.50054184  1
  Fe  Fe19  1  0.62666571  0.87188013  0.12568648  1
  Fe  Fe20  1  0.24918383  0.49664080  0.24723746  1
  Fe  Fe21  1  0.25057357  0.49941340  0.75162190  1
  Fe  Fe22  1  -0.00285520  0.25239967  0.50238049  1
  Fe  Fe23  1  0.12173228  0.37602401  0.37538690  1
  Fe  Fe24  1  0.37677077  0.12549176  0.62140000  1
  Fe  Fe25  1  0.62215388  0.12453014  0.37865497  1
  Fe  Fe26  1  0.62736007  0.87220350  0.62822045  1
  Fe  Fe27  1  0.74760948  0.50032619  -0.00351186  1
  Fe  Fe28  1  0.50374657  0.50099620  0.00871324  1
  Fe  Fe29  1  0.74623832  0.75025867  -0.00923059  1
  Fe  Fe30  1  0.62318165  0.87343527  0.37444144  1
  Fe  Fe31  1  0.87354253  0.87253852  0.12465985  1
  Fe  Fe32  1  0.49905179  0.74975018  0.50282107  1
  Fe  Fe33  1  0.12168392  0.37460611  0.87255101  1
  Fe  Fe34  1  0.37767734  0.37615518  0.37366797  1
  Fe  Fe35  1  0.50080517  0.25110953  0.24804157  1
  Fe  Fe36  1  0.50333198  0.49910419  0.50124700  1
  Fe  Fe37  1  -0.00054255  0.00244575  0.75240068  1
  Fe  Fe38  1  0.87405114  0.37851793  0.37718722  1
  Fe  Fe39  1  0.49701118  0.74829036  0.24469081  1
  Fe  Fe40  1  0.37498594  0.62236930  0.37422051  1
  Fe  Fe41  1  0.74962766  0.50239475  0.75446641  1
  Fe  Fe42  1  0.49957852  0.00053397  0.74665802  1
  Fe  Fe43  1  0.50111485  0.00006231  0.24853593  1
  Fe  Fe44  1  0.12627227  0.87424976  0.62447520  1
  Fe  Fe45  1  0.62535522  0.12498726  0.87407461  1
  Fe  Fe46  1  0.00024405  -0.00042356  0.50127396  1
  Fe  Fe47  1  -0.00539315  0.24856506  0.74979225  1
  Fe  Fe48  1  0.25164631  0.25066938  0.75130516  1
  Fe  Fe49  1  0.75020867  -0.00137074  0.49974541  1
  Fe  Fe50  1  0.37963324  0.62510965  0.87752138  1
  Fe  Fe51  1  -0.00009507  -0.00071411  0.24812478  1
  Fe  Fe52  1  -0.00040095  0.50084936  0.00190604  1
  Fe  Fe53  1  0.12740028  0.62471960  0.62385435  1
  Fe  Fe54  1  0.74831700  0.50094926  0.25001040  1
  Fe  Fe55  1  0.87050834  0.62778081  0.12366416  1
  Fe  Fe56  1  0.00287150  0.74701922  0.49893332  1
  Fe  Fe57  1  0.12431008  0.62383570  0.87553482  1
  Fe  Fe58  1  0.62749339  0.12781656  0.62282019  1
  Fe  Fe59  1  0.75122726  0.24882902  0.25274561  1
  Fe  Fe60  1  -0.00227053  0.25052656  0.24915616  1
  Fe  Fe61  1  0.38004671  0.37547848  0.87826493  1
  Fe  Fe62  1  0.00011493  0.75036805  -0.00009244  1
  Fe  Fe63  1  0.37672372  0.12614961  0.87601420  1
  Fe  Fe64  1  0.75218091  -0.00006395  0.75123416  1
  Fe  Fe65  1  0.24945003  0.25244463  -0.00036592  1
  Fe  Fe66  1  0.75023887  0.74897197  0.49840111  1
  Fe  Fe67  1  0.24957702  0.25002021  0.25107949  1
  Fe  Fe68  1  0.24949256  0.00301363  0.49628574  1
  Fe  Fe69  1  0.62307146  0.62672659  0.37205083  1
  Fe  Fe70  1  0.24885301  0.00291305  0.25403559  1
  Fe  Fe71  1  0.24931082  0.00062810  -0.00159022  1
  Fe  Fe72  1  0.24954559  0.74972387  0.25245082  1
  Fe  Fe73  1  0.87674731  0.62423857  0.37572242  1
  Fe  Fe74  1  0.12355345  0.87481537  0.87431156  1
  Fe  Fe75  1  0.75026913  -0.00025712  0.25172963  1
  Fe  Fe76  1  0.50044054  -0.00044547  0.00206075  1
  Fe  Fe77  1  0.12715479  0.62537550  0.12556088  1
  Fe  Fe78  1  0.25303744  0.75055244  0.00010258  1
  Fe  Fe79  1  0.50235396  0.25211310  0.74793547  1
  Fe  Fe80  1  0.12586121  0.87488825  0.12665126  1
  Fe  Fe81  1  0.37441914  0.12560952  0.12559336  1
  Fe  Fe82  1  0.37303163  0.62454569  0.62376209  1
  Fe  Fe83  1  0.49995571  0.49832402  0.74639296  1
  Fe  Fe84  1  0.37950798  0.87367979  0.87508372  1
  Fe  Fe85  1  0.62762827  0.62633400  0.62784250  1
  Fe  Fe86  1  0.37384685  0.37523103  0.62347991  1
  Fe  Fe87  1  0.87726869  0.87385861  0.37416568  1
  Fe  Fe88  1  0.87696756  0.12307450  0.37691820  1
  Fe  Fe89  1  0.87325437  0.12407499  0.12184219  1
  Co  Co90  1  0.50314193  0.50051997  0.24654456  1
  Co  Co91  1  0.63075192  0.62902648  0.12588385  1
  Co  Co92  1  0.12599459  0.37284993  0.62738088  1
  Co  Co93  1  0.75090587  0.25066919  0.75397801  1
  Co  Co94  1  0.75106226  0.24804244  0.49708781  1
  Co  Co95  1  0.37242001  0.87768676  0.12629507  1
  Co  Co96  1  0.74925801  0.74743629  0.75763757  1
  Co  Co97  1  0.37658972  0.37384427  0.12473865  1
  Co  Co98  1  0.75177222  0.75064447  0.25335527  1
  Co  Co99  1  0.49745387  0.74963900  0.74657120  1
  Co  Co100  1  0.87188885  0.62764711  0.62553297  1
  Co  Co101  1  0.87327932  0.12289046  0.87827740  1
  Co  Co102  1  0.38049630  0.12562561  0.37573602  1
  Co  Co103  1  0.87778840  0.37777728  0.87477428  1
  Co  Co104  1  0.12434662  0.12731640  0.87447070  1
  Co  Co105  1  0.50157956  -0.00328355  0.50244872  1
  Co  Co106  1  0.62076983  0.37714562  0.87447901  1
  Co  Co107  1  0.87848526  0.62499021  0.87479488  1
  Co  Co108  1  0.00347605  0.74677438  0.74982265  1
  Co  Co109  1  0.12404588  0.87524631  0.37493761  1
  Co  Co110  1  0.00036071  0.74766922  0.24946413  1
  Co  Co111  1  0.24925133  0.74882233  0.49836925  1
  Co  Co112  1  0.74723773  0.50525660  0.49746590  1
  Co  Co113  1  0.50222020  0.24794362  0.00139003  1
  Co  Co114  1  0.11980694  0.12743874  0.37608570  1
  Co  Co115  1  0.87875764  0.87451059  0.87202557  1
  Co  Co116  1  0.61707349  0.62352142  0.87393791  1
  Co  Co117  1  0.87301276  0.12416324  0.62421645  1
  Co  Co118  1  0.12592205  0.62095286  0.37412561  1
  Co  Co119  1  0.50103378  0.25492141  0.50216882  1
  Co  Co120  1  0.00047672  -0.00124867  0.00023382  1
  Co  Co121  1  0.63172879  0.37490553  0.62470563  1
  Co  Co122  1  0.62855744  0.37300520  0.12610036  1
  Co  Co123  1  0.12248748  0.37412752  0.12460808  1
  Co  Co124  1  0.00045252  0.50055023  0.50397189  1
  Co  Co125  1  0.49995919  0.75022284  0.00499936  1
  Co  Co126  1  0.37120255  0.62273628  0.12525718  1
  Co  Co127  1  0.61903430  0.87566180  0.87179158  1
