# generated using pymatgen
data_Fe45Co19
_symmetry_space_group_name_H-M   'P 1'
_cell_length_a   11.41628798
_cell_length_b   11.41539043
_cell_length_c   11.41482471
_cell_angle_alpha   90.01680450
_cell_angle_beta   89.99794204
_cell_angle_gamma   90.00870829
_symmetry_Int_Tables_number   1
_chemical_formula_structural   Fe45Co19
_chemical_formula_sum   'Fe90 Co38'
_cell_volume   1487.59567866
_cell_formula_units_Z   2
loop_
 _symmetry_equiv_pos_site_id
 _symmetry_equiv_pos_as_xyz
  1  'x, y, z'
loop_
 _atom_site_type_symbol
 _atom_site_label
 _atom_site_symmetry_multiplicity
 _atom_site_fract_x
 _atom_site_fract_y
 _atom_site_fract_z
 _atom_site_occupancy
  Fe  Fe0  1  0.74932697  0.24960151  0.75092219  1
  Fe  Fe1  1  0.50139715  -0.00040743  0.25057538  1
  Fe  Fe2  1  0.87255564  0.12591571  0.12625271  1
  Fe  Fe3  1  0.49952110  0.50334587  0.50046994  1
  Fe  Fe4  1  0.00052956  -0.00112973  0.00048771  1
  Fe  Fe5  1  0.24770023  0.24876801  0.75117726  1
  Fe  Fe6  1  0.00226333  0.25020867  0.00075450  1
  Fe  Fe7  1  0.75434909  0.74716903  0.49631115  1
  Fe  Fe8  1  0.12581375  0.12556429  0.12801206  1
  Fe  Fe9  1  0.37455996  0.87678841  0.87430237  1
  Fe  Fe10  1  0.37411393  0.12429131  0.87382203  1
  Fe  Fe11  1  0.50125319  -0.00014289  0.00090366  1
  Fe  Fe12  1  0.87718966  0.12600624  0.37394548  1
  Fe  Fe13  1  0.00013524  0.50047599  0.75081501  1
  Fe  Fe14  1  0.37244706  0.12193875  0.62369153  1
  Fe  Fe15  1  0.87602722  0.12588729  0.62460867  1
  Fe  Fe16  1  0.87583861  0.62271813  0.62470041  1
  Fe  Fe17  1  0.62638557  0.62448897  0.87436697  1
  Fe  Fe18  1  0.37364998  0.87663361  0.62321971  1
  Fe  Fe19  1  0.62786167  0.12629160  0.12803514  1
  Fe  Fe20  1  0.87568500  0.62722326  0.12360016  1
  Fe  Fe21  1  0.87605624  0.37504451  0.62520139  1
  Fe  Fe22  1  0.37378017  0.37675770  0.37507243  1
  Fe  Fe23  1  0.37383900  0.12366388  0.12557193  1
  Fe  Fe24  1  -0.00128520  0.75094579  0.75044543  1
  Fe  Fe25  1  0.12488790  0.87595869  0.87605317  1
  Fe  Fe26  1  0.00251259  0.24924396  0.75014072  1
  Fe  Fe27  1  0.74885317  0.49900208  0.00093191  1
  Fe  Fe28  1  0.62594588  0.87325384  0.12680183  1
  Fe  Fe29  1  -0.00095409  -0.00209350  0.24919640  1
  Fe  Fe30  1  0.50041740  0.00131819  0.74897168  1
  Fe  Fe31  1  0.24742538  0.50386862  0.49908067  1
  Fe  Fe32  1  0.62576396  0.62637880  0.12619776  1
  Fe  Fe33  1  0.62646686  0.62461494  0.62591708  1
  Fe  Fe34  1  0.87856253  0.37649463  0.37417648  1
  Fe  Fe35  1  0.75086942  0.25107287  0.49705974  1
  Fe  Fe36  1  0.37391867  0.37653154  0.62688120  1
  Fe  Fe37  1  0.37210577  0.87458563  0.12527731  1
  Fe  Fe38  1  0.37713942  0.87516093  0.37751101  1
  Fe  Fe39  1  0.87491308  0.62653185  0.87819984  1
  Fe  Fe40  1  0.37433144  0.37527379  0.87217788  1
  Fe  Fe41  1  0.49843238  0.74962848  0.00019716  1
  Fe  Fe42  1  0.62477071  0.37603067  0.62735952  1
  Fe  Fe43  1  0.49966467  0.24943255  0.25044295  1
  Fe  Fe44  1  0.87579253  0.87635680  0.62218967  1
  Fe  Fe45  1  0.24741525  -0.00133339  0.25456553  1
  Fe  Fe46  1  0.36842879  0.62801380  0.12852499  1
  Fe  Fe47  1  0.49989227  0.24944390  0.50094259  1
  Fe  Fe48  1  0.74864574  0.25208451  0.00051119  1
  Fe  Fe49  1  0.75396368  0.74968706  0.25284962  1
  Fe  Fe50  1  0.49922054  0.74871188  0.74918995  1
  Fe  Fe51  1  0.75305789  0.75094772  0.75101248  1
  Fe  Fe52  1  0.11799386  0.87242183  0.37822681  1
  Fe  Fe53  1  0.87612677  0.37466401  0.12546440  1
  Fe  Fe54  1  0.24997165  0.74964585  0.74896257  1
  Fe  Fe55  1  0.37672810  0.12263042  0.37707098  1
  Fe  Fe56  1  0.24896271  -0.00033156  -0.00053738  1
  Fe  Fe57  1  0.24697012  0.49842877  0.00285243  1
  Fe  Fe58  1  0.62291896  0.37599097  0.87256290  1
  Fe  Fe59  1  0.12563114  0.12245236  0.62279904  1
  Fe  Fe60  1  0.62627099  0.87518727  0.37529216  1
  Fe  Fe61  1  0.24729716  0.24999758  -0.00028036  1
  Fe  Fe62  1  0.12352614  0.87447672  0.62210562  1
  Fe  Fe63  1  0.75105827  0.00165681  0.49726643  1
  Fe  Fe64  1  0.62363084  0.37570506  0.37390756  1
  Fe  Fe65  1  0.49880781  0.50133492  0.00161490  1
  Fe  Fe66  1  0.62537692  0.12459266  0.62436438  1
  Fe  Fe67  1  0.12534543  0.37616472  0.62680348  1
  Fe  Fe68  1  0.24800158  0.24800814  0.49749613  1
  Fe  Fe69  1  0.49854216  0.74895617  0.25121647  1
  Fe  Fe70  1  0.37284748  0.62363024  0.87373075  1
  Fe  Fe71  1  0.75061024  0.50048511  0.49869817  1
  Fe  Fe72  1  0.50124579  0.24913686  -0.00051995  1
  Fe  Fe73  1  0.37328817  0.37380849  0.12667248  1
  Fe  Fe74  1  0.12604403  0.62474401  0.87506861  1
  Fe  Fe75  1  0.62651831  0.87577957  0.87412523  1
  Fe  Fe76  1  0.74932843  0.49911231  0.24958615  1
  Fe  Fe77  1  0.87556073  0.87206762  0.12280274  1
  Fe  Fe78  1  0.00331177  0.50162794  0.49951160  1
  Fe  Fe79  1  0.50019224  0.74735234  0.49921286  1
  Fe  Fe80  1  -0.00018348  -0.00063645  0.74967720  1
  Fe  Fe81  1  0.00531983  0.50242197  0.24627633  1
  Fe  Fe82  1  0.87449011  0.12322906  0.87476065  1
  Fe  Fe83  1  0.12488463  0.37117318  0.37093975  1
  Fe  Fe84  1  0.87703297  0.37507045  0.87525238  1
  Fe  Fe85  1  0.24897163  0.74732653  0.49905479  1
  Fe  Fe86  1  0.00472402  0.50072870  0.00341399  1
  Fe  Fe87  1  0.74949964  -0.00183863  0.00043639  1
  Fe  Fe88  1  0.49833573  0.50181597  0.24977980  1
  Fe  Fe89  1  0.62709532  0.87498509  0.62357621  1
  Co  Co90  1  0.75246867  -0.00219396  0.25149180  1
  Co  Co91  1  0.75114181  0.00002693  0.74852442  1
  Co  Co92  1  0.00257173  0.75004323  0.00007047  1
  Co  Co93  1  0.12443720  0.37609190  0.87411985  1
  Co  Co94  1  -0.00353878  0.74506351  0.50059483  1
  Co  Co95  1  0.37287966  0.62485983  0.37344976  1
  Co  Co96  1  0.74858470  0.75101587  -0.00029589  1
  Co  Co97  1  0.24740544  -0.00070932  0.49555417  1
  Co  Co98  1  0.12380276  0.12342991  0.87603503  1
  Co  Co99  1  0.62536560  0.62480966  0.37388523  1
  Co  Co100  1  0.62446226  0.12510965  0.37333199  1
  Co  Co101  1  0.87849292  0.62121554  0.37280617  1
  Co  Co102  1  0.62666993  0.12359695  0.87610330  1
  Co  Co103  1  0.87809901  0.87523325  0.37774502  1
  Co  Co104  1  0.24943499  0.50141543  0.74831433  1
  Co  Co105  1  0.37443282  0.62511396  0.62395877  1
  Co  Co106  1  0.49943362  0.24769174  0.74867974  1
  Co  Co107  1  0.50199079  -0.00017577  0.50079339  1
  Co  Co108  1  -0.00168424  0.75109616  0.24763131  1
  Co  Co109  1  0.12414785  0.62809680  0.37204590  1
  Co  Co110  1  0.12696405  0.87387028  0.12374960  1
  Co  Co111  1  0.75195040  0.50004879  0.75104054  1
  Co  Co112  1  -0.00284966  0.24949662  0.24842375  1
  Co  Co113  1  0.00128888  0.25117502  0.50091105  1
  Co  Co114  1  0.24699552  0.49890181  0.24989123  1
  Co  Co115  1  0.49914778  0.50192637  0.74888273  1
  Co  Co116  1  0.62297072  0.37463784  0.12617758  1
  Co  Co117  1  0.12363724  0.62622313  0.62657052  1
  Co  Co118  1  0.12060490  0.12672663  0.37305145  1
  Co  Co119  1  0.12641990  0.36958947  0.12782226  1
  Co  Co120  1  0.24865972  0.75645821  0.25464827  1
  Co  Co121  1  0.75119157  0.25349409  0.25202096  1
  Co  Co122  1  -0.00072166  0.00315931  0.50012818  1
  Co  Co123  1  0.25081042  0.75189848  -0.00288419  1
  Co  Co124  1  0.87521138  0.87603943  0.87680299  1
  Co  Co125  1  0.12993602  0.63146520  0.12669526  1
  Co  Co126  1  0.25333924  0.24694519  0.25231950  1
  Co  Co127  1  0.24812877  -0.00113948  0.75003854  1
