# generated using pymatgen
data_Fe45Co19
_symmetry_space_group_name_H-M   'P 1'
_cell_length_a   11.41340371
_cell_length_b   11.41368324
_cell_length_c   11.41448238
_cell_angle_alpha   90.00523894
_cell_angle_beta   89.99457254
_cell_angle_gamma   89.99866531
_symmetry_Int_Tables_number   1
_chemical_formula_structural   Fe45Co19
_chemical_formula_sum   'Fe90 Co38'
_cell_volume   1486.95290291
_cell_formula_units_Z   2
loop_
 _symmetry_equiv_pos_site_id
 _symmetry_equiv_pos_as_xyz
  1  'x, y, z'
loop_
 _atom_site_type_symbol
 _atom_site_label
 _atom_site_symmetry_multiplicity
 _atom_site_fract_x
 _atom_site_fract_y
 _atom_site_fract_z
 _atom_site_occupancy
  Fe  Fe0  1  0.12391286  0.37845485  0.12403319  1
  Fe  Fe1  1  0.87536071  0.62650806  0.87305202  1
  Fe  Fe2  1  0.62244818  0.12474497  0.87311742  1
  Fe  Fe3  1  0.75236830  -0.00034489  0.49844861  1
  Fe  Fe4  1  0.87848576  0.62645533  0.37603542  1
  Fe  Fe5  1  0.62678251  0.87434681  0.62456020  1
  Fe  Fe6  1  0.49848180  -0.00022902  -0.00230569  1
  Fe  Fe7  1  0.24853997  0.74748874  -0.00121612  1
  Fe  Fe8  1  0.75213593  0.00125212  0.00347659  1
  Fe  Fe9  1  -0.00289013  0.25523482  0.24979031  1
  Fe  Fe10  1  0.12358410  0.37312492  0.62612422  1
  Fe  Fe11  1  0.50114914  0.25060142  0.50088814  1
  Fe  Fe12  1  0.37726826  0.12585822  0.62891415  1
  Fe  Fe13  1  0.12449214  0.12672776  0.87716493  1
  Fe  Fe14  1  -0.00070633  0.50045126  -0.00148947  1
  Fe  Fe15  1  0.12462247  0.37737432  0.37467355  1
  Fe  Fe16  1  0.62427299  0.12418248  0.62735749  1
  Fe  Fe17  1  0.37274977  0.87380551  0.62549282  1
  Fe  Fe18  1  0.37594996  0.12552169  0.37334916  1
  Fe  Fe19  1  0.75282888  0.25106756  0.24791630  1
  Fe  Fe20  1  -0.00228763  -0.00228862  0.00145212  1
  Fe  Fe21  1  0.25048549  0.50056295  0.75059701  1
  Fe  Fe22  1  0.50105362  0.74790780  -0.00029886  1
  Fe  Fe23  1  0.75260360  0.50496904  0.50380376  1
  Fe  Fe24  1  0.37300135  0.37669982  0.37585315  1
  Fe  Fe25  1  0.75079355  0.74993823  0.24758750  1
  Fe  Fe26  1  0.62684510  0.37548704  0.87590942  1
  Fe  Fe27  1  0.62475962  0.62521911  0.87336037  1
  Fe  Fe28  1  0.37422838  0.87298022  0.12698038  1
  Fe  Fe29  1  0.25032271  0.49992104  -0.00405977  1
  Fe  Fe30  1  0.62312983  0.62243029  0.12669302  1
  Fe  Fe31  1  0.24875181  0.74827580  0.50039406  1
  Fe  Fe32  1  0.62561452  0.12513026  0.37364103  1
  Fe  Fe33  1  -0.00312019  0.25099215  0.49962950  1
  Fe  Fe34  1  0.49985477  0.49984029  0.75213092  1
  Fe  Fe35  1  0.50001502  0.75099416  0.75046167  1
  Fe  Fe36  1  0.50039069  0.74806189  0.49788524  1
  Fe  Fe37  1  0.62416213  0.12572520  0.12570425  1
  Fe  Fe38  1  0.50119279  0.50193684  0.49692189  1
  Fe  Fe39  1  0.24693125  0.50331661  0.25103357  1
  Fe  Fe40  1  0.37528587  0.62367383  0.12478455  1
  Fe  Fe41  1  0.75346875  0.50003956  0.24979998  1
  Fe  Fe42  1  0.75041407  0.74691447  0.74791707  1
  Fe  Fe43  1  0.12420039  0.62589661  0.87389163  1
  Fe  Fe44  1  -0.00260367  0.49482709  0.75084208  1
  Fe  Fe45  1  0.75421710  0.74823657  0.50361053  1
  Fe  Fe46  1  0.25104988  0.00181348  -0.00018856  1
  Fe  Fe47  1  0.87715883  0.62542917  0.12229997  1
  Fe  Fe48  1  0.24987362  0.25029248  0.50031526  1
  Fe  Fe49  1  0.24927565  0.25139410  0.24884672  1
  Fe  Fe50  1  0.24889263  0.25068615  0.75291166  1
  Fe  Fe51  1  0.12290183  0.12541399  0.37379541  1
  Fe  Fe52  1  0.37599318  0.37811753  0.12294010  1
  Fe  Fe53  1  0.49845175  0.25034562  -0.00215607  1
  Fe  Fe54  1  0.62936117  0.37642438  0.37638755  1
  Fe  Fe55  1  0.00320820  0.75520932  0.74846872  1
  Fe  Fe56  1  0.62723663  0.87374811  0.87625439  1
  Fe  Fe57  1  0.12481484  0.87286496  0.12210889  1
  Fe  Fe58  1  0.62859945  0.37680074  0.62338451  1
  Fe  Fe59  1  0.74995154  0.50213903  -0.00184878  1
  Fe  Fe60  1  0.62509786  0.37707662  0.12434061  1
  Fe  Fe61  1  0.37206837  0.62431316  0.37411547  1
  Fe  Fe62  1  -0.00043207  0.49828232  0.50014856  1
  Fe  Fe63  1  0.87563299  0.12489752  0.62612268  1
  Fe  Fe64  1  0.00119513  -0.00187169  0.75101000  1
  Fe  Fe65  1  0.37542864  0.62505250  0.62583458  1
  Fe  Fe66  1  0.87504972  0.12248241  0.37009057  1
  Fe  Fe67  1  0.49960003  0.25365032  0.25087382  1
  Fe  Fe68  1  -0.00278799  -0.00375670  0.49966545  1
  Fe  Fe69  1  0.37512590  0.37589269  0.62533925  1
  Fe  Fe70  1  0.24828772  -0.00151592  0.25073746  1
  Fe  Fe71  1  0.24823661  -0.00061174  0.75135852  1
  Fe  Fe72  1  0.50098639  -0.00230165  0.25108337  1
  Fe  Fe73  1  0.75194812  0.25200982  0.74960463  1
  Fe  Fe74  1  0.62608137  0.87410276  0.12380397  1
  Fe  Fe75  1  0.12241171  0.62559074  0.62378368  1
  Fe  Fe76  1  0.87550633  0.12819060  0.87684802  1
  Fe  Fe77  1  -0.00071792  0.25308436  0.00034941  1
  Fe  Fe78  1  0.12298979  0.12483593  0.62458272  1
  Fe  Fe79  1  0.49940300  -0.00062274  0.50080978  1
  Fe  Fe80  1  0.00396715  0.74693198  0.24807320  1
  Fe  Fe81  1  0.37253115  0.87335533  0.87411048  1
  Fe  Fe82  1  0.75075506  -0.00028825  0.75178530  1
  Fe  Fe83  1  0.49972303  0.74812757  0.25200265  1
  Fe  Fe84  1  0.87365559  0.87214578  0.87742951  1
  Fe  Fe85  1  0.12283308  0.12611814  0.12570014  1
  Fe  Fe86  1  0.25153112  0.00141057  0.49859906  1
  Fe  Fe87  1  0.62754293  0.87328293  0.37538506  1
  Fe  Fe88  1  0.12481428  0.87262375  0.37666376  1
  Fe  Fe89  1  0.37492890  0.12560464  0.12561117  1
  Co  Co90  1  0.50237785  0.25415807  0.74958480  1
  Co  Co91  1  0.88039532  0.62452429  0.62834999  1
  Co  Co92  1  0.24990333  0.25055619  0.00060925  1
  Co  Co93  1  0.87298813  0.37411729  0.87717770  1
  Co  Co94  1  0.24625477  0.74875939  0.74930820  1
  Co  Co95  1  0.24796721  0.49958916  0.50227576  1
  Co  Co96  1  0.00184215  -0.00412463  0.24827190  1
  Co  Co97  1  0.87623040  0.87237119  0.12468485  1
  Co  Co98  1  0.12438074  0.37452515  0.87505942  1
  Co  Co99  1  0.12744967  0.87720434  0.62213485  1
  Co  Co100  1  -0.00130276  0.50199466  0.24982699  1
  Co  Co101  1  0.37510237  0.62660102  0.87419245  1
  Co  Co102  1  0.75160071  0.24568222  0.50012298  1
  Co  Co103  1  0.00081066  0.74898361  -0.00064688  1
  Co  Co104  1  0.87799378  0.12600043  0.12711954  1
  Co  Co105  1  -0.00293343  0.75383649  0.50307204  1
  Co  Co106  1  0.49991529  -0.00516280  0.75020324  1
  Co  Co107  1  0.87296256  0.37424707  0.62391246  1
  Co  Co108  1  0.12607337  0.87557677  0.87808956  1
  Co  Co109  1  0.12580867  0.62297773  0.12137819  1
  Co  Co110  1  0.37488290  0.37418334  0.87563874  1
  Co  Co111  1  0.87275649  0.37731163  0.37786494  1
  Co  Co112  1  0.50135978  0.50160270  -0.00261295  1
  Co  Co113  1  -0.00147318  0.25040889  0.75012678  1
  Co  Co114  1  0.37613043  0.12574252  0.87224253  1
  Co  Co115  1  0.12293887  0.62517305  0.37963043  1
  Co  Co116  1  0.87434002  0.37708546  0.12091593  1
  Co  Co117  1  0.74869497  0.74682112  0.00118533  1
  Co  Co118  1  0.62904459  0.62559263  0.37441928  1
  Co  Co119  1  0.87445062  0.87301814  0.37075406  1
  Co  Co120  1  0.49984322  0.50025298  0.25386420  1
  Co  Co121  1  0.62246041  0.62463988  0.62608777  1
  Co  Co122  1  0.24692860  0.74812607  0.24994583  1
  Co  Co123  1  0.87289635  0.87663443  0.62840968  1
  Co  Co124  1  0.74903586  -0.00060464  0.24619737  1
  Co  Co125  1  0.75101935  0.50079344  0.74987275  1
  Co  Co126  1  0.37437155  0.87393891  0.37442900  1
  Co  Co127  1  0.74878702  0.24777384  0.00100908  1
