# generated using pymatgen
data_Fe45Co19
_symmetry_space_group_name_H-M   'P 1'
_cell_length_a   11.41437069
_cell_length_b   11.41416256
_cell_length_c   11.41553943
_cell_angle_alpha   90.00011308
_cell_angle_beta   90.00493418
_cell_angle_gamma   90.00568927
_symmetry_Int_Tables_number   1
_chemical_formula_structural   Fe45Co19
_chemical_formula_sum   'Fe90 Co38'
_cell_volume   1487.27905046
_cell_formula_units_Z   2
loop_
 _symmetry_equiv_pos_site_id
 _symmetry_equiv_pos_as_xyz
  1  'x, y, z'
loop_
 _atom_site_type_symbol
 _atom_site_label
 _atom_site_symmetry_multiplicity
 _atom_site_fract_x
 _atom_site_fract_y
 _atom_site_fract_z
 _atom_site_occupancy
  Fe  Fe0  1  0.25151853  0.25146827  -0.00064578  1
  Fe  Fe1  1  0.62463507  0.37416514  0.12693960  1
  Fe  Fe2  1  -0.00080371  0.24852552  0.25232569  1
  Fe  Fe3  1  0.49931522  0.24862411  0.25183074  1
  Fe  Fe4  1  0.62553678  0.37585805  0.87536814  1
  Fe  Fe5  1  0.00133182  0.25102061  -0.00154970  1
  Fe  Fe6  1  0.87330365  0.62531557  0.37680105  1
  Fe  Fe7  1  0.50070042  0.75074009  0.49903198  1
  Fe  Fe8  1  0.49799552  0.75352277  0.75674961  1
  Fe  Fe9  1  0.37558204  0.62709682  0.37373437  1
  Fe  Fe10  1  0.49886637  0.50073196  0.50110552  1
  Fe  Fe11  1  0.12671672  0.87238578  0.62762750  1
  Fe  Fe12  1  0.00304408  0.49943216  0.00015489  1
  Fe  Fe13  1  0.49825145  0.25063885  0.74800162  1
  Fe  Fe14  1  0.62630507  0.12351443  0.37850364  1
  Fe  Fe15  1  0.12374831  0.12473700  0.12651737  1
  Fe  Fe16  1  0.25191473  0.50087977  0.75026398  1
  Fe  Fe17  1  0.12631576  0.62719898  0.37311595  1
  Fe  Fe18  1  0.87453448  0.12583844  0.61959660  1
  Fe  Fe19  1  0.37243019  0.12021597  0.37662705  1
  Fe  Fe20  1  0.25204601  0.24803916  0.24996222  1
  Fe  Fe21  1  0.74875508  0.74785923  0.75317426  1
  Fe  Fe22  1  0.00182351  -0.00147597  0.49891660  1
  Fe  Fe23  1  0.12615652  0.62612772  0.87564416  1
  Fe  Fe24  1  0.74975239  0.24726510  0.25193574  1
  Fe  Fe25  1  0.00103970  0.50158734  0.24986887  1
  Fe  Fe26  1  0.37488919  0.37516635  0.37521154  1
  Fe  Fe27  1  0.12673522  0.11976825  0.37266138  1
  Fe  Fe28  1  0.87466521  0.12638764  0.87670705  1
  Fe  Fe29  1  0.87469904  0.87541960  0.37453302  1
  Fe  Fe30  1  0.49853998  -0.00087060  0.25035325  1
  Fe  Fe31  1  0.50169416  -0.00120638  -0.00495664  1
  Fe  Fe32  1  0.62187308  0.87405759  0.12364452  1
  Fe  Fe33  1  0.74820089  0.24968380  0.00086821  1
  Fe  Fe34  1  0.87491385  0.37491827  0.12416346  1
  Fe  Fe35  1  0.12605691  0.12616070  0.87271955  1
  Fe  Fe36  1  0.00056183  0.75064644  0.24910418  1
  Fe  Fe37  1  0.49829430  0.49838030  0.75002825  1
  Fe  Fe38  1  0.49988738  -0.00158676  0.50294785  1
  Fe  Fe39  1  0.87663191  0.62708235  0.12090543  1
  Fe  Fe40  1  0.75004512  0.00066187  0.24958650  1
  Fe  Fe41  1  0.75045999  0.49924503  0.74980695  1
  Fe  Fe42  1  0.62328791  0.37373984  0.62141568  1
  Fe  Fe43  1  0.25351652  0.00025850  0.74748409  1
  Fe  Fe44  1  0.74686724  0.00195352  -0.00030333  1
  Fe  Fe45  1  0.75019315  0.50239233  0.24718040  1
  Fe  Fe46  1  0.62375331  0.62594873  0.62706364  1
  Fe  Fe47  1  0.00182327  0.75076297  0.50010184  1
  Fe  Fe48  1  0.62468695  0.37708121  0.37614331  1
  Fe  Fe49  1  0.62340932  0.87435601  0.37404879  1
  Fe  Fe50  1  0.12687921  0.37532300  0.37364389  1
  Fe  Fe51  1  0.87586750  0.12482386  0.12526761  1
  Fe  Fe52  1  0.37603715  0.12558542  0.87470180  1
  Fe  Fe53  1  0.25030482  0.24912347  0.50096808  1
  Fe  Fe54  1  0.37644857  0.62305569  0.87950868  1
  Fe  Fe55  1  0.00234867  0.50091172  0.50011560  1
  Fe  Fe56  1  0.87406659  0.37563763  0.37662029  1
  Fe  Fe57  1  -0.00058812  0.50048969  0.75076913  1
  Fe  Fe58  1  0.87321309  0.87454340  0.87589529  1
  Fe  Fe59  1  0.61913433  0.62668531  0.12028385  1
  Fe  Fe60  1  0.87440970  0.87382839  0.12240798  1
  Fe  Fe61  1  0.87521093  0.62539039  0.62364682  1
  Fe  Fe62  1  0.49889559  0.25318839  0.00125177  1
  Fe  Fe63  1  -0.00061789  0.00125769  0.75110198  1
  Fe  Fe64  1  0.00094236  -0.00074281  -0.00097103  1
  Fe  Fe65  1  0.49688653  0.50120749  0.24772726  1
  Fe  Fe66  1  0.24993469  0.75237528  0.50017936  1
  Fe  Fe67  1  0.87719698  0.37327091  0.62199986  1
  Fe  Fe68  1  0.12442757  0.12700189  0.62691442  1
  Fe  Fe69  1  0.12895062  0.37684331  0.12724020  1
  Fe  Fe70  1  0.25089731  0.74988607  0.00216198  1
  Fe  Fe71  1  0.62350675  0.87544524  0.62922741  1
  Fe  Fe72  1  0.74798989  0.75094802  0.50115299  1
  Fe  Fe73  1  0.25498212  0.75368180  0.24799871  1
  Fe  Fe74  1  0.12657254  0.37212244  0.87126072  1
  Fe  Fe75  1  0.12351576  0.87542123  0.12658445  1
  Fe  Fe76  1  0.74754694  0.00434689  0.74912974  1
  Fe  Fe77  1  0.87400757  0.62470809  0.87867907  1
  Fe  Fe78  1  0.75111574  0.24962567  0.74870161  1
  Fe  Fe79  1  0.74752764  0.74892668  0.24779813  1
  Fe  Fe80  1  0.62557702  0.62405078  0.37529238  1
  Fe  Fe81  1  0.12807408  0.87541655  0.87330241  1
  Fe  Fe82  1  0.12607947  0.37351821  0.62756399  1
  Fe  Fe83  1  0.25052966  0.50111774  0.50026492  1
  Fe  Fe84  1  0.37724914  0.12426398  0.12468698  1
  Fe  Fe85  1  0.87450803  0.87490406  0.62653953  1
  Fe  Fe86  1  0.00072273  0.74892771  0.75165219  1
  Fe  Fe87  1  0.25020224  0.00114750  0.00298894  1
  Fe  Fe88  1  0.37488352  0.62741024  0.62576135  1
  Fe  Fe89  1  0.37751996  0.12507044  0.62394323  1
  Co  Co90  1  0.00341905  0.24900153  0.49771897  1
  Co  Co91  1  0.37576334  0.87205075  0.62520806  1
  Co  Co92  1  0.50032693  0.75341842  -0.00644239  1
  Co  Co93  1  0.62285700  0.12817103  0.87361206  1
  Co  Co94  1  0.25259253  0.50224860  0.25162432  1
  Co  Co95  1  0.25192909  0.74819474  0.75148812  1
  Co  Co96  1  0.25278251  -0.00293418  0.24459788  1
  Co  Co97  1  0.24899036  -0.00142171  0.50476619  1
  Co  Co98  1  0.37346515  0.37556438  0.62352271  1
  Co  Co99  1  0.00336331  0.75149525  -0.00111770  1
  Co  Co100  1  0.74825133  -0.00391025  0.50114077  1
  Co  Co101  1  0.62309293  0.62018831  0.87610590  1
  Co  Co102  1  0.74825118  0.25111978  0.49813319  1
  Co  Co103  1  0.37478012  0.87751188  0.37725607  1
  Co  Co104  1  0.37189746  0.37509844  0.12782599  1
  Co  Co105  1  0.49795915  0.74964490  0.25104822  1
  Co  Co106  1  0.37504161  0.37411440  0.87342083  1
  Co  Co107  1  0.49813970  0.24973121  0.49814460  1
  Co  Co108  1  0.12622977  0.62529500  0.62537831  1
  Co  Co109  1  0.87385997  0.37548892  0.87732199  1
  Co  Co110  1  -0.00380307  0.24876595  0.75050836  1
  Co  Co111  1  0.87426812  0.12277965  0.37744814  1
  Co  Co112  1  0.12704760  0.87694893  0.37289964  1
  Co  Co113  1  0.49821014  0.49431211  0.00168700  1
  Co  Co114  1  0.38093623  0.87529052  0.12219220  1
  Co  Co115  1  -0.00190645  -0.00039133  0.24927445  1
  Co  Co116  1  0.74877973  0.50047747  0.50219588  1
  Co  Co117  1  0.49803059  -0.00133902  0.75159576  1
  Co  Co118  1  0.74555934  0.74936389  -0.00145887  1
  Co  Co119  1  0.12765592  0.62429597  0.12677169  1
  Co  Co120  1  0.62257102  0.12477310  0.12524218  1
  Co  Co121  1  0.36942303  0.87750931  0.87661455  1
  Co  Co122  1  0.62860622  0.87772113  0.87305828  1
  Co  Co123  1  0.74844775  0.50046257  0.00188021  1
  Co  Co124  1  0.37607769  0.62485809  0.12182682  1
  Co  Co125  1  0.25002912  0.49752920  -0.00187967  1
  Co  Co126  1  0.62337491  0.12582249  0.62358951  1
  Co  Co127  1  0.25424118  0.24828869  0.74881550  1
