# generated using pymatgen
data_Fe45Co19
_symmetry_space_group_name_H-M   'P 1'
_cell_length_a   11.41601945
_cell_length_b   11.41531561
_cell_length_c   11.41537854
_cell_angle_alpha   90.00453327
_cell_angle_beta   89.99765548
_cell_angle_gamma   90.00763834
_symmetry_Int_Tables_number   1
_chemical_formula_structural   Fe45Co19
_chemical_formula_sum   'Fe90 Co38'
_cell_volume   1487.62317483
_cell_formula_units_Z   2
loop_
 _symmetry_equiv_pos_site_id
 _symmetry_equiv_pos_as_xyz
  1  'x, y, z'
loop_
 _atom_site_type_symbol
 _atom_site_label
 _atom_site_symmetry_multiplicity
 _atom_site_fract_x
 _atom_site_fract_y
 _atom_site_fract_z
 _atom_site_occupancy
  Fe  Fe0  1  0.75152161  -0.00146586  0.75357320  1
  Fe  Fe1  1  -0.00036277  0.00590935  0.75331491  1
  Fe  Fe2  1  0.87334658  0.12597236  0.37681493  1
  Fe  Fe3  1  0.49825695  0.50286887  0.24950333  1
  Fe  Fe4  1  0.74803226  0.25124031  0.50064296  1
  Fe  Fe5  1  0.37438303  0.12456354  0.62519934  1
  Fe  Fe6  1  0.62440834  0.87506580  0.62671267  1
  Fe  Fe7  1  0.75127193  0.00010829  0.24970923  1
  Fe  Fe8  1  0.50438220  0.74438137  0.49980406  1
  Fe  Fe9  1  0.62336257  0.38002924  0.87925543  1
  Fe  Fe10  1  0.24570715  0.75291856  0.49683908  1
  Fe  Fe11  1  0.50087286  0.74733673  0.00085864  1
  Fe  Fe12  1  0.74852168  0.75093071  0.75250804  1
  Fe  Fe13  1  0.12683359  0.12205898  0.37276365  1
  Fe  Fe14  1  0.12199142  0.87690666  0.62314003  1
  Fe  Fe15  1  0.74898967  0.75071678  0.49922903  1
  Fe  Fe16  1  0.36995670  0.62829570  0.12705791  1
  Fe  Fe17  1  0.37336717  0.37387665  0.12805421  1
  Fe  Fe18  1  0.25063142  -0.00325975  0.49854288  1
  Fe  Fe19  1  0.62620874  0.12313520  0.87730557  1
  Fe  Fe20  1  0.75205034  0.49963486  0.75255015  1
  Fe  Fe21  1  0.24804563  0.50161172  0.00138947  1
  Fe  Fe22  1  0.87782596  0.62617935  0.87653605  1
  Fe  Fe23  1  0.49986308  0.24803020  0.24811374  1
  Fe  Fe24  1  0.87390496  0.62531714  0.37400541  1
  Fe  Fe25  1  0.00345711  0.24751129  0.50215096  1
  Fe  Fe26  1  0.24991293  0.50538231  0.75032564  1
  Fe  Fe27  1  0.37357539  0.62850696  0.37331294  1
  Fe  Fe28  1  0.49976801  0.74549311  0.75029584  1
  Fe  Fe29  1  -0.00026429  0.49971332  0.24922481  1
  Fe  Fe30  1  0.37476137  0.37793068  0.87477704  1
  Fe  Fe31  1  0.87282952  0.12466697  0.62407681  1
  Fe  Fe32  1  0.87416967  0.62617393  0.62391570  1
  Fe  Fe33  1  0.62539510  0.12458509  0.37353323  1
  Fe  Fe34  1  0.87657508  0.87612684  0.37566668  1
  Fe  Fe35  1  0.75292391  0.49626181  0.24622302  1
  Fe  Fe36  1  -0.00293925  0.00168647  0.24832303  1
  Fe  Fe37  1  0.25037178  -0.00086325  0.75160166  1
  Fe  Fe38  1  0.87672027  0.37019866  0.87861177  1
  Fe  Fe39  1  0.00033692  0.75246029  0.00198761  1
  Fe  Fe40  1  0.37560587  0.12470552  0.37491479  1
  Fe  Fe41  1  0.75459744  -0.00475626  -0.00289881  1
  Fe  Fe42  1  0.24931614  0.50066216  0.49848708  1
  Fe  Fe43  1  0.74899120  0.49985596  0.49918106  1
  Fe  Fe44  1  0.62207011  0.87667266  0.37221504  1
  Fe  Fe45  1  0.00168919  0.50187852  0.50070750  1
  Fe  Fe46  1  0.37237449  0.12567468  0.87643417  1
  Fe  Fe47  1  0.37460728  0.37489380  0.37308776  1
  Fe  Fe48  1  0.00127738  0.75078715  0.25074869  1
  Fe  Fe49  1  0.12495237  0.62611813  0.37244964  1
  Fe  Fe50  1  0.12481928  0.37432358  0.13003942  1
  Fe  Fe51  1  0.62462813  0.12270997  0.12390092  1
  Fe  Fe52  1  0.37542464  0.37830853  0.62479204  1
  Fe  Fe53  1  0.37600606  0.87228889  0.62345926  1
  Fe  Fe54  1  0.37530932  0.87204705  0.87650886  1
  Fe  Fe55  1  0.49984743  0.25068876  0.50067773  1
  Fe  Fe56  1  0.12325669  0.87680207  0.87600764  1
  Fe  Fe57  1  0.24864224  0.74820515  0.75070306  1
  Fe  Fe58  1  0.24633241  0.74957871  -0.00012406  1
  Fe  Fe59  1  0.50130438  0.00071559  0.50013966  1
  Fe  Fe60  1  0.00058563  0.50046115  0.74862692  1
  Fe  Fe61  1  0.62571057  0.12437667  0.62588060  1
  Fe  Fe62  1  0.12766998  0.12206080  0.12375374  1
  Fe  Fe63  1  0.24901155  0.24979015  0.50039321  1
  Fe  Fe64  1  0.74895742  0.25102275  0.75216640  1
  Fe  Fe65  1  0.25810691  -0.00465750  0.24870026  1
  Fe  Fe66  1  0.87726883  0.37283368  0.37449424  1
  Fe  Fe67  1  0.87709030  0.87586808  0.62388702  1
  Fe  Fe68  1  0.49813097  -0.00027455  0.75135331  1
  Fe  Fe69  1  0.62383853  0.87622328  0.12507460  1
  Fe  Fe70  1  0.50045183  0.25135069  0.00043614  1
  Fe  Fe71  1  0.12486421  0.87709761  0.12613027  1
  Fe  Fe72  1  0.50046887  0.25103709  0.75191170  1
  Fe  Fe73  1  0.62418064  0.62120896  0.87710780  1
  Fe  Fe74  1  0.87554999  0.12784906  0.11973423  1
  Fe  Fe75  1  0.75152064  0.75211339  -0.00224718  1
  Fe  Fe76  1  0.75120623  0.25240986  0.24589800  1
  Fe  Fe77  1  0.24816558  0.25097521  0.00079201  1
  Fe  Fe78  1  0.87684858  0.37399782  0.62456594  1
  Fe  Fe79  1  0.62218985  0.37894250  0.62540880  1
  Fe  Fe80  1  0.49548704  -0.00083450  0.00139461  1
  Fe  Fe81  1  0.74872453  0.75072909  0.25015839  1
  Fe  Fe82  1  0.12459746  0.37430361  0.87142915  1
  Fe  Fe83  1  0.00179594  0.49954424  0.00127269  1
  Fe  Fe84  1  0.87614127  0.62605218  0.12483680  1
  Fe  Fe85  1  0.62380841  0.37609578  0.37292183  1
  Fe  Fe86  1  0.12484855  0.37296149  0.37286666  1
  Fe  Fe87  1  0.62740361  0.62190586  0.12429388  1
  Fe  Fe88  1  0.24841747  0.24877102  0.74860921  1
  Fe  Fe89  1  0.00202989  0.74774423  0.74802148  1
  Co  Co90  1  0.87411480  0.13040124  0.87963643  1
  Co  Co91  1  0.25313894  -0.00249377  0.00050055  1
  Co  Co92  1  0.24781656  0.75540450  0.25221653  1
  Co  Co93  1  0.62113746  0.87537078  0.87616505  1
  Co  Co94  1  0.37638655  0.86869843  0.12333615  1
  Co  Co95  1  0.37394055  0.62583534  0.87734511  1
  Co  Co96  1  0.12601605  0.62516426  0.62338437  1
  Co  Co97  1  0.12450677  0.62630044  0.12738002  1
  Co  Co98  1  -0.00006693  0.24687487  0.24954830  1
  Co  Co99  1  0.24948645  0.50121587  0.25047859  1
  Co  Co100  1  0.49540119  0.00056109  0.24759980  1
  Co  Co101  1  0.12227597  0.62526832  0.87609397  1
  Co  Co102  1  -0.00030452  0.00289637  0.49964586  1
  Co  Co103  1  0.50262566  0.74722376  0.24835341  1
  Co  Co104  1  0.12095319  0.87930525  0.37211918  1
  Co  Co105  1  0.37195344  0.62622757  0.62219911  1
  Co  Co106  1  0.49398626  0.50114472  0.00335980  1
  Co  Co107  1  0.12790592  0.12306737  0.62526991  1
  Co  Co108  1  0.25007750  0.24722447  0.25061394  1
  Co  Co109  1  0.62808238  0.62183037  0.62696566  1
  Co  Co110  1  0.62853173  0.62166412  0.37177234  1
  Co  Co111  1  0.87456411  0.87309589  0.12768739  1
  Co  Co112  1  0.00665989  0.25037514  0.00069633  1
  Co  Co113  1  0.87963259  0.87254735  0.87187563  1
  Co  Co114  1  0.49728786  0.50317075  0.75015054  1
  Co  Co115  1  0.37387451  0.12826682  0.12285275  1
  Co  Co116  1  0.12690772  0.12422819  0.87805536  1
  Co  Co117  1  0.74830541  -0.00251546  0.49958370  1
  Co  Co118  1  0.62207252  0.37842501  0.12455026  1
  Co  Co119  1  0.74544478  0.25342112  0.00292195  1
  Co  Co120  1  -0.00245262  -0.00172534  -0.00102034  1
  Co  Co121  1  0.00040656  0.74925691  0.49766346  1
  Co  Co122  1  0.75471200  0.49961773  0.00130918  1
  Co  Co123  1  0.38128684  0.87120740  0.37641400  1
  Co  Co124  1  0.49954765  0.50289636  0.49746174  1
  Co  Co125  1  0.12669597  0.37662057  0.62620950  1
  Co  Co126  1  0.00063646  0.24727645  0.74809266  1
  Co  Co127  1  0.87936189  0.37233222  0.12275703  1
