# generated using pymatgen
data_Fe45Co19
_symmetry_space_group_name_H-M   'P 1'
_cell_length_a   11.41596462
_cell_length_b   11.41540564
_cell_length_c   11.41509848
_cell_angle_alpha   90.00730065
_cell_angle_beta   89.99246008
_cell_angle_gamma   89.99904542
_symmetry_Int_Tables_number   1
_chemical_formula_structural   Fe45Co19
_chemical_formula_sum   'Fe90 Co38'
_cell_volume   1487.59125901
_cell_formula_units_Z   2
loop_
 _symmetry_equiv_pos_site_id
 _symmetry_equiv_pos_as_xyz
  1  'x, y, z'
loop_
 _atom_site_type_symbol
 _atom_site_label
 _atom_site_symmetry_multiplicity
 _atom_site_fract_x
 _atom_site_fract_y
 _atom_site_fract_z
 _atom_site_occupancy
  Fe  Fe0  1  0.12656238  0.87330466  0.87778293  1
  Fe  Fe1  1  -0.00073790  0.50077759  0.50176448  1
  Fe  Fe2  1  0.50070681  0.75100396  0.49944492  1
  Fe  Fe3  1  0.74763490  0.50013316  0.25319850  1
  Fe  Fe4  1  0.50206864  0.49770145  0.49808561  1
  Fe  Fe5  1  0.62215726  0.62504197  0.12946151  1
  Fe  Fe6  1  0.62613611  0.87735649  0.87949162  1
  Fe  Fe7  1  0.12560525  0.37522350  0.12268866  1
  Fe  Fe8  1  0.24987543  0.50039374  0.75056431  1
  Fe  Fe9  1  0.87403065  0.37741873  0.62771404  1
  Fe  Fe10  1  0.37887168  0.12783759  0.37094002  1
  Fe  Fe11  1  0.25446602  0.00393799  0.00050009  1
  Fe  Fe12  1  0.37433538  0.12288055  0.62884228  1
  Fe  Fe13  1  0.12489852  0.62581588  0.62452382  1
  Fe  Fe14  1  0.37179003  0.87268308  0.87552426  1
  Fe  Fe15  1  0.62636511  0.62919885  0.62716853  1
  Fe  Fe16  1  0.12262903  0.62589062  0.87364024  1
  Fe  Fe17  1  0.37554927  0.37465169  0.87491408  1
  Fe  Fe18  1  0.37741713  0.62465626  0.12773712  1
  Fe  Fe19  1  -0.00235373  0.75002961  0.74752660  1
  Fe  Fe20  1  0.37760206  0.62619553  0.62617337  1
  Fe  Fe21  1  0.25008641  0.00267534  0.24945563  1
  Fe  Fe22  1  0.12449333  0.62451709  0.12660086  1
  Fe  Fe23  1  0.12843762  0.87488068  0.12376372  1
  Fe  Fe24  1  0.74896379  0.24656482  0.50170425  1
  Fe  Fe25  1  0.00233392  -0.00230711  0.74909353  1
  Fe  Fe26  1  0.37316982  0.87483339  0.37603035  1
  Fe  Fe27  1  0.38067200  0.62349650  0.37184734  1
  Fe  Fe28  1  0.00081428  0.25122215  0.24823304  1
  Fe  Fe29  1  0.12361883  0.12490730  0.87527280  1
  Fe  Fe30  1  0.49862058  0.75322312  0.00332605  1
  Fe  Fe31  1  0.74805469  0.74954362  0.25196130  1
  Fe  Fe32  1  -0.00146413  0.49815881  0.25012119  1
  Fe  Fe33  1  0.87311131  0.87367505  0.12617969  1
  Fe  Fe34  1  0.24901447  0.25042244  0.24829780  1
  Fe  Fe35  1  0.49895861  -0.00146187  0.75286748  1
  Fe  Fe36  1  0.00076400  0.25021235  0.50248351  1
  Fe  Fe37  1  0.75226470  0.74705126  -0.00041106  1
  Fe  Fe38  1  0.62149555  0.12724940  0.37452474  1
  Fe  Fe39  1  0.87616233  0.12479001  0.37540889  1
  Fe  Fe40  1  0.25140330  0.74878183  0.75018883  1
  Fe  Fe41  1  0.25080775  0.24667807  0.50124243  1
  Fe  Fe42  1  0.87502188  0.87493177  0.87661026  1
  Fe  Fe43  1  0.49991923  -0.00536503  0.24434959  1
  Fe  Fe44  1  0.87549632  0.62740171  0.37757812  1
  Fe  Fe45  1  0.13073482  0.87537049  0.62017900  1
  Fe  Fe46  1  0.87721672  0.12674624  0.12319183  1
  Fe  Fe47  1  0.12296168  0.12441172  0.37549440  1
  Fe  Fe48  1  0.25177516  0.49832023  0.25055679  1
  Fe  Fe49  1  0.49935078  0.00223136  0.50016229  1
  Fe  Fe50  1  0.74904654  0.00230957  0.24793967  1
  Fe  Fe51  1  0.25159240  0.50210244  0.49976556  1
  Fe  Fe52  1  0.00226920  0.75095667  0.25221247  1
  Fe  Fe53  1  0.87225040  0.87237583  0.62178293  1
  Fe  Fe54  1  0.75039608  0.50352413  -0.00156313  1
  Fe  Fe55  1  0.74806150  0.00168736  0.49897465  1
  Fe  Fe56  1  0.37816104  0.62592656  0.87454112  1
  Fe  Fe57  1  0.50307733  0.24883446  0.75185864  1
  Fe  Fe58  1  0.74690136  0.24741144  0.75255233  1
  Fe  Fe59  1  0.37504588  0.37478431  0.62475807  1
  Fe  Fe60  1  0.87571621  0.12332331  0.62712865  1
  Fe  Fe61  1  0.75012362  0.00104358  0.75282615  1
  Fe  Fe62  1  0.74760840  0.50208985  0.49981978  1
  Fe  Fe63  1  0.00287154  0.25183940  0.74893286  1
  Fe  Fe64  1  0.24757741  0.25027592  0.74889993  1
  Fe  Fe65  1  0.62032314  0.12318872  0.11897142  1
  Fe  Fe66  1  0.62553688  0.87512306  0.62612894  1
  Fe  Fe67  1  0.87450113  0.87537983  0.37510507  1
  Fe  Fe68  1  0.24863542  0.74856258  0.25378511  1
  Fe  Fe69  1  -0.00219441  0.50103402  0.00046499  1
  Fe  Fe70  1  0.62354465  0.62665759  0.87310964  1
  Fe  Fe71  1  0.00094984  -0.00009947  0.24843216  1
  Fe  Fe72  1  0.50140002  0.25979950  0.24576083  1
  Fe  Fe73  1  0.87195204  0.37518501  0.12439877  1
  Fe  Fe74  1  0.74837867  0.24797203  0.24898866  1
  Fe  Fe75  1  0.12654690  0.37582439  0.37726737  1
  Fe  Fe76  1  0.37214198  0.87549721  0.62379393  1
  Fe  Fe77  1  0.50187991  0.49882622  0.74987288  1
  Fe  Fe78  1  0.74987730  0.24720878  -0.00459091  1
  Fe  Fe79  1  0.87465845  0.37832464  0.87218316  1
  Fe  Fe80  1  -0.00151324  0.00137357  0.00126804  1
  Fe  Fe81  1  0.50079433  0.49655991  0.00226353  1
  Fe  Fe82  1  0.62492823  0.87518091  0.37418381  1
  Fe  Fe83  1  0.00085211  -0.00132738  0.50039529  1
  Fe  Fe84  1  0.87276180  0.37285865  0.37543889  1
  Fe  Fe85  1  0.25261678  0.24693579  0.00134033  1
  Fe  Fe86  1  0.62497616  0.37293061  0.62442705  1
  Fe  Fe87  1  0.25030180  0.50372111  -0.00156930  1
  Fe  Fe88  1  -0.00199345  0.74678252  0.00172041  1
  Fe  Fe89  1  0.12510439  0.37589091  0.87633211  1
  Co  Co90  1  0.87535439  0.62236761  0.86974118  1
  Co  Co91  1  0.36692888  0.87133642  0.12559256  1
  Co  Co92  1  0.87875782  0.12475490  0.87140024  1
  Co  Co93  1  0.37334222  0.37354177  0.37852676  1
  Co  Co94  1  0.12364070  0.12480959  0.12287340  1
  Co  Co95  1  0.24873463  -0.00132518  0.75385230  1
  Co  Co96  1  0.12753763  0.87781955  0.37699384  1
  Co  Co97  1  0.38018918  0.12756141  0.12755673  1
  Co  Co98  1  0.87439310  0.62507650  0.12912211  1
  Co  Co99  1  0.63002887  0.87528772  0.12186243  1
  Co  Co100  1  0.49881643  0.24822885  0.50304624  1
  Co  Co101  1  0.25205221  0.74558668  0.49719156  1
  Co  Co102  1  0.49946731  0.25452215  0.00018418  1
  Co  Co103  1  0.37052299  0.37634051  0.12126320  1
  Co  Co104  1  0.25314279  0.00549006  0.49683672  1
  Co  Co105  1  0.25062745  0.74510172  -0.00092373  1
  Co  Co106  1  -0.00204104  0.25228074  -0.00096810  1
  Co  Co107  1  0.37696150  0.12694702  0.87297308  1
  Co  Co108  1  0.50084736  0.49056955  0.24938760  1
  Co  Co109  1  0.74644900  0.75042124  0.49784036  1
  Co  Co110  1  0.12700966  0.37767263  0.62238877  1
  Co  Co111  1  0.62466943  0.12232801  0.62663748  1
  Co  Co112  1  0.12544894  0.12172551  0.62513703  1
  Co  Co113  1  0.49225168  -0.00550582  0.00236683  1
  Co  Co114  1  0.75531919  0.00309797  0.00067118  1
  Co  Co115  1  0.63146119  0.37603454  0.12159526  1
  Co  Co116  1  0.49957254  0.75363453  0.75099670  1
  Co  Co117  1  0.62046635  0.12000963  0.88009883  1
  Co  Co118  1  0.87249945  0.62655451  0.62448484  1
  Co  Co119  1  0.49980764  0.75615117  0.24822069  1
  Co  Co120  1  0.74584335  0.50089348  0.74894603  1
  Co  Co121  1  0.75156747  0.75212308  0.75308679  1
  Co  Co122  1  0.12368004  0.62148493  0.37451242  1
  Co  Co123  1  0.00275766  0.50054309  0.74806543  1
  Co  Co124  1  0.62488650  0.37650117  0.87544745  1
  Co  Co125  1  0.61999240  0.62547421  0.37144885  1
  Co  Co126  1  0.62707722  0.37107356  0.37843774  1
  Co  Co127  1  0.00240634  0.75031376  0.49920155  1
