# generated using pymatgen
data_Fe45Co19
_symmetry_space_group_name_H-M   'P 1'
_cell_length_a   11.41503123
_cell_length_b   11.41448448
_cell_length_c   11.41457569
_cell_angle_alpha   90.00811852
_cell_angle_beta   90.00760617
_cell_angle_gamma   90.00393656
_symmetry_Int_Tables_number   1
_chemical_formula_structural   Fe45Co19
_chemical_formula_sum   'Fe90 Co38'
_cell_volume   1487.28147687
_cell_formula_units_Z   2
loop_
 _symmetry_equiv_pos_site_id
 _symmetry_equiv_pos_as_xyz
  1  'x, y, z'
loop_
 _atom_site_type_symbol
 _atom_site_label
 _atom_site_symmetry_multiplicity
 _atom_site_fract_x
 _atom_site_fract_y
 _atom_site_fract_z
 _atom_site_occupancy
  Fe  Fe0  1  0.49944602  0.75122874  0.49937750  1
  Fe  Fe1  1  0.24694583  0.75109630  0.00162441  1
  Fe  Fe2  1  0.62280653  0.12463586  0.87598749  1
  Fe  Fe3  1  0.37498239  0.62602073  0.12440077  1
  Fe  Fe4  1  0.62612326  0.62491840  0.12546849  1
  Fe  Fe5  1  0.87606994  0.62563959  0.62260760  1
  Fe  Fe6  1  0.00073760  0.24986704  0.00003536  1
  Fe  Fe7  1  0.87731069  0.12444554  0.87671447  1
  Fe  Fe8  1  0.37312066  0.62472076  0.62399008  1
  Fe  Fe9  1  0.37178019  0.87279333  0.37121859  1
  Fe  Fe10  1  0.49935373  0.74904609  0.74902565  1
  Fe  Fe11  1  0.74902056  0.74905912  0.75121377  1
  Fe  Fe12  1  0.37578005  0.87556322  0.87632841  1
  Fe  Fe13  1  0.12610354  0.12555361  0.62545683  1
  Fe  Fe14  1  0.75092521  -0.00044405  0.74991011  1
  Fe  Fe15  1  0.75199692  0.50109398  0.75144158  1
  Fe  Fe16  1  0.49879228  0.75070201  0.24900437  1
  Fe  Fe17  1  0.62520629  0.62433809  0.37447296  1
  Fe  Fe18  1  0.37595040  0.62465365  0.87679715  1
  Fe  Fe19  1  0.49924504  0.49776881  0.49981288  1
  Fe  Fe20  1  -0.00164114  0.49677389  0.49981175  1
  Fe  Fe21  1  0.12614239  0.12163399  0.12473118  1
  Fe  Fe22  1  0.75218835  0.00361644  0.25156648  1
  Fe  Fe23  1  0.62664551  0.37561450  0.62627727  1
  Fe  Fe24  1  0.49981386  0.49805760  0.24748202  1
  Fe  Fe25  1  0.87703120  0.12661683  0.62379110  1
  Fe  Fe26  1  0.62674190  0.12637245  0.12372625  1
  Fe  Fe27  1  0.37267827  0.37500964  0.62384787  1
  Fe  Fe28  1  0.87371916  0.87351381  0.12368919  1
  Fe  Fe29  1  0.49966603  0.00053672  0.74760398  1
  Fe  Fe30  1  0.62470394  0.12551223  0.62317970  1
  Fe  Fe31  1  0.25039254  0.00245476  0.75310902  1
  Fe  Fe32  1  0.87518733  0.87215829  0.87817190  1
  Fe  Fe33  1  0.12660385  0.37425429  0.12508886  1
  Fe  Fe34  1  0.12331803  0.62397645  0.37542566  1
  Fe  Fe35  1  -0.00131005  0.75090662  0.25105929  1
  Fe  Fe36  1  0.87675644  0.37494142  0.87533432  1
  Fe  Fe37  1  0.49853332  0.25100324  0.74929224  1
  Fe  Fe38  1  0.00091168  0.24869193  0.24921686  1
  Fe  Fe39  1  0.50004154  -0.00258829  0.00291343  1
  Fe  Fe40  1  0.62496225  0.87474664  0.62524692  1
  Fe  Fe41  1  0.87745942  0.12611715  0.37728978  1
  Fe  Fe42  1  0.75293333  0.74695007  0.25049154  1
  Fe  Fe43  1  0.12560382  0.62546780  0.62507164  1
  Fe  Fe44  1  0.24930461  0.50026583  0.75177515  1
  Fe  Fe45  1  0.25029748  0.49885692  0.25234196  1
  Fe  Fe46  1  0.49784834  0.00188995  0.24934162  1
  Fe  Fe47  1  0.75122076  0.25078411  0.49870958  1
  Fe  Fe48  1  0.37221227  0.37217711  0.12590215  1
  Fe  Fe49  1  0.12333151  0.12473928  0.37282478  1
  Fe  Fe50  1  0.37428411  0.62346932  0.37588919  1
  Fe  Fe51  1  0.87215085  0.37407685  0.12724599  1
  Fe  Fe52  1  0.12528132  0.87643125  0.87442798  1
  Fe  Fe53  1  0.62613519  0.87710612  0.37214063  1
  Fe  Fe54  1  -0.00072153  -0.00074419  0.74989952  1
  Fe  Fe55  1  0.49870549  -0.00064279  0.49885209  1
  Fe  Fe56  1  0.62345466  0.37072981  0.37149610  1
  Fe  Fe57  1  -0.00327937  0.50046620  0.24967415  1
  Fe  Fe58  1  0.62225835  0.37619733  0.87725974  1
  Fe  Fe59  1  0.00146590  0.25081129  0.74980840  1
  Fe  Fe60  1  0.50270408  0.75380906  0.00289440  1
  Fe  Fe61  1  0.12974374  0.88025662  0.13131147  1
  Fe  Fe62  1  0.00307444  -0.00466463  0.49822943  1
  Fe  Fe63  1  0.12356609  0.62367463  0.12560715  1
  Fe  Fe64  1  0.87816980  0.62899536  0.88036710  1
  Fe  Fe65  1  0.75221735  0.49710939  0.49705536  1
  Fe  Fe66  1  0.37236674  0.12755385  0.62460996  1
  Fe  Fe67  1  0.24595355  0.75135408  0.49936677  1
  Fe  Fe68  1  0.74905589  -0.00230339  -0.00127467  1
  Fe  Fe69  1  0.00252689  0.75021359  0.74951092  1
  Fe  Fe70  1  0.24871754  0.50144918  -0.00044793  1
  Fe  Fe71  1  0.62460189  0.62347350  0.62403193  1
  Fe  Fe72  1  0.00090885  0.50001031  0.00070582  1
  Fe  Fe73  1  0.87635066  0.87346764  0.62316209  1
  Fe  Fe74  1  0.74991623  0.00007624  0.49961173  1
  Fe  Fe75  1  0.37811056  0.13125074  0.37531746  1
  Fe  Fe76  1  0.24834338  0.24653201  -0.00496046  1
  Fe  Fe77  1  0.37226150  0.12568397  0.12296759  1
  Fe  Fe78  1  0.37596329  0.37560011  0.87641670  1
  Fe  Fe79  1  0.87519223  0.12515303  0.12192958  1
  Fe  Fe80  1  0.24906534  -0.00091702  0.49651727  1
  Fe  Fe81  1  0.62188308  0.62327491  0.87630718  1
  Fe  Fe82  1  0.24791249  0.25388601  0.49540069  1
  Fe  Fe83  1  0.12550570  0.37422329  0.62544835  1
  Fe  Fe84  1  0.75064128  0.75044664  0.49882660  1
  Fe  Fe85  1  0.62803872  0.37214232  0.12486631  1
  Fe  Fe86  1  0.75082174  0.25018220  0.75199077  1
  Fe  Fe87  1  0.75088153  0.50124443  0.00126565  1
  Fe  Fe88  1  0.00051511  0.50016608  0.75101042  1
  Fe  Fe89  1  0.37174704  0.87493846  0.62549275  1
  Co  Co90  1  0.00137999  0.25138336  0.49979658  1
  Co  Co91  1  0.00088938  -0.00254685  0.00143671  1
  Co  Co92  1  0.75092818  0.24561604  0.25151159  1
  Co  Co93  1  0.75058707  0.50128898  0.25020464  1
  Co  Co94  1  0.49889374  0.24978803  0.00112486  1
  Co  Co95  1  0.00675568  0.75338538  0.00439573  1
  Co  Co96  1  0.00397995  0.75420436  0.49825679  1
  Co  Co97  1  0.24932830  0.49829431  0.49800196  1
  Co  Co98  1  0.62713962  0.87623494  0.13092330  1
  Co  Co99  1  -0.00380670  0.00037175  0.24996601  1
  Co  Co100  1  0.87658509  0.62439490  0.37774887  1
  Co  Co101  1  0.37748248  0.37396800  0.37212532  1
  Co  Co102  1  0.12739637  0.87679450  0.62786360  1
  Co  Co103  1  0.12805458  0.87619468  0.36822152  1
  Co  Co104  1  0.87335824  0.87527278  0.37546753  1
  Co  Co105  1  0.87641499  0.37288774  0.37155367  1
  Co  Co106  1  0.62277738  0.12535433  0.37671916  1
  Co  Co107  1  0.49980635  0.49867439  0.00500042  1
  Co  Co108  1  0.25469129  0.00537665  0.25314288  1
  Co  Co109  1  0.25036839  0.74920603  0.75180589  1
  Co  Co110  1  0.37067226  0.87495305  0.12661723  1
  Co  Co111  1  0.74484360  0.75067623  0.00007413  1
  Co  Co112  1  0.24991860  0.25005469  0.75347725  1
  Co  Co113  1  0.24786811  0.24991699  0.25167073  1
  Co  Co114  1  0.49817177  0.49981578  0.74752226  1
  Co  Co115  1  0.12432348  0.62467832  0.87574721  1
  Co  Co116  1  0.37882715  0.12367300  0.87476588  1
  Co  Co117  1  0.49981806  0.25217128  0.50327508  1
  Co  Co118  1  0.12435451  0.37538206  0.87643176  1
  Co  Co119  1  0.12182895  0.37660315  0.37242045  1
  Co  Co120  1  0.75119499  0.25023015  -0.00254507  1
  Co  Co121  1  0.24923602  0.00059224  -0.00300859  1
  Co  Co122  1  0.24886550  0.74471258  0.24944599  1
  Co  Co123  1  0.50039989  0.24825108  0.24505564  1
  Co  Co124  1  0.12081071  0.12427142  0.87437257  1
  Co  Co125  1  0.62363996  0.87686488  0.87222132  1
  Co  Co126  1  0.87508804  0.37408840  0.62617976  1
  Co  Co127  1  0.87564130  0.62698407  0.12157529  1
