# generated using pymatgen
data_Fe45Co19
_symmetry_space_group_name_H-M   'P 1'
_cell_length_a   11.41510631
_cell_length_b   11.41553468
_cell_length_c   11.41505852
_cell_angle_alpha   89.99681959
_cell_angle_beta   90.00119460
_cell_angle_gamma   90.01047174
_symmetry_Int_Tables_number   1
_chemical_formula_structural   Fe45Co19
_chemical_formula_sum   'Fe90 Co38'
_cell_volume   1487.49101980
_cell_formula_units_Z   2
loop_
 _symmetry_equiv_pos_site_id
 _symmetry_equiv_pos_as_xyz
  1  'x, y, z'
loop_
 _atom_site_type_symbol
 _atom_site_label
 _atom_site_symmetry_multiplicity
 _atom_site_fract_x
 _atom_site_fract_y
 _atom_site_fract_z
 _atom_site_occupancy
  Fe  Fe0  1  0.25111431  0.49598670  -0.00162747  1
  Fe  Fe1  1  0.24864375  0.49805118  0.49661619  1
  Fe  Fe2  1  0.24991283  0.75130427  0.00224617  1
  Fe  Fe3  1  0.74502327  -0.00367024  0.49895388  1
  Fe  Fe4  1  0.50090875  0.75130030  0.00389438  1
  Fe  Fe5  1  0.50275090  0.49909669  0.24806673  1
  Fe  Fe6  1  0.87405090  0.62480817  0.87615945  1
  Fe  Fe7  1  0.12345069  0.37342552  0.37410469  1
  Fe  Fe8  1  0.12551638  0.12597615  0.37679457  1
  Fe  Fe9  1  0.25165359  0.24916144  0.24918040  1
  Fe  Fe10  1  0.87388885  0.12376998  0.62375473  1
  Fe  Fe11  1  0.49950956  0.74891356  0.74842423  1
  Fe  Fe12  1  0.74963904  0.75081355  0.00365625  1
  Fe  Fe13  1  0.00113686  0.75121740  0.00061193  1
  Fe  Fe14  1  0.12264010  0.87949790  0.12693067  1
  Fe  Fe15  1  0.87433086  0.62381087  0.12491028  1
  Fe  Fe16  1  0.12659573  0.62733072  0.37324363  1
  Fe  Fe17  1  -0.00186021  0.24616417  0.24851677  1
  Fe  Fe18  1  0.37499210  0.87692740  0.62538689  1
  Fe  Fe19  1  0.00081244  0.50024739  0.25091316  1
  Fe  Fe20  1  0.87593736  0.87400214  0.37629052  1
  Fe  Fe21  1  0.37757383  0.37384522  0.37517900  1
  Fe  Fe22  1  0.12602137  0.62553798  0.87469151  1
  Fe  Fe23  1  0.75065372  0.00070433  -0.00110663  1
  Fe  Fe24  1  0.37658698  0.12717256  0.87586779  1
  Fe  Fe25  1  0.37854764  0.87246135  0.37600417  1
  Fe  Fe26  1  0.62807562  0.37412576  0.87543599  1
  Fe  Fe27  1  0.87456899  0.62573134  0.37637885  1
  Fe  Fe28  1  0.24915140  -0.00010974  0.25359411  1
  Fe  Fe29  1  0.87380440  0.62186418  0.62331127  1
  Fe  Fe30  1  -0.00084101  0.49796113  -0.00130478  1
  Fe  Fe31  1  0.87736880  0.87991649  0.12568958  1
  Fe  Fe32  1  0.75285303  0.24725592  -0.00062124  1
  Fe  Fe33  1  0.37784454  0.12677092  0.37808273  1
  Fe  Fe34  1  0.37528370  0.62518109  0.87620436  1
  Fe  Fe35  1  0.87308896  0.37498941  0.12502249  1
  Fe  Fe36  1  0.62429343  0.87496479  0.87453986  1
  Fe  Fe37  1  0.87533165  0.87518177  0.87402149  1
  Fe  Fe38  1  0.37478479  0.62775811  0.37173443  1
  Fe  Fe39  1  0.62698518  0.37884820  0.62335142  1
  Fe  Fe40  1  0.12739918  0.62389960  0.12673517  1
  Fe  Fe41  1  0.74668131  0.75103893  0.50351635  1
  Fe  Fe42  1  0.37279689  0.62241340  0.12679554  1
  Fe  Fe43  1  0.37696364  0.87984644  0.12448995  1
  Fe  Fe44  1  -0.00293842  0.25043619  0.74961340  1
  Fe  Fe45  1  0.25333843  0.24959704  0.00268651  1
  Fe  Fe46  1  0.62484945  0.12301235  0.12472599  1
  Fe  Fe47  1  0.37442925  0.62343537  0.62504179  1
  Fe  Fe48  1  0.00223972  -0.00015964  0.49966939  1
  Fe  Fe49  1  0.49850765  0.25019333  0.00266056  1
  Fe  Fe50  1  0.00125167  0.74996532  0.50237369  1
  Fe  Fe51  1  -0.00407702  0.24614687  0.00106307  1
  Fe  Fe52  1  0.50338836  -0.00058564  0.25262882  1
  Fe  Fe53  1  0.50177174  0.24981199  0.24901956  1
  Fe  Fe54  1  0.62403935  0.63226644  0.37100120  1
  Fe  Fe55  1  0.37498721  0.37501546  0.62363444  1
  Fe  Fe56  1  0.87299971  0.12404977  0.37612802  1
  Fe  Fe57  1  0.49803701  0.00163970  0.75070319  1
  Fe  Fe58  1  0.25096523  0.00237281  -0.00104530  1
  Fe  Fe59  1  0.12657479  0.87570555  0.87359308  1
  Fe  Fe60  1  0.12857110  0.87736935  0.62635571  1
  Fe  Fe61  1  0.74855609  0.24972482  0.25169111  1
  Fe  Fe62  1  -0.00098852  0.75035616  0.24920736  1
  Fe  Fe63  1  0.62410491  0.12317466  0.62264649  1
  Fe  Fe64  1  0.37342970  0.12464103  0.61978069  1
  Fe  Fe65  1  0.00022617  0.00121139  0.74974910  1
  Fe  Fe66  1  0.87149153  0.37851625  0.62252746  1
  Fe  Fe67  1  0.87433073  0.37679233  0.37634597  1
  Fe  Fe68  1  -0.00158762  0.49762086  0.75196089  1
  Fe  Fe69  1  0.74751572  -0.00223252  0.25317333  1
  Fe  Fe70  1  0.12585581  0.37337161  0.12485810  1
  Fe  Fe71  1  0.50132495  0.49964930  0.75130240  1
  Fe  Fe72  1  0.25058543  0.75160721  0.49996144  1
  Fe  Fe73  1  0.50135104  0.49748086  0.00196996  1
  Fe  Fe74  1  0.37430918  0.87436150  0.87445472  1
  Fe  Fe75  1  0.74983777  -0.00035434  0.74836228  1
  Fe  Fe76  1  0.74768636  0.49972422  0.25019578  1
  Fe  Fe77  1  0.12648537  0.62339517  0.62586583  1
  Fe  Fe78  1  0.74700356  0.25103038  0.49926391  1
  Fe  Fe79  1  0.62547390  0.12565077  0.87397799  1
  Fe  Fe80  1  -0.00016749  0.75027208  0.74872134  1
  Fe  Fe81  1  0.25017947  0.24898431  0.74948661  1
  Fe  Fe82  1  0.12537047  0.37433409  0.62504226  1
  Fe  Fe83  1  0.50159704  0.25035407  0.74723813  1
  Fe  Fe84  1  -0.00034516  0.25048291  0.50073378  1
  Fe  Fe85  1  0.25041334  0.49815217  0.75337163  1
  Fe  Fe86  1  0.74942367  0.74981080  0.74736707  1
  Fe  Fe87  1  0.12395045  0.12616044  0.87576752  1
  Fe  Fe88  1  0.50247433  0.50254317  0.49788653  1
  Fe  Fe89  1  0.62581567  0.62518071  0.87655582  1
  Co  Co90  1  0.87563920  0.87614067  0.62435771  1
  Co  Co91  1  0.49750563  0.75170072  0.24309813  1
  Co  Co92  1  0.12424878  0.37107861  0.87687770  1
  Co  Co93  1  0.75321089  0.75260948  0.24618588  1
  Co  Co94  1  0.12578810  0.12362222  0.12537282  1
  Co  Co95  1  0.62120398  0.87589072  0.62736462  1
  Co  Co96  1  0.49962697  0.74887425  0.50396545  1
  Co  Co97  1  0.25210435  0.00420001  0.75157998  1
  Co  Co98  1  0.00020859  0.00331214  0.25355872  1
  Co  Co99  1  0.00265535  0.49980174  0.49867211  1
  Co  Co100  1  0.24874324  0.49702208  0.25278734  1
  Co  Co101  1  0.75048548  0.50147834  0.75225122  1
  Co  Co102  1  0.62318860  0.37434587  0.37495606  1
  Co  Co103  1  0.12197211  0.87284800  0.37433332  1
  Co  Co104  1  0.62505890  0.62368413  0.62621018  1
  Co  Co105  1  0.62279685  0.86776256  0.37423220  1
  Co  Co106  1  0.74573949  0.50247200  0.49507277  1
  Co  Co107  1  0.37681056  0.37294280  0.87337944  1
  Co  Co108  1  0.74962929  0.50113083  0.00137506  1
  Co  Co109  1  0.87192156  0.37454039  0.87563163  1
  Co  Co110  1  0.50051937  0.00074320  -0.00305161  1
  Co  Co111  1  0.62375470  0.12621731  0.37643389  1
  Co  Co112  1  0.74974509  0.24959487  0.74728846  1
  Co  Co113  1  0.37496429  0.37618259  0.12776526  1
  Co  Co114  1  0.62491050  0.87756915  0.12447796  1
  Co  Co115  1  0.37706272  0.12193626  0.12712777  1
  Co  Co116  1  0.62696917  0.37237292  0.12357853  1
  Co  Co117  1  0.50160410  -0.00148953  0.49824958  1
  Co  Co118  1  0.87450997  0.12355983  0.87084878  1
  Co  Co119  1  0.62558927  0.62612761  0.12678609  1
  Co  Co120  1  0.25166450  0.74868733  0.74974455  1
  Co  Co121  1  0.87235474  0.12151844  0.12824221  1
  Co  Co122  1  -0.00126005  0.00272652  -0.00213475  1
  Co  Co123  1  0.12544653  0.12498025  0.62391885  1
  Co  Co124  1  0.24965221  -0.00127825  0.49676622  1
  Co  Co125  1  0.50268812  0.25124485  0.50228142  1
  Co  Co126  1  0.25092825  0.75415506  0.24771845  1
  Co  Co127  1  0.24925340  0.25193095  0.49873593  1
