# generated using pymatgen
data_Fe45Co19
_symmetry_space_group_name_H-M   'P 1'
_cell_length_a   11.41580462
_cell_length_b   11.41453156
_cell_length_c   11.41529997
_cell_angle_alpha   89.99619716
_cell_angle_beta   89.99669364
_cell_angle_gamma   90.00008860
_symmetry_Int_Tables_number   1
_chemical_formula_structural   Fe45Co19
_chemical_formula_sum   'Fe90 Co38'
_cell_volume   1487.48278094
_cell_formula_units_Z   2
loop_
 _symmetry_equiv_pos_site_id
 _symmetry_equiv_pos_as_xyz
  1  'x, y, z'
loop_
 _atom_site_type_symbol
 _atom_site_label
 _atom_site_symmetry_multiplicity
 _atom_site_fract_x
 _atom_site_fract_y
 _atom_site_fract_z
 _atom_site_occupancy
  Fe  Fe0  1  0.74752126  0.75432938  0.25290212  1
  Fe  Fe1  1  0.50089017  0.75256192  0.74590932  1
  Fe  Fe2  1  0.12487973  0.62462063  0.62422609  1
  Fe  Fe3  1  0.37687041  0.37259357  0.37231273  1
  Fe  Fe4  1  0.37609851  0.62638982  0.12221433  1
  Fe  Fe5  1  -0.00212436  0.25079255  0.00436871  1
  Fe  Fe6  1  0.12465572  0.87439967  0.87524493  1
  Fe  Fe7  1  0.62234778  0.87834315  0.87376914  1
  Fe  Fe8  1  0.24932988  0.50060001  0.00072116  1
  Fe  Fe9  1  0.12486524  0.62688676  0.87755795  1
  Fe  Fe10  1  0.12368877  0.12701236  0.87386400  1
  Fe  Fe11  1  -0.00101378  0.75121829  0.00232284  1
  Fe  Fe12  1  0.12408858  0.87489822  0.37364056  1
  Fe  Fe13  1  0.62604983  0.62743988  0.37912924  1
  Fe  Fe14  1  0.75147107  0.75141959  0.75007712  1
  Fe  Fe15  1  0.24693720  -0.00172925  0.50041605  1
  Fe  Fe16  1  0.75077513  0.24682432  0.00351566  1
  Fe  Fe17  1  0.12283044  0.12547889  0.37422373  1
  Fe  Fe18  1  0.62136973  0.12465701  0.37482505  1
  Fe  Fe19  1  0.37488686  0.12403414  0.62356663  1
  Fe  Fe20  1  0.37638611  0.37392944  0.87527638  1
  Fe  Fe21  1  0.37682117  0.62807365  0.37782714  1
  Fe  Fe22  1  0.24896752  0.49959344  0.49872337  1
  Fe  Fe23  1  -0.00168563  0.00046695  0.25040264  1
  Fe  Fe24  1  0.50010949  -0.00357415  0.50185972  1
  Fe  Fe25  1  0.24875695  0.00026425  0.74812722  1
  Fe  Fe26  1  0.00081727  0.75096783  0.49998265  1
  Fe  Fe27  1  0.25048144  0.74815154  0.24942234  1
  Fe  Fe28  1  -0.00106543  0.49891156  0.74879988  1
  Fe  Fe29  1  0.62487367  0.37450451  0.87504389  1
  Fe  Fe30  1  0.74758691  0.75467706  -0.00107366  1
  Fe  Fe31  1  0.62453966  0.62612974  0.12369374  1
  Fe  Fe32  1  0.75234733  0.00099351  0.75230294  1
  Fe  Fe33  1  0.37382252  0.37437391  0.62476359  1
  Fe  Fe34  1  -0.00078705  0.49819147  0.50089968  1
  Fe  Fe35  1  0.87198286  0.37481021  0.37311808  1
  Fe  Fe36  1  0.62762035  0.37629695  0.12630928  1
  Fe  Fe37  1  0.50038707  0.50023152  0.74834123  1
  Fe  Fe38  1  0.37644506  0.87573579  0.87374921  1
  Fe  Fe39  1  0.87486485  0.62543647  0.87521188  1
  Fe  Fe40  1  0.37671676  0.12432451  0.87545961  1
  Fe  Fe41  1  0.74902069  0.50102482  -0.00038486  1
  Fe  Fe42  1  0.37427387  0.37306964  0.12803728  1
  Fe  Fe43  1  0.25188863  -0.00014598  0.00126664  1
  Fe  Fe44  1  0.62285865  0.12403382  0.87456988  1
  Fe  Fe45  1  0.50195598  0.24840031  0.00370863  1
  Fe  Fe46  1  0.87538734  0.87630797  0.62341608  1
  Fe  Fe47  1  0.00015300  0.49980550  0.00157065  1
  Fe  Fe48  1  0.75186135  0.24612867  0.24898311  1
  Fe  Fe49  1  0.24928705  0.24838882  0.00104978  1
  Fe  Fe50  1  -0.00109837  -0.00120282  -0.00003150  1
  Fe  Fe51  1  0.87163367  0.62484139  0.12547688  1
  Fe  Fe52  1  0.12596715  0.87500385  0.12622909  1
  Fe  Fe53  1  0.37727228  0.62636434  0.87734201  1
  Fe  Fe54  1  0.87344935  0.37414002  0.87712719  1
  Fe  Fe55  1  0.87010420  0.87944542  0.12622436  1
  Fe  Fe56  1  -0.00067484  0.00134404  0.74878085  1
  Fe  Fe57  1  0.37693755  0.12740623  0.37453439  1
  Fe  Fe58  1  0.25345645  0.00027030  0.25035483  1
  Fe  Fe59  1  0.75166041  0.49970239  0.74805985  1
  Fe  Fe60  1  0.87653489  0.12540970  0.87719981  1
  Fe  Fe61  1  0.37934105  0.87282532  0.12444866  1
  Fe  Fe62  1  0.12528002  0.37213087  0.87146216  1
  Fe  Fe63  1  0.24891761  0.25098445  0.49910533  1
  Fe  Fe64  1  0.75177047  0.24743617  0.74892646  1
  Fe  Fe65  1  0.62651747  0.11586512  0.12786528  1
  Fe  Fe66  1  0.62730160  0.12261312  0.62310593  1
  Fe  Fe67  1  0.24987792  0.50039758  0.75030208  1
  Fe  Fe68  1  -0.00259949  0.50101530  0.24853972  1
  Fe  Fe69  1  0.87180666  0.62568724  0.37724369  1
  Fe  Fe70  1  0.49948961  0.24807218  0.74735786  1
  Fe  Fe71  1  0.50159139  0.49908958  0.50048603  1
  Fe  Fe72  1  0.62956343  0.62630226  0.62270683  1
  Fe  Fe73  1  0.12507608  0.62450565  0.37276897  1
  Fe  Fe74  1  0.50170121  0.50170473  0.24984127  1
  Fe  Fe75  1  0.75098252  -0.00374812  0.49398223  1
  Fe  Fe76  1  0.37374089  0.62768421  0.62222271  1
  Fe  Fe77  1  0.62620135  0.37263531  0.62373816  1
  Fe  Fe78  1  0.87389823  0.37244026  0.62259122  1
  Fe  Fe79  1  0.12216916  0.12935319  0.62501821  1
  Fe  Fe80  1  0.12504782  0.12456328  0.12689932  1
  Fe  Fe81  1  0.12618475  0.37543295  0.12933966  1
  Fe  Fe82  1  0.87919581  0.12538478  0.37682501  1
  Fe  Fe83  1  -0.00103158  0.74953289  0.24805832  1
  Fe  Fe84  1  0.37699546  0.87088045  0.37821635  1
  Fe  Fe85  1  0.12535657  0.37490793  0.37185198  1
  Fe  Fe86  1  0.62373381  0.62373689  0.87416881  1
  Fe  Fe87  1  -0.00110509  0.74986540  0.74910587  1
  Fe  Fe88  1  0.62578547  0.37323124  0.37507552  1
  Fe  Fe89  1  0.24922165  0.75117151  0.74928648  1
  Co  Co90  1  0.49497019  -0.00004172  0.25160394  1
  Co  Co91  1  0.75051467  0.75608207  0.49758983  1
  Co  Co92  1  0.37477822  0.12729370  0.12655656  1
  Co  Co93  1  0.87715308  0.87466801  0.87435200  1
  Co  Co94  1  0.49847497  0.00003208  0.00112368  1
  Co  Co95  1  0.50341614  0.24871820  0.24711614  1
  Co  Co96  1  0.49934580  0.00026308  0.74694230  1
  Co  Co97  1  0.25336611  0.24788433  0.74964177  1
  Co  Co98  1  0.50367467  0.75255306  0.50528922  1
  Co  Co99  1  0.87169998  0.37786442  0.12603464  1
  Co  Co100  1  0.00209558  -0.00073988  0.50078598  1
  Co  Co101  1  0.50429257  0.75297930  -0.00097001  1
  Co  Co102  1  0.24506786  0.75073584  0.49904877  1
  Co  Co103  1  -0.00270073  0.25011288  0.24829956  1
  Co  Co104  1  0.62945490  0.87815657  0.62584244  1
  Co  Co105  1  0.12545259  0.62507204  0.12513197  1
  Co  Co106  1  0.37189059  0.87412431  0.62342755  1
  Co  Co107  1  0.74735031  0.50272012  0.25156927  1
  Co  Co108  1  0.74994679  0.49838395  0.50109721  1
  Co  Co109  1  0.75050647  0.24799272  0.49768240  1
  Co  Co110  1  0.24985049  0.75185603  0.00047162  1
  Co  Co111  1  0.87377531  0.12241863  0.62113604  1
  Co  Co112  1  0.00041100  0.25286865  0.49896895  1
  Co  Co113  1  0.88078972  0.87397763  0.37478101  1
  Co  Co114  1  0.12654219  0.37281598  0.62751886  1
  Co  Co115  1  0.12371789  0.87401705  0.62561352  1
  Co  Co116  1  0.74965278  -0.00112403  -0.00501011  1
  Co  Co117  1  0.87402673  0.11915359  0.12518070  1
  Co  Co118  1  0.87431494  0.62679246  0.62266552  1
  Co  Co119  1  0.25291711  0.50353794  0.25054455  1
  Co  Co120  1  0.24843262  0.24676195  0.25206874  1
  Co  Co121  1  0.50209565  0.74790479  0.24883585  1
  Co  Co122  1  0.62594320  0.88111468  0.12812760  1
  Co  Co123  1  0.75210695  -0.00097628  0.25910901  1
  Co  Co124  1  -0.00507524  0.24990924  0.74889658  1
  Co  Co125  1  0.61848766  0.87480220  0.37240588  1
  Co  Co126  1  0.50028784  0.25002188  0.50232751  1
  Co  Co127  1  0.50062418  0.49859125  0.00108974  1
