# generated using pymatgen
data_Fe45Co19
_symmetry_space_group_name_H-M   'P 1'
_cell_length_a   11.41439120
_cell_length_b   11.41465903
_cell_length_c   11.41577729
_cell_angle_alpha   89.99228964
_cell_angle_beta   89.99660107
_cell_angle_gamma   89.99941095
_symmetry_Int_Tables_number   1
_chemical_formula_structural   Fe45Co19
_chemical_formula_sum   'Fe90 Co38'
_cell_volume   1487.37740192
_cell_formula_units_Z   2
loop_
 _symmetry_equiv_pos_site_id
 _symmetry_equiv_pos_as_xyz
  1  'x, y, z'
loop_
 _atom_site_type_symbol
 _atom_site_label
 _atom_site_symmetry_multiplicity
 _atom_site_fract_x
 _atom_site_fract_y
 _atom_site_fract_z
 _atom_site_occupancy
  Fe  Fe0  1  0.24971787  0.49835125  -0.00189307  1
  Fe  Fe1  1  0.87712147  0.87404918  0.87358081  1
  Fe  Fe2  1  0.37117236  0.37296814  0.62320706  1
  Fe  Fe3  1  0.37313448  0.12314957  0.12322659  1
  Fe  Fe4  1  0.75111017  0.49764951  -0.00024679  1
  Fe  Fe5  1  0.87653795  0.12532066  0.12445495  1
  Fe  Fe6  1  0.62674347  0.87522239  0.62296551  1
  Fe  Fe7  1  0.37401198  0.37548964  0.12555979  1
  Fe  Fe8  1  0.62436145  0.37470820  0.87412944  1
  Fe  Fe9  1  0.87852886  0.37397606  0.86982398  1
  Fe  Fe10  1  0.62537334  0.62553820  0.62618780  1
  Fe  Fe11  1  0.49939706  0.49971664  0.50016015  1
  Fe  Fe12  1  0.24910632  0.75170259  0.50076047  1
  Fe  Fe13  1  0.37303864  0.62258457  0.37758600  1
  Fe  Fe14  1  0.49620252  0.74957461  0.75035346  1
  Fe  Fe15  1  0.75047019  0.49922638  0.50012014  1
  Fe  Fe16  1  0.37287701  0.62538677  0.12310072  1
  Fe  Fe17  1  0.24712609  -0.00726978  0.00074395  1
  Fe  Fe18  1  0.49836198  0.24904298  0.74970755  1
  Fe  Fe19  1  0.37162283  0.62290172  0.62350684  1
  Fe  Fe20  1  0.24856119  0.00032984  0.24972349  1
  Fe  Fe21  1  0.75312778  0.25266417  0.24822405  1
  Fe  Fe22  1  0.00051296  0.74838348  0.74781374  1
  Fe  Fe23  1  0.75033695  -0.00065935  -0.00063831  1
  Fe  Fe24  1  0.75107527  0.50047246  0.74997931  1
  Fe  Fe25  1  0.87506727  0.62181873  0.12845797  1
  Fe  Fe26  1  0.62329558  0.62461266  0.87527403  1
  Fe  Fe27  1  0.24888910  0.49748812  0.25304766  1
  Fe  Fe28  1  0.49932989  -0.00089698  -0.00054887  1
  Fe  Fe29  1  -0.00037988  0.00374367  0.49993995  1
  Fe  Fe30  1  0.62590924  0.12516680  0.12483737  1
  Fe  Fe31  1  0.00201840  0.50080963  -0.00231182  1
  Fe  Fe32  1  0.75164846  -0.00066277  0.25076908  1
  Fe  Fe33  1  0.12797641  0.62441753  0.62542665  1
  Fe  Fe34  1  0.37393406  0.12511734  0.37599279  1
  Fe  Fe35  1  0.37489090  0.87841594  0.62482921  1
  Fe  Fe36  1  0.87500664  0.12596796  0.87344315  1
  Fe  Fe37  1  0.62598192  0.37465627  0.62526499  1
  Fe  Fe38  1  0.12430487  0.12464966  0.12659918  1
  Fe  Fe39  1  0.62593074  0.12664145  0.87533329  1
  Fe  Fe40  1  0.75018438  0.00039135  0.74950443  1
  Fe  Fe41  1  0.87553299  0.87278344  0.37741746  1
  Fe  Fe42  1  0.49582502  0.49950908  0.75092907  1
  Fe  Fe43  1  0.87418146  0.87391605  0.62362046  1
  Fe  Fe44  1  0.62666400  0.62496247  0.37325246  1
  Fe  Fe45  1  0.87796559  0.12669764  0.37424510  1
  Fe  Fe46  1  0.49839598  0.75028518  0.25043672  1
  Fe  Fe47  1  0.24688289  0.00319430  0.74901824  1
  Fe  Fe48  1  0.12558779  0.62563640  0.37616288  1
  Fe  Fe49  1  0.00335797  0.74984901  -0.00001361  1
  Fe  Fe50  1  0.13041796  0.62750037  0.87266550  1
  Fe  Fe51  1  0.62515023  0.87667994  0.37611442  1
  Fe  Fe52  1  0.00257611  -0.00171301  -0.00070378  1
  Fe  Fe53  1  0.37171903  0.37351745  0.87537553  1
  Fe  Fe54  1  0.12552497  0.36812886  0.37562440  1
  Fe  Fe55  1  0.49934942  0.49892493  0.25034427  1
  Fe  Fe56  1  0.62650425  0.12495214  0.62327404  1
  Fe  Fe57  1  0.87448773  0.62649727  0.87451815  1
  Fe  Fe58  1  0.62384562  0.37354914  0.37602011  1
  Fe  Fe59  1  0.00223336  0.25084286  -0.00168332  1
  Fe  Fe60  1  0.25043528  0.75209359  0.25023541  1
  Fe  Fe61  1  0.62545265  0.62382679  0.12448925  1
  Fe  Fe62  1  0.75522857  0.25117082  0.50350982  1
  Fe  Fe63  1  0.62602173  0.12557556  0.37635830  1
  Fe  Fe64  1  0.00274011  0.00400301  0.75003482  1
  Fe  Fe65  1  0.00231837  0.49886928  0.50083007  1
  Fe  Fe66  1  0.87766727  0.37666555  0.37309172  1
  Fe  Fe67  1  0.12350164  0.87656643  0.37496227  1
  Fe  Fe68  1  0.62304538  0.87620628  0.12653487  1
  Fe  Fe69  1  0.49969091  0.75050390  0.50064140  1
  Fe  Fe70  1  0.49696971  0.24889408  0.24977199  1
  Fe  Fe71  1  0.50027929  0.00191801  0.74929720  1
  Fe  Fe72  1  0.87451500  0.62492354  0.62283727  1
  Fe  Fe73  1  0.12719801  0.62633635  0.12545595  1
  Fe  Fe74  1  0.24881815  0.00401626  0.50021259  1
  Fe  Fe75  1  0.75220016  0.25224975  -0.00062518  1
  Fe  Fe76  1  0.49520578  0.75101990  -0.00205711  1
  Fe  Fe77  1  0.00031305  0.74983480  0.25096694  1
  Fe  Fe78  1  0.87763636  0.87493250  0.12497541  1
  Fe  Fe79  1  0.49701667  0.24800299  0.50095315  1
  Fe  Fe80  1  0.12395152  0.87553891  0.62502042  1
  Fe  Fe81  1  0.75019231  0.75101753  0.00065074  1
  Fe  Fe82  1  0.12359702  0.37163339  0.62789955  1
  Fe  Fe83  1  0.62443702  0.37500866  0.12441101  1
  Fe  Fe84  1  0.37603760  0.87725790  0.37523423  1
  Fe  Fe85  1  0.12390600  0.37436930  0.12573416  1
  Fe  Fe86  1  0.62484820  0.87424195  0.87389672  1
  Fe  Fe87  1  0.49833485  0.24989504  0.00025420  1
  Fe  Fe88  1  0.37118678  0.12450430  0.87646728  1
  Fe  Fe89  1  0.87482864  0.62400208  0.37402255  1
  Co  Co90  1  0.25201708  0.24924459  0.24945756  1
  Co  Co91  1  0.00466606  0.49975209  0.25189458  1
  Co  Co92  1  0.87562683  0.12593917  0.62832254  1
  Co  Co93  1  0.87865912  0.37521544  0.62997910  1
  Co  Co94  1  -0.00334435  0.24963576  0.50164869  1
  Co  Co95  1  0.37650980  0.87569479  0.12727968  1
  Co  Co96  1  0.50040231  0.00302180  0.25117134  1
  Co  Co97  1  0.12439273  0.12852393  0.62095171  1
  Co  Co98  1  0.37098906  0.62482553  0.87600245  1
  Co  Co99  1  0.12815269  0.12399331  0.87940800  1
  Co  Co100  1  0.49954928  0.00151144  0.50011945  1
  Co  Co101  1  -0.00020351  0.25041046  0.24758235  1
  Co  Co102  1  0.37506523  0.37533480  0.37710535  1
  Co  Co103  1  0.25104584  0.24701465  0.50038448  1
  Co  Co104  1  0.75081403  0.75185055  0.24956337  1
  Co  Co105  1  0.25037464  0.75550248  -0.00008809  1
  Co  Co106  1  0.74845191  0.74846801  0.49933254  1
  Co  Co107  1  0.74839221  0.49710518  0.24963331  1
  Co  Co108  1  0.75056890  0.74983065  0.75015421  1
  Co  Co109  1  0.00205480  0.74867345  0.50046275  1
  Co  Co110  1  0.00445513  0.24448754  0.75269164  1
  Co  Co111  1  0.12326813  0.12718300  0.37363833  1
  Co  Co112  1  0.25184540  0.75136362  0.74742573  1
  Co  Co113  1  0.24713336  0.24692862  0.75102000  1
  Co  Co114  1  0.49821962  0.49891898  -0.00077334  1
  Co  Co115  1  0.24597230  0.49730780  0.49925930  1
  Co  Co116  1  0.74874132  0.24932436  0.74891856  1
  Co  Co117  1  0.00141118  0.50450617  0.75035906  1
  Co  Co118  1  0.12382528  0.87311503  0.87116061  1
  Co  Co119  1  0.12272737  0.87370511  0.12844682  1
  Co  Co120  1  -0.00120953  0.00005748  0.25120113  1
  Co  Co121  1  0.87900192  0.37802533  0.12453204  1
  Co  Co122  1  0.12445386  0.37603933  0.87218648  1
  Co  Co123  1  0.24751669  0.25201634  0.00134469  1
  Co  Co124  1  0.37320156  0.87790020  0.87175938  1
  Co  Co125  1  0.25073127  0.49752512  0.74961866  1
  Co  Co126  1  0.37448880  0.12500693  0.62670857  1
  Co  Co127  1  0.75263711  0.00143174  0.49945512  1
