# generated using pymatgen
data_Fe45Co19
_symmetry_space_group_name_H-M   'P 1'
_cell_length_a   11.41444589
_cell_length_b   11.41418870
_cell_length_c   11.41540036
_cell_angle_alpha   90.00006393
_cell_angle_beta   89.99929300
_cell_angle_gamma   90.00930065
_symmetry_Int_Tables_number   1
_chemical_formula_structural   Fe45Co19
_chemical_formula_sum   'Fe90 Co38'
_cell_volume   1487.27412975
_cell_formula_units_Z   2
loop_
 _symmetry_equiv_pos_site_id
 _symmetry_equiv_pos_as_xyz
  1  'x, y, z'
loop_
 _atom_site_type_symbol
 _atom_site_label
 _atom_site_symmetry_multiplicity
 _atom_site_fract_x
 _atom_site_fract_y
 _atom_site_fract_z
 _atom_site_occupancy
  Fe  Fe0  1  0.62633460  0.62582881  0.12495855  1
  Fe  Fe1  1  0.62472648  0.37385264  0.12700870  1
  Fe  Fe2  1  0.37419074  0.12469897  0.12580257  1
  Fe  Fe3  1  0.49785135  0.75137882  0.24959040  1
  Fe  Fe4  1  -0.00030658  0.00124360  0.75077387  1
  Fe  Fe5  1  0.25183745  0.74884826  0.00023044  1
  Fe  Fe6  1  0.74934806  0.49970993  -0.00163231  1
  Fe  Fe7  1  0.49872658  0.74739853  0.74874803  1
  Fe  Fe8  1  0.12231938  0.37687568  0.62730893  1
  Fe  Fe9  1  0.87624947  0.62583140  0.87463475  1
  Fe  Fe10  1  0.49850346  0.75118908  0.00049880  1
  Fe  Fe11  1  0.12656403  0.87422786  0.87361198  1
  Fe  Fe12  1  0.62633041  0.37489919  0.62565595  1
  Fe  Fe13  1  0.87440055  0.12585584  0.37601729  1
  Fe  Fe14  1  0.24835831  0.49963906  0.49828802  1
  Fe  Fe15  1  0.50141610  -0.00092088  0.49941224  1
  Fe  Fe16  1  -0.00425936  0.74912866  0.50246192  1
  Fe  Fe17  1  0.75174517  0.49967261  0.49961526  1
  Fe  Fe18  1  0.25105022  0.75075605  0.24943653  1
  Fe  Fe19  1  0.12451043  0.12452385  0.12214085  1
  Fe  Fe20  1  0.24939233  0.24871778  0.75191914  1
  Fe  Fe21  1  0.12312191  0.37387974  0.37396759  1
  Fe  Fe22  1  0.62538610  0.62470005  0.62448357  1
  Fe  Fe23  1  0.49862709  0.49881231  0.00194503  1
  Fe  Fe24  1  0.37565964  0.12535561  0.62649205  1
  Fe  Fe25  1  0.62823104  0.12779028  0.62510242  1
  Fe  Fe26  1  0.62142304  0.62390195  0.87612726  1
  Fe  Fe27  1  0.25068842  0.74947191  0.50182695  1
  Fe  Fe28  1  0.75160003  -0.00075662  0.24997807  1
  Fe  Fe29  1  0.12387011  0.12529488  0.37643685  1
  Fe  Fe30  1  0.37539865  0.87543076  0.87345950  1
  Fe  Fe31  1  0.12490547  0.87573283  0.62650746  1
  Fe  Fe32  1  0.75113638  -0.00178663  0.50129922  1
  Fe  Fe33  1  0.62659177  0.12635870  0.87527965  1
  Fe  Fe34  1  0.37610258  0.62552287  0.37653718  1
  Fe  Fe35  1  0.37253395  0.62300967  0.12538873  1
  Fe  Fe36  1  0.50228160  0.25235901  0.75164595  1
  Fe  Fe37  1  0.50125032  0.25127499  0.49810954  1
  Fe  Fe38  1  0.87414056  0.12535294  0.87548492  1
  Fe  Fe39  1  0.49911925  -0.00140105  0.25172054  1
  Fe  Fe40  1  0.49823176  0.25050528  0.00054937  1
  Fe  Fe41  1  0.37435664  0.12535175  0.37532398  1
  Fe  Fe42  1  0.12914893  0.37458548  0.12341525  1
  Fe  Fe43  1  0.00001624  0.24853535  0.24686900  1
  Fe  Fe44  1  0.87714679  0.37610937  0.62801310  1
  Fe  Fe45  1  0.24949350  -0.00084190  0.25112142  1
  Fe  Fe46  1  0.50074176  -0.00067340  -0.00161816  1
  Fe  Fe47  1  0.62836145  0.12900703  0.37444179  1
  Fe  Fe48  1  0.37605679  0.37564632  0.37119043  1
  Fe  Fe49  1  -0.00113138  0.75079545  0.00041288  1
  Fe  Fe50  1  0.62578160  0.12539904  0.12575639  1
  Fe  Fe51  1  0.75045578  0.25081203  0.00095186  1
  Fe  Fe52  1  0.50246061  -0.00056617  0.75023728  1
  Fe  Fe53  1  0.87488293  0.37770925  0.12483640  1
  Fe  Fe54  1  0.25032618  0.50203617  0.75200136  1
  Fe  Fe55  1  0.12247007  0.62638105  0.37510644  1
  Fe  Fe56  1  0.00209724  0.50209953  0.24822246  1
  Fe  Fe57  1  0.37465644  0.87620481  0.62474283  1
  Fe  Fe58  1  0.87483283  0.87766129  0.12395506  1
  Fe  Fe59  1  0.25113232  0.00157140  -0.00330898  1
  Fe  Fe60  1  0.74906411  0.49996780  0.75226304  1
  Fe  Fe61  1  0.87436494  0.37362842  0.37304350  1
  Fe  Fe62  1  0.74952651  0.75081053  -0.00082265  1
  Fe  Fe63  1  0.12442031  0.62557257  0.87621115  1
  Fe  Fe64  1  0.37554759  0.37645210  0.62631980  1
  Fe  Fe65  1  0.25144858  0.74701289  0.74802621  1
  Fe  Fe66  1  0.62542435  0.87519065  0.12446390  1
  Fe  Fe67  1  -0.00291454  -0.00198364  0.50052055  1
  Fe  Fe68  1  0.74770036  0.50082273  0.24987378  1
  Fe  Fe69  1  0.87641378  0.12215494  0.12229865  1
  Fe  Fe70  1  0.25028451  0.25197053  0.50000487  1
  Fe  Fe71  1  0.37207859  0.37586066  0.12846597  1
  Fe  Fe72  1  0.12277184  0.12797812  0.87686448  1
  Fe  Fe73  1  0.12447173  0.87627905  0.12415535  1
  Fe  Fe74  1  0.37504413  0.37680599  0.87500904  1
  Fe  Fe75  1  -0.00148957  0.25082484  0.50272238  1
  Fe  Fe76  1  0.62730410  0.87155395  0.37528101  1
  Fe  Fe77  1  0.12079762  0.62226480  0.62466735  1
  Fe  Fe78  1  0.62716962  0.87192163  0.62624012  1
  Fe  Fe79  1  0.62597636  0.62820292  0.37491730  1
  Fe  Fe80  1  0.87250750  0.87292783  0.62938841  1
  Fe  Fe81  1  0.00343013  0.49978817  -0.00033871  1
  Fe  Fe82  1  0.25058187  -0.00080271  0.50009868  1
  Fe  Fe83  1  0.87382294  0.62616556  0.37375660  1
  Fe  Fe84  1  0.12295938  0.87420167  0.37464926  1
  Fe  Fe85  1  -0.00324767  0.74977224  0.24652334  1
  Fe  Fe86  1  0.50177508  0.49913743  0.49855366  1
  Fe  Fe87  1  0.87722032  0.37289843  0.87395387  1
  Fe  Fe88  1  0.12482375  0.12434437  0.62442811  1
  Fe  Fe89  1  0.87164748  0.87547293  0.87261145  1
  Co  Co90  1  0.24901152  0.50069905  -0.00149339  1
  Co  Co91  1  0.00070037  0.50097340  0.75399938  1
  Co  Co92  1  0.74794381  -0.00108069  -0.00102166  1
  Co  Co93  1  0.37737213  0.62405454  0.87620431  1
  Co  Co94  1  0.62409159  0.87359994  0.87429220  1
  Co  Co95  1  0.00102548  0.75037811  0.75039075  1
  Co  Co96  1  0.37861586  0.12455363  0.87257884  1
  Co  Co97  1  0.49985842  0.75081039  0.50143889  1
  Co  Co98  1  0.75226692  0.24977424  0.24657065  1
  Co  Co99  1  0.75174473  0.25298792  0.50158226  1
  Co  Co100  1  -0.00236809  0.50010985  0.49824321  1
  Co  Co101  1  0.49956883  0.24923636  0.25008528  1
  Co  Co102  1  0.74838180  0.00125348  0.75014969  1
  Co  Co103  1  0.00058669  0.24697119  0.74893774  1
  Co  Co104  1  0.12511728  0.62657858  0.12391306  1
  Co  Co105  1  0.24886278  0.00205448  0.75160423  1
  Co  Co106  1  0.24768836  0.50193832  0.25210161  1
  Co  Co107  1  0.37573910  0.62193660  0.62222806  1
  Co  Co108  1  0.00045458  -0.00257948  -0.00370686  1
  Co  Co109  1  0.87303434  0.12488855  0.62487980  1
  Co  Co110  1  0.37413077  0.87736027  0.12319259  1
  Co  Co111  1  -0.00018312  0.00081183  0.25080635  1
  Co  Co112  1  0.24906150  0.24833439  0.25045952  1
  Co  Co113  1  0.74789431  0.74568181  0.75214688  1
  Co  Co114  1  0.75032965  0.25137625  0.75104643  1
  Co  Co115  1  -0.00070434  0.25238325  0.00185656  1
  Co  Co116  1  0.50180210  0.50188514  0.24960281  1
  Co  Co117  1  0.62425732  0.37500555  0.87716834  1
  Co  Co118  1  0.87419415  0.62271903  0.12265418  1
  Co  Co119  1  0.37429054  0.87468564  0.37724190  1
  Co  Co120  1  0.25290156  0.24888672  -0.00222085  1
  Co  Co121  1  0.12516220  0.37329394  0.87447351  1
  Co  Co122  1  0.75320668  0.74885337  0.50225320  1
  Co  Co123  1  0.50088382  0.50007367  0.74937922  1
  Co  Co124  1  0.62629194  0.37263000  0.37281202  1
  Co  Co125  1  0.87481549  0.87374048  0.37422951  1
  Co  Co126  1  0.75216160  0.75072948  0.24659837  1
  Co  Co127  1  0.87600609  0.62322424  0.62867643  1
