# generated using pymatgen
data_Fe45Co19
_symmetry_space_group_name_H-M   'P 1'
_cell_length_a   11.41552828
_cell_length_b   11.41533962
_cell_length_c   11.41512419
_cell_angle_alpha   89.99561585
_cell_angle_beta   89.99784618
_cell_angle_gamma   90.00094213
_symmetry_Int_Tables_number   1
_chemical_formula_structural   Fe45Co19
_chemical_formula_sum   'Fe90 Co38'
_cell_volume   1487.52916820
_cell_formula_units_Z   2
loop_
 _symmetry_equiv_pos_site_id
 _symmetry_equiv_pos_as_xyz
  1  'x, y, z'
loop_
 _atom_site_type_symbol
 _atom_site_label
 _atom_site_symmetry_multiplicity
 _atom_site_fract_x
 _atom_site_fract_y
 _atom_site_fract_z
 _atom_site_occupancy
  Fe  Fe0  1  0.74870454  0.24829178  0.50119987  1
  Fe  Fe1  1  0.49755193  0.50015634  0.24925084  1
  Fe  Fe2  1  0.87508958  0.87387597  0.37430320  1
  Fe  Fe3  1  0.62262508  0.37503477  0.12401060  1
  Fe  Fe4  1  0.87709237  0.12519743  0.62496008  1
  Fe  Fe5  1  0.12446286  0.62395151  0.12868680  1
  Fe  Fe6  1  0.74747041  0.24815914  0.00151005  1
  Fe  Fe7  1  0.37401893  0.62620467  0.87076692  1
  Fe  Fe8  1  0.74592508  0.24867661  0.24860836  1
  Fe  Fe9  1  0.62466060  0.37450398  0.87470047  1
  Fe  Fe10  1  0.74957729  -0.00087182  0.24914881  1
  Fe  Fe11  1  0.12467179  0.12293498  0.87616119  1
  Fe  Fe12  1  0.62381605  0.37374356  0.62550045  1
  Fe  Fe13  1  0.87676467  0.87444025  0.62550280  1
  Fe  Fe14  1  0.24930459  0.00317912  0.74988230  1
  Fe  Fe15  1  0.74874253  0.50256961  0.00062030  1
  Fe  Fe16  1  0.12335095  0.87679133  0.12391935  1
  Fe  Fe17  1  0.12681015  0.37487652  0.87522534  1
  Fe  Fe18  1  0.00147723  0.25360226  0.25353038  1
  Fe  Fe19  1  0.24966727  0.75273195  -0.00086963  1
  Fe  Fe20  1  0.00067756  0.24943811  0.00028704  1
  Fe  Fe21  1  0.62416989  0.87379351  0.37614815  1
  Fe  Fe22  1  0.37737956  0.12574515  0.12394256  1
  Fe  Fe23  1  0.24916831  0.74895210  0.50065024  1
  Fe  Fe24  1  0.25132860  0.24774842  0.49783530  1
  Fe  Fe25  1  0.74993085  0.74885165  0.50024896  1
  Fe  Fe26  1  0.87475549  0.37527974  0.12473563  1
  Fe  Fe27  1  0.12754904  0.37311908  0.62515892  1
  Fe  Fe28  1  0.62467557  0.87329586  0.12370222  1
  Fe  Fe29  1  0.25016215  0.75134116  0.25078699  1
  Fe  Fe30  1  -0.00000304  0.50112253  0.00032212  1
  Fe  Fe31  1  0.74986853  0.74844887  -0.00057929  1
  Fe  Fe32  1  0.49718597  0.24919291  0.49975354  1
  Fe  Fe33  1  0.74837973  0.00199515  0.50122128  1
  Fe  Fe34  1  0.87646305  0.12628320  0.87471585  1
  Fe  Fe35  1  0.00285143  0.25104824  0.49608823  1
  Fe  Fe36  1  0.49937859  0.00020895  0.50169821  1
  Fe  Fe37  1  0.87870560  0.87177414  0.87425791  1
  Fe  Fe38  1  0.12608480  0.37609174  0.12560162  1
  Fe  Fe39  1  0.37284230  0.87468765  0.62589413  1
  Fe  Fe40  1  0.87728630  0.12572169  0.12662584  1
  Fe  Fe41  1  0.12488540  0.62399297  0.62433179  1
  Fe  Fe42  1  0.00143227  0.00248844  0.49870006  1
  Fe  Fe43  1  0.49849331  0.50097649  0.50355180  1
  Fe  Fe44  1  0.25108207  0.00306143  0.49905791  1
  Fe  Fe45  1  0.74900649  0.50062712  0.74882686  1
  Fe  Fe46  1  0.49960887  0.50036834  -0.00281612  1
  Fe  Fe47  1  0.12422223  0.87663767  0.87529529  1
  Fe  Fe48  1  0.62450071  0.62513879  0.37499305  1
  Fe  Fe49  1  0.00148393  0.50041515  0.75146957  1
  Fe  Fe50  1  0.00195338  0.24928156  0.74986251  1
  Fe  Fe51  1  0.12386510  0.87707397  0.62613826  1
  Fe  Fe52  1  0.75043931  -0.00054467  0.74977693  1
  Fe  Fe53  1  0.12464789  0.12403573  0.12705016  1
  Fe  Fe54  1  0.87524078  0.12573295  0.37412743  1
  Fe  Fe55  1  0.12639301  0.87666045  0.37483309  1
  Fe  Fe56  1  0.62662463  0.87282258  0.62545334  1
  Fe  Fe57  1  0.00276321  0.74921592  0.49786051  1
  Fe  Fe58  1  0.74885263  0.50137925  0.24863624  1
  Fe  Fe59  1  0.49595158  0.24892697  0.75326364  1
  Fe  Fe60  1  0.37156692  0.62340230  0.37534355  1
  Fe  Fe61  1  0.25092753  0.50088431  -0.00042197  1
  Fe  Fe62  1  0.37600257  0.62828172  0.12337246  1
  Fe  Fe63  1  0.49845733  -0.00260404  0.24929811  1
  Fe  Fe64  1  0.25245979  0.24846388  -0.00288137  1
  Fe  Fe65  1  0.37427432  0.62547097  0.63072044  1
  Fe  Fe66  1  0.87569288  0.62524090  0.62637879  1
  Fe  Fe67  1  0.62364951  0.37547258  0.37540787  1
  Fe  Fe68  1  0.49966640  -0.00248200  0.75007055  1
  Fe  Fe69  1  0.74944166  0.50028388  0.50030651  1
  Fe  Fe70  1  0.12456946  0.62677062  0.87494651  1
  Fe  Fe71  1  0.87770883  0.87220631  0.12592476  1
  Fe  Fe72  1  0.49865532  0.74847047  0.50219717  1
  Fe  Fe73  1  0.74990718  0.24904408  0.74894552  1
  Fe  Fe74  1  0.62464699  0.62713767  0.87136063  1
  Fe  Fe75  1  0.49945820  0.75083996  0.25123481  1
  Fe  Fe76  1  0.75249709  0.00038257  0.00033738  1
  Fe  Fe77  1  0.62172574  0.12463368  0.37431560  1
  Fe  Fe78  1  0.87618741  0.37511246  0.62399340  1
  Fe  Fe79  1  0.25322200  -0.00101964  0.24948501  1
  Fe  Fe80  1  0.25426008  0.25176898  0.25276205  1
  Fe  Fe81  1  0.87598994  0.62642228  0.37175240  1
  Fe  Fe82  1  0.37684219  0.37393773  0.12141870  1
  Fe  Fe83  1  0.87729861  0.62692874  0.12685997  1
  Fe  Fe84  1  0.00106665  0.49811021  0.49491025  1
  Fe  Fe85  1  0.87461558  0.37580520  0.87601118  1
  Fe  Fe86  1  0.49870344  0.75281969  -0.00417372  1
  Fe  Fe87  1  0.62341032  0.12285966  0.87617203  1
  Fe  Fe88  1  0.37164520  0.37522274  0.62921967  1
  Fe  Fe89  1  0.49679765  -0.00334861  -0.00037369  1
  Co  Co90  1  0.25502650  0.49868467  0.24537613  1
  Co  Co91  1  0.37455687  0.87410985  0.37756907  1
  Co  Co92  1  0.25068629  -0.00027049  0.00247950  1
  Co  Co93  1  0.50036943  0.75397860  0.74998304  1
  Co  Co94  1  0.62162533  0.12179131  0.12329166  1
  Co  Co95  1  0.74763774  0.75045148  0.24951557  1
  Co  Co96  1  0.00170128  0.74932413  0.74856315  1
  Co  Co97  1  0.37018207  0.87551740  0.87216092  1
  Co  Co98  1  0.24698013  0.50064659  0.75114129  1
  Co  Co99  1  0.37711835  0.12290838  0.37437515  1
  Co  Co100  1  0.37467457  0.37795023  0.37700765  1
  Co  Co101  1  0.50100506  0.49920944  0.74946967  1
  Co  Co102  1  0.37452635  0.12429255  0.62523421  1
  Co  Co103  1  -0.00129217  0.00108789  0.00071868  1
  Co  Co104  1  0.12941293  0.62080471  0.37259762  1
  Co  Co105  1  -0.00096414  0.49700495  0.25214471  1
  Co  Co106  1  0.24677613  0.75070118  0.74897127  1
  Co  Co107  1  0.12497400  0.12598900  0.62421876  1
  Co  Co108  1  0.87503836  0.62492322  0.87425649  1
  Co  Co109  1  0.49930585  0.25127992  0.25023125  1
  Co  Co110  1  0.75079153  0.75059598  0.74963830  1
  Co  Co111  1  0.37555574  0.12130570  0.87722766  1
  Co  Co112  1  0.25087562  0.24691512  0.75340778  1
  Co  Co113  1  0.87067734  0.37365064  0.37460303  1
  Co  Co114  1  0.62668447  0.87580007  0.87606183  1
  Co  Co115  1  0.62288076  0.12551311  0.62723807  1
  Co  Co116  1  0.37524607  0.87192027  0.12441053  1
  Co  Co117  1  0.62146377  0.62735016  0.12374166  1
  Co  Co118  1  0.25160190  0.50105057  0.50452328  1
  Co  Co119  1  0.37288744  0.37764919  0.87410057  1
  Co  Co120  1  0.50009830  0.25058934  -0.00238372  1
  Co  Co121  1  -0.00109966  -0.00101873  0.25070239  1
  Co  Co122  1  -0.00011072  0.00100890  0.75033393  1
  Co  Co123  1  0.13165625  0.37943237  0.37445960  1
  Co  Co124  1  0.00198605  0.74890303  0.00047457  1
  Co  Co125  1  0.00369093  0.75127803  0.25235783  1
  Co  Co126  1  0.12672214  0.12388698  0.37232181  1
  Co  Co127  1  0.62563342  0.62678401  0.62645429  1
