# generated using pymatgen
data_Fe45Co19
_symmetry_space_group_name_H-M   'P 1'
_cell_length_a   11.41483778
_cell_length_b   11.41579837
_cell_length_c   11.41344685
_cell_angle_alpha   90.00563721
_cell_angle_beta   89.98817906
_cell_angle_gamma   89.99917735
_symmetry_Int_Tables_number   1
_chemical_formula_structural   Fe45Co19
_chemical_formula_sum   'Fe90 Co38'
_cell_volume   1487.28035975
_cell_formula_units_Z   2
loop_
 _symmetry_equiv_pos_site_id
 _symmetry_equiv_pos_as_xyz
  1  'x, y, z'
loop_
 _atom_site_type_symbol
 _atom_site_label
 _atom_site_symmetry_multiplicity
 _atom_site_fract_x
 _atom_site_fract_y
 _atom_site_fract_z
 _atom_site_occupancy
  Fe  Fe0  1  0.87484478  0.12803146  0.12732218  1
  Fe  Fe1  1  -0.00031402  0.49760256  0.75023205  1
  Fe  Fe2  1  0.37554104  0.37453929  0.37144962  1
  Fe  Fe3  1  0.74946376  0.00336939  0.49873223  1
  Fe  Fe4  1  0.50155788  0.24911668  0.49821703  1
  Fe  Fe5  1  0.37483504  0.87302057  0.12461576  1
  Fe  Fe6  1  0.62912074  0.12320222  0.87573248  1
  Fe  Fe7  1  0.37644740  0.87518330  0.87669509  1
  Fe  Fe8  1  0.87118609  0.12534506  0.87088494  1
  Fe  Fe9  1  0.24949765  0.49762786  0.00584643  1
  Fe  Fe10  1  0.12361185  0.87517573  0.12284735  1
  Fe  Fe11  1  0.37580002  0.87470461  0.62490406  1
  Fe  Fe12  1  0.49941959  0.75498708  0.49379656  1
  Fe  Fe13  1  -0.00186244  0.25248404  -0.00098561  1
  Fe  Fe14  1  0.50329645  0.25309355  0.24996121  1
  Fe  Fe15  1  0.24809466  0.25272280  0.00330693  1
  Fe  Fe16  1  0.12393469  0.37701669  0.37363499  1
  Fe  Fe17  1  -0.00009514  0.24918107  0.25280333  1
  Fe  Fe18  1  0.12406228  0.62409864  0.62371652  1
  Fe  Fe19  1  0.50274367  0.00063023  0.74967947  1
  Fe  Fe20  1  0.49832252  0.49846118  0.49786191  1
  Fe  Fe21  1  0.49955967  -0.00522140  0.25176360  1
  Fe  Fe22  1  0.87254119  0.87270436  0.12597827  1
  Fe  Fe23  1  0.25100177  0.49968171  0.24552791  1
  Fe  Fe24  1  0.50142798  0.50003168  0.74909477  1
  Fe  Fe25  1  0.12235698  0.12423466  0.62538380  1
  Fe  Fe26  1  0.50475181  0.25092766  0.00114015  1
  Fe  Fe27  1  0.25133692  0.00084780  0.00139252  1
  Fe  Fe28  1  0.74901863  0.75149799  0.74885174  1
  Fe  Fe29  1  0.62681398  0.62287833  0.87788863  1
  Fe  Fe30  1  0.37798073  0.62752132  0.62423228  1
  Fe  Fe31  1  0.87572175  0.87696232  0.62432217  1
  Fe  Fe32  1  0.24938405  0.25104157  0.75026448  1
  Fe  Fe33  1  0.37767294  0.12402811  0.37300896  1
  Fe  Fe34  1  0.62834136  0.87639289  0.12372268  1
  Fe  Fe35  1  0.37469581  0.62472145  0.87817939  1
  Fe  Fe36  1  0.87126840  0.62447357  0.12533183  1
  Fe  Fe37  1  0.87479742  0.62380564  0.62360648  1
  Fe  Fe38  1  0.49957475  0.49934549  0.00451471  1
  Fe  Fe39  1  0.12534088  0.62357086  0.87814445  1
  Fe  Fe40  1  0.62840689  0.87780649  0.87889182  1
  Fe  Fe41  1  0.74802647  0.49859891  0.74942756  1
  Fe  Fe42  1  0.62482974  0.87611077  0.62154088  1
  Fe  Fe43  1  -0.00226902  0.49754593  0.00102751  1
  Fe  Fe44  1  0.75157042  0.00333002  0.24996845  1
  Fe  Fe45  1  0.37578450  0.37368021  0.62544862  1
  Fe  Fe46  1  -0.00268529  0.50331506  0.25275089  1
  Fe  Fe47  1  0.87491701  0.12419451  0.62787106  1
  Fe  Fe48  1  0.12468698  0.87520434  0.62342857  1
  Fe  Fe49  1  -0.00088718  0.75112739  0.75064404  1
  Fe  Fe50  1  0.12249333  0.12618988  0.12508936  1
  Fe  Fe51  1  -0.00055617  -0.00198903  0.25099952  1
  Fe  Fe52  1  0.74906005  0.24658686  0.49420671  1
  Fe  Fe53  1  0.12713214  0.87372937  0.37644086  1
  Fe  Fe54  1  0.62627067  0.37497725  0.62125262  1
  Fe  Fe55  1  0.12437965  0.37571697  0.62422056  1
  Fe  Fe56  1  0.74487910  0.74468685  0.25244164  1
  Fe  Fe57  1  0.62441070  0.62529150  0.62057420  1
  Fe  Fe58  1  0.62665001  0.12339244  0.12651268  1
  Fe  Fe59  1  0.00126249  0.74894796  0.25041290  1
  Fe  Fe60  1  0.87132158  0.37468799  0.13075256  1
  Fe  Fe61  1  0.87354228  0.37510275  0.62223888  1
  Fe  Fe62  1  0.12310498  0.12324596  0.37535564  1
  Fe  Fe63  1  0.75200928  0.50227056  0.49265441  1
  Fe  Fe64  1  0.87242587  0.87386506  0.37551123  1
  Fe  Fe65  1  0.00034420  0.74853956  0.49879126  1
  Fe  Fe66  1  -0.00286037  0.74949885  0.00042606  1
  Fe  Fe67  1  0.25112374  0.50186998  0.49930394  1
  Fe  Fe68  1  0.25050874  0.74936608  0.75087785  1
  Fe  Fe69  1  0.63086801  0.37914318  0.12799718  1
  Fe  Fe70  1  0.12357419  0.12639172  0.87483591  1
  Fe  Fe71  1  0.24938070  -0.00018664  0.75025646  1
  Fe  Fe72  1  0.12362175  0.87471743  0.87709004  1
  Fe  Fe73  1  0.87250100  0.62622540  0.87416709  1
  Fe  Fe74  1  0.50444505  0.25161768  0.75027910  1
  Fe  Fe75  1  0.50285606  0.74935556  0.75162249  1
  Fe  Fe76  1  0.25050164  0.24943003  0.49752274  1
  Fe  Fe77  1  0.37708784  0.62720149  0.37039580  1
  Fe  Fe78  1  -0.00488161  0.00005189  -0.00058558  1
  Fe  Fe79  1  0.37642318  0.37514886  0.87637698  1
  Fe  Fe80  1  0.37800917  0.12475102  0.62496494  1
  Fe  Fe81  1  0.37638412  0.12599316  0.87647851  1
  Fe  Fe82  1  0.25207009  0.00028234  0.49947284  1
  Fe  Fe83  1  0.24761400  0.74767412  0.24637930  1
  Fe  Fe84  1  0.37638593  0.12724537  0.12618956  1
  Fe  Fe85  1  0.50285311  0.74895510  0.00322762  1
  Fe  Fe86  1  0.24939358  0.00200393  0.24838819  1
  Fe  Fe87  1  0.25135027  0.50010333  0.74917343  1
  Fe  Fe88  1  -0.00141580  0.24987387  0.49946468  1
  Fe  Fe89  1  0.87165632  0.37273000  0.87313832  1
  Co  Co90  1  0.62464891  0.12523923  0.62387964  1
  Co  Co91  1  0.63104117  0.87739096  0.37525653  1
  Co  Co92  1  0.75325897  0.49861185  -0.00091741  1
  Co  Co93  1  0.37620590  0.37066598  0.12588542  1
  Co  Co94  1  0.12577965  0.37608711  0.87521263  1
  Co  Co95  1  0.75082165  0.50414230  0.25771492  1
  Co  Co96  1  0.74831298  -0.00333651  0.74797440  1
  Co  Co97  1  0.87618219  0.62995500  0.37618059  1
  Co  Co98  1  0.49889632  -0.00305844  0.49772364  1
  Co  Co99  1  0.12225153  0.62422535  0.12305641  1
  Co  Co100  1  0.62477250  0.37779113  0.87646946  1
  Co  Co101  1  0.87568430  0.37290160  0.37352280  1
  Co  Co102  1  0.37729749  0.62855183  0.12679314  1
  Co  Co103  1  0.25075105  0.74720653  0.50090962  1
  Co  Co104  1  0.12655789  0.62431408  0.37365395  1
  Co  Co105  1  0.00031094  -0.00051239  0.75195648  1
  Co  Co106  1  0.62105074  0.12222808  0.37270766  1
  Co  Co107  1  0.74931661  0.74900163  0.00081169  1
  Co  Co108  1  0.50516877  0.75330008  0.24954268  1
  Co  Co109  1  0.50029182  0.49981407  0.24795815  1
  Co  Co110  1  0.25030253  0.75063283  0.00117439  1
  Co  Co111  1  0.74839678  0.24758654  0.25388374  1
  Co  Co112  1  -0.00092829  0.50126351  0.49779374  1
  Co  Co113  1  0.87249573  0.87458795  0.87522462  1
  Co  Co114  1  0.62750636  0.62042506  0.12489661  1
  Co  Co115  1  0.74928035  0.25047930  0.00159660  1
  Co  Co116  1  0.87746444  0.12332903  0.37357636  1
  Co  Co117  1  0.61999612  0.62447293  0.37770517  1
  Co  Co118  1  0.49974209  0.00068016  0.00191850  1
  Co  Co119  1  0.74642233  0.25294136  0.74867600  1
  Co  Co120  1  -0.00046441  0.25189438  0.74903583  1
  Co  Co121  1  0.75476305  0.00206809  0.00279602  1
  Co  Co122  1  0.75043475  0.74905127  0.50121580  1
  Co  Co123  1  0.62527577  0.37599440  0.37440921  1
  Co  Co124  1  0.12038949  0.37416022  0.12866909  1
  Co  Co125  1  0.36962009  0.87347804  0.37221632  1
  Co  Co126  1  -0.00121513  -0.00109534  0.49810441  1
  Co  Co127  1  0.24825961  0.24889142  0.25131395  1
