# generated using pymatgen
data_Fe45Co19
_symmetry_space_group_name_H-M   'P 1'
_cell_length_a   11.41570087
_cell_length_b   11.41595911
_cell_length_c   11.41509545
_cell_angle_alpha   89.99378527
_cell_angle_beta   90.00283236
_cell_angle_gamma   89.99806777
_symmetry_Int_Tables_number   1
_chemical_formula_structural   Fe45Co19
_chemical_formula_sum   'Fe90 Co38'
_cell_volume   1487.62863433
_cell_formula_units_Z   2
loop_
 _symmetry_equiv_pos_site_id
 _symmetry_equiv_pos_as_xyz
  1  'x, y, z'
loop_
 _atom_site_type_symbol
 _atom_site_label
 _atom_site_symmetry_multiplicity
 _atom_site_fract_x
 _atom_site_fract_y
 _atom_site_fract_z
 _atom_site_occupancy
  Fe  Fe0  1  0.49538857  0.24812029  0.00335089  1
  Fe  Fe1  1  0.87302322  0.12528208  0.12420946  1
  Fe  Fe2  1  0.50078514  0.24685672  0.50058723  1
  Fe  Fe3  1  0.62932357  0.62641303  0.62394260  1
  Fe  Fe4  1  0.12470096  0.37394708  0.62304323  1
  Fe  Fe5  1  0.74856980  0.25173734  0.74902357  1
  Fe  Fe6  1  0.49989779  0.75053635  0.50022152  1
  Fe  Fe7  1  0.62545649  0.12429355  0.62415923  1
  Fe  Fe8  1  0.00095281  0.74951397  0.49940715  1
  Fe  Fe9  1  0.00130447  0.00241746  0.24839499  1
  Fe  Fe10  1  0.75166190  0.75474696  0.00197147  1
  Fe  Fe11  1  0.13029523  0.12774821  0.12248980  1
  Fe  Fe12  1  0.24928211  0.49413620  0.25256360  1
  Fe  Fe13  1  0.74937953  0.25161551  0.24952638  1
  Fe  Fe14  1  0.00205216  0.24648014  0.75348482  1
  Fe  Fe15  1  0.49612459  0.50219699  -0.00015243  1
  Fe  Fe16  1  0.49549687  0.74872416  -0.00037529  1
  Fe  Fe17  1  0.62455052  0.62614204  0.12417156  1
  Fe  Fe18  1  -0.00060892  0.00553476  -0.00198378  1
  Fe  Fe19  1  0.62598074  0.12360964  0.12389273  1
  Fe  Fe20  1  0.37513405  0.37560067  0.87426575  1
  Fe  Fe21  1  0.62679171  0.12515834  0.87652880  1
  Fe  Fe22  1  0.62758932  0.62519229  0.37656284  1
  Fe  Fe23  1  0.49915617  0.50117543  0.74874605  1
  Fe  Fe24  1  0.37438065  0.87717255  0.62195815  1
  Fe  Fe25  1  0.00198207  0.00298539  0.75152793  1
  Fe  Fe26  1  0.87767543  0.37580260  0.62595090  1
  Fe  Fe27  1  0.36908056  0.62559135  0.62607513  1
  Fe  Fe28  1  0.37317804  0.12401714  0.87451435  1
  Fe  Fe29  1  0.75076984  0.75316824  0.24728879  1
  Fe  Fe30  1  0.87555901  0.12578698  0.62642296  1
  Fe  Fe31  1  0.24896446  0.24944171  0.75076850  1
  Fe  Fe32  1  0.87818945  0.87546300  0.37294813  1
  Fe  Fe33  1  0.00174248  0.74851313  0.24925751  1
  Fe  Fe34  1  0.37185518  0.62390779  0.37587688  1
  Fe  Fe35  1  0.24826185  -0.00094195  0.25052270  1
  Fe  Fe36  1  0.00225640  0.24886284  0.24825653  1
  Fe  Fe37  1  0.49913007  0.00085416  0.00055145  1
  Fe  Fe38  1  0.87427391  0.62398840  0.37492685  1
  Fe  Fe39  1  0.75119886  0.49711714  0.00142475  1
  Fe  Fe40  1  0.74963386  0.49851216  0.24949903  1
  Fe  Fe41  1  0.49904720  0.74807516  0.25121391  1
  Fe  Fe42  1  0.37695530  0.87527742  0.12629212  1
  Fe  Fe43  1  0.37410521  0.37319577  0.62332224  1
  Fe  Fe44  1  0.75122342  0.25154457  0.00108147  1
  Fe  Fe45  1  0.75023165  0.25342226  0.50037213  1
  Fe  Fe46  1  0.00072327  0.24580239  0.49906147  1
  Fe  Fe47  1  0.12680529  0.62413384  0.12062723  1
  Fe  Fe48  1  0.12203891  0.87371876  0.12125493  1
  Fe  Fe49  1  0.50029421  0.24926912  0.74941339  1
  Fe  Fe50  1  0.12580968  0.37330654  0.87970228  1
  Fe  Fe51  1  0.12554459  0.87783385  0.62129636  1
  Fe  Fe52  1  0.49912388  0.50083937  0.50145361  1
  Fe  Fe53  1  0.00395663  0.50193594  0.75376314  1
  Fe  Fe54  1  0.36717982  0.62647158  0.87171897  1
  Fe  Fe55  1  0.62252084  0.37507531  0.87554139  1
  Fe  Fe56  1  0.62703337  0.12389918  0.37539236  1
  Fe  Fe57  1  0.12972931  0.62479027  0.62634543  1
  Fe  Fe58  1  0.74903699  -0.00098527  0.75047275  1
  Fe  Fe59  1  0.87736034  0.87635150  0.87607818  1
  Fe  Fe60  1  0.37352785  0.87595461  0.37665543  1
  Fe  Fe61  1  0.24823523  0.75208136  0.25002840  1
  Fe  Fe62  1  0.62375473  0.87523947  0.37503097  1
  Fe  Fe63  1  0.24768779  0.24807918  0.49669392  1
  Fe  Fe64  1  0.24875514  -0.00098220  0.75017251  1
  Fe  Fe65  1  0.12364410  0.37465573  0.12151469  1
  Fe  Fe66  1  0.87630662  0.37373039  0.87527063  1
  Fe  Fe67  1  0.87239769  0.62558500  0.62448450  1
  Fe  Fe68  1  0.87875469  0.37668278  0.37294628  1
  Fe  Fe69  1  0.12657312  0.62333018  0.37569253  1
  Fe  Fe70  1  0.74989217  -0.00364721  0.24590112  1
  Fe  Fe71  1  0.49997396  0.00066412  0.74797496  1
  Fe  Fe72  1  0.87680058  0.62382051  0.12507384  1
  Fe  Fe73  1  0.37152675  0.62365414  0.12706636  1
  Fe  Fe74  1  0.74945449  0.49829493  0.74966481  1
  Fe  Fe75  1  0.50046308  0.00229729  0.25000055  1
  Fe  Fe76  1  0.49918770  0.74967976  0.74906455  1
  Fe  Fe77  1  0.87534182  0.87192220  0.62670527  1
  Fe  Fe78  1  0.87512279  0.12372684  0.37418590  1
  Fe  Fe79  1  0.25132585  -0.00317050  -0.00175987  1
  Fe  Fe80  1  0.62074587  0.37538179  0.37368116  1
  Fe  Fe81  1  0.00396035  0.74809359  0.75331319  1
  Fe  Fe82  1  0.75118939  -0.00343785  0.50160800  1
  Fe  Fe83  1  0.12417069  0.87829176  0.37816585  1
  Fe  Fe84  1  0.00105860  0.50167101  0.50010417  1
  Fe  Fe85  1  0.62325449  0.87405345  0.87535884  1
  Fe  Fe86  1  0.62593169  0.62552577  0.87609301  1
  Fe  Fe87  1  0.37298831  0.12665130  0.37182525  1
  Fe  Fe88  1  0.62012343  0.37608457  0.12628260  1
  Fe  Fe89  1  0.87357505  0.62468212  0.87583909  1
  Co  Co90  1  0.12235249  0.87496203  0.87808536  1
  Co  Co91  1  0.49905202  0.00226144  0.49964599  1
  Co  Co92  1  0.49941144  0.24515697  0.24666366  1
  Co  Co93  1  0.12087625  0.37437590  0.37662104  1
  Co  Co94  1  0.37965619  0.37284982  0.37452243  1
  Co  Co95  1  0.37384811  0.12669597  0.62698886  1
  Co  Co96  1  0.13227538  0.62609040  0.87723650  1
  Co  Co97  1  0.25278302  0.49738274  0.00009933  1
  Co  Co98  1  0.25097930  0.00559180  0.49938958  1
  Co  Co99  1  0.24778644  0.75692372  0.74994399  1
  Co  Co100  1  0.24894203  0.75019919  0.49913037  1
  Co  Co101  1  0.37069333  0.12162974  0.12643113  1
  Co  Co102  1  0.87118494  0.12536201  0.87443543  1
  Co  Co103  1  0.25632012  0.25224073  0.00200613  1
  Co  Co104  1  0.62276537  0.37581254  0.62595300  1
  Co  Co105  1  0.37745425  0.87577967  0.87368300  1
  Co  Co106  1  0.24796390  0.49516692  0.74989404  1
  Co  Co107  1  0.12953884  0.12646027  0.87754505  1
  Co  Co108  1  0.75072257  0.49616771  0.49972119  1
  Co  Co109  1  0.49994094  0.50435134  0.25132823  1
  Co  Co110  1  0.12478250  0.12448322  0.62553739  1
  Co  Co111  1  0.12365187  0.12324124  0.37337189  1
  Co  Co112  1  0.88171962  0.87528487  0.12405426  1
  Co  Co113  1  0.75116835  0.75367051  0.49816918  1
  Co  Co114  1  -0.00019375  0.50107090  -0.00261855  1
  Co  Co115  1  -0.00239623  0.24686137  -0.00062981  1
  Co  Co116  1  0.24867603  0.25402961  0.25041713  1
  Co  Co117  1  -0.00278152  0.00132478  0.50148356  1
  Co  Co118  1  0.61928062  0.87348194  0.12474361  1
  Co  Co119  1  0.00013355  0.74578456  -0.00258396  1
  Co  Co120  1  0.75011184  0.75047560  0.75298638  1
  Co  Co121  1  0.00270670  0.50117327  0.24847136  1
  Co  Co122  1  0.37829373  0.37756876  0.12926695  1
  Co  Co123  1  0.87852292  0.37513487  0.12649216  1
  Co  Co124  1  0.62399166  0.87369439  0.62596673  1
  Co  Co125  1  0.25030163  0.49690456  0.49869971  1
  Co  Co126  1  0.75018183  -0.00362584  0.00180666  1
  Co  Co127  1  0.25243693  0.75400495  0.00019645  1
