# generated using pymatgen
data_Fe45Co19
_symmetry_space_group_name_H-M   'P 1'
_cell_length_a   11.41467454
_cell_length_b   11.41482706
_cell_length_c   11.41441391
_cell_angle_alpha   89.99850700
_cell_angle_beta   89.99710940
_cell_angle_gamma   89.99820677
_symmetry_Int_Tables_number   1
_chemical_formula_structural   Fe45Co19
_chemical_formula_sum   'Fe90 Co38'
_cell_volume   1487.25858772
_cell_formula_units_Z   2
loop_
 _symmetry_equiv_pos_site_id
 _symmetry_equiv_pos_as_xyz
  1  'x, y, z'
loop_
 _atom_site_type_symbol
 _atom_site_label
 _atom_site_symmetry_multiplicity
 _atom_site_fract_x
 _atom_site_fract_y
 _atom_site_fract_z
 _atom_site_occupancy
  Fe  Fe0  1  0.12222350  0.37817969  0.37961453  1
  Fe  Fe1  1  0.62475837  0.62567380  0.12321553  1
  Fe  Fe2  1  0.12479214  0.87862972  0.87558374  1
  Fe  Fe3  1  0.87629507  0.62507824  0.12449970  1
  Fe  Fe4  1  0.62239144  0.87580748  0.87552655  1
  Fe  Fe5  1  0.50088169  0.74851549  0.25118634  1
  Fe  Fe6  1  0.37489516  0.37301266  0.12833423  1
  Fe  Fe7  1  0.87825118  0.87511062  0.87210515  1
  Fe  Fe8  1  0.75184718  0.25291438  -0.00100805  1
  Fe  Fe9  1  0.75300227  0.49812683  0.49959723  1
  Fe  Fe10  1  0.62427986  0.37460013  0.62553087  1
  Fe  Fe11  1  0.37319122  0.12921927  0.62639463  1
  Fe  Fe12  1  0.87388903  0.12576466  0.12695737  1
  Fe  Fe13  1  0.25170231  0.75428056  -0.00251503  1
  Fe  Fe14  1  0.74972441  0.50040267  0.75143291  1
  Fe  Fe15  1  0.75008051  -0.00001473  0.75085963  1
  Fe  Fe16  1  0.88021626  0.87475618  0.12814257  1
  Fe  Fe17  1  0.25300366  -0.00208446  0.00088189  1
  Fe  Fe18  1  0.87560505  0.87389402  0.62626939  1
  Fe  Fe19  1  0.50070313  0.00300136  0.74917861  1
  Fe  Fe20  1  0.12805757  0.62361563  0.87515655  1
  Fe  Fe21  1  0.62296037  0.87686835  0.12363221  1
  Fe  Fe22  1  0.87703745  0.37475417  0.12637796  1
  Fe  Fe23  1  0.75182524  0.25322356  0.49867970  1
  Fe  Fe24  1  0.62170925  0.37641085  0.37345635  1
  Fe  Fe25  1  0.00475093  0.74832290  0.74925761  1
  Fe  Fe26  1  0.74979209  -0.00139004  0.25164454  1
  Fe  Fe27  1  0.37385817  0.12550035  0.87324246  1
  Fe  Fe28  1  0.49721190  0.50088149  0.00165122  1
  Fe  Fe29  1  0.75170725  -0.00346570  0.49835180  1
  Fe  Fe30  1  0.24573187  0.00005870  0.25168760  1
  Fe  Fe31  1  0.00338228  0.50199819  0.24841589  1
  Fe  Fe32  1  0.37729340  0.37258308  0.87153639  1
  Fe  Fe33  1  0.87844860  0.12978458  0.87135035  1
  Fe  Fe34  1  0.25395390  0.25323686  0.49969923  1
  Fe  Fe35  1  0.24781144  0.49861026  0.24971982  1
  Fe  Fe36  1  0.75220679  0.75130626  -0.00062300  1
  Fe  Fe37  1  0.00159014  0.49719337  0.00124065  1
  Fe  Fe38  1  0.37793126  0.37518169  0.37206792  1
  Fe  Fe39  1  0.49867171  0.24930433  0.49910421  1
  Fe  Fe40  1  0.75265070  -0.00053382  -0.00095117  1
  Fe  Fe41  1  0.00294731  0.00538467  0.74502416  1
  Fe  Fe42  1  0.36877008  0.62675319  0.62676273  1
  Fe  Fe43  1  0.62836503  0.12585434  0.62386909  1
  Fe  Fe44  1  0.49905930  0.50192245  0.74803160  1
  Fe  Fe45  1  0.49874639  0.74696540  0.75154227  1
  Fe  Fe46  1  0.50116670  0.00266786  0.25008620  1
  Fe  Fe47  1  0.24901289  0.49481530  0.74792645  1
  Fe  Fe48  1  0.87633974  0.12452267  0.37627176  1
  Fe  Fe49  1  0.24972293  0.25104960  -0.00136947  1
  Fe  Fe50  1  0.62462867  0.12459157  0.37540948  1
  Fe  Fe51  1  0.49378403  0.75213829  -0.00260135  1
  Fe  Fe52  1  0.12041485  0.36855216  0.87330490  1
  Fe  Fe53  1  0.62577294  0.62422138  0.37674632  1
  Fe  Fe54  1  0.37420413  0.12602481  0.12771222  1
  Fe  Fe55  1  0.88247997  0.87540101  0.37224984  1
  Fe  Fe56  1  0.74950859  0.74905024  0.75135135  1
  Fe  Fe57  1  0.87451467  0.62566053  0.62512216  1
  Fe  Fe58  1  0.62291838  0.37512207  0.12650215  1
  Fe  Fe59  1  0.87594080  0.62267146  0.87601263  1
  Fe  Fe60  1  0.24076591  0.75221608  0.25224030  1
  Fe  Fe61  1  -0.00128318  0.00298935  0.00051064  1
  Fe  Fe62  1  0.24954760  0.49528817  -0.00046771  1
  Fe  Fe63  1  0.62488843  0.12450954  0.87763762  1
  Fe  Fe64  1  0.62406002  0.87364783  0.62451616  1
  Fe  Fe65  1  0.00411675  0.74703205  0.49856160  1
  Fe  Fe66  1  -0.00474758  0.25185366  0.50518636  1
  Fe  Fe67  1  0.37312409  0.87249931  0.62773624  1
  Fe  Fe68  1  0.62390193  0.37565784  0.87479477  1
  Fe  Fe69  1  0.74972665  0.75193624  0.25052834  1
  Fe  Fe70  1  0.49964872  0.24810450  0.00171694  1
  Fe  Fe71  1  0.00163142  0.74932447  -0.00066369  1
  Fe  Fe72  1  0.75027352  0.75191453  0.49858078  1
  Fe  Fe73  1  0.24740820  0.24934274  0.25355904  1
  Fe  Fe74  1  0.37125095  0.62510940  0.37384057  1
  Fe  Fe75  1  0.74942625  0.49967737  0.24961141  1
  Fe  Fe76  1  0.00157233  0.49883718  0.74593887  1
  Fe  Fe77  1  0.12447990  0.12219198  0.38325612  1
  Fe  Fe78  1  0.49841802  0.74876763  0.50010827  1
  Fe  Fe79  1  0.87690548  0.62439076  0.37353794  1
  Fe  Fe80  1  0.12641332  0.12596508  0.12176418  1
  Fe  Fe81  1  0.37384191  0.87568256  0.37289609  1
  Fe  Fe82  1  0.49651316  0.00068180  0.50017774  1
  Fe  Fe83  1  0.62478548  0.62431257  0.87751180  1
  Fe  Fe84  1  0.00275712  0.24758305  0.25036278  1
  Fe  Fe85  1  0.49669495  0.50180294  0.50148331  1
  Fe  Fe86  1  0.12728237  0.87526170  0.62114297  1
  Fe  Fe87  1  0.37057150  0.62605183  0.12504322  1
  Fe  Fe88  1  0.24688196  0.00337182  0.74830726  1
  Fe  Fe89  1  0.74871806  0.25084396  0.25112962  1
  Co  Co90  1  0.37465088  0.87432075  0.13099215  1
  Co  Co91  1  0.86852526  0.12501857  0.62502325  1
  Co  Co92  1  0.62673154  0.12342661  0.12411411  1
  Co  Co93  1  0.25615330  -0.00158510  0.50108993  1
  Co  Co94  1  0.62687308  0.62537141  0.62301597  1
  Co  Co95  1  0.24587561  0.25015244  0.74976989  1
  Co  Co96  1  0.00708838  0.74605298  0.25122323  1
  Co  Co97  1  0.49908990  0.50290265  0.24888029  1
  Co  Co98  1  0.37053216  0.62190311  0.87403580  1
  Co  Co99  1  0.24751214  0.75191494  0.49623035  1
  Co  Co100  1  0.75055131  0.49764631  0.00052088  1
  Co  Co101  1  0.25590362  0.49678702  0.50148757  1
  Co  Co102  1  0.12626452  0.61772708  0.38006104  1
  Co  Co103  1  0.87831880  0.37553590  0.37149586  1
  Co  Co104  1  0.12448006  0.12655661  0.87801231  1
  Co  Co105  1  0.50269084  0.24753842  0.75102775  1
  Co  Co106  1  0.12135250  0.88151816  0.37869439  1
  Co  Co107  1  0.49568428  0.00000107  0.00093742  1
  Co  Co108  1  -0.00118650  0.24991999  0.00331763  1
  Co  Co109  1  0.37740154  0.37141332  0.62802007  1
  Co  Co110  1  0.87943935  0.37384450  0.87254915  1
  Co  Co111  1  0.62194369  0.87526550  0.37621073  1
  Co  Co112  1  0.00377018  0.00503103  0.24883786  1
  Co  Co113  1  -0.00332786  0.00145882  0.50571470  1
  Co  Co114  1  0.12186695  0.87645964  0.12246619  1
  Co  Co115  1  0.50099556  0.24738885  0.24979523  1
  Co  Co116  1  0.12584900  0.37517893  0.62043297  1
  Co  Co117  1  0.24612888  0.75114578  0.75225444  1
  Co  Co118  1  0.00304329  0.24633820  0.74246426  1
  Co  Co119  1  0.12867914  0.62233985  0.62231344  1
  Co  Co120  1  0.74856542  0.25085489  0.75244191  1
  Co  Co121  1  0.12584012  0.37261998  0.12625354  1
  Co  Co122  1  0.12958605  0.12731083  0.61730556  1
  Co  Co123  1  0.87229575  0.37428989  0.63011315  1
  Co  Co124  1  0.12871099  0.62481415  0.12024541  1
  Co  Co125  1  0.37437040  0.12463992  0.37318296  1
  Co  Co126  1  0.37453192  0.87881559  0.86908474  1
  Co  Co127  1  -0.00497044  0.49955087  0.50339377  1
