# generated using pymatgen
data_Fe45Co19
_symmetry_space_group_name_H-M   'P 1'
_cell_length_a   11.41449145
_cell_length_b   11.41544291
_cell_length_c   11.41614672
_cell_angle_alpha   89.99551519
_cell_angle_beta   89.99743881
_cell_angle_gamma   90.00465611
_symmetry_Int_Tables_number   1
_chemical_formula_structural   Fe45Co19
_chemical_formula_sum   'Fe90 Co38'
_cell_volume   1487.54075160
_cell_formula_units_Z   2
loop_
 _symmetry_equiv_pos_site_id
 _symmetry_equiv_pos_as_xyz
  1  'x, y, z'
loop_
 _atom_site_type_symbol
 _atom_site_label
 _atom_site_symmetry_multiplicity
 _atom_site_fract_x
 _atom_site_fract_y
 _atom_site_fract_z
 _atom_site_occupancy
  Fe  Fe0  1  0.62280908  0.87524946  0.87719285  1
  Fe  Fe1  1  0.74806135  0.74769090  0.75046816  1
  Fe  Fe2  1  -0.00276905  0.24959815  0.24977579  1
  Fe  Fe3  1  0.50157501  0.74810111  0.75029600  1
  Fe  Fe4  1  0.12231797  0.12438875  0.37697071  1
  Fe  Fe5  1  0.25079355  0.50178004  0.49878025  1
  Fe  Fe6  1  0.37558731  0.87662287  0.37417162  1
  Fe  Fe7  1  -0.00044321  0.75026853  0.00105953  1
  Fe  Fe8  1  0.24566070  -0.00267031  0.50119958  1
  Fe  Fe9  1  -0.00277870  0.50166406  0.50069243  1
  Fe  Fe10  1  0.12660884  0.87401791  0.12570617  1
  Fe  Fe11  1  0.37584868  0.87926161  0.12248277  1
  Fe  Fe12  1  0.37767803  0.87715653  0.87721604  1
  Fe  Fe13  1  0.74792929  -0.00109496  0.25196752  1
  Fe  Fe14  1  0.37471666  0.37695344  0.87191450  1
  Fe  Fe15  1  0.12539279  0.62871307  0.37635205  1
  Fe  Fe16  1  0.24751797  0.50126039  0.25101544  1
  Fe  Fe17  1  0.87634805  0.12481833  0.87324142  1
  Fe  Fe18  1  0.87221816  0.62582051  0.62384839  1
  Fe  Fe19  1  0.87395863  0.62381582  0.12578117  1
  Fe  Fe20  1  0.50180112  0.75072745  0.24578701  1
  Fe  Fe21  1  0.24798341  0.49773740  0.00147935  1
  Fe  Fe22  1  0.63420267  0.37576090  0.62249709  1
  Fe  Fe23  1  0.49968817  0.75010392  0.50080841  1
  Fe  Fe24  1  0.00281255  0.50053953  0.24810187  1
  Fe  Fe25  1  0.37438778  0.12502781  0.62426017  1
  Fe  Fe26  1  0.37297743  0.37424429  0.12684847  1
  Fe  Fe27  1  0.50171278  0.49942769  0.49960654  1
  Fe  Fe28  1  0.74957641  -0.00242768  0.74913204  1
  Fe  Fe29  1  0.12534703  0.62974041  0.62273657  1
  Fe  Fe30  1  0.37267506  0.12289162  0.12257620  1
  Fe  Fe31  1  0.50130387  0.49830874  0.25014336  1
  Fe  Fe32  1  0.37456796  0.12485597  0.87495588  1
  Fe  Fe33  1  0.37654878  0.62136170  0.87639814  1
  Fe  Fe34  1  0.62657983  0.12690412  0.87543454  1
  Fe  Fe35  1  0.50395591  0.49933631  0.74783030  1
  Fe  Fe36  1  0.24705425  -0.00006069  0.74802474  1
  Fe  Fe37  1  -0.00020881  -0.00222636  0.50409410  1
  Fe  Fe38  1  0.49847454  0.25142841  -0.00002609  1
  Fe  Fe39  1  0.25092175  0.24748960  0.25267160  1
  Fe  Fe40  1  0.75007776  -0.00018115  -0.00074151  1
  Fe  Fe41  1  0.50122994  0.25170661  0.50126169  1
  Fe  Fe42  1  0.62320651  0.62595461  0.37430710  1
  Fe  Fe43  1  -0.00501035  0.25091526  0.74632777  1
  Fe  Fe44  1  -0.00714171  0.24910210  0.50226339  1
  Fe  Fe45  1  0.00011540  -0.00051670  0.74575530  1
  Fe  Fe46  1  0.37636081  0.87610294  0.62592384  1
  Fe  Fe47  1  0.74894931  0.49705677  0.25277940  1
  Fe  Fe48  1  0.74852461  0.75294830  0.50023301  1
  Fe  Fe49  1  0.50453614  -0.00039456  0.49993738  1
  Fe  Fe50  1  0.37557807  0.62303090  0.62566863  1
  Fe  Fe51  1  0.62770257  0.12773674  0.12550008  1
  Fe  Fe52  1  -0.00025681  0.49640389  0.00436603  1
  Fe  Fe53  1  0.12282051  0.37311578  0.87576883  1
  Fe  Fe54  1  0.62325332  0.62181242  0.88019728  1
  Fe  Fe55  1  0.87531432  0.87680728  0.37548153  1
  Fe  Fe56  1  0.00223069  -0.00120411  0.24875436  1
  Fe  Fe57  1  0.62714577  0.37262578  0.12647013  1
  Fe  Fe58  1  0.00073146  0.00038845  0.00073503  1
  Fe  Fe59  1  0.74744834  0.75151204  0.24774165  1
  Fe  Fe60  1  0.12405154  0.62410911  0.87713071  1
  Fe  Fe61  1  0.87424639  0.62542421  0.37356931  1
  Fe  Fe62  1  0.25069545  0.75069635  -0.00070494  1
  Fe  Fe63  1  0.87467341  0.62267941  0.87879894  1
  Fe  Fe64  1  0.24958533  0.25032864  0.74897390  1
  Fe  Fe65  1  0.75553502  0.25294563  -0.00150116  1
  Fe  Fe66  1  0.12262961  0.37429766  0.37554385  1
  Fe  Fe67  1  0.25020291  0.25051110  0.49922145  1
  Fe  Fe68  1  0.87533386  0.87347008  0.87462739  1
  Fe  Fe69  1  0.87377241  0.87557767  0.12428212  1
  Fe  Fe70  1  0.25075436  0.74850572  0.75070652  1
  Fe  Fe71  1  -0.00048341  0.50183230  0.74798857  1
  Fe  Fe72  1  0.12686103  0.12777976  0.12248666  1
  Fe  Fe73  1  0.62724738  0.12910938  0.37534425  1
  Fe  Fe74  1  0.37595493  0.62357175  0.12366053  1
  Fe  Fe75  1  0.37651188  0.37523992  0.37471960  1
  Fe  Fe76  1  0.25137974  0.74994859  0.25164323  1
  Fe  Fe77  1  0.63150498  0.12667463  0.62266239  1
  Fe  Fe78  1  0.12359410  0.12802282  0.87570253  1
  Fe  Fe79  1  0.50190284  0.00255892  0.24946494  1
  Fe  Fe80  1  0.37391364  0.37628874  0.62599560  1
  Fe  Fe81  1  -0.00050560  0.75089886  0.25016570  1
  Fe  Fe82  1  0.62860533  0.37656810  0.87511481  1
  Fe  Fe83  1  0.74671464  0.74903482  0.00305767  1
  Fe  Fe84  1  0.12274651  0.87364576  0.87274489  1
  Fe  Fe85  1  0.37585264  0.12410917  0.37753365  1
  Fe  Fe86  1  0.12434685  0.37441263  0.62331613  1
  Fe  Fe87  1  0.87369607  0.12503661  0.12694669  1
  Fe  Fe88  1  0.50238168  0.00303248  0.74976326  1
  Fe  Fe89  1  0.50312056  0.25080745  0.74797202  1
  Co  Co90  1  0.75186298  0.49765737  0.00219899  1
  Co  Co91  1  0.62456755  0.87895567  0.12350563  1
  Co  Co92  1  0.62543187  0.62433930  0.62191796  1
  Co  Co93  1  0.50237510  0.00359348  -0.00024544  1
  Co  Co94  1  0.86911568  0.37849538  0.62655369  1
  Co  Co95  1  0.24592326  0.50060941  0.74885769  1
  Co  Co96  1  0.37843384  0.62441443  0.37346034  1
  Co  Co97  1  0.87546172  0.37833136  0.87179187  1
  Co  Co98  1  0.12295483  0.86804946  0.62598610  1
  Co  Co99  1  0.75750158  0.25167644  0.49358850  1
  Co  Co100  1  0.87645987  0.11952846  0.37427865  1
  Co  Co101  1  0.75241275  0.25023806  0.75205380  1
  Co  Co102  1  0.12459488  0.87321035  0.37533880  1
  Co  Co103  1  0.12500292  0.62783080  0.12475336  1
  Co  Co104  1  0.75066804  0.50067449  0.49411200  1
  Co  Co105  1  0.62235758  0.37213281  0.37540123  1
  Co  Co106  1  0.87979386  0.37826629  0.37381482  1
  Co  Co107  1  0.49750294  0.24796820  0.24881887  1
  Co  Co108  1  0.24877419  0.00140113  0.25169700  1
  Co  Co109  1  0.12612807  0.37009290  0.12630869  1
  Co  Co110  1  0.25281143  0.25111861  -0.00207256  1
  Co  Co111  1  0.49940444  0.49628366  0.00181096  1
  Co  Co112  1  -0.00278127  0.74565464  0.75207465  1
  Co  Co113  1  -0.00373005  0.75052372  0.49758412  1
  Co  Co114  1  0.75439663  0.25227695  0.25544148  1
  Co  Co115  1  0.87466901  0.87278444  0.62710823  1
  Co  Co116  1  0.86862458  0.12276030  0.62498962  1
  Co  Co117  1  0.62328877  0.87312852  0.37405694  1
  Co  Co118  1  -0.00555259  0.25090246  0.00109712  1
  Co  Co119  1  0.12522247  0.12790368  0.62438451  1
  Co  Co120  1  0.62533348  0.62063550  0.12550276  1
  Co  Co121  1  0.24624809  -0.00042143  -0.00260430  1
  Co  Co122  1  0.75000620  0.50540474  0.75153835  1
  Co  Co123  1  0.87473459  0.37577535  0.12846091  1
  Co  Co124  1  0.50179851  0.74933221  0.00254310  1
  Co  Co125  1  0.62368327  0.87496676  0.62687388  1
  Co  Co126  1  0.25430992  0.75017879  0.49914170  1
  Co  Co127  1  0.74917266  -0.00330367  0.49872117  1
