# generated using pymatgen
data_Fe45Co19
_symmetry_space_group_name_H-M   'P 1'
_cell_length_a   11.41521481
_cell_length_b   11.41454859
_cell_length_c   11.41564259
_cell_angle_alpha   89.99392500
_cell_angle_beta   89.99123173
_cell_angle_gamma   89.99423213
_symmetry_Int_Tables_number   1
_chemical_formula_structural   Fe45Co19
_chemical_formula_sum   'Fe90 Co38'
_cell_volume   1487.45276327
_cell_formula_units_Z   2
loop_
 _symmetry_equiv_pos_site_id
 _symmetry_equiv_pos_as_xyz
  1  'x, y, z'
loop_
 _atom_site_type_symbol
 _atom_site_label
 _atom_site_symmetry_multiplicity
 _atom_site_fract_x
 _atom_site_fract_y
 _atom_site_fract_z
 _atom_site_occupancy
  Fe  Fe0  1  0.00024813  0.50339773  0.50282579  1
  Fe  Fe1  1  0.24840052  0.75084010  0.25073831  1
  Fe  Fe2  1  0.12301525  0.62514328  0.37398142  1
  Fe  Fe3  1  0.62299058  0.12346469  0.87211776  1
  Fe  Fe4  1  0.00047448  0.49907376  0.75036622  1
  Fe  Fe5  1  0.50281470  0.74905421  -0.00138791  1
  Fe  Fe6  1  0.62351615  0.87503690  0.62535974  1
  Fe  Fe7  1  0.49806306  0.00266738  0.00213982  1
  Fe  Fe8  1  0.25025298  -0.00245720  0.50373324  1
  Fe  Fe9  1  0.37505618  0.62621963  0.37414203  1
  Fe  Fe10  1  0.87482621  0.37463292  0.12483891  1
  Fe  Fe11  1  0.37442765  0.62516052  0.12467560  1
  Fe  Fe12  1  -0.00068791  -0.00327431  0.75046340  1
  Fe  Fe13  1  0.87622969  0.37306335  0.62361025  1
  Fe  Fe14  1  0.37215814  0.62619855  0.62508443  1
  Fe  Fe15  1  0.74936531  0.24741398  -0.00101364  1
  Fe  Fe16  1  0.62543746  0.37639087  0.62488666  1
  Fe  Fe17  1  0.62832785  0.87829737  0.12452893  1
  Fe  Fe18  1  0.62648397  0.37610774  0.12491855  1
  Fe  Fe19  1  0.62568348  0.37705926  0.37532986  1
  Fe  Fe20  1  0.12382552  0.87389873  0.12322625  1
  Fe  Fe21  1  0.62801049  0.62513966  0.87144207  1
  Fe  Fe22  1  0.87630436  0.12437214  0.37474578  1
  Fe  Fe23  1  0.62663045  0.12233976  0.12823117  1
  Fe  Fe24  1  0.87362807  0.87241076  0.37715890  1
  Fe  Fe25  1  0.74917334  0.24734460  0.50188037  1
  Fe  Fe26  1  0.75094500  0.24894755  0.74809598  1
  Fe  Fe27  1  0.24882812  0.75008582  -0.00218571  1
  Fe  Fe28  1  0.37378271  0.37501706  0.87629961  1
  Fe  Fe29  1  0.62611748  0.62322587  0.12813765  1
  Fe  Fe30  1  0.12481396  0.62387759  0.87506780  1
  Fe  Fe31  1  0.12405217  0.12625863  0.12878818  1
  Fe  Fe32  1  0.00244175  0.24703773  0.49950070  1
  Fe  Fe33  1  0.87586617  0.87291752  0.62420294  1
  Fe  Fe34  1  0.75120188  0.25035498  0.25088630  1
  Fe  Fe35  1  0.49533791  -0.00065474  0.74693112  1
  Fe  Fe36  1  0.25294376  -0.00315780  0.74785344  1
  Fe  Fe37  1  0.75239314  0.74706533  0.25006829  1
  Fe  Fe38  1  0.50165762  0.24684517  0.50184871  1
  Fe  Fe39  1  0.25182545  0.00263833  0.00038284  1
  Fe  Fe40  1  0.49962532  0.24829923  0.00039599  1
  Fe  Fe41  1  0.74939028  0.00136626  0.50194572  1
  Fe  Fe42  1  0.75300845  0.50360551  0.00122254  1
  Fe  Fe43  1  0.37452444  0.87367298  0.12258836  1
  Fe  Fe44  1  0.49982200  0.24952696  0.24994490  1
  Fe  Fe45  1  0.12487035  0.12381840  0.87284670  1
  Fe  Fe46  1  0.24962728  0.24840361  -0.00000228  1
  Fe  Fe47  1  0.49948437  0.49898912  0.25061351  1
  Fe  Fe48  1  0.37324863  0.37393757  0.12591986  1
  Fe  Fe49  1  -0.00075731  -0.00196033  -0.00134532  1
  Fe  Fe50  1  0.87560536  0.12517525  0.12597280  1
  Fe  Fe51  1  0.49665588  0.49994883  0.75047576  1
  Fe  Fe52  1  0.25173988  -0.00151482  0.24900673  1
  Fe  Fe53  1  0.37561542  0.87504638  0.37727911  1
  Fe  Fe54  1  0.49936138  0.75111324  0.75276364  1
  Fe  Fe55  1  0.87376422  0.87139318  0.12059240  1
  Fe  Fe56  1  0.49945553  0.50223220  0.49992360  1
  Fe  Fe57  1  0.00127885  0.25145360  0.00041674  1
  Fe  Fe58  1  -0.00259750  -0.00326075  0.24966505  1
  Fe  Fe59  1  0.24971830  0.25070954  0.74945029  1
  Fe  Fe60  1  0.49949158  0.50123853  -0.00159585  1
  Fe  Fe61  1  0.12555919  0.87638154  0.37571815  1
  Fe  Fe62  1  0.62516524  0.12135980  0.37286227  1
  Fe  Fe63  1  0.50119061  0.74875242  0.49937558  1
  Fe  Fe64  1  0.12734938  0.37534960  0.62183999  1
  Fe  Fe65  1  0.87606477  0.37605481  0.37646265  1
  Fe  Fe66  1  0.50030782  0.75206475  0.24918410  1
  Fe  Fe67  1  0.62548824  0.87597535  0.37425717  1
  Fe  Fe68  1  0.75299234  0.50260632  0.74636274  1
  Fe  Fe69  1  0.74860920  0.74506759  0.50280178  1
  Fe  Fe70  1  0.62683559  0.37581376  0.87428647  1
  Fe  Fe71  1  0.12117001  0.62618974  0.12423086  1
  Fe  Fe72  1  -0.00178058  0.49918735  0.24720151  1
  Fe  Fe73  1  0.12506950  0.12450728  0.62544264  1
  Fe  Fe74  1  0.12518929  0.37522988  0.87570913  1
  Fe  Fe75  1  0.37112188  0.37503136  0.62078136  1
  Fe  Fe76  1  0.87515565  0.37503514  0.87442712  1
  Fe  Fe77  1  0.75192314  -0.00111402  0.74976214  1
  Fe  Fe78  1  0.87751562  0.12601793  0.87289016  1
  Fe  Fe79  1  0.25109998  0.75329374  0.75186073  1
  Fe  Fe80  1  0.24909845  0.50018953  0.00006502  1
  Fe  Fe81  1  0.49834865  0.25076035  0.74831905  1
  Fe  Fe82  1  0.00009765  -0.00049449  0.50144013  1
  Fe  Fe83  1  0.24953993  0.49794855  0.25299888  1
  Fe  Fe84  1  0.00251895  0.74991615  0.49842043  1
  Fe  Fe85  1  0.24638249  0.25219174  0.25673120  1
  Fe  Fe86  1  0.75012543  0.50507550  0.50092196  1
  Fe  Fe87  1  0.12711684  0.62743359  0.62605817  1
  Fe  Fe88  1  -0.00063665  0.75307128  0.75456795  1
  Fe  Fe89  1  0.37503472  0.12288386  0.37663072  1
  Co  Co90  1  0.87728860  0.62526533  0.37481248  1
  Co  Co91  1  0.37445827  0.12516157  0.87290430  1
  Co  Co92  1  0.12639530  0.37386261  0.12580650  1
  Co  Co93  1  0.86997463  0.87275730  0.87744521  1
  Co  Co94  1  0.75418698  -0.00180561  0.25089747  1
  Co  Co95  1  0.24967816  0.49915212  0.75000547  1
  Co  Co96  1  0.75263710  0.50106897  0.25034181  1
  Co  Co97  1  0.87884763  0.62853971  0.62634676  1
  Co  Co98  1  0.62449315  0.62452607  0.37282928  1
  Co  Co99  1  0.00019045  0.25054939  0.25126877  1
  Co  Co100  1  0.87711565  0.12492006  0.62583679  1
  Co  Co101  1  0.62535518  0.12346001  0.62813261  1
  Co  Co102  1  0.24607651  0.25023672  0.49463827  1
  Co  Co103  1  0.00202018  0.25252462  0.74886621  1
  Co  Co104  1  -0.00039142  0.49838862  -0.00093313  1
  Co  Co105  1  0.50110411  0.00081042  0.50141278  1
  Co  Co106  1  0.74939060  0.75125936  0.74733128  1
  Co  Co107  1  0.75104896  0.00342157  -0.00188968  1
  Co  Co108  1  0.37351888  0.62592872  0.87578128  1
  Co  Co109  1  0.87441746  0.62618601  0.87455171  1
  Co  Co110  1  0.37554298  0.87575321  0.87877002  1
  Co  Co111  1  0.62163450  0.62451053  0.62769154  1
  Co  Co112  1  0.87957108  0.62890702  0.12358207  1
  Co  Co113  1  0.49748401  -0.00226312  0.24907419  1
  Co  Co114  1  0.62468209  0.87806789  0.87505008  1
  Co  Co115  1  0.37637616  0.87112233  0.62257143  1
  Co  Co116  1  0.12371303  0.11885940  0.37396502  1
  Co  Co117  1  0.37191774  0.12768676  0.62265117  1
  Co  Co118  1  0.37821589  0.37443404  0.37739691  1
  Co  Co119  1  0.37215626  0.12824420  0.12880493  1
  Co  Co120  1  0.24811365  0.74972759  0.49802270  1
  Co  Co121  1  0.00146211  0.75163553  -0.00519258  1
  Co  Co122  1  0.74660729  0.74716608  0.00008424  1
  Co  Co123  1  0.11902539  0.37875816  0.37711999  1
  Co  Co124  1  0.00068363  0.75386529  0.25196944  1
  Co  Co125  1  0.12367619  0.87267664  0.62520864  1
  Co  Co126  1  0.12805511  0.87816506  0.87636793  1
  Co  Co127  1  0.24982722  0.50203950  0.49688406  1
