# generated using pymatgen
data_Fe45Co19
_symmetry_space_group_name_H-M   'P 1'
_cell_length_a   11.41530652
_cell_length_b   11.41601036
_cell_length_c   11.41665491
_cell_angle_alpha   90.00274048
_cell_angle_beta   89.99511886
_cell_angle_gamma   90.00198920
_symmetry_Int_Tables_number   1
_chemical_formula_structural   Fe45Co19
_chemical_formula_sum   'Fe90 Co38'
_cell_volume   1487.78715038
_cell_formula_units_Z   2
loop_
 _symmetry_equiv_pos_site_id
 _symmetry_equiv_pos_as_xyz
  1  'x, y, z'
loop_
 _atom_site_type_symbol
 _atom_site_label
 _atom_site_symmetry_multiplicity
 _atom_site_fract_x
 _atom_site_fract_y
 _atom_site_fract_z
 _atom_site_occupancy
  Fe  Fe0  1  0.12389981  0.12548281  0.12524316  1
  Fe  Fe1  1  0.00063225  -0.00233595  0.74888844  1
  Fe  Fe2  1  0.37473732  0.37810292  0.87688182  1
  Fe  Fe3  1  0.25125529  0.74708259  0.49905927  1
  Fe  Fe4  1  0.13094545  0.87268716  0.62891257  1
  Fe  Fe5  1  0.37373756  0.87584371  0.37643665  1
  Fe  Fe6  1  0.75199726  0.24816603  0.00061532  1
  Fe  Fe7  1  0.74984247  0.00011956  -0.00160202  1
  Fe  Fe8  1  -0.00035794  0.75227140  0.50173301  1
  Fe  Fe9  1  0.49975170  0.49900578  0.74970939  1
  Fe  Fe10  1  0.62561230  0.62900938  0.62508141  1
  Fe  Fe11  1  0.87671180  0.12557186  0.62404347  1
  Fe  Fe12  1  0.00234811  0.25543152  0.50069070  1
  Fe  Fe13  1  0.00160421  0.75232702  0.24730117  1
  Fe  Fe14  1  0.62539380  0.37235907  0.62535708  1
  Fe  Fe15  1  0.87758439  0.12431644  0.87480718  1
  Fe  Fe16  1  0.12422768  0.62361762  0.62625681  1
  Fe  Fe17  1  0.24869296  0.50078205  0.49988174  1
  Fe  Fe18  1  0.00168021  -0.00299698  0.00028974  1
  Fe  Fe19  1  -0.00275722  0.25651719  0.74757929  1
  Fe  Fe20  1  0.87521343  0.62145549  0.62111442  1
  Fe  Fe21  1  0.62713594  0.37433946  0.87459855  1
  Fe  Fe22  1  0.62782176  0.87475417  0.86880317  1
  Fe  Fe23  1  0.49776732  0.75212278  0.50247988  1
  Fe  Fe24  1  0.25046297  0.24782328  0.49841344  1
  Fe  Fe25  1  0.49813326  0.00124203  0.24678632  1
  Fe  Fe26  1  0.87370729  0.87546795  0.12445380  1
  Fe  Fe27  1  0.62141868  0.12386142  0.37511682  1
  Fe  Fe28  1  0.87631115  0.62418572  0.37792580  1
  Fe  Fe29  1  0.86958257  0.87277080  0.62933649  1
  Fe  Fe30  1  0.25192174  0.50564032  0.24665110  1
  Fe  Fe31  1  0.37213980  0.37586039  0.12313118  1
  Fe  Fe32  1  0.25106034  0.24529948  0.25181881  1
  Fe  Fe33  1  0.74892833  0.50026518  0.00203615  1
  Fe  Fe34  1  0.25161289  0.74627955  -0.00297553  1
  Fe  Fe35  1  -0.00144367  0.24891646  0.24967402  1
  Fe  Fe36  1  0.24785026  0.00238429  -0.00215355  1
  Fe  Fe37  1  0.87660525  0.87742186  0.37532539  1
  Fe  Fe38  1  0.24777891  0.00146385  0.25094634  1
  Fe  Fe39  1  0.24973441  0.00466259  0.50106776  1
  Fe  Fe40  1  0.62234393  0.62831529  0.12240374  1
  Fe  Fe41  1  0.75002436  0.50345685  0.24943469  1
  Fe  Fe42  1  0.12503056  0.87609914  0.37584150  1
  Fe  Fe43  1  0.87787754  0.62196278  0.87793399  1
  Fe  Fe44  1  0.12707684  0.37541567  0.37205096  1
  Fe  Fe45  1  0.62101135  0.12779967  0.62671764  1
  Fe  Fe46  1  0.74973027  0.75109969  -0.00309327  1
  Fe  Fe47  1  0.37121205  0.87436438  0.12379755  1
  Fe  Fe48  1  0.75295643  0.24490782  0.25054879  1
  Fe  Fe49  1  0.62298012  0.62769232  0.37647775  1
  Fe  Fe50  1  0.12468385  0.62639776  0.37351293  1
  Fe  Fe51  1  0.24830536  0.25052081  -0.00126576  1
  Fe  Fe52  1  0.12184141  0.12626734  0.87283791  1
  Fe  Fe53  1  0.88069898  0.12012206  0.37868306  1
  Fe  Fe54  1  0.12387259  0.12683112  0.62549832  1
  Fe  Fe55  1  0.12391923  0.37652324  0.87288669  1
  Fe  Fe56  1  0.62455372  0.37389223  0.37263612  1
  Fe  Fe57  1  0.62295776  0.12418510  0.87422306  1
  Fe  Fe58  1  -0.00151323  0.74904410  0.75072240  1
  Fe  Fe59  1  0.62012802  0.62630058  0.87626844  1
  Fe  Fe60  1  0.74777372  -0.00176409  0.50329062  1
  Fe  Fe61  1  0.25136601  0.24899873  0.75114704  1
  Fe  Fe62  1  0.87391683  0.37849329  0.37683467  1
  Fe  Fe63  1  0.49602038  -0.00271008  0.74769069  1
  Fe  Fe64  1  0.37537123  0.37616858  0.37488010  1
  Fe  Fe65  1  0.49515897  0.74899787  0.24890833  1
  Fe  Fe66  1  0.75100844  0.00238082  0.24952172  1
  Fe  Fe67  1  0.12253052  0.62300478  0.87508146  1
  Fe  Fe68  1  0.50204228  0.49896805  0.50031500  1
  Fe  Fe69  1  0.49262343  0.75170833  0.75057876  1
  Fe  Fe70  1  0.37674241  0.12423294  0.87514997  1
  Fe  Fe71  1  0.62396949  0.87485911  0.37521410  1
  Fe  Fe72  1  -0.00035602  0.25399912  0.00249953  1
  Fe  Fe73  1  0.75146936  0.50095071  0.75013234  1
  Fe  Fe74  1  0.49946874  -0.00202507  0.50450106  1
  Fe  Fe75  1  0.49778997  0.24733857  0.24806800  1
  Fe  Fe76  1  0.49877522  0.50198487  0.24730973  1
  Fe  Fe77  1  0.50017246  0.25109839  0.00065541  1
  Fe  Fe78  1  0.00007138  0.75269416  0.00027293  1
  Fe  Fe79  1  0.62634415  0.87468539  0.12656827  1
  Fe  Fe80  1  0.25151327  0.50329134  0.75170322  1
  Fe  Fe81  1  0.00038146  0.50121645  0.24720614  1
  Fe  Fe82  1  0.75275718  0.25036560  0.75045388  1
  Fe  Fe83  1  0.37507891  0.37313552  0.62458072  1
  Fe  Fe84  1  0.12882565  0.87366205  0.87118313  1
  Fe  Fe85  1  0.00222971  0.49683013  0.00534143  1
  Fe  Fe86  1  0.62804956  0.37209499  0.12708520  1
  Fe  Fe87  1  0.75099352  0.74927687  0.25178185  1
  Fe  Fe88  1  0.74911745  0.25018167  0.49889925  1
  Fe  Fe89  1  0.49995982  -0.00322080  0.00010965  1
  Co  Co90  1  0.37735994  0.12836245  0.62563147  1
  Co  Co91  1  0.74420809  0.50085062  0.49868683  1
  Co  Co92  1  0.87454561  0.37704115  0.87731384  1
  Co  Co93  1  0.75319156  0.74326999  0.75367608  1
  Co  Co94  1  0.87522692  0.62704928  0.12331401  1
  Co  Co95  1  0.00096370  -0.00527328  0.50713861  1
  Co  Co96  1  0.00312095  -0.00267689  0.24590507  1
  Co  Co97  1  0.11964094  0.12295279  0.37663736  1
  Co  Co98  1  0.12749653  0.37352478  0.12881496  1
  Co  Co99  1  0.87224361  0.37542185  0.12697135  1
  Co  Co100  1  0.36742178  0.87465849  0.62495588  1
  Co  Co101  1  0.37559260  0.62322663  0.62307249  1
  Co  Co102  1  0.50032007  0.75769544  -0.00239965  1
  Co  Co103  1  0.25385131  0.74224301  0.75346366  1
  Co  Co104  1  0.36911685  0.87641515  0.87382457  1
  Co  Co105  1  0.38017073  0.62072649  0.88100619  1
  Co  Co106  1  0.75036879  0.00518449  0.74867620  1
  Co  Co107  1  0.87378756  0.87678584  0.87243697  1
  Co  Co108  1  0.12942812  0.37591648  0.62695809  1
  Co  Co109  1  0.62466822  0.12473824  0.12380226  1
  Co  Co110  1  0.87255569  0.37959095  0.62075904  1
  Co  Co111  1  0.50390446  0.49472263  0.00209089  1
  Co  Co112  1  0.24559121  0.50028135  0.00009514  1
  Co  Co113  1  -0.00144204  0.49757730  0.74836829  1
  Co  Co114  1  0.37636135  0.62399528  0.37745153  1
  Co  Co115  1  0.75107753  0.75129463  0.49757933  1
  Co  Co116  1  0.25024813  0.00546337  0.74993325  1
  Co  Co117  1  0.12997484  0.87321737  0.12294034  1
  Co  Co118  1  0.49957172  0.25162951  0.49690971  1
  Co  Co119  1  0.25241950  0.74843927  0.25106436  1
  Co  Co120  1  0.37828857  0.12287701  0.37572465  1
  Co  Co121  1  0.00548546  0.49795535  0.49857397  1
  Co  Co122  1  0.87733227  0.12281739  0.12270067  1
  Co  Co123  1  0.49869873  0.25229795  0.75449186  1
  Co  Co124  1  0.37348214  0.12409553  0.12228989  1
  Co  Co125  1  0.12586433  0.62808089  0.12460515  1
  Co  Co126  1  0.62817019  0.87058094  0.62956635  1
  Co  Co127  1  0.37755334  0.62529573  0.11817203  1
