# generated using pymatgen
data_Fe45Co19
_symmetry_space_group_name_H-M   'P 1'
_cell_length_a   11.41518346
_cell_length_b   11.41441761
_cell_length_c   11.41644349
_cell_angle_alpha   89.99619250
_cell_angle_beta   89.99803662
_cell_angle_gamma   90.00479873
_symmetry_Int_Tables_number   1
_chemical_formula_structural   Fe45Co19
_chemical_formula_sum   'Fe90 Co38'
_cell_volume   1487.53598887
_cell_formula_units_Z   2
loop_
 _symmetry_equiv_pos_site_id
 _symmetry_equiv_pos_as_xyz
  1  'x, y, z'
loop_
 _atom_site_type_symbol
 _atom_site_label
 _atom_site_symmetry_multiplicity
 _atom_site_fract_x
 _atom_site_fract_y
 _atom_site_fract_z
 _atom_site_occupancy
  Fe  Fe0  1  0.37248078  0.37524933  0.87605391  1
  Fe  Fe1  1  0.74982602  0.50129577  0.00105967  1
  Fe  Fe2  1  0.37671513  0.13166197  0.12479416  1
  Fe  Fe3  1  0.62361382  0.12751597  0.37882809  1
  Fe  Fe4  1  0.87400235  0.12446218  0.62834971  1
  Fe  Fe5  1  0.00488096  -0.00111288  0.74985389  1
  Fe  Fe6  1  0.74589141  0.24775284  0.24803618  1
  Fe  Fe7  1  0.00301248  0.49977559  0.00004051  1
  Fe  Fe8  1  0.37511497  0.62411672  0.37229384  1
  Fe  Fe9  1  0.24941568  0.75059691  -0.00087907  1
  Fe  Fe10  1  0.37520888  0.87805312  0.62879808  1
  Fe  Fe11  1  0.87770675  0.87394960  0.87290094  1
  Fe  Fe12  1  0.50021760  0.75007381  0.24906505  1
  Fe  Fe13  1  0.00336473  0.74942407  -0.00093886  1
  Fe  Fe14  1  0.75038108  0.74959999  0.50152263  1
  Fe  Fe15  1  0.37162849  0.87334081  0.12961727  1
  Fe  Fe16  1  0.50052792  0.24793904  0.75442916  1
  Fe  Fe17  1  0.37433151  0.12327778  0.62973524  1
  Fe  Fe18  1  0.74858232  0.74761465  0.24695077  1
  Fe  Fe19  1  0.87700585  0.37700232  0.87265339  1
  Fe  Fe20  1  0.62367625  0.37327461  0.62572816  1
  Fe  Fe21  1  -0.00289033  0.25051781  0.50080074  1
  Fe  Fe22  1  0.12648038  0.12545564  0.62326268  1
  Fe  Fe23  1  0.49645120  0.75158889  -0.00107599  1
  Fe  Fe24  1  0.87204601  0.12680464  0.12309749  1
  Fe  Fe25  1  0.50096058  0.49620912  0.24804442  1
  Fe  Fe26  1  0.25204903  0.75343977  0.49593624  1
  Fe  Fe27  1  0.24764824  0.25148677  0.75078973  1
  Fe  Fe28  1  0.75106435  0.74779297  0.00018293  1
  Fe  Fe29  1  0.62326877  0.62498946  0.37575942  1
  Fe  Fe30  1  -0.00147444  0.00072768  0.00053184  1
  Fe  Fe31  1  0.12623989  0.12508729  0.87637059  1
  Fe  Fe32  1  0.24884061  -0.00062814  0.25151430  1
  Fe  Fe33  1  0.74813830  0.00109931  0.24790911  1
  Fe  Fe34  1  0.49964441  0.49662698  0.00082276  1
  Fe  Fe35  1  0.24387688  0.75272201  0.75209924  1
  Fe  Fe36  1  0.00088863  0.24910995  0.24967263  1
  Fe  Fe37  1  0.12480579  0.12513010  0.37575105  1
  Fe  Fe38  1  0.00016669  0.74763335  0.50409512  1
  Fe  Fe39  1  0.74856684  0.50198151  0.74948637  1
  Fe  Fe40  1  0.37383394  0.37505127  0.62617333  1
  Fe  Fe41  1  0.87529735  0.37555151  0.62665347  1
  Fe  Fe42  1  0.62421734  0.62515538  0.62398364  1
  Fe  Fe43  1  0.37725661  0.12789937  0.37194847  1
  Fe  Fe44  1  0.62351549  0.12144602  0.88461198  1
  Fe  Fe45  1  0.25323012  0.25054686  0.49846837  1
  Fe  Fe46  1  0.12525611  0.37485243  0.37691436  1
  Fe  Fe47  1  0.87452994  0.87477089  0.62798080  1
  Fe  Fe48  1  0.49867372  0.00006053  0.50172267  1
  Fe  Fe49  1  0.37491516  0.87875646  0.87074552  1
  Fe  Fe50  1  0.25095062  0.49594929  0.24834420  1
  Fe  Fe51  1  0.87504246  0.62550643  0.37472682  1
  Fe  Fe52  1  0.74590441  -0.00150771  0.75351744  1
  Fe  Fe53  1  0.87654182  0.87335440  0.37327145  1
  Fe  Fe54  1  0.12685103  0.62357194  0.37784518  1
  Fe  Fe55  1  0.00031011  0.50056653  0.25080062  1
  Fe  Fe56  1  0.12599953  0.12534487  0.12524109  1
  Fe  Fe57  1  0.75138036  0.49967305  0.50095929  1
  Fe  Fe58  1  0.87672313  0.87280639  0.12564249  1
  Fe  Fe59  1  0.49809977  0.50076596  0.75028300  1
  Fe  Fe60  1  0.87385044  0.37460076  0.37420437  1
  Fe  Fe61  1  0.62272812  0.62469974  0.87672087  1
  Fe  Fe62  1  0.25123715  -0.00197644  0.49784922  1
  Fe  Fe63  1  0.62447083  0.87627036  0.12064579  1
  Fe  Fe64  1  -0.00085561  0.00016192  0.50044465  1
  Fe  Fe65  1  0.87411362  0.12575148  0.37496403  1
  Fe  Fe66  1  0.49635584  0.49918014  0.50119272  1
  Fe  Fe67  1  0.74843231  0.50300968  0.24716143  1
  Fe  Fe68  1  0.62333060  0.87486769  0.37607369  1
  Fe  Fe69  1  -0.00170628  0.24993767  -0.00122667  1
  Fe  Fe70  1  0.62521531  0.12636828  0.62369030  1
  Fe  Fe71  1  0.87461972  0.37531354  0.12542574  1
  Fe  Fe72  1  0.75093750  -0.00030201  0.49950651  1
  Fe  Fe73  1  0.62386646  0.37243083  0.37803999  1
  Fe  Fe74  1  0.49730101  0.75079747  0.50093424  1
  Fe  Fe75  1  0.87846472  0.62478618  0.87243851  1
  Fe  Fe76  1  0.25245374  0.00014732  -0.00050047  1
  Fe  Fe77  1  0.50207679  0.00292542  0.24618980  1
  Fe  Fe78  1  0.74906445  0.24870590  0.75453973  1
  Fe  Fe79  1  0.24775667  0.25376214  0.00158457  1
  Fe  Fe80  1  0.00066018  0.00019878  0.24902069  1
  Fe  Fe81  1  0.36992530  0.62477144  0.62762215  1
  Fe  Fe82  1  0.50190698  0.75138060  0.75040455  1
  Fe  Fe83  1  0.37451125  0.62390111  0.12503639  1
  Fe  Fe84  1  0.00416719  0.74933714  0.24835758  1
  Fe  Fe85  1  0.37116445  0.62206808  0.87455420  1
  Fe  Fe86  1  0.00289964  0.25055651  0.74961495  1
  Fe  Fe87  1  0.00762650  0.50231966  0.74541501  1
  Fe  Fe88  1  0.74758939  0.75009248  0.75085019  1
  Fe  Fe89  1  0.12755226  0.62396780  0.12374813  1
  Co  Co90  1  0.25394896  0.49819789  0.49795471  1
  Co  Co91  1  0.87855839  0.62425847  0.12437457  1
  Co  Co92  1  0.24586049  0.00063051  0.75112707  1
  Co  Co93  1  0.62496442  0.12424606  0.11538334  1
  Co  Co94  1  0.62381511  0.87496714  0.62368792  1
  Co  Co95  1  0.12392509  0.37429431  0.87659938  1
  Co  Co96  1  0.62569401  0.37814093  0.87337715  1
  Co  Co97  1  0.50122302  0.25521455  -0.00203433  1
  Co  Co98  1  0.62347601  0.87536456  0.88014606  1
  Co  Co99  1  0.75592690  -0.00274374  -0.00007627  1
  Co  Co100  1  0.24939718  0.49749635  0.00219710  1
  Co  Co101  1  0.50563748  0.25018555  0.24749322  1
  Co  Co102  1  0.37838451  0.87665948  0.37159047  1
  Co  Co103  1  0.49171067  -0.00268575  0.00117518  1
  Co  Co104  1  0.24740967  0.25167846  0.25061272  1
  Co  Co105  1  0.37721615  0.37174260  0.37225096  1
  Co  Co106  1  0.62779061  0.37307478  0.12288164  1
  Co  Co107  1  0.87655590  0.12343384  0.87255238  1
  Co  Co108  1  0.12688343  0.37461731  0.61972794  1
  Co  Co109  1  0.00470839  0.74889657  0.74828460  1
  Co  Co110  1  0.24641056  0.49652317  0.75105602  1
  Co  Co111  1  0.37317023  0.12687757  0.87589363  1
  Co  Co112  1  0.49607497  0.24952968  0.50274786  1
  Co  Co113  1  0.75335940  0.25078657  0.50198127  1
  Co  Co114  1  0.12163919  0.37437162  0.12592388  1
  Co  Co115  1  0.13191474  0.62487337  0.62239547  1
  Co  Co116  1  0.12210694  0.87556857  0.37553717  1
  Co  Co117  1  0.12434064  0.87825083  0.87874786  1
  Co  Co118  1  0.87399881  0.62444126  0.62768914  1
  Co  Co119  1  0.12699490  0.87672688  0.12427903  1
  Co  Co120  1  0.24744559  0.74940676  0.25182549  1
  Co  Co121  1  0.62043071  0.62547147  0.12251866  1
  Co  Co122  1  0.12705582  0.62335621  0.87531737  1
  Co  Co123  1  0.75345594  0.25338891  -0.00426796  1
  Co  Co124  1  0.50389439  0.00253692  0.75250018  1
  Co  Co125  1  0.12655254  0.87533603  0.62172565  1
  Co  Co126  1  -0.00186144  0.50075176  0.50132621  1
  Co  Co127  1  0.37532732  0.37133966  0.12521683  1
