# generated using pymatgen
data_Fe45Co19
_symmetry_space_group_name_H-M   'P 1'
_cell_length_a   11.41315789
_cell_length_b   11.41489283
_cell_length_c   11.41444109
_cell_angle_alpha   90.00183150
_cell_angle_beta   90.00721163
_cell_angle_gamma   89.99305292
_symmetry_Int_Tables_number   1
_chemical_formula_structural   Fe45Co19
_chemical_formula_sum   'Fe90 Co38'
_cell_volume   1487.07306698
_cell_formula_units_Z   2
loop_
 _symmetry_equiv_pos_site_id
 _symmetry_equiv_pos_as_xyz
  1  'x, y, z'
loop_
 _atom_site_type_symbol
 _atom_site_label
 _atom_site_symmetry_multiplicity
 _atom_site_fract_x
 _atom_site_fract_y
 _atom_site_fract_z
 _atom_site_occupancy
  Fe  Fe0  1  0.87648976  0.62543603  0.37469056  1
  Fe  Fe1  1  0.50378226  0.49862017  0.74836574  1
  Fe  Fe2  1  0.74403313  0.49915736  0.75019917  1
  Fe  Fe3  1  0.37584509  0.12324732  0.13098561  1
  Fe  Fe4  1  0.87353047  0.62409946  0.62742554  1
  Fe  Fe5  1  0.87669590  0.37251711  0.37684018  1
  Fe  Fe6  1  0.25106232  0.74964119  0.00024005  1
  Fe  Fe7  1  0.37689833  0.62629035  0.87427836  1
  Fe  Fe8  1  0.49837028  0.24598703  0.50554230  1
  Fe  Fe9  1  0.12636978  0.87634989  0.62659557  1
  Fe  Fe10  1  0.87165072  0.62413039  0.87274749  1
  Fe  Fe11  1  0.37689152  0.87828738  0.62750169  1
  Fe  Fe12  1  0.74799267  0.75029422  -0.00216958  1
  Fe  Fe13  1  0.37686575  0.37286308  0.87201921  1
  Fe  Fe14  1  0.75093038  0.24971705  -0.00149403  1
  Fe  Fe15  1  -0.00026520  0.24972326  -0.00111462  1
  Fe  Fe16  1  0.87073473  0.12745681  0.62586351  1
  Fe  Fe17  1  0.24989959  0.50080502  0.49823890  1
  Fe  Fe18  1  0.62266933  0.62494692  0.12137792  1
  Fe  Fe19  1  0.49899322  0.50139596  0.24950184  1
  Fe  Fe20  1  0.12619929  0.12797938  0.37562957  1
  Fe  Fe21  1  0.12596166  0.37468914  0.62432535  1
  Fe  Fe22  1  0.74871582  0.00267347  0.49745658  1
  Fe  Fe23  1  0.37610478  0.87446439  0.12875549  1
  Fe  Fe24  1  0.37520593  0.87400166  0.87364341  1
  Fe  Fe25  1  0.00242055  -0.00130178  0.25019781  1
  Fe  Fe26  1  -0.00090432  0.75056705  0.50232805  1
  Fe  Fe27  1  0.49764962  0.49987475  -0.00042454  1
  Fe  Fe28  1  0.37307928  0.12706320  0.87279168  1
  Fe  Fe29  1  0.50151021  0.24838519  0.74539923  1
  Fe  Fe30  1  0.25438010  0.24770212  0.50329645  1
  Fe  Fe31  1  0.00168130  0.00201958  0.75230326  1
  Fe  Fe32  1  0.49921355  -0.00083078  -0.00158435  1
  Fe  Fe33  1  0.36969620  0.37973402  0.12707178  1
  Fe  Fe34  1  0.12864222  0.12442539  0.62686344  1
  Fe  Fe35  1  0.00157042  0.75017947  0.24845008  1
  Fe  Fe36  1  0.87354677  0.87669289  0.87589263  1
  Fe  Fe37  1  0.12494676  0.62511201  0.62650394  1
  Fe  Fe38  1  0.62623056  0.37607283  0.12217388  1
  Fe  Fe39  1  0.87338123  0.37601577  0.87389475  1
  Fe  Fe40  1  0.62254230  0.37366238  0.37661555  1
  Fe  Fe41  1  0.25098172  0.49970795  0.75078216  1
  Fe  Fe42  1  0.12595509  0.12350309  0.12309699  1
  Fe  Fe43  1  0.87538185  0.12424253  0.12371181  1
  Fe  Fe44  1  -0.00019674  0.50073989  -0.00291010  1
  Fe  Fe45  1  0.74910906  0.49947706  0.25034980  1
  Fe  Fe46  1  0.62269876  0.87471666  0.12434701  1
  Fe  Fe47  1  0.87129827  0.37195354  0.62457074  1
  Fe  Fe48  1  0.25076288  0.25108276  0.00146871  1
  Fe  Fe49  1  0.00280132  -0.00079166  -0.00262753  1
  Fe  Fe50  1  0.50382367  0.75064009  0.75190946  1
  Fe  Fe51  1  0.00547656  0.49786012  0.25304749  1
  Fe  Fe52  1  0.74866204  0.74910272  0.24955455  1
  Fe  Fe53  1  0.25591075  0.00120204  0.49518853  1
  Fe  Fe54  1  0.87455803  0.87506319  0.37504607  1
  Fe  Fe55  1  0.50002826  0.49881102  0.50130257  1
  Fe  Fe56  1  0.12662485  0.87329538  0.37513052  1
  Fe  Fe57  1  0.87564813  0.37599615  0.12511024  1
  Fe  Fe58  1  0.00455888  0.25220818  0.24802943  1
  Fe  Fe59  1  0.49746101  0.25027263  0.00316882  1
  Fe  Fe60  1  -0.00118436  0.75121750  0.74992994  1
  Fe  Fe61  1  0.74870671  0.00067531  0.24927655  1
  Fe  Fe62  1  0.12567235  0.37340968  0.87471416  1
  Fe  Fe63  1  0.25038293  -0.00185953  -0.00021389  1
  Fe  Fe64  1  -0.00026969  0.24800913  0.75055654  1
  Fe  Fe65  1  0.12872956  0.61976014  0.12380354  1
  Fe  Fe66  1  0.62457681  0.62612548  0.37694638  1
  Fe  Fe67  1  0.87728749  0.12652312  0.37400030  1
  Fe  Fe68  1  0.00090471  0.50008580  0.50020391  1
  Fe  Fe69  1  0.62282610  0.12446026  0.12577708  1
  Fe  Fe70  1  0.37807824  0.62466903  0.62541017  1
  Fe  Fe71  1  0.87485171  0.62273305  0.12511066  1
  Fe  Fe72  1  0.12599890  0.62689949  0.87217543  1
  Fe  Fe73  1  0.24965767  -0.00084524  0.75353145  1
  Fe  Fe74  1  0.49997341  0.75491101  0.49790072  1
  Fe  Fe75  1  0.00166652  0.74964681  -0.00027766  1
  Fe  Fe76  1  0.61920171  0.12569081  0.37361888  1
  Fe  Fe77  1  0.74863484  0.25066403  0.25110354  1
  Fe  Fe78  1  0.62335475  0.87939568  0.62513842  1
  Fe  Fe79  1  0.74931205  0.49983101  0.50037947  1
  Fe  Fe80  1  0.87384758  0.87762019  0.62592843  1
  Fe  Fe81  1  0.62432350  0.12607728  0.87612747  1
  Fe  Fe82  1  0.37503317  0.37150232  0.37395083  1
  Fe  Fe83  1  0.74881946  0.00105142  0.75281528  1
  Fe  Fe84  1  0.37526657  0.62695582  0.37418421  1
  Fe  Fe85  1  0.75034409  0.75028855  0.50239801  1
  Fe  Fe86  1  0.87500223  0.87616998  0.12332083  1
  Fe  Fe87  1  0.00050437  0.00198857  0.50086288  1
  Fe  Fe88  1  0.25145962  0.75064326  0.50327527  1
  Fe  Fe89  1  0.24909953  0.74764785  0.24804172  1
  Co  Co90  1  0.12868762  0.12653606  0.87591644  1
  Co  Co91  1  0.62404672  0.62344899  0.87798178  1
  Co  Co92  1  0.49806255  0.75197695  -0.00126151  1
  Co  Co93  1  0.62724255  0.37215362  0.62218753  1
  Co  Co94  1  0.75074321  0.49932792  -0.00050123  1
  Co  Co95  1  0.62601830  0.12174385  0.62534013  1
  Co  Co96  1  0.37814834  0.13050007  0.36859073  1
  Co  Co97  1  0.74750554  0.25049936  0.75395849  1
  Co  Co98  1  0.62548508  0.87680758  0.87476977  1
  Co  Co99  1  0.37386331  0.11980533  0.62886761  1
  Co  Co100  1  0.74684939  0.00083901  0.00153375  1
  Co  Co101  1  0.25068827  0.25227707  0.74783711  1
  Co  Co102  1  0.12459192  0.62927536  0.37687742  1
  Co  Co103  1  0.49942171  0.00235466  0.75358386  1
  Co  Co104  1  0.12580422  0.36957891  0.38083454  1
  Co  Co105  1  0.37185417  0.87170877  0.37007416  1
  Co  Co106  1  0.50020283  -0.00467149  0.25413758  1
  Co  Co107  1  0.62152563  0.37317556  0.87796814  1
  Co  Co108  1  0.49548107  0.00020202  0.49560141  1
  Co  Co109  1  0.25262335  0.49998508  -0.00756941  1
  Co  Co110  1  0.00046675  0.49836734  0.74958466  1
  Co  Co111  1  0.24665308  0.25181731  0.24675270  1
  Co  Co112  1  0.62832111  0.87458585  0.37585130  1
  Co  Co113  1  -0.00062304  0.24725358  0.50480236  1
  Co  Co114  1  0.50187801  0.74838770  0.25048027  1
  Co  Co115  1  0.87374322  0.12259197  0.87665077  1
  Co  Co116  1  0.74792969  0.24727422  0.49582138  1
  Co  Co117  1  0.25233916  0.74941583  0.74785185  1
  Co  Co118  1  0.12586790  0.87305857  0.87391761  1
  Co  Co119  1  0.12726397  0.37952137  0.12029581  1
  Co  Co120  1  0.62276251  0.62631536  0.62252185  1
  Co  Co121  1  0.24781240  0.49882797  0.25689320  1
  Co  Co122  1  0.74740054  0.75020576  0.74961215  1
  Co  Co123  1  0.12612752  0.87578982  0.12489632  1
  Co  Co124  1  0.50084441  0.25491327  0.24489449  1
  Co  Co125  1  0.37335259  0.62311364  0.12513516  1
  Co  Co126  1  0.24881537  0.00210902  0.25231379  1
  Co  Co127  1  0.37537783  0.37774751  0.62550877  1
