# generated using pymatgen
data_Fe45Co19
_symmetry_space_group_name_H-M   'P 1'
_cell_length_a   11.41568453
_cell_length_b   11.41469179
_cell_length_c   11.41660372
_cell_angle_alpha   89.99395146
_cell_angle_beta   89.99716286
_cell_angle_gamma   89.98910023
_symmetry_Int_Tables_number   1
_chemical_formula_structural   Fe45Co19
_chemical_formula_sum   'Fe90 Co38'
_cell_volume   1487.65786923
_cell_formula_units_Z   2
loop_
 _symmetry_equiv_pos_site_id
 _symmetry_equiv_pos_as_xyz
  1  'x, y, z'
loop_
 _atom_site_type_symbol
 _atom_site_label
 _atom_site_symmetry_multiplicity
 _atom_site_fract_x
 _atom_site_fract_y
 _atom_site_fract_z
 _atom_site_occupancy
  Fe  Fe0  1  0.74587337  0.00362404  0.74738110  1
  Fe  Fe1  1  0.24939075  0.50089107  0.00000197  1
  Fe  Fe2  1  0.12199939  0.37641635  0.12507459  1
  Fe  Fe3  1  0.87427460  0.12378038  0.12879993  1
  Fe  Fe4  1  0.00110234  -0.00011421  0.25267241  1
  Fe  Fe5  1  0.87577874  0.87695784  0.62269453  1
  Fe  Fe6  1  0.37644229  0.62799678  0.87450282  1
  Fe  Fe7  1  0.25079924  -0.00139185  -0.00023347  1
  Fe  Fe8  1  0.74669015  0.00058102  0.49537560  1
  Fe  Fe9  1  -0.00474804  0.49815998  -0.00222624  1
  Fe  Fe10  1  -0.00339310  -0.00132948  -0.00204580  1
  Fe  Fe11  1  0.12373522  0.87421795  0.12235397  1
  Fe  Fe12  1  0.25018231  0.75475739  0.74876606  1
  Fe  Fe13  1  0.50408054  0.75034872  0.00125456  1
  Fe  Fe14  1  0.50327476  0.24813951  0.75076878  1
  Fe  Fe15  1  0.50408558  0.00142486  0.25416956  1
  Fe  Fe16  1  0.37627016  0.12474930  0.87466496  1
  Fe  Fe17  1  0.61958562  0.87864783  0.62076647  1
  Fe  Fe18  1  0.50198161  0.00066178  -0.00204842  1
  Fe  Fe19  1  0.62691898  0.62231123  0.37647132  1
  Fe  Fe20  1  0.74685265  0.25289235  0.24522048  1
  Fe  Fe21  1  0.37771369  0.37681333  0.62622872  1
  Fe  Fe22  1  -0.00247724  0.74877295  0.25214404  1
  Fe  Fe23  1  0.37606818  0.62355322  0.12467345  1
  Fe  Fe24  1  0.50305148  0.74648243  0.24945499  1
  Fe  Fe25  1  0.37796582  0.37812730  0.12543509  1
  Fe  Fe26  1  0.87395974  0.37613695  0.37387673  1
  Fe  Fe27  1  0.12417280  0.37685206  0.62518933  1
  Fe  Fe28  1  0.74805279  0.75220656  0.74742622  1
  Fe  Fe29  1  0.50266438  0.50096577  -0.00424839  1
  Fe  Fe30  1  0.62921129  0.36864739  0.87913429  1
  Fe  Fe31  1  0.12502037  0.62807003  0.87554618  1
  Fe  Fe32  1  0.38023689  0.12094815  0.62572733  1
  Fe  Fe33  1  0.12381792  0.37318450  0.87525543  1
  Fe  Fe34  1  0.12621809  0.37705708  0.37442725  1
  Fe  Fe35  1  0.25172780  0.24987715  0.00155389  1
  Fe  Fe36  1  0.87145129  0.87535077  0.12996868  1
  Fe  Fe37  1  0.25271576  -0.00517399  0.75065870  1
  Fe  Fe38  1  0.37731546  0.87467476  0.12494973  1
  Fe  Fe39  1  0.25209357  0.00002466  0.49924568  1
  Fe  Fe40  1  0.12559799  0.12493632  0.87559448  1
  Fe  Fe41  1  0.62357145  0.62217508  0.62541322  1
  Fe  Fe42  1  0.12513758  0.12250817  0.62470404  1
  Fe  Fe43  1  0.00129029  0.24966471  0.25094322  1
  Fe  Fe44  1  0.25019031  0.24958359  0.74860418  1
  Fe  Fe45  1  0.37479236  0.12792187  0.37269006  1
  Fe  Fe46  1  -0.00072520  0.00158365  0.49716687  1
  Fe  Fe47  1  0.75005189  0.24994032  0.50475336  1
  Fe  Fe48  1  0.37705724  0.62312008  0.62889530  1
  Fe  Fe49  1  0.24838294  -0.00157941  0.25079107  1
  Fe  Fe50  1  0.24934068  0.75005517  0.24727980  1
  Fe  Fe51  1  -0.00073735  0.24790521  0.74781311  1
  Fe  Fe52  1  0.74722625  0.49849171  0.75250359  1
  Fe  Fe53  1  0.12422394  0.12468391  0.12387576  1
  Fe  Fe54  1  0.86978934  0.62804813  0.87489094  1
  Fe  Fe55  1  0.62789265  0.87447477  0.87568337  1
  Fe  Fe56  1  0.12317222  0.62405409  0.12587289  1
  Fe  Fe57  1  0.87227952  0.12692797  0.37411450  1
  Fe  Fe58  1  0.37391074  0.62290345  0.37204035  1
  Fe  Fe59  1  0.87125969  0.62276520  0.12495892  1
  Fe  Fe60  1  0.24876950  0.74875054  0.50319138  1
  Fe  Fe61  1  0.86980239  0.12818563  0.87246389  1
  Fe  Fe62  1  0.49890193  0.25008985  0.49978012  1
  Fe  Fe63  1  0.37698828  0.87193145  0.37512954  1
  Fe  Fe64  1  0.37682935  0.12335471  0.12667862  1
  Fe  Fe65  1  0.50060005  0.75279171  0.75063617  1
  Fe  Fe66  1  0.25114955  0.24975346  0.50077398  1
  Fe  Fe67  1  0.00089265  0.50345838  0.49957082  1
  Fe  Fe68  1  -0.00054853  0.50148217  0.75236640  1
  Fe  Fe69  1  0.12306730  0.87177240  0.37763698  1
  Fe  Fe70  1  -0.00455228  0.75302485  -0.00121916  1
  Fe  Fe71  1  0.49978528  0.74713212  0.49941251  1
  Fe  Fe72  1  0.75045391  0.75111112  0.49984111  1
  Fe  Fe73  1  0.87353423  0.62442656  0.62609948  1
  Fe  Fe74  1  0.00034972  0.24868024  0.50043900  1
  Fe  Fe75  1  0.62267374  0.37806962  0.62361268  1
  Fe  Fe76  1  0.25011405  0.49921869  0.75179453  1
  Fe  Fe77  1  0.62406274  0.37746618  0.37710870  1
  Fe  Fe78  1  0.87623179  0.37694898  0.62676406  1
  Fe  Fe79  1  0.62781592  0.87547536  0.12956399  1
  Fe  Fe80  1  0.25166371  0.50038901  0.49975288  1
  Fe  Fe81  1  0.50245595  0.25214600  0.24724503  1
  Fe  Fe82  1  0.37577110  0.37397073  0.87497782  1
  Fe  Fe83  1  0.63017755  0.62126810  0.12261343  1
  Fe  Fe84  1  -0.00057148  -0.00080462  0.75161629  1
  Fe  Fe85  1  0.00011617  0.75268170  0.74860637  1
  Fe  Fe86  1  0.24916331  0.25182398  0.24814791  1
  Fe  Fe87  1  0.75081918  0.00034711  0.00159100  1
  Fe  Fe88  1  -0.00463406  0.25065029  -0.00009060  1
  Fe  Fe89  1  0.87246043  0.62404202  0.37543333  1
  Co  Co90  1  0.37996720  0.87683118  0.62112877  1
  Co  Co91  1  0.50373238  0.49809095  0.75447585  1
  Co  Co92  1  0.87052009  0.87529463  0.87146810  1
  Co  Co93  1  0.12626992  0.62436098  0.62751088  1
  Co  Co94  1  0.50103129  -0.00148820  0.75540580  1
  Co  Co95  1  0.74766948  0.49786044  0.25029794  1
  Co  Co96  1  0.87235810  0.37031082  0.86996394  1
  Co  Co97  1  0.50077818  0.00170922  0.49126299  1
  Co  Co98  1  0.74702701  0.24851266  0.74174830  1
  Co  Co99  1  0.12678177  0.12578562  0.37504272  1
  Co  Co100  1  0.12553265  0.87376005  0.87736216  1
  Co  Co101  1  0.75048906  0.75333520  0.00138938  1
  Co  Co102  1  0.49709389  0.50192375  0.49903672  1
  Co  Co103  1  0.12724149  0.62554198  0.37328711  1
  Co  Co104  1  0.37577117  0.87122794  0.87961205  1
  Co  Co105  1  0.61976323  0.12142140  0.62212605  1
  Co  Co106  1  0.62498172  0.12480135  0.12278762  1
  Co  Co107  1  0.25015155  0.49905347  0.24836392  1
  Co  Co108  1  0.87678864  0.37812350  0.12890193  1
  Co  Co109  1  0.75343607  0.49650196  -0.00304290  1
  Co  Co110  1  0.49665071  0.24829110  0.00123522  1
  Co  Co111  1  0.75047848  0.74733847  0.25225453  1
  Co  Co112  1  0.62258666  0.37740898  0.11945830  1
  Co  Co113  1  0.62767337  0.62779143  0.87562409  1
  Co  Co114  1  0.62682372  0.13156162  0.37507712  1
  Co  Co115  1  0.62430963  0.87032204  0.37374929  1
  Co  Co116  1  0.62903985  0.12930312  0.87897436  1
  Co  Co117  1  0.75603144  0.25100287  0.00728293  1
  Co  Co118  1  0.37626708  0.37499344  0.37314917  1
  Co  Co119  1  0.87523003  0.87492747  0.37532976  1
  Co  Co120  1  -0.00121876  0.50220622  0.25227011  1
  Co  Co121  1  0.25023412  0.74836859  0.00281492  1
  Co  Co122  1  -0.00104074  0.74594321  0.50125685  1
  Co  Co123  1  0.87534001  0.12280845  0.62303187  1
  Co  Co124  1  0.75126022  0.49964016  0.50146791  1
  Co  Co125  1  0.74669152  0.00171624  0.25399069  1
  Co  Co126  1  0.12270378  0.87657669  0.62281319  1
  Co  Co127  1  0.50334879  0.50074481  0.25093058  1
