# generated using pymatgen
data_Fe45Co19
_symmetry_space_group_name_H-M   'P 1'
_cell_length_a   11.41431036
_cell_length_b   11.41493086
_cell_length_c   11.41587517
_cell_angle_alpha   89.99668157
_cell_angle_beta   89.99299149
_cell_angle_gamma   90.00256358
_symmetry_Int_Tables_number   1
_chemical_formula_structural   Fe45Co19
_chemical_formula_sum   'Fe90 Co38'
_cell_volume   1487.41504285
_cell_formula_units_Z   2
loop_
 _symmetry_equiv_pos_site_id
 _symmetry_equiv_pos_as_xyz
  1  'x, y, z'
loop_
 _atom_site_type_symbol
 _atom_site_label
 _atom_site_symmetry_multiplicity
 _atom_site_fract_x
 _atom_site_fract_y
 _atom_site_fract_z
 _atom_site_occupancy
  Fe  Fe0  1  0.87575447  0.37348252  0.87471556  1
  Fe  Fe1  1  -0.00403601  0.00179494  0.00141446  1
  Fe  Fe2  1  0.25045218  -0.00323275  0.25213237  1
  Fe  Fe3  1  -0.00060004  -0.00014481  0.74986727  1
  Fe  Fe4  1  0.75264701  -0.00331353  0.75067312  1
  Fe  Fe5  1  0.50215187  0.00213056  0.49978064  1
  Fe  Fe6  1  0.37490558  0.12572787  0.37666725  1
  Fe  Fe7  1  0.37394669  0.87520409  0.62496688  1
  Fe  Fe8  1  0.12245425  0.37583884  0.37611413  1
  Fe  Fe9  1  -0.00108553  0.24722770  0.00109612  1
  Fe  Fe10  1  0.75416785  0.50092286  0.50271649  1
  Fe  Fe11  1  0.12466036  0.12304629  0.12593905  1
  Fe  Fe12  1  0.12287292  0.87587248  0.87697844  1
  Fe  Fe13  1  0.24690348  0.75171040  0.75144618  1
  Fe  Fe14  1  0.24690730  0.24987949  0.49962179  1
  Fe  Fe15  1  0.62179702  0.87721838  0.87588045  1
  Fe  Fe16  1  0.37680837  0.37521739  0.62621177  1
  Fe  Fe17  1  -0.00488205  0.50388875  0.50107914  1
  Fe  Fe18  1  0.62417633  0.87595463  0.12413567  1
  Fe  Fe19  1  0.24917845  0.50130779  0.74975011  1
  Fe  Fe20  1  0.75118893  0.00086967  0.49754271  1
  Fe  Fe21  1  0.11996925  0.62440574  0.87861719  1
  Fe  Fe22  1  -0.00106950  0.00353016  0.49838385  1
  Fe  Fe23  1  0.37228935  0.62469144  0.37363121  1
  Fe  Fe24  1  0.37351494  0.62539804  0.62553798  1
  Fe  Fe25  1  0.87550229  0.12769711  0.62696333  1
  Fe  Fe26  1  0.63086861  0.62553711  0.62820153  1
  Fe  Fe27  1  0.12448594  0.37656640  0.12331742  1
  Fe  Fe28  1  0.62597484  0.37649411  0.37568563  1
  Fe  Fe29  1  0.12243395  0.37619463  0.87482492  1
  Fe  Fe30  1  -0.00124601  -0.00244647  0.24974184  1
  Fe  Fe31  1  0.87530454  0.87080154  0.62401841  1
  Fe  Fe32  1  0.24779167  -0.00008690  0.49816253  1
  Fe  Fe33  1  0.37760015  0.37572614  0.87239339  1
  Fe  Fe34  1  0.25013413  0.25036857  -0.00016021  1
  Fe  Fe35  1  -0.00307402  0.74638692  0.49685431  1
  Fe  Fe36  1  0.75107225  0.49818463  -0.00006467  1
  Fe  Fe37  1  0.24946667  0.50023978  0.00031773  1
  Fe  Fe38  1  0.50160911  0.75140897  0.25116460  1
  Fe  Fe39  1  0.50175344  0.25063153  0.24999085  1
  Fe  Fe40  1  0.75102053  -0.00408851  0.25163517  1
  Fe  Fe41  1  0.37245867  0.62467614  0.12690870  1
  Fe  Fe42  1  0.74974172  0.24975605  0.00023504  1
  Fe  Fe43  1  0.62752053  0.87472914  0.62239709  1
  Fe  Fe44  1  0.24937530  0.75230916  0.00079743  1
  Fe  Fe45  1  0.12385342  0.62541487  0.62398263  1
  Fe  Fe46  1  0.62636333  0.12408448  0.87305949  1
  Fe  Fe47  1  0.50157499  0.50013525  -0.00056610  1
  Fe  Fe48  1  0.50161114  0.50299333  0.50073065  1
  Fe  Fe49  1  -0.00528320  0.50288126  0.74888977  1
  Fe  Fe50  1  0.24664368  0.75305374  0.25023485  1
  Fe  Fe51  1  0.37618872  0.37640296  0.12484581  1
  Fe  Fe52  1  0.37438149  0.62601660  0.87446154  1
  Fe  Fe53  1  0.87573400  0.12742832  0.37157643  1
  Fe  Fe54  1  0.74960803  0.24931954  0.50019624  1
  Fe  Fe55  1  0.62816864  0.62417200  0.12684567  1
  Fe  Fe56  1  0.49880550  0.00183746  0.74731286  1
  Fe  Fe57  1  0.62458693  0.37687111  0.62942754  1
  Fe  Fe58  1  0.75210382  0.00083463  -0.00028780  1
  Fe  Fe59  1  0.00049552  0.75157481  0.24843998  1
  Fe  Fe60  1  0.50331055  0.24647759  0.50334698  1
  Fe  Fe61  1  0.50003190  -0.00198362  0.25169220  1
  Fe  Fe62  1  0.12002474  0.37445661  0.62582511  1
  Fe  Fe63  1  0.75063414  0.25136846  0.74995289  1
  Fe  Fe64  1  0.37638911  0.37506120  0.37652622  1
  Fe  Fe65  1  0.24968946  0.24887153  0.74992126  1
  Fe  Fe66  1  0.24830076  0.25123437  0.25008724  1
  Fe  Fe67  1  0.50202426  0.74828567  0.49901426  1
  Fe  Fe68  1  0.87755417  0.87152632  0.87639379  1
  Fe  Fe69  1  0.00065294  0.50140578  0.24908764  1
  Fe  Fe70  1  0.12271863  0.87438193  0.62293401  1
  Fe  Fe71  1  0.49944468  0.75009714  0.00013680  1
  Fe  Fe72  1  0.87576074  0.37297576  0.12586066  1
  Fe  Fe73  1  0.74882757  0.25256666  0.24935043  1
  Fe  Fe74  1  0.50174533  0.49976431  0.25014723  1
  Fe  Fe75  1  0.24901981  0.75071672  0.49817653  1
  Fe  Fe76  1  0.62645950  0.12405958  0.12594268  1
  Fe  Fe77  1  0.50137775  0.74930432  0.74969526  1
  Fe  Fe78  1  0.37552697  0.12383958  0.12529457  1
  Fe  Fe79  1  0.12416938  0.12350860  0.87557816  1
  Fe  Fe80  1  0.62857085  0.62162156  0.87239445  1
  Fe  Fe81  1  0.87633855  0.37477138  0.37543720  1
  Fe  Fe82  1  0.24928276  0.49940817  0.49954254  1
  Fe  Fe83  1  0.87445016  0.62638095  0.12482615  1
  Fe  Fe84  1  0.63142810  0.62504583  0.37256927  1
  Fe  Fe85  1  0.25342300  -0.00294620  0.00004342  1
  Fe  Fe86  1  0.37453350  0.12318498  0.87382482  1
  Fe  Fe87  1  0.12412151  0.12611537  0.62637884  1
  Fe  Fe88  1  0.50230095  0.24922591  -0.00159387  1
  Fe  Fe89  1  0.74991018  0.75136053  -0.00036756  1
  Co  Co90  1  0.62653390  0.12502110  0.37275830  1
  Co  Co91  1  0.49895022  0.50375004  0.74938862  1
  Co  Co92  1  0.87132398  0.63199929  0.62875180  1
  Co  Co93  1  0.75083578  0.49649801  0.24747314  1
  Co  Co94  1  0.00213560  0.25129223  0.24843185  1
  Co  Co95  1  0.00057893  0.24808071  0.75288748  1
  Co  Co96  1  0.00068842  0.75128482  0.00429338  1
  Co  Co97  1  0.87371943  0.12540973  0.87295909  1
  Co  Co98  1  0.24826824  0.49724796  0.25056057  1
  Co  Co99  1  0.87553090  0.62847700  0.87668032  1
  Co  Co100  1  0.37681012  0.87478792  0.87328444  1
  Co  Co101  1  0.75096806  0.74951420  0.49717409  1
  Co  Co102  1  0.49918904  0.24540975  0.74829995  1
  Co  Co103  1  0.37101552  0.12378387  0.62258524  1
  Co  Co104  1  0.75693766  0.49850895  0.74926462  1
  Co  Co105  1  0.62528953  0.87430523  0.37727025  1
  Co  Co106  1  0.37617048  0.87348335  0.12548384  1
  Co  Co107  1  -0.00317735  0.49865518  0.00098722  1
  Co  Co108  1  0.49893662  0.00096961  0.00085079  1
  Co  Co109  1  0.00130550  0.24679084  0.49746458  1
  Co  Co110  1  0.24808955  -0.00165765  0.75019389  1
  Co  Co111  1  0.87336177  0.12538943  0.12849058  1
  Co  Co112  1  0.62463794  0.37608487  0.87166491  1
  Co  Co113  1  0.37623243  0.87413930  0.37732114  1
  Co  Co114  1  0.87400116  0.87519481  0.12246828  1
  Co  Co115  1  0.87656534  0.87409622  0.37708864  1
  Co  Co116  1  0.87794516  0.36994148  0.62403400  1
  Co  Co117  1  0.63048537  0.12339203  0.62772702  1
  Co  Co118  1  0.12183319  0.87465811  0.37722488  1
  Co  Co119  1  0.87168185  0.62504173  0.37007687  1
  Co  Co120  1  0.74855890  0.75393537  0.75382215  1
  Co  Co121  1  0.62388678  0.37468427  0.12381637  1
  Co  Co122  1  0.12530971  0.62371396  0.12380359  1
  Co  Co123  1  0.12472473  0.87802193  0.12326205  1
  Co  Co124  1  0.75109097  0.75494800  0.24918319  1
  Co  Co125  1  0.00206986  0.74980445  0.75055518  1
  Co  Co126  1  0.12546225  0.62479318  0.37514052  1
  Co  Co127  1  0.12432672  0.12372634  0.37182357  1
