# generated using pymatgen
data_Fe45Co19
_symmetry_space_group_name_H-M   'P 1'
_cell_length_a   11.42280502
_cell_length_b   11.42295829
_cell_length_c   11.42359735
_cell_angle_alpha   89.99667271
_cell_angle_beta   90.00658645
_cell_angle_gamma   89.99062996
_symmetry_Int_Tables_number   1
_chemical_formula_structural   Fe45Co19
_chemical_formula_sum   'Fe90 Co38'
_cell_volume   1490.57637023
_cell_formula_units_Z   2
loop_
 _symmetry_equiv_pos_site_id
 _symmetry_equiv_pos_as_xyz
  1  'x, y, z'
loop_
 _atom_site_type_symbol
 _atom_site_label
 _atom_site_symmetry_multiplicity
 _atom_site_fract_x
 _atom_site_fract_y
 _atom_site_fract_z
 _atom_site_occupancy
  Fe  Fe0  1  0.37206610  0.12526629  0.87560001  1
  Fe  Fe1  1  0.49755807  0.74916348  0.25259284  1
  Fe  Fe2  1  0.62459709  0.62311792  0.62664692  1
  Fe  Fe3  1  0.24837687  0.00202176  0.74702788  1
  Fe  Fe4  1  0.12535527  0.62571163  0.87288811  1
  Fe  Fe5  1  0.87676186  0.62422182  0.62502583  1
  Fe  Fe6  1  0.12441083  0.87470000  0.12799409  1
  Fe  Fe7  1  0.62434593  0.12639804  0.12488642  1
  Fe  Fe8  1  0.12457164  0.87631373  0.62430106  1
  Fe  Fe9  1  0.50018674  0.25026579  0.50007478  1
  Fe  Fe10  1  0.37450775  0.87535347  0.38167761  1
  Fe  Fe11  1  0.00060706  0.75090248  -0.00025261  1
  Fe  Fe12  1  0.12782572  0.37419109  0.87573655  1
  Fe  Fe13  1  0.49892330  0.49976136  0.50078452  1
  Fe  Fe14  1  0.87665122  0.62454050  0.87557587  1
  Fe  Fe15  1  0.75170911  0.49846058  0.50190053  1
  Fe  Fe16  1  0.25165465  0.75010477  0.25238024  1
  Fe  Fe17  1  0.49651974  0.75258121  0.74912855  1
  Fe  Fe18  1  0.49832926  0.00003838  0.74912202  1
  Fe  Fe19  1  0.37334636  0.62709104  0.62260203  1
  Fe  Fe20  1  0.87900492  0.12339466  0.87509677  1
  Fe  Fe21  1  0.49731178  -0.00158854  0.25050954  1
  Fe  Fe22  1  0.62402116  0.62335254  0.37465626  1
  Fe  Fe23  1  0.24794302  0.24798035  0.74918722  1
  Fe  Fe24  1  0.00012537  0.25202194  0.49892462  1
  Fe  Fe25  1  0.62446816  0.62512116  0.87379597  1
  Fe  Fe26  1  0.62371126  0.87567545  0.87530093  1
  Fe  Fe27  1  0.49885656  0.24977115  0.75250525  1
  Fe  Fe28  1  0.37389711  0.12529972  0.12638486  1
  Fe  Fe29  1  0.00300168  0.24899535  0.00042701  1
  Fe  Fe30  1  0.75124986  -0.00069984  0.25043003  1
  Fe  Fe31  1  0.37457508  0.37305260  0.62615064  1
  Fe  Fe32  1  0.62473573  0.12644499  0.37351754  1
  Fe  Fe33  1  0.49806013  0.00028161  0.00014192  1
  Fe  Fe34  1  0.49690228  0.74989676  -0.00249662  1
  Fe  Fe35  1  0.00276852  0.49942696  -0.00000705  1
  Fe  Fe36  1  0.24883472  0.00044340  0.00210891  1
  Fe  Fe37  1  0.74975078  0.75047509  0.25018105  1
  Fe  Fe38  1  0.87768621  0.87753314  0.87391156  1
  Fe  Fe39  1  0.75131860  0.75134096  -0.00048080  1
  Fe  Fe40  1  0.75083263  -0.00007259  0.74903856  1
  Fe  Fe41  1  0.12630563  0.12502448  0.12970490  1
  Fe  Fe42  1  0.62561117  0.37430034  0.37619294  1
  Fe  Fe43  1  0.87847864  0.87338519  0.12865811  1
  Fe  Fe44  1  0.37333661  0.37846938  0.37432702  1
  Fe  Fe45  1  0.62266599  0.87410048  0.12479827  1
  Fe  Fe46  1  0.62586297  0.12717519  0.62549353  1
  Fe  Fe47  1  0.75120325  -0.00027580  0.49935791  1
  Fe  Fe48  1  0.87588922  0.37391272  0.12485269  1
  Fe  Fe49  1  0.37418338  0.12402612  0.37622470  1
  Fe  Fe50  1  0.87586133  0.12715918  0.62521687  1
  Fe  Fe51  1  0.74991261  0.49833301  -0.00349629  1
  Fe  Fe52  1  0.00179510  0.24968724  0.75029599  1
  Fe  Fe53  1  0.87433830  0.12788464  0.37303093  1
  Fe  Fe54  1  0.12409223  0.87889222  0.87490949  1
  Fe  Fe55  1  0.25124196  0.75031157  -0.00184518  1
  Fe  Fe56  1  0.62791112  0.37403418  0.62798673  1
  Fe  Fe57  1  0.87572712  0.12767495  0.12742862  1
  Fe  Fe58  1  0.00186328  0.50009019  0.25026359  1
  Fe  Fe59  1  0.87466516  0.62520941  0.37399358  1
  Fe  Fe60  1  -0.00056228  0.00052072  0.50005903  1
  Fe  Fe61  1  0.25034061  0.25045242  0.49981160  1
  Fe  Fe62  1  0.12656174  0.12561869  0.37317078  1
  Fe  Fe63  1  0.37551816  0.62253166  0.12529869  1
  Fe  Fe64  1  0.00184257  0.74869326  0.49982042  1
  Fe  Fe65  1  0.12707415  0.37659722  0.37557880  1
  Fe  Fe66  1  0.25068007  0.50026074  0.74955548  1
  Fe  Fe67  1  0.62348497  0.62461125  0.12389986  1
  Fe  Fe68  1  0.37285703  0.37715157  0.12101715  1
  Fe  Fe69  1  0.49766472  0.49802425  0.75323994  1
  Fe  Fe70  1  0.62349294  0.87551779  0.62407096  1
  Fe  Fe71  1  -0.00075022  0.49862132  0.74996833  1
  Fe  Fe72  1  0.25057372  0.75217600  0.74862153  1
  Fe  Fe73  1  0.12802638  0.37439301  0.12541746  1
  Fe  Fe74  1  0.12323129  0.87677597  0.37309532  1
  Fe  Fe75  1  0.62382325  0.37314139  0.12035258  1
  Fe  Fe76  1  0.12822929  0.62127980  0.37761473  1
  Fe  Fe77  1  0.00028683  0.75116261  0.74911353  1
  Fe  Fe78  1  0.75071829  0.75031819  0.74961785  1
  Fe  Fe79  1  0.49819152  0.25269760  0.24909720  1
  Fe  Fe80  1  0.12595100  0.62622170  0.12432685  1
  Fe  Fe81  1  0.62563527  0.12643118  0.87663748  1
  Fe  Fe82  1  0.75183550  -0.00070244  0.00192654  1
  Fe  Fe83  1  0.87538819  0.62436144  0.12519407  1
  Fe  Fe84  1  0.62402369  0.87532398  0.37584076  1
  Fe  Fe85  1  0.37426337  0.12424455  0.62209467  1
  Fe  Fe86  1  0.12430397  0.37625638  0.62298929  1
  Fe  Fe87  1  0.74969122  0.75047911  0.50035560  1
  Fe  Fe88  1  0.87407876  0.37385754  0.37409592  1
  Fe  Fe89  1  0.74827010  0.49796789  0.24862306  1
  Co  Co90  1  0.50113606  0.74780979  0.50022102  1
  Co  Co91  1  0.24785731  0.24684184  0.00060099  1
  Co  Co92  1  0.50134665  0.49754395  0.24934150  1
  Co  Co93  1  0.87784832  0.37376830  0.87539246  1
  Co  Co94  1  0.12412403  0.62274223  0.62650085  1
  Co  Co95  1  0.74750906  0.25184397  0.24879361  1
  Co  Co96  1  0.00242375  0.25234662  0.25062967  1
  Co  Co97  1  0.24600533  0.75008110  0.50023043  1
  Co  Co98  1  0.24575806  0.00149185  0.50045227  1
  Co  Co99  1  -0.00148555  0.49971231  0.49868234  1
  Co  Co100  1  0.37429183  0.87739783  0.62101184  1
  Co  Co101  1  0.37408255  0.62232810  0.37625407  1
  Co  Co102  1  0.24842383  0.50288998  -0.00199915  1
  Co  Co103  1  0.12374518  0.12214594  0.87522432  1
  Co  Co104  1  0.12336864  0.12776352  0.62234306  1
  Co  Co105  1  0.49955237  0.49969003  -0.00486494  1
  Co  Co106  1  0.75295735  0.24908767  -0.00135749  1
  Co  Co107  1  0.37283130  0.87842755  0.87463977  1
  Co  Co108  1  0.74946728  0.24966033  0.50062399  1
  Co  Co109  1  0.87514163  0.37322811  0.62561400  1
  Co  Co110  1  0.24862838  0.50100740  0.24838695  1
  Co  Co111  1  0.75203263  0.50007624  0.75189441  1
  Co  Co112  1  0.00102095  0.00067229  0.00494023  1
  Co  Co113  1  0.37508119  0.87356711  0.12389141  1
  Co  Co114  1  0.25238891  0.25151188  0.25112500  1
  Co  Co115  1  0.25211852  0.49902916  0.50400497  1
  Co  Co116  1  0.25235421  -0.00230489  0.25091484  1
  Co  Co117  1  0.00251327  0.74528806  0.25167159  1
  Co  Co118  1  0.37032412  0.37274284  0.87666667  1
  Co  Co119  1  0.50263668  0.00283860  0.50072556  1
  Co  Co120  1  0.87767789  0.87303640  0.37438901  1
  Co  Co121  1  0.00128465  0.00118528  0.74543525  1
  Co  Co122  1  0.87556065  0.87402798  0.62450050  1
  Co  Co123  1  -0.00116110  0.00255697  0.25070247  1
  Co  Co124  1  0.49698279  0.24929800  -0.00100470  1
  Co  Co125  1  0.62507754  0.37166276  0.87425080  1
  Co  Co126  1  0.37330929  0.62510574  0.87336767  1
  Co  Co127  1  0.75275315  0.24916351  0.75292547  1
