# generated using pymatgen
data_Fe45Co19
_symmetry_space_group_name_H-M   'P 1'
_cell_length_a   11.41542912
_cell_length_b   11.41447523
_cell_length_c   11.41599941
_cell_angle_alpha   90.00259032
_cell_angle_beta   90.00230334
_cell_angle_gamma   89.98719019
_symmetry_Int_Tables_number   1
_chemical_formula_structural   Fe45Co19
_chemical_formula_sum   'Fe90 Co38'
_cell_volume   1487.51761575
_cell_formula_units_Z   2
loop_
 _symmetry_equiv_pos_site_id
 _symmetry_equiv_pos_as_xyz
  1  'x, y, z'
loop_
 _atom_site_type_symbol
 _atom_site_label
 _atom_site_symmetry_multiplicity
 _atom_site_fract_x
 _atom_site_fract_y
 _atom_site_fract_z
 _atom_site_occupancy
  Fe  Fe0  1  0.62901609  0.87739711  0.62343606  1
  Fe  Fe1  1  0.50068720  -0.00025548  0.00228974  1
  Fe  Fe2  1  0.24872563  0.75134703  0.49825280  1
  Fe  Fe3  1  0.24825361  0.24915060  0.75015775  1
  Fe  Fe4  1  0.12539836  0.62547586  0.12921893  1
  Fe  Fe5  1  0.37815826  0.87583501  0.87583948  1
  Fe  Fe6  1  -0.00308349  -0.00205566  0.00224024  1
  Fe  Fe7  1  0.62489401  0.37400463  0.62412266  1
  Fe  Fe8  1  0.25225847  0.74805723  0.00003464  1
  Fe  Fe9  1  0.62412377  0.12306894  0.87258805  1
  Fe  Fe10  1  0.75153840  -0.00065296  -0.00329601  1
  Fe  Fe11  1  0.49879089  0.00150650  0.24709719  1
  Fe  Fe12  1  0.00063929  0.24913797  0.74685277  1
  Fe  Fe13  1  0.75327143  -0.00063824  0.75197171  1
  Fe  Fe14  1  0.50167987  0.75043895  0.50171778  1
  Fe  Fe15  1  0.75121287  0.24941276  0.75070550  1
  Fe  Fe16  1  0.62560323  0.37520675  0.37548237  1
  Fe  Fe17  1  0.37590462  0.37351910  0.37678642  1
  Fe  Fe18  1  0.37674876  0.62553668  0.37435403  1
  Fe  Fe19  1  -0.00193412  0.50147782  0.00320021  1
  Fe  Fe20  1  0.62707553  0.12502408  0.12617086  1
  Fe  Fe21  1  0.74898055  0.24997469  -0.00179041  1
  Fe  Fe22  1  0.50319670  0.75151008  0.74845537  1
  Fe  Fe23  1  0.38003924  0.62274428  0.87357815  1
  Fe  Fe24  1  0.12786973  0.12011552  0.62448068  1
  Fe  Fe25  1  0.25072728  0.49963272  0.74909646  1
  Fe  Fe26  1  0.87655236  0.37296366  0.62239362  1
  Fe  Fe27  1  -0.00226124  0.25096001  0.00238312  1
  Fe  Fe28  1  -0.00283294  -0.00174681  0.50387074  1
  Fe  Fe29  1  0.12432878  0.87588119  0.37440472  1
  Fe  Fe30  1  0.50175353  0.50081517  0.50079672  1
  Fe  Fe31  1  0.75048483  0.50235745  0.49879697  1
  Fe  Fe32  1  0.62438153  0.12411768  0.37582624  1
  Fe  Fe33  1  0.87628870  0.62574490  0.87358526  1
  Fe  Fe34  1  0.75445698  0.49992194  0.25515871  1
  Fe  Fe35  1  0.25160508  0.00203748  0.00237638  1
  Fe  Fe36  1  0.12086058  0.62603594  0.37181226  1
  Fe  Fe37  1  0.87587861  0.12580338  0.37699419  1
  Fe  Fe38  1  0.74865809  0.24702511  0.49932003  1
  Fe  Fe39  1  0.87298472  0.62892126  0.13134232  1
  Fe  Fe40  1  0.00138378  0.75256766  0.50155131  1
  Fe  Fe41  1  0.12302482  0.62381911  0.87344222  1
  Fe  Fe42  1  0.37779660  0.87442915  0.37347391  1
  Fe  Fe43  1  -0.00256818  -0.00301487  0.24639342  1
  Fe  Fe44  1  0.74988000  0.50148035  -0.00175498  1
  Fe  Fe45  1  0.74805495  0.75258252  0.49101191  1
  Fe  Fe46  1  0.24657564  0.24820518  0.50053266  1
  Fe  Fe47  1  0.37470829  0.37295354  0.62272777  1
  Fe  Fe48  1  0.50279035  0.74549433  0.00302148  1
  Fe  Fe49  1  0.74795113  0.74863139  -0.00212240  1
  Fe  Fe50  1  0.12527465  0.62423902  0.62554519  1
  Fe  Fe51  1  0.37855677  0.37690580  0.87419192  1
  Fe  Fe52  1  -0.00318250  -0.00300112  0.74799234  1
  Fe  Fe53  1  0.25106867  0.50059401  -0.00031935  1
  Fe  Fe54  1  0.37591592  0.37499574  0.12526157  1
  Fe  Fe55  1  -0.00491546  0.25299958  0.24900147  1
  Fe  Fe56  1  0.12372625  0.87467374  0.87626280  1
  Fe  Fe57  1  0.74741296  0.75006790  0.75333468  1
  Fe  Fe58  1  -0.00139452  0.75030546  0.00323237  1
  Fe  Fe59  1  0.75058011  -0.00314282  0.25436277  1
  Fe  Fe60  1  0.75024747  0.50154036  0.74812912  1
  Fe  Fe61  1  0.12445343  0.37481580  0.12562457  1
  Fe  Fe62  1  0.24907479  0.75137410  0.75094057  1
  Fe  Fe63  1  0.00011545  0.75202591  0.74734238  1
  Fe  Fe64  1  0.12240346  0.37752823  0.87370080  1
  Fe  Fe65  1  0.50316275  0.25099392  0.00057105  1
  Fe  Fe66  1  0.49996458  0.24609776  0.74556654  1
  Fe  Fe67  1  0.24920754  0.24844461  0.00016757  1
  Fe  Fe68  1  0.37025099  0.87866627  0.62551568  1
  Fe  Fe69  1  0.62769513  0.87367917  0.12593045  1
  Fe  Fe70  1  -0.00055976  0.49937085  0.49986253  1
  Fe  Fe71  1  0.12213396  0.12362877  0.37288445  1
  Fe  Fe72  1  0.24887842  0.50097615  0.49937150  1
  Fe  Fe73  1  0.24974944  0.24749384  0.24837108  1
  Fe  Fe74  1  0.12158136  0.12350564  0.87711380  1
  Fe  Fe75  1  0.62783186  0.37767761  0.12747884  1
  Fe  Fe76  1  0.87676619  0.37563406  0.87459850  1
  Fe  Fe77  1  0.87229173  0.12549531  0.12477150  1
  Fe  Fe78  1  0.37618345  0.12697924  0.37593313  1
  Fe  Fe79  1  0.50231085  0.74669107  0.24736993  1
  Fe  Fe80  1  0.12298041  0.37440927  0.37489929  1
  Fe  Fe81  1  0.25276380  0.00084268  0.24835340  1
  Fe  Fe82  1  0.37709967  0.12366264  0.87464767  1
  Fe  Fe83  1  0.50254691  0.25092886  0.25043073  1
  Fe  Fe84  1  0.62256308  0.37922687  0.87275631  1
  Fe  Fe85  1  0.25036869  0.50049047  0.25153423  1
  Fe  Fe86  1  0.12866791  0.87429266  0.12529304  1
  Fe  Fe87  1  0.37529805  0.62572832  0.62459673  1
  Fe  Fe88  1  0.87234369  0.62875313  0.62247235  1
  Fe  Fe89  1  0.49954303  0.00363275  0.50430115  1
  Co  Co90  1  0.86934635  0.87195752  0.62362773  1
  Co  Co91  1  0.12230482  0.12553706  0.12585452  1
  Co  Co92  1  0.50058417  0.00007243  0.74591970  1
  Co  Co93  1  0.87060217  0.37477165  0.12311109  1
  Co  Co94  1  0.62305610  0.62335914  0.37388255  1
  Co  Co95  1  0.74838462  0.75444663  0.25834443  1
  Co  Co96  1  0.63134606  0.62327759  0.12990972  1
  Co  Co97  1  0.62192552  0.62144344  0.87309288  1
  Co  Co98  1  0.25006381  0.75105846  0.25279102  1
  Co  Co99  1  0.36924510  0.12352299  0.62482447  1
  Co  Co100  1  0.87924790  0.87535707  0.37643915  1
  Co  Co101  1  -0.00034024  0.75524737  0.24794031  1
  Co  Co102  1  0.25114047  -0.00083886  0.49372963  1
  Co  Co103  1  0.63023320  0.12238100  0.62591934  1
  Co  Co104  1  0.37229992  0.62379698  0.12700011  1
  Co  Co105  1  0.61740445  0.87812248  0.37526562  1
  Co  Co106  1  0.00345255  0.24874295  0.50145842  1
  Co  Co107  1  0.50127435  0.50157603  0.00453123  1
  Co  Co108  1  0.12900160  0.87729812  0.62452823  1
  Co  Co109  1  0.12499578  0.37739885  0.62549527  1
  Co  Co110  1  0.37546605  0.87252093  0.12511836  1
  Co  Co111  1  0.87699636  0.12650770  0.87534443  1
  Co  Co112  1  0.87615230  0.87217528  0.87550007  1
  Co  Co113  1  0.50220235  0.24733020  0.50160409  1
  Co  Co114  1  0.87446678  0.37242785  0.38041917  1
  Co  Co115  1  0.86908859  0.87294295  0.12472295  1
  Co  Co116  1  -0.00319024  0.49570881  0.24978165  1
  Co  Co117  1  0.87298235  0.12551342  0.62328680  1
  Co  Co118  1  0.87968920  0.62730858  0.37390866  1
  Co  Co119  1  0.75120405  0.24901472  0.25210104  1
  Co  Co120  1  0.75079007  -0.00125209  0.49540039  1
  Co  Co121  1  0.49887483  0.49931725  0.25059915  1
  Co  Co122  1  0.50151870  0.50100201  0.74367282  1
  Co  Co123  1  0.24914924  -0.00067533  0.75546999  1
  Co  Co124  1  0.37748143  0.12823099  0.12396391  1
  Co  Co125  1  0.62368642  0.87642343  0.87601724  1
  Co  Co126  1  -0.00331607  0.50175250  0.74723244  1
  Co  Co127  1  0.62771455  0.62803961  0.62241481  1
