# generated using pymatgen
data_Fe45Co19
_symmetry_space_group_name_H-M   'P 1'
_cell_length_a   11.41503277
_cell_length_b   11.41536522
_cell_length_c   11.41523043
_cell_angle_alpha   89.99614595
_cell_angle_beta   90.00228225
_cell_angle_gamma   89.99714705
_symmetry_Int_Tables_number   1
_chemical_formula_structural   Fe45Co19
_chemical_formula_sum   'Fe90 Co38'
_cell_volume   1487.48177729
_cell_formula_units_Z   2
loop_
 _symmetry_equiv_pos_site_id
 _symmetry_equiv_pos_as_xyz
  1  'x, y, z'
loop_
 _atom_site_type_symbol
 _atom_site_label
 _atom_site_symmetry_multiplicity
 _atom_site_fract_x
 _atom_site_fract_y
 _atom_site_fract_z
 _atom_site_occupancy
  Fe  Fe0  1  0.50118718  0.24808556  0.50118979  1
  Fe  Fe1  1  0.62458068  0.37290019  0.12431483  1
  Fe  Fe2  1  0.37845309  0.62682323  0.62607919  1
  Fe  Fe3  1  0.00246171  0.25080471  0.25037874  1
  Fe  Fe4  1  0.87665526  0.62436495  0.37562738  1
  Fe  Fe5  1  0.37424291  0.62239636  0.37586638  1
  Fe  Fe6  1  0.87428812  0.12587635  0.12360558  1
  Fe  Fe7  1  0.87613296  0.87553247  0.37538230  1
  Fe  Fe8  1  0.00171413  0.25183084  0.50127007  1
  Fe  Fe9  1  0.12203216  0.87878385  0.87350681  1
  Fe  Fe10  1  0.87588519  0.37510898  0.37511184  1
  Fe  Fe11  1  0.25355941  0.00264452  0.24964707  1
  Fe  Fe12  1  0.62341682  0.12414455  0.12569763  1
  Fe  Fe13  1  0.49569491  0.24653342  0.24846498  1
  Fe  Fe14  1  0.00209121  -0.00095884  0.50496649  1
  Fe  Fe15  1  0.49968409  0.74888404  -0.00149059  1
  Fe  Fe16  1  0.12656996  0.62620313  0.62995432  1
  Fe  Fe17  1  0.62351417  0.62200059  0.87218554  1
  Fe  Fe18  1  0.12453671  0.12767072  0.62984228  1
  Fe  Fe19  1  0.87565006  0.62543974  0.12369073  1
  Fe  Fe20  1  0.25055571  0.74997765  0.50053217  1
  Fe  Fe21  1  0.74748553  0.75003196  0.50061600  1
  Fe  Fe22  1  0.74875281  0.24853523  -0.00367071  1
  Fe  Fe23  1  0.62194719  0.37518603  0.87365472  1
  Fe  Fe24  1  0.50197188  0.49925569  0.50412629  1
  Fe  Fe25  1  0.12560075  0.87609850  0.12464158  1
  Fe  Fe26  1  -0.00045619  0.00058068  0.24858567  1
  Fe  Fe27  1  0.24858762  0.49784146  0.24694565  1
  Fe  Fe28  1  0.62752147  0.36882149  0.62899477  1
  Fe  Fe29  1  0.24936286  0.00000806  0.50347116  1
  Fe  Fe30  1  0.62405558  0.62631964  0.12564715  1
  Fe  Fe31  1  0.12546874  0.87583344  0.37585197  1
  Fe  Fe32  1  0.74810243  0.49877680  0.50269536  1
  Fe  Fe33  1  0.62235528  0.87804710  0.37485569  1
  Fe  Fe34  1  0.87561806  0.37361876  0.12212187  1
  Fe  Fe35  1  0.12660910  0.37743238  0.87072328  1
  Fe  Fe36  1  0.62412529  0.12342576  0.37439641  1
  Fe  Fe37  1  0.75094393  0.49922851  0.24915429  1
  Fe  Fe38  1  0.12727807  0.12521793  0.12098826  1
  Fe  Fe39  1  0.74578157  0.00041308  0.50331595  1
  Fe  Fe40  1  0.87375769  0.87528025  0.12493548  1
  Fe  Fe41  1  0.49737687  0.74955448  0.25147469  1
  Fe  Fe42  1  0.62464625  0.62369053  0.37578508  1
  Fe  Fe43  1  0.74913877  0.74841554  0.75071844  1
  Fe  Fe44  1  0.37742420  0.12561128  0.62598196  1
  Fe  Fe45  1  0.87506393  0.12419289  0.37684058  1
  Fe  Fe46  1  0.25086601  0.75137580  -0.00221471  1
  Fe  Fe47  1  0.75016233  0.75000574  -0.00241120  1
  Fe  Fe48  1  0.62441035  0.87567297  0.87276264  1
  Fe  Fe49  1  0.25093135  0.00005905  0.75059502  1
  Fe  Fe50  1  0.37362387  0.37406570  0.37778565  1
  Fe  Fe51  1  0.12648193  0.62712010  0.12252569  1
  Fe  Fe52  1  0.61859860  0.12662567  0.87193430  1
  Fe  Fe53  1  0.37627780  0.87818263  0.37833869  1
  Fe  Fe54  1  0.25120019  0.24850274  -0.00451983  1
  Fe  Fe55  1  0.87274422  0.12815272  0.62599729  1
  Fe  Fe56  1  0.74616455  0.00133937  0.74811053  1
  Fe  Fe57  1  0.87394266  0.37859075  0.87369110  1
  Fe  Fe58  1  0.00307149  0.49814453  0.24842824  1
  Fe  Fe59  1  0.00331992  0.50193776  -0.00347241  1
  Fe  Fe60  1  0.87306050  0.87529074  0.62720235  1
  Fe  Fe61  1  0.74761372  0.50016882  -0.00023980  1
  Fe  Fe62  1  0.37486397  0.62049652  0.87586334  1
  Fe  Fe63  1  0.75080334  0.75041601  0.25155918  1
  Fe  Fe64  1  0.25401391  0.25068599  0.75188654  1
  Fe  Fe65  1  0.24782233  0.25129870  0.50199133  1
  Fe  Fe66  1  0.62335526  0.87722505  0.12673996  1
  Fe  Fe67  1  0.00180644  0.75120139  0.50194154  1
  Fe  Fe68  1  0.62339121  0.37418390  0.37344564  1
  Fe  Fe69  1  0.24810675  0.49879693  0.50457307  1
  Fe  Fe70  1  0.75081520  0.24954164  0.25146049  1
  Fe  Fe71  1  0.37868656  0.87958242  0.87480749  1
  Fe  Fe72  1  0.25267169  0.75111237  0.75226105  1
  Fe  Fe73  1  0.25145741  0.75056203  0.25024614  1
  Fe  Fe74  1  0.12511981  0.62458624  0.37484758  1
  Fe  Fe75  1  0.37920298  0.87335451  0.62453344  1
  Fe  Fe76  1  0.49790765  0.50034942  0.24752351  1
  Fe  Fe77  1  0.37483262  0.37541389  0.12097981  1
  Fe  Fe78  1  0.25116494  0.24976240  0.24897545  1
  Fe  Fe79  1  0.00246802  0.49765969  0.50349828  1
  Fe  Fe80  1  0.37656697  0.87749955  0.12282125  1
  Fe  Fe81  1  -0.00181072  0.75113174  -0.00375200  1
  Fe  Fe82  1  0.00166336  0.24841559  -0.00494754  1
  Fe  Fe83  1  0.87807756  0.11978389  0.87315479  1
  Fe  Fe84  1  0.37802440  0.37885214  0.87667104  1
  Fe  Fe85  1  -0.00162653  0.74993554  0.75227308  1
  Fe  Fe86  1  0.12649811  0.12503043  0.37582165  1
  Fe  Fe87  1  0.87365694  0.62367657  0.62710995  1
  Fe  Fe88  1  0.87357779  0.37259453  0.62868002  1
  Fe  Fe89  1  0.74856681  0.00043600  -0.00076555  1
  Co  Co90  1  0.24931366  -0.00059710  -0.00320647  1
  Co  Co91  1  0.24784196  0.49963318  0.00055134  1
  Co  Co92  1  0.37363035  0.12660055  0.38017952  1
  Co  Co93  1  0.49946083  0.49742023  0.74548496  1
  Co  Co94  1  0.49506547  0.25240509  0.75018416  1
  Co  Co95  1  0.74951263  0.25073637  0.49630449  1
  Co  Co96  1  0.49928547  0.24957650  -0.00014902  1
  Co  Co97  1  0.12747998  0.37491244  0.37651854  1
  Co  Co98  1  0.12865886  0.62545098  0.87242300  1
  Co  Co99  1  0.50232536  -0.00023644  -0.00065599  1
  Co  Co100  1  -0.00014718  0.50117217  0.75064502  1
  Co  Co101  1  0.12476860  0.37192571  0.12073337  1
  Co  Co102  1  0.87219128  0.62350994  0.87455179  1
  Co  Co103  1  0.87350309  0.87832068  0.87257918  1
  Co  Co104  1  0.37814673  0.12166019  0.87513292  1
  Co  Co105  1  0.37331281  0.62561482  0.12291146  1
  Co  Co106  1  0.49841826  0.74895963  0.75449873  1
  Co  Co107  1  0.75238934  0.24869633  0.75659692  1
  Co  Co108  1  0.37506256  0.37288740  0.62129501  1
  Co  Co109  1  0.75171111  0.00046871  0.25046172  1
  Co  Co110  1  0.25410462  0.49860853  0.74708397  1
  Co  Co111  1  0.49509885  0.00287721  0.25036813  1
  Co  Co112  1  0.62263274  0.62875878  0.62652393  1
  Co  Co113  1  0.00061472  0.75031927  0.25023677  1
  Co  Co114  1  0.49996239  0.74943908  0.49670957  1
  Co  Co115  1  0.50185315  0.00052033  0.74610010  1
  Co  Co116  1  0.62632031  0.13140397  0.62797031  1
  Co  Co117  1  -0.00057859  -0.00068274  0.00193504  1
  Co  Co118  1  0.12744501  0.87208336  0.62801777  1
  Co  Co119  1  0.37362498  0.12362207  0.11853447  1
  Co  Co120  1  0.74717164  0.49978912  0.74821804  1
  Co  Co121  1  0.12446469  0.37320619  0.63016803  1
  Co  Co122  1  0.50270804  0.00280044  0.50425575  1
  Co  Co123  1  0.00067153  -0.00062812  0.74537822  1
  Co  Co124  1  0.62177653  0.87034101  0.62646099  1
  Co  Co125  1  0.50160557  0.50138417  0.00190333  1
  Co  Co126  1  0.12475404  0.12172443  0.87245920  1
  Co  Co127  1  -0.00174181  0.25003088  0.75324653  1
