# generated using pymatgen
data_Fe45Co19
_symmetry_space_group_name_H-M   'P 1'
_cell_length_a   11.41526075
_cell_length_b   11.41488735
_cell_length_c   11.41428985
_cell_angle_alpha   89.99465163
_cell_angle_beta   89.99921849
_cell_angle_gamma   89.99516453
_symmetry_Int_Tables_number   1
_chemical_formula_structural   Fe45Co19
_chemical_formula_sum   'Fe90 Co38'
_cell_volume   1487.32664790
_cell_formula_units_Z   2
loop_
 _symmetry_equiv_pos_site_id
 _symmetry_equiv_pos_as_xyz
  1  'x, y, z'
loop_
 _atom_site_type_symbol
 _atom_site_label
 _atom_site_symmetry_multiplicity
 _atom_site_fract_x
 _atom_site_fract_y
 _atom_site_fract_z
 _atom_site_occupancy
  Fe  Fe0  1  0.62360930  0.12309194  0.12449664  1
  Fe  Fe1  1  0.62773553  0.37432514  0.62372996  1
  Fe  Fe2  1  0.37620808  0.12500539  0.37570358  1
  Fe  Fe3  1  0.50079967  0.00401046  0.75223228  1
  Fe  Fe4  1  0.74901442  0.00183968  0.49787349  1
  Fe  Fe5  1  0.37491293  0.62337290  0.62637259  1
  Fe  Fe6  1  0.37432845  0.36892111  0.87005132  1
  Fe  Fe7  1  0.87310931  0.62514547  0.62317458  1
  Fe  Fe8  1  -0.00016679  0.24896632  0.49967412  1
  Fe  Fe9  1  0.37380980  0.87409858  0.37698503  1
  Fe  Fe10  1  0.75164025  0.49997522  -0.00169468  1
  Fe  Fe11  1  0.25124860  0.50076167  0.49684058  1
  Fe  Fe12  1  0.50003830  0.75133556  0.74844392  1
  Fe  Fe13  1  0.62385053  0.62442748  0.12374367  1
  Fe  Fe14  1  0.75129099  0.75171988  -0.00142667  1
  Fe  Fe15  1  0.87510395  0.87309902  0.37557121  1
  Fe  Fe16  1  0.49968027  0.00219972  0.50105396  1
  Fe  Fe17  1  0.37323759  0.12224794  0.12251544  1
  Fe  Fe18  1  0.87454128  0.37596441  0.12724859  1
  Fe  Fe19  1  0.62623111  0.87531210  0.12457408  1
  Fe  Fe20  1  0.25195178  0.24904883  0.50148484  1
  Fe  Fe21  1  0.74802165  0.00190081  0.25221003  1
  Fe  Fe22  1  -0.00012400  0.75178260  0.50339695  1
  Fe  Fe23  1  0.12696941  0.12316732  0.12319948  1
  Fe  Fe24  1  0.87996038  0.62596251  0.87477490  1
  Fe  Fe25  1  0.49839695  0.49871671  0.25133510  1
  Fe  Fe26  1  0.49931931  -0.00194341  -0.00186760  1
  Fe  Fe27  1  0.12627331  0.62415800  0.62422158  1
  Fe  Fe28  1  0.50107964  0.50030075  0.50120443  1
  Fe  Fe29  1  0.87959266  0.87492596  0.87200985  1
  Fe  Fe30  1  0.75028120  0.00184580  0.75324173  1
  Fe  Fe31  1  0.12212687  0.87358647  0.87434538  1
  Fe  Fe32  1  0.24886065  0.49972059  0.75212588  1
  Fe  Fe33  1  0.24880850  0.74755997  0.25000903  1
  Fe  Fe34  1  0.00156962  0.24985087  0.24882557  1
  Fe  Fe35  1  0.12680302  0.37431515  0.37356705  1
  Fe  Fe36  1  0.75149648  0.24926289  -0.00002577  1
  Fe  Fe37  1  0.87691910  0.12514577  0.37401464  1
  Fe  Fe38  1  0.62368579  0.62756650  0.87447225  1
  Fe  Fe39  1  0.25021006  0.00045384  0.25284226  1
  Fe  Fe40  1  0.74965533  0.24652722  0.75146527  1
  Fe  Fe41  1  0.00134988  0.75103645  0.24645954  1
  Fe  Fe42  1  0.74963616  0.74857463  0.25283856  1
  Fe  Fe43  1  0.00197420  -0.00122702  0.25037386  1
  Fe  Fe44  1  0.49833688  0.24799502  0.50527704  1
  Fe  Fe45  1  0.00049009  -0.00327717  0.00203083  1
  Fe  Fe46  1  0.37599890  0.62634188  0.37594780  1
  Fe  Fe47  1  0.87529065  0.12288903  0.12482827  1
  Fe  Fe48  1  0.24886969  0.74915626  0.75024690  1
  Fe  Fe49  1  0.00232583  0.24729654  0.74979405  1
  Fe  Fe50  1  0.12676543  0.12333872  0.62311751  1
  Fe  Fe51  1  0.49904188  0.25008470  0.24857319  1
  Fe  Fe52  1  0.49888866  0.75157508  0.24737593  1
  Fe  Fe53  1  0.49896282  0.25066644  0.00178306  1
  Fe  Fe54  1  0.50124042  0.49820313  0.74986409  1
  Fe  Fe55  1  0.37638137  0.62728260  0.87552232  1
  Fe  Fe56  1  0.74875453  0.24804297  0.25110369  1
  Fe  Fe57  1  0.12734153  0.87692956  0.62535925  1
  Fe  Fe58  1  0.87390381  0.37569030  0.37598951  1
  Fe  Fe59  1  0.74956125  0.50177954  0.25341811  1
  Fe  Fe60  1  0.87532357  0.12344215  0.62581911  1
  Fe  Fe61  1  0.75184224  0.75133191  0.74894239  1
  Fe  Fe62  1  0.62730821  0.87603451  0.62613575  1
  Fe  Fe63  1  0.37082554  0.87439806  0.12268720  1
  Fe  Fe64  1  0.37546617  0.87305256  0.87530768  1
  Fe  Fe65  1  0.75076483  0.50035337  0.75044857  1
  Fe  Fe66  1  0.37204549  0.87820662  0.62531547  1
  Fe  Fe67  1  0.00133132  -0.00022573  0.49943792  1
  Fe  Fe68  1  0.50127886  0.74969024  0.50305832  1
  Fe  Fe69  1  0.25019469  0.24971866  0.24907322  1
  Fe  Fe70  1  0.62477492  0.37275728  0.37739531  1
  Fe  Fe71  1  0.12682564  0.37600345  0.62475208  1
  Fe  Fe72  1  0.87334001  0.37458710  0.62395875  1
  Fe  Fe73  1  -0.00042003  0.49985660  0.49984217  1
  Fe  Fe74  1  0.24887953  0.00418630  0.75465513  1
  Fe  Fe75  1  0.62600272  0.37663810  0.12453963  1
  Fe  Fe76  1  0.00196601  0.50092633  0.25040100  1
  Fe  Fe77  1  0.12417880  0.37442514  0.87557061  1
  Fe  Fe78  1  0.87545444  0.62573080  0.12430956  1
  Fe  Fe79  1  0.12704292  0.62123559  0.12060872  1
  Fe  Fe80  1  0.37062295  0.37811991  0.12569308  1
  Fe  Fe81  1  0.62265674  0.87512803  0.37465629  1
  Fe  Fe82  1  0.74997284  -0.00069175  -0.00312208  1
  Fe  Fe83  1  0.49836386  0.49896215  -0.00215246  1
  Fe  Fe84  1  0.62441086  0.37213871  0.87488762  1
  Fe  Fe85  1  0.37304961  0.62414123  0.12201610  1
  Fe  Fe86  1  0.00017242  0.25225135  0.00270989  1
  Fe  Fe87  1  0.11982622  0.62506463  0.87681623  1
  Fe  Fe88  1  0.12685367  0.87292001  0.37604635  1
  Fe  Fe89  1  0.87738427  0.37453940  0.87327607  1
  Co  Co90  1  0.12583247  0.12669506  0.37467348  1
  Co  Co91  1  -0.00223183  0.49666043  0.00109010  1
  Co  Co92  1  0.24959575  0.00112184  0.49754027  1
  Co  Co93  1  0.87856489  0.12412795  0.87634130  1
  Co  Co94  1  0.24584635  0.24757579  0.74828421  1
  Co  Co95  1  0.37177932  0.12274133  0.62770641  1
  Co  Co96  1  0.37536256  0.37318354  0.37628189  1
  Co  Co97  1  0.75170385  0.24649204  0.49873719  1
  Co  Co98  1  0.12390364  0.12613448  0.88010512  1
  Co  Co99  1  0.62107424  0.62552890  0.37300134  1
  Co  Co100  1  0.74863714  0.50317108  0.49837449  1
  Co  Co101  1  0.50004802  0.75162957  0.00154291  1
  Co  Co102  1  0.24976857  0.25159537  0.00126343  1
  Co  Co103  1  0.37301543  0.37678273  0.62728964  1
  Co  Co104  1  0.24996358  0.50208020  0.25420201  1
  Co  Co105  1  0.74714583  0.74871065  0.49894248  1
  Co  Co106  1  0.62067285  0.12649280  0.37442024  1
  Co  Co107  1  0.25194868  0.49867536  -0.00543893  1
  Co  Co108  1  0.00266874  0.00224085  0.74851992  1
  Co  Co109  1  0.12344789  0.62783091  0.37686974  1
  Co  Co110  1  0.24791306  0.74957554  -0.00273173  1
  Co  Co111  1  0.37583205  0.12993794  0.87498598  1
  Co  Co112  1  0.25107406  -0.00118298  -0.00495509  1
  Co  Co113  1  0.12996779  0.87722688  0.12537064  1
  Co  Co114  1  0.00037305  0.74998238  0.74450909  1
  Co  Co115  1  0.25141450  0.74946469  0.50246500  1
  Co  Co116  1  0.62258651  0.12759896  0.87707871  1
  Co  Co117  1  0.49753146  -0.00178177  0.24904763  1
  Co  Co118  1  0.62420049  0.87312410  0.87343266  1
  Co  Co119  1  0.50191202  0.24778598  0.74433452  1
  Co  Co120  1  -0.00036495  0.49968792  0.74730232  1
  Co  Co121  1  0.62805412  0.12351028  0.62570200  1
  Co  Co122  1  0.62520671  0.62580443  0.62854484  1
  Co  Co123  1  0.87157351  0.87620852  0.12747646  1
  Co  Co124  1  0.87822873  0.62701028  0.37589582  1
  Co  Co125  1  0.12815800  0.37791264  0.12624564  1
  Co  Co126  1  -0.00004142  0.75380987  0.00408173  1
  Co  Co127  1  0.87269778  0.87787695  0.62446085  1
