# generated using pymatgen
data_Fe45Co19
_symmetry_space_group_name_H-M   'P 1'
_cell_length_a   11.41633655
_cell_length_b   11.41523477
_cell_length_c   11.41573632
_cell_angle_alpha   90.00806352
_cell_angle_beta   89.99180733
_cell_angle_gamma   90.00151698
_symmetry_Int_Tables_number   1
_chemical_formula_structural   Fe45Co19
_chemical_formula_sum   'Fe90 Co38'
_cell_volume   1487.70057639
_cell_formula_units_Z   2
loop_
 _symmetry_equiv_pos_site_id
 _symmetry_equiv_pos_as_xyz
  1  'x, y, z'
loop_
 _atom_site_type_symbol
 _atom_site_label
 _atom_site_symmetry_multiplicity
 _atom_site_fract_x
 _atom_site_fract_y
 _atom_site_fract_z
 _atom_site_occupancy
  Fe  Fe0  1  -0.00271294  0.24945292  -0.00191934  1
  Fe  Fe1  1  0.87339348  0.62170863  0.12228181  1
  Fe  Fe2  1  0.37355873  0.37609580  0.62637422  1
  Fe  Fe3  1  0.00009268  0.25115854  0.25007102  1
  Fe  Fe4  1  -0.00395010  0.75007417  0.50238750  1
  Fe  Fe5  1  0.49913951  0.00153110  0.00038428  1
  Fe  Fe6  1  -0.00125287  0.00133810  0.75581246  1
  Fe  Fe7  1  0.37764065  0.87557532  0.87383732  1
  Fe  Fe8  1  0.62547841  0.12501670  0.37430558  1
  Fe  Fe9  1  0.24730103  0.24995844  0.49857648  1
  Fe  Fe10  1  0.74998291  -0.00318136  0.75425662  1
  Fe  Fe11  1  0.87664328  0.37569766  0.62798021  1
  Fe  Fe12  1  0.24999285  0.75060276  0.75115751  1
  Fe  Fe13  1  0.12757977  0.62644494  0.87707968  1
  Fe  Fe14  1  0.12336885  0.87459017  0.87889051  1
  Fe  Fe15  1  0.62694736  0.37122489  0.87711174  1
  Fe  Fe16  1  0.12156402  0.38010312  0.12673915  1
  Fe  Fe17  1  0.12427301  0.12390526  0.12323598  1
  Fe  Fe18  1  0.50057023  0.74823929  0.49943993  1
  Fe  Fe19  1  0.37610518  0.37550073  0.12609022  1
  Fe  Fe20  1  0.49842696  0.00028357  0.49848258  1
  Fe  Fe21  1  0.24994068  0.50264982  0.00268703  1
  Fe  Fe22  1  0.74837240  -0.00272475  0.25103557  1
  Fe  Fe23  1  -0.00085557  -0.00164886  0.49751593  1
  Fe  Fe24  1  0.62338627  0.37435828  0.62553667  1
  Fe  Fe25  1  0.87507633  0.62504126  0.87507058  1
  Fe  Fe26  1  0.25167089  0.24898064  0.00104728  1
  Fe  Fe27  1  0.75223002  -0.00256474  -0.00189139  1
  Fe  Fe28  1  0.74679502  0.75026342  0.25044299  1
  Fe  Fe29  1  0.24737364  0.49926844  0.50150969  1
  Fe  Fe30  1  -0.00050092  0.74603407  0.24803406  1
  Fe  Fe31  1  0.50116581  0.24977026  0.24804844  1
  Fe  Fe32  1  0.75165315  0.75213389  0.74932514  1
  Fe  Fe33  1  0.12325190  0.87307490  0.37254792  1
  Fe  Fe34  1  0.00161833  0.74909406  0.00234829  1
  Fe  Fe35  1  0.25056479  0.75033764  0.49906166  1
  Fe  Fe36  1  0.12504053  0.62274952  0.37383977  1
  Fe  Fe37  1  0.37535056  0.12413725  0.62625478  1
  Fe  Fe38  1  0.37348471  0.37663432  0.37272994  1
  Fe  Fe39  1  0.62533165  0.12494276  0.12393271  1
  Fe  Fe40  1  0.87541378  0.38004350  0.12135683  1
  Fe  Fe41  1  0.87535261  0.12331896  0.12436603  1
  Fe  Fe42  1  0.87603986  0.87477775  0.12516106  1
  Fe  Fe43  1  0.37427226  0.12408182  0.37059597  1
  Fe  Fe44  1  0.49939825  0.24859949  0.75100715  1
  Fe  Fe45  1  0.00279032  -0.00044829  0.24892881  1
  Fe  Fe46  1  0.50527398  0.74772743  0.24900486  1
  Fe  Fe47  1  0.62642655  0.12797856  0.87662146  1
  Fe  Fe48  1  0.62700744  0.37781695  0.12420601  1
  Fe  Fe49  1  0.74889651  0.75056769  0.00020211  1
  Fe  Fe50  1  0.75278984  -0.00432275  0.49669713  1
  Fe  Fe51  1  0.00140124  0.25059980  0.49928375  1
  Fe  Fe52  1  0.37491015  0.37580081  0.87576237  1
  Fe  Fe53  1  0.62478447  0.62777270  0.87637166  1
  Fe  Fe54  1  0.50050304  0.50048282  0.49862321  1
  Fe  Fe55  1  0.12384361  0.12502100  0.62516169  1
  Fe  Fe56  1  0.37584589  0.62349909  0.37131008  1
  Fe  Fe57  1  0.87521220  0.37508174  0.37489580  1
  Fe  Fe58  1  0.25084414  0.24873869  0.75145856  1
  Fe  Fe59  1  0.62933393  0.62507861  0.62127446  1
  Fe  Fe60  1  0.74951781  0.49909928  0.75188576  1
  Fe  Fe61  1  0.37515762  0.87567111  0.12761291  1
  Fe  Fe62  1  0.50034323  0.75036550  0.00241582  1
  Fe  Fe63  1  0.50027699  0.74964315  0.74794550  1
  Fe  Fe64  1  0.37454705  0.62552770  0.87659021  1
  Fe  Fe65  1  0.00294523  0.50141931  0.75071283  1
  Fe  Fe66  1  0.75172414  0.25137226  0.24745024  1
  Fe  Fe67  1  0.24877091  -0.00062970  0.49716111  1
  Fe  Fe68  1  0.87414173  0.12306138  0.62604959  1
  Fe  Fe69  1  0.24665571  0.25000286  0.25025871  1
  Fe  Fe70  1  0.49927124  0.24986853  0.49885615  1
  Fe  Fe71  1  -0.00053084  0.74868623  0.74813423  1
  Fe  Fe72  1  0.24737078  0.74795033  0.24554543  1
  Fe  Fe73  1  0.25087564  -0.00018325  0.00085871  1
  Fe  Fe74  1  0.75078655  0.25139069  0.50126515  1
  Fe  Fe75  1  0.12366379  0.87429484  0.62490341  1
  Fe  Fe76  1  0.37648823  0.87533580  0.37095843  1
  Fe  Fe77  1  0.24900714  0.00058765  0.75170182  1
  Fe  Fe78  1  0.50142569  0.50062061  0.00136009  1
  Fe  Fe79  1  0.37237387  0.62379933  0.62629068  1
  Fe  Fe80  1  0.37541226  0.87591304  0.62591318  1
  Fe  Fe81  1  0.62465648  0.87561669  0.62388604  1
  Fe  Fe82  1  0.62575635  0.37710159  0.37268710  1
  Fe  Fe83  1  0.50063340  0.50124680  0.75114970  1
  Fe  Fe84  1  0.00127513  0.50007225  0.50204992  1
  Fe  Fe85  1  0.86919239  0.62452968  0.37926643  1
  Fe  Fe86  1  0.62668178  0.12384028  0.62427212  1
  Fe  Fe87  1  0.87546706  0.12493092  0.37338644  1
  Fe  Fe88  1  0.12622590  0.37473368  0.87517512  1
  Fe  Fe89  1  -0.00131369  0.24823264  0.75346376  1
  Co  Co90  1  0.37434645  0.12502436  0.12793123  1
  Co  Co91  1  -0.00236713  0.00127857  -0.00146159  1
  Co  Co92  1  0.12662975  0.62753855  0.62419298  1
  Co  Co93  1  0.75259494  0.75659952  0.50051637  1
  Co  Co94  1  0.62557549  0.87619783  0.12313106  1
  Co  Co95  1  0.37623144  0.12503666  0.87518063  1
  Co  Co96  1  0.62897855  0.62354770  0.37803452  1
  Co  Co97  1  0.25050872  0.75106204  0.00218141  1
  Co  Co98  1  0.12628982  0.12603930  0.87792773  1
  Co  Co99  1  0.12319461  0.62126144  0.12498771  1
  Co  Co100  1  0.50256545  0.00042740  0.24880441  1
  Co  Co101  1  0.49911402  0.24981007  0.00195343  1
  Co  Co102  1  0.12424315  0.37810332  0.37249442  1
  Co  Co103  1  0.50289901  0.00139181  0.75057160  1
  Co  Co104  1  0.12282100  0.12530687  0.37442380  1
  Co  Co105  1  0.12289790  0.87572424  0.12395148  1
  Co  Co106  1  0.00062284  0.50070483  -0.00428945  1
  Co  Co107  1  -0.00468191  0.50315223  0.25217752  1
  Co  Co108  1  0.87741760  0.87118482  0.87713783  1
  Co  Co109  1  0.12512901  0.37285291  0.62698628  1
  Co  Co110  1  0.62693583  0.62251448  0.12418043  1
  Co  Co111  1  0.24813885  0.50159566  0.75076330  1
  Co  Co112  1  0.75211917  0.50024223  0.24963559  1
  Co  Co113  1  0.75013231  0.25084805  0.74735247  1
  Co  Co114  1  0.50112902  0.50081099  0.24883572  1
  Co  Co115  1  0.74911452  0.50098092  -0.00381725  1
  Co  Co116  1  0.87183310  0.62283628  0.62461920  1
  Co  Co117  1  0.87389809  0.37484976  0.87494019  1
  Co  Co118  1  0.25099179  0.50156227  0.24663168  1
  Co  Co119  1  0.87028978  0.12764357  0.87586948  1
  Co  Co120  1  0.62237115  0.87432376  0.37654132  1
  Co  Co121  1  0.24635905  0.00002224  0.24984668  1
  Co  Co122  1  0.37726070  0.62658700  0.12516814  1
  Co  Co123  1  0.74980967  0.49381799  0.50163181  1
  Co  Co124  1  0.75317368  0.25084717  0.00353043  1
  Co  Co125  1  0.87774504  0.87405667  0.36964648  1
  Co  Co126  1  0.62272455  0.87246620  0.87626911  1
  Co  Co127  1  0.87673017  0.87757982  0.62837379  1
