# generated using pymatgen
data_Fe45Co19
_symmetry_space_group_name_H-M   'P 1'
_cell_length_a   11.41504093
_cell_length_b   11.41682295
_cell_length_c   11.41556669
_cell_angle_alpha   89.99240046
_cell_angle_beta   90.00147602
_cell_angle_gamma   89.99995519
_symmetry_Int_Tables_number   1
_chemical_formula_structural   Fe45Co19
_chemical_formula_sum   'Fe90 Co38'
_cell_volume   1487.71660658
_cell_formula_units_Z   2
loop_
 _symmetry_equiv_pos_site_id
 _symmetry_equiv_pos_as_xyz
  1  'x, y, z'
loop_
 _atom_site_type_symbol
 _atom_site_label
 _atom_site_symmetry_multiplicity
 _atom_site_fract_x
 _atom_site_fract_y
 _atom_site_fract_z
 _atom_site_occupancy
  Fe  Fe0  1  0.49928881  0.24995808  0.74981472  1
  Fe  Fe1  1  0.62626765  0.62584024  0.37483580  1
  Fe  Fe2  1  0.62708026  0.12520483  0.62496100  1
  Fe  Fe3  1  -0.00029285  -0.00167511  0.49610165  1
  Fe  Fe4  1  0.62559533  0.37545175  0.62661254  1
  Fe  Fe5  1  0.36924902  0.62368226  0.87789841  1
  Fe  Fe6  1  0.75127977  0.49692648  0.49723113  1
  Fe  Fe7  1  0.49957610  0.74939023  0.25130852  1
  Fe  Fe8  1  0.87488961  0.62497142  0.12363091  1
  Fe  Fe9  1  0.00143202  0.75013343  0.49519659  1
  Fe  Fe10  1  0.50225701  0.00177532  0.24752949  1
  Fe  Fe11  1  0.37476152  0.12568306  0.37378708  1
  Fe  Fe12  1  0.12586901  0.62563381  0.12407679  1
  Fe  Fe13  1  0.75195342  -0.00288156  0.75330958  1
  Fe  Fe14  1  0.62587070  0.62618910  0.12465190  1
  Fe  Fe15  1  0.49880555  0.50045124  0.75147759  1
  Fe  Fe16  1  0.00004092  0.50056011  0.49553848  1
  Fe  Fe17  1  0.87588794  0.12403784  0.62295893  1
  Fe  Fe18  1  0.12255622  0.87052014  0.87613312  1
  Fe  Fe19  1  0.25040829  0.75155538  0.50030376  1
  Fe  Fe20  1  0.24711013  0.25339679  0.00397888  1
  Fe  Fe21  1  0.49653638  0.74912431  0.74810675  1
  Fe  Fe22  1  0.12680611  0.62370748  0.62359671  1
  Fe  Fe23  1  0.75102939  -0.00243218  0.49728671  1
  Fe  Fe24  1  0.25196650  0.74977099  0.74756211  1
  Fe  Fe25  1  0.37302610  0.37741939  0.62524865  1
  Fe  Fe26  1  0.00324666  0.50156291  0.75224808  1
  Fe  Fe27  1  0.37095047  0.12190157  0.62545041  1
  Fe  Fe28  1  0.37193939  0.37555586  0.87527427  1
  Fe  Fe29  1  0.75179360  0.25171187  0.00049027  1
  Fe  Fe30  1  0.12449518  0.12483737  0.12437245  1
  Fe  Fe31  1  0.75169061  0.75169903  0.25001587  1
  Fe  Fe32  1  0.49862761  0.25131659  0.49966996  1
  Fe  Fe33  1  0.37479546  0.87619961  0.87599861  1
  Fe  Fe34  1  0.75073751  0.49900677  0.25210887  1
  Fe  Fe35  1  0.24959414  0.74822412  0.24967744  1
  Fe  Fe36  1  0.37525343  0.87640343  0.12540569  1
  Fe  Fe37  1  0.37333922  0.62495330  0.12140474  1
  Fe  Fe38  1  0.50014476  0.25046347  0.00262258  1
  Fe  Fe39  1  0.75276572  0.25356489  0.49890310  1
  Fe  Fe40  1  0.12676117  0.37775911  0.36767638  1
  Fe  Fe41  1  0.49879011  0.24885111  0.24865686  1
  Fe  Fe42  1  0.24939924  0.25143015  0.49774471  1
  Fe  Fe43  1  0.87766159  0.12438743  0.87804008  1
  Fe  Fe44  1  0.49850917  0.50067718  0.25086796  1
  Fe  Fe45  1  0.12613866  0.12245572  0.62386941  1
  Fe  Fe46  1  0.75165429  0.75157850  0.75285956  1
  Fe  Fe47  1  0.37355901  0.87654374  0.37396003  1
  Fe  Fe48  1  0.50119118  0.75106367  0.00039298  1
  Fe  Fe49  1  0.37136253  0.62241701  0.37785682  1
  Fe  Fe50  1  0.87551856  0.62407803  0.62313491  1
  Fe  Fe51  1  0.62568455  0.12707695  0.87602584  1
  Fe  Fe52  1  0.12786273  0.87842472  0.62358856  1
  Fe  Fe53  1  0.12171322  0.87388917  0.12833457  1
  Fe  Fe54  1  0.24656561  -0.00219205  -0.00010784  1
  Fe  Fe55  1  0.87717216  0.87475448  0.62477580  1
  Fe  Fe56  1  0.88052174  0.37322341  0.87441137  1
  Fe  Fe57  1  0.12278511  0.12307723  0.37499013  1
  Fe  Fe58  1  0.87771357  0.87541010  0.12170332  1
  Fe  Fe59  1  0.12283245  0.13002447  0.87645920  1
  Fe  Fe60  1  0.62662273  0.12622529  0.37427828  1
  Fe  Fe61  1  0.75091862  0.49874766  0.75184252  1
  Fe  Fe62  1  0.24934209  0.24916678  0.74869769  1
  Fe  Fe63  1  0.24874864  0.00225979  0.25000069  1
  Fe  Fe64  1  0.49954899  0.49792691  0.49795836  1
  Fe  Fe65  1  0.74967607  0.49895338  -0.00135474  1
  Fe  Fe66  1  0.00027412  0.74902575  0.74932568  1
  Fe  Fe67  1  0.62457035  0.62530845  0.87602654  1
  Fe  Fe68  1  0.75250399  0.25159668  0.25088745  1
  Fe  Fe69  1  0.62571736  0.62429200  0.62501195  1
  Fe  Fe70  1  0.00684508  0.49871418  -0.00098518  1
  Fe  Fe71  1  0.75005905  0.75251396  0.49852687  1
  Fe  Fe72  1  0.49869938  -0.00017357  0.50067330  1
  Fe  Fe73  1  0.62354721  0.87480723  0.62596146  1
  Fe  Fe74  1  0.49907027  0.00082221  0.74961100  1
  Fe  Fe75  1  0.87942255  0.37819177  0.12677534  1
  Fe  Fe76  1  0.87452420  0.12127178  0.12302955  1
  Fe  Fe77  1  0.37340472  0.12456450  0.87847523  1
  Fe  Fe78  1  -0.00082097  0.25172256  0.49921663  1
  Fe  Fe79  1  0.12314269  0.37547756  0.62784935  1
  Fe  Fe80  1  0.50460813  0.00086669  0.00329529  1
  Fe  Fe81  1  0.62540676  0.37489504  0.12586089  1
  Fe  Fe82  1  0.49963311  0.49805538  0.00079453  1
  Fe  Fe83  1  0.00158000  0.00051534  0.75183581  1
  Fe  Fe84  1  0.87777650  0.62671334  0.87689784  1
  Fe  Fe85  1  0.75299204  0.25184450  0.74959456  1
  Fe  Fe86  1  0.49767306  0.75126773  0.50148677  1
  Fe  Fe87  1  0.37053142  0.37480997  0.12839460  1
  Fe  Fe88  1  0.75018547  -0.00219179  0.25058317  1
  Fe  Fe89  1  -0.00128032  0.24683272  0.24851429  1
  Co  Co90  1  -0.00096957  0.00147277  0.25053794  1
  Co  Co91  1  0.12326391  0.36959034  0.87189793  1
  Co  Co92  1  0.24962957  0.75335875  0.00292535  1
  Co  Co93  1  0.24483186  0.49589825  0.00057192  1
  Co  Co94  1  0.00010386  0.25147187  0.00556480  1
  Co  Co95  1  0.62494539  0.87177987  0.12589880  1
  Co  Co96  1  -0.00195803  0.24652258  0.74592430  1
  Co  Co97  1  0.37343904  0.62071193  0.62332668  1
  Co  Co98  1  0.62889464  0.12747847  0.12543609  1
  Co  Co99  1  0.12888844  0.62461888  0.37559552  1
  Co  Co100  1  0.87814648  0.87402012  0.37291197  1
  Co  Co101  1  0.87232148  0.62613416  0.37628381  1
  Co  Co102  1  -0.00048589  0.74621835  0.25140604  1
  Co  Co103  1  0.37246449  0.12381500  0.12253983  1
  Co  Co104  1  0.25054388  0.00151383  0.49563303  1
  Co  Co105  1  0.87467780  0.12518472  0.37579666  1
  Co  Co106  1  0.12894919  0.62937894  0.87609810  1
  Co  Co107  1  -0.00005835  0.50721715  0.25145175  1
  Co  Co108  1  0.00360826  0.00033955  -0.00074583  1
  Co  Co109  1  0.12587707  0.87503685  0.37229874  1
  Co  Co110  1  0.00042796  0.74713813  0.00233325  1
  Co  Co111  1  0.74700769  -0.00230464  -0.00139846  1
  Co  Co112  1  0.25172088  0.50511923  0.24677359  1
  Co  Co113  1  0.87751597  0.37801962  0.62586158  1
  Co  Co114  1  0.24661836  0.00084080  0.75546358  1
  Co  Co115  1  0.37141762  0.37510778  0.37132571  1
  Co  Co116  1  0.62425930  0.37346040  0.87554292  1
  Co  Co117  1  0.62282937  0.87522682  0.37482916  1
  Co  Co118  1  0.87989573  0.87433477  0.87869388  1
  Co  Co119  1  0.74999238  0.75063009  -0.00185162  1
  Co  Co120  1  0.24846986  0.24473239  0.25061061  1
  Co  Co121  1  0.24774248  0.49611752  0.50047029  1
  Co  Co122  1  0.87952220  0.37539156  0.37181233  1
  Co  Co123  1  0.12431277  0.37580895  0.13288242  1
  Co  Co124  1  0.62196049  0.87382091  0.87400372  1
  Co  Co125  1  0.24724535  0.50024566  0.75135606  1
  Co  Co126  1  0.62342803  0.37330740  0.37317545  1
  Co  Co127  1  0.37157539  0.87949068  0.62567559  1
