# generated using pymatgen
data_Fe45Co19
_symmetry_space_group_name_H-M   'P 1'
_cell_length_a   11.41647695
_cell_length_b   11.41526544
_cell_length_c   11.41527853
_cell_angle_alpha   90.00204693
_cell_angle_beta   90.00544888
_cell_angle_gamma   90.00694619
_symmetry_Int_Tables_number   1
_chemical_formula_structural   Fe45Co19
_chemical_formula_sum   'Fe90 Co38'
_cell_volume   1487.66322057
_cell_formula_units_Z   2
loop_
 _symmetry_equiv_pos_site_id
 _symmetry_equiv_pos_as_xyz
  1  'x, y, z'
loop_
 _atom_site_type_symbol
 _atom_site_label
 _atom_site_symmetry_multiplicity
 _atom_site_fract_x
 _atom_site_fract_y
 _atom_site_fract_z
 _atom_site_occupancy
  Fe  Fe0  1  0.24763161  0.25439577  0.24780441  1
  Fe  Fe1  1  0.12495675  0.87848305  0.62715021  1
  Fe  Fe2  1  0.87373533  0.62828825  0.37584900  1
  Fe  Fe3  1  0.37141585  0.62582620  0.12273019  1
  Fe  Fe4  1  0.62376546  0.37727312  0.87227657  1
  Fe  Fe5  1  0.87500460  0.62664647  0.62527879  1
  Fe  Fe6  1  0.37320903  0.62319663  0.87431519  1
  Fe  Fe7  1  0.62016946  0.87774955  0.87941385  1
  Fe  Fe8  1  0.49911534  0.25064390  0.00065250  1
  Fe  Fe9  1  0.49734781  0.50209523  0.25074233  1
  Fe  Fe10  1  0.00142680  0.24948995  0.24948591  1
  Fe  Fe11  1  0.25024783  0.49928739  0.49996638  1
  Fe  Fe12  1  0.87650583  0.37374174  0.37566870  1
  Fe  Fe13  1  0.87513918  0.62528436  0.12423284  1
  Fe  Fe14  1  0.62617059  0.12369443  0.12447934  1
  Fe  Fe15  1  0.62631377  0.62287925  0.62797023  1
  Fe  Fe16  1  0.24850424  0.25199588  0.75147610  1
  Fe  Fe17  1  0.00359412  0.75021227  -0.00024596  1
  Fe  Fe18  1  0.49986516  0.50090242  -0.00180532  1
  Fe  Fe19  1  0.37333215  0.37344302  0.37473266  1
  Fe  Fe20  1  0.25237298  -0.00305641  0.00322496  1
  Fe  Fe21  1  0.50058393  0.24818223  0.74887677  1
  Fe  Fe22  1  0.87859374  0.37432877  0.12323318  1
  Fe  Fe23  1  0.12580144  0.62376561  0.37581769  1
  Fe  Fe24  1  0.75143451  0.50055073  0.49983025  1
  Fe  Fe25  1  0.37251394  0.62749853  0.37699501  1
  Fe  Fe26  1  0.37357049  0.12482445  0.62499082  1
  Fe  Fe27  1  0.00230613  0.75173474  0.50085200  1
  Fe  Fe28  1  0.12364384  0.37610441  0.62477384  1
  Fe  Fe29  1  0.49897848  0.00223035  0.50076379  1
  Fe  Fe30  1  0.62458943  0.37368390  0.37404802  1
  Fe  Fe31  1  0.74832271  0.75164923  0.75119887  1
  Fe  Fe32  1  0.12650011  0.12334792  0.87646645  1
  Fe  Fe33  1  0.50082798  0.74945893  0.24686066  1
  Fe  Fe34  1  0.24990925  0.75004642  0.75067158  1
  Fe  Fe35  1  0.24917811  0.49465475  -0.00173378  1
  Fe  Fe36  1  0.75134016  0.49908268  0.25012392  1
  Fe  Fe37  1  0.37457260  0.12536450  0.87615025  1
  Fe  Fe38  1  0.12811031  0.12154939  0.37444805  1
  Fe  Fe39  1  0.37526507  0.37532999  0.62687861  1
  Fe  Fe40  1  0.87619579  0.12401412  0.87765202  1
  Fe  Fe41  1  0.00082256  0.49989794  0.25138174  1
  Fe  Fe42  1  0.12581095  0.62257990  0.87420334  1
  Fe  Fe43  1  0.49891396  0.24968210  0.24837786  1
  Fe  Fe44  1  0.75064613  0.49887600  -0.00138750  1
  Fe  Fe45  1  0.74917943  -0.00078178  0.49996161  1
  Fe  Fe46  1  0.12575068  0.87926213  0.37292242  1
  Fe  Fe47  1  0.49981684  0.74689433  0.75199266  1
  Fe  Fe48  1  0.12689510  0.12101542  0.62430718  1
  Fe  Fe49  1  0.00125386  0.24640813  0.75101641  1
  Fe  Fe50  1  0.62437845  0.12590013  0.37418400  1
  Fe  Fe51  1  0.62839950  0.62768317  0.37451249  1
  Fe  Fe52  1  0.87391517  0.87299382  0.37565155  1
  Fe  Fe53  1  0.00355277  0.24822635  0.49827556  1
  Fe  Fe54  1  0.62292904  0.12195310  0.87558841  1
  Fe  Fe55  1  0.87512983  0.12353291  0.12328580  1
  Fe  Fe56  1  0.87418984  0.12390478  0.62405926  1
  Fe  Fe57  1  0.87811570  0.87510337  0.87462356  1
  Fe  Fe58  1  0.24904720  0.75090553  0.24980753  1
  Fe  Fe59  1  0.74755304  0.24976567  0.49952319  1
  Fe  Fe60  1  0.37760444  0.87453886  0.87802482  1
  Fe  Fe61  1  0.37443605  0.87387062  0.37527057  1
  Fe  Fe62  1  0.62469592  0.37580459  0.62617212  1
  Fe  Fe63  1  0.75047990  0.25015664  0.75100562  1
  Fe  Fe64  1  0.49512266  -0.00038457  0.24490944  1
  Fe  Fe65  1  0.74947839  0.00008706  0.75161804  1
  Fe  Fe66  1  0.12680817  0.62462756  0.62494356  1
  Fe  Fe67  1  0.87748947  0.87541178  0.62660971  1
  Fe  Fe68  1  0.24778904  0.25575737  0.00061384  1
  Fe  Fe69  1  0.50119071  0.74846949  0.50152602  1
  Fe  Fe70  1  0.74962151  0.25057888  0.00027680  1
  Fe  Fe71  1  0.62680708  0.62523952  0.12496343  1
  Fe  Fe72  1  0.87442896  0.12519266  0.37531094  1
  Fe  Fe73  1  0.62389439  0.37554389  0.12634291  1
  Fe  Fe74  1  -0.00093025  0.50160974  0.75064963  1
  Fe  Fe75  1  0.37431321  0.87348543  0.62492985  1
  Fe  Fe76  1  0.75016816  -0.00151113  0.24860599  1
  Fe  Fe77  1  0.87698164  0.87663081  0.12374054  1
  Fe  Fe78  1  0.87734450  0.37409670  0.62359400  1
  Fe  Fe79  1  0.37253848  0.12714357  0.37533771  1
  Fe  Fe80  1  0.87394513  0.62652836  0.87478883  1
  Fe  Fe81  1  0.12682586  0.62334178  0.12453194  1
  Fe  Fe82  1  0.74756544  0.75184936  0.00048244  1
  Fe  Fe83  1  0.62537156  0.87364462  0.37333895  1
  Fe  Fe84  1  0.88006026  0.37377878  0.87728064  1
  Fe  Fe85  1  0.12397158  0.87735666  0.87359942  1
  Fe  Fe86  1  0.49865751  0.50103645  0.49968304  1
  Fe  Fe87  1  0.62339705  0.87701891  0.62601748  1
  Fe  Fe88  1  0.12558495  0.12080688  0.12614689  1
  Fe  Fe89  1  0.00067209  0.75073710  0.24886978  1
  Co  Co90  1  0.50207482  0.74445978  -0.00078662  1
  Co  Co91  1  0.12576439  0.37614505  0.37562889  1
  Co  Co92  1  0.75016302  0.75176585  0.24577071  1
  Co  Co93  1  0.00181801  -0.00094596  -0.00057977  1
  Co  Co94  1  0.00283335  0.24588197  0.00201939  1
  Co  Co95  1  0.62231627  0.87626724  0.12291023  1
  Co  Co96  1  0.24907076  0.49801667  0.75071385  1
  Co  Co97  1  0.75062377  -0.00088321  -0.00107629  1
  Co  Co98  1  0.25073926  0.49942469  0.25042141  1
  Co  Co99  1  0.25250284  -0.00088849  0.50022148  1
  Co  Co100  1  0.00003674  0.50153621  0.49919126  1
  Co  Co101  1  0.49766726  0.00109386  0.74923780  1
  Co  Co102  1  0.49472314  0.00291387  0.00581828  1
  Co  Co103  1  0.37471418  0.86790891  0.12229171  1
  Co  Co104  1  0.75457804  0.49757668  0.75075018  1
  Co  Co105  1  0.62824507  0.62294601  0.87293423  1
  Co  Co106  1  0.00045196  0.50366095  -0.00114469  1
  Co  Co107  1  0.37220259  0.62671033  0.62426864  1
  Co  Co108  1  -0.00043330  0.00336694  0.75134782  1
  Co  Co109  1  0.37097615  0.13043136  0.12385468  1
  Co  Co110  1  -0.00248480  0.00041948  0.25072542  1
  Co  Co111  1  0.49782987  0.50280170  0.74972741  1
  Co  Co112  1  0.62663984  0.12430724  0.62579478  1
  Co  Co113  1  0.11964455  0.37501860  0.87432263  1
  Co  Co114  1  0.49986955  0.24943092  0.50138106  1
  Co  Co115  1  0.12151001  0.37820323  0.12442941  1
  Co  Co116  1  0.12518243  0.87617826  0.12685313  1
  Co  Co117  1  0.37718489  0.37373958  0.87298225  1
  Co  Co118  1  0.24862328  0.25043785  0.50180383  1
  Co  Co119  1  0.74912257  0.75041869  0.50331740  1
  Co  Co120  1  0.00268764  0.74822758  0.75055224  1
  Co  Co121  1  0.24587894  0.75110981  -0.00275796  1
  Co  Co122  1  -0.00015840  -0.00003269  0.49944861  1
  Co  Co123  1  0.25563747  -0.00205360  0.24706419  1
  Co  Co124  1  0.25269180  -0.00107126  0.75132717  1
  Co  Co125  1  0.24676410  0.75259497  0.49988476  1
  Co  Co126  1  0.75114499  0.25040606  0.24834925  1
  Co  Co127  1  0.37648713  0.37634934  0.12523225  1
