# generated using pymatgen
data_Fe45Co19
_symmetry_space_group_name_H-M   'P 1'
_cell_length_a   11.41576199
_cell_length_b   11.41633893
_cell_length_c   11.41522854
_cell_angle_alpha   89.99553210
_cell_angle_beta   89.99926746
_cell_angle_gamma   90.00364519
_symmetry_Int_Tables_number   1
_chemical_formula_structural   Fe45Co19
_chemical_formula_sum   'Fe90 Co38'
_cell_volume   1487.70344183
_cell_formula_units_Z   2
loop_
 _symmetry_equiv_pos_site_id
 _symmetry_equiv_pos_as_xyz
  1  'x, y, z'
loop_
 _atom_site_type_symbol
 _atom_site_label
 _atom_site_symmetry_multiplicity
 _atom_site_fract_x
 _atom_site_fract_y
 _atom_site_fract_z
 _atom_site_occupancy
  Fe  Fe0  1  0.75106897  0.50017130  0.74884528  1
  Fe  Fe1  1  0.00174017  0.00276461  0.74792006  1
  Fe  Fe2  1  0.13084533  0.62277736  0.62305101  1
  Fe  Fe3  1  0.87603556  0.12309189  0.12677639  1
  Fe  Fe4  1  0.49926286  0.24861807  0.49934544  1
  Fe  Fe5  1  0.75150932  0.25096993  0.25110658  1
  Fe  Fe6  1  0.49974043  0.75057979  0.74880309  1
  Fe  Fe7  1  0.87686401  0.87585127  0.12518949  1
  Fe  Fe8  1  0.00088887  0.74559942  0.74877788  1
  Fe  Fe9  1  0.24829179  0.00095899  0.74997930  1
  Fe  Fe10  1  0.12655958  0.37455654  0.62564066  1
  Fe  Fe11  1  0.74710794  0.50140867  0.50035827  1
  Fe  Fe12  1  0.49825150  0.75236216  0.24872545  1
  Fe  Fe13  1  0.74788499  0.74897878  0.49992431  1
  Fe  Fe14  1  0.74958106  0.49986300  0.24921074  1
  Fe  Fe15  1  0.25004787  0.74818930  0.75236291  1
  Fe  Fe16  1  0.12560368  0.61806254  0.87603093  1
  Fe  Fe17  1  0.00257249  0.74837784  -0.00161165  1
  Fe  Fe18  1  0.37175574  0.12456140  0.12674229  1
  Fe  Fe19  1  0.00104381  0.74826493  0.49999381  1
  Fe  Fe20  1  0.49915273  0.50093602  0.24800680  1
  Fe  Fe21  1  0.62573447  0.62647589  0.12571993  1
  Fe  Fe22  1  0.62666927  0.12577294  0.62624963  1
  Fe  Fe23  1  0.12634841  0.12890682  0.12476992  1
  Fe  Fe24  1  0.74928177  -0.00171013  0.75023159  1
  Fe  Fe25  1  0.62414930  0.12302091  0.37150336  1
  Fe  Fe26  1  0.49866844  0.24818867  0.24984164  1
  Fe  Fe27  1  0.75207784  0.24855360  0.49734957  1
  Fe  Fe28  1  0.50051829  0.25002534  0.00155701  1
  Fe  Fe29  1  0.00189340  0.50060582  0.24679172  1
  Fe  Fe30  1  -0.00027940  0.00358504  0.50317373  1
  Fe  Fe31  1  0.00144002  0.25066339  -0.00210970  1
  Fe  Fe32  1  0.49841813  0.00204959  0.50135579  1
  Fe  Fe33  1  0.25129594  0.24974838  0.49615145  1
  Fe  Fe34  1  -0.00133816  0.24964360  0.25280148  1
  Fe  Fe35  1  0.12581061  0.87188506  0.12311623  1
  Fe  Fe36  1  0.87556757  0.37614941  0.12449482  1
  Fe  Fe37  1  0.00051454  0.25046350  0.75126362  1
  Fe  Fe38  1  0.87664348  0.12294531  0.87546435  1
  Fe  Fe39  1  0.75118061  0.75030367  0.25144676  1
  Fe  Fe40  1  0.50046188  0.25065386  0.75016228  1
  Fe  Fe41  1  0.74991291  0.25102885  0.75218378  1
  Fe  Fe42  1  0.50058763  0.49906935  0.00298313  1
  Fe  Fe43  1  0.62431159  0.87485176  0.87606509  1
  Fe  Fe44  1  0.37396642  0.37435889  0.62439045  1
  Fe  Fe45  1  0.36975797  0.62781449  0.12306995  1
  Fe  Fe46  1  0.24828684  0.49798240  0.24781228  1
  Fe  Fe47  1  0.37197632  0.12710617  0.62601783  1
  Fe  Fe48  1  0.37342642  0.87569206  0.87659331  1
  Fe  Fe49  1  0.87541256  0.62316821  0.37567356  1
  Fe  Fe50  1  0.87943662  0.87602011  0.87482451  1
  Fe  Fe51  1  0.87529999  0.62516845  0.12408677  1
  Fe  Fe52  1  0.24945430  0.25317186  0.75671959  1
  Fe  Fe53  1  0.62303494  0.37616339  0.87576323  1
  Fe  Fe54  1  0.50143965  -0.00151172  0.00497273  1
  Fe  Fe55  1  0.62387991  0.12446233  0.87671290  1
  Fe  Fe56  1  0.12651575  0.87404670  0.62511941  1
  Fe  Fe57  1  0.37583420  0.37564995  0.37413500  1
  Fe  Fe58  1  0.87638946  0.87852506  0.37404315  1
  Fe  Fe59  1  0.37293590  0.62428170  0.37610360  1
  Fe  Fe60  1  0.62492402  0.62449317  0.87343419  1
  Fe  Fe61  1  0.49792053  0.49922886  0.74644274  1
  Fe  Fe62  1  0.75112069  0.74917741  -0.00250110  1
  Fe  Fe63  1  0.37405303  0.87976769  0.37479964  1
  Fe  Fe64  1  0.49991246  0.74836058  0.50055129  1
  Fe  Fe65  1  0.87865268  0.37972174  0.87685328  1
  Fe  Fe66  1  0.24621710  -0.00040864  -0.00115462  1
  Fe  Fe67  1  0.37316818  0.87344376  0.62451021  1
  Fe  Fe68  1  0.37341269  0.62169722  0.87673165  1
  Fe  Fe69  1  0.50067609  0.50202148  0.50212197  1
  Fe  Fe70  1  0.87428703  0.37426978  0.62318904  1
  Fe  Fe71  1  0.74932082  0.25160707  0.00009340  1
  Fe  Fe72  1  0.24998258  0.75274726  0.25233805  1
  Fe  Fe73  1  0.00044371  0.75050588  0.25148466  1
  Fe  Fe74  1  0.75136284  0.00160120  0.50063008  1
  Fe  Fe75  1  0.87715357  0.62166050  0.87558891  1
  Fe  Fe76  1  -0.00256391  0.24762341  0.49856744  1
  Fe  Fe77  1  0.12364936  0.37566969  0.37410724  1
  Fe  Fe78  1  0.62390366  0.37623484  0.37388449  1
  Fe  Fe79  1  0.12525004  0.87775987  0.37770981  1
  Fe  Fe80  1  0.87493594  0.87301658  0.62594752  1
  Fe  Fe81  1  0.50052238  -0.00056689  0.74867500  1
  Fe  Fe82  1  0.37548079  0.12444217  0.87639745  1
  Fe  Fe83  1  0.74952383  -0.00014453  0.00263319  1
  Fe  Fe84  1  0.37208498  0.37198374  0.12445226  1
  Fe  Fe85  1  0.00039170  0.50077556  0.50179746  1
  Fe  Fe86  1  0.62426917  0.87607322  0.37372773  1
  Fe  Fe87  1  0.12621796  0.12306436  0.37568822  1
  Fe  Fe88  1  0.49872562  0.75102133  0.00087171  1
  Fe  Fe89  1  0.12664299  0.62425297  0.37491048  1
  Co  Co90  1  0.37849328  0.37680783  0.87755811  1
  Co  Co91  1  0.87593239  0.12049887  0.37098406  1
  Co  Co92  1  0.12128301  0.38059244  0.87500618  1
  Co  Co93  1  0.24780828  0.75018237  -0.00518530  1
  Co  Co94  1  0.25308214  0.49750461  0.75064128  1
  Co  Co95  1  0.00286995  0.00054070  0.00218042  1
  Co  Co96  1  0.50090920  -0.00226953  0.24557986  1
  Co  Co97  1  0.62478332  0.37492212  0.12677282  1
  Co  Co98  1  0.25110933  0.49735654  0.49813675  1
  Co  Co99  1  0.12230378  0.87597105  0.87253405  1
  Co  Co100  1  0.25066201  0.00148395  0.50246968  1
  Co  Co101  1  0.24711146  -0.00105519  0.24838009  1
  Co  Co102  1  0.25047526  0.25010828  0.25442704  1
  Co  Co103  1  0.62356018  0.62495304  0.37231083  1
  Co  Co104  1  0.12819515  0.62971883  0.12583098  1
  Co  Co105  1  0.00403362  -0.00081553  0.24826985  1
  Co  Co106  1  0.74785016  -0.00146229  0.24730812  1
  Co  Co107  1  0.25058447  0.75120483  0.49787934  1
  Co  Co108  1  0.62685289  0.87005491  0.12466415  1
  Co  Co109  1  0.37475739  0.12143748  0.37212248  1
  Co  Co110  1  -0.00115668  0.50111053  0.74424044  1
  Co  Co111  1  0.62578725  0.12775099  0.12641908  1
  Co  Co112  1  0.24927415  0.25199756  -0.00526018  1
  Co  Co113  1  0.24812808  0.49617821  0.00337605  1
  Co  Co114  1  0.75128719  0.75140588  0.75259894  1
  Co  Co115  1  0.87565604  0.37871716  0.37552511  1
  Co  Co116  1  0.74853060  0.49962541  0.00028344  1
  Co  Co117  1  0.62597292  0.37351261  0.62430872  1
  Co  Co118  1  0.12372850  0.12456525  0.87483889  1
  Co  Co119  1  0.12558057  0.36893047  0.12593761  1
  Co  Co120  1  0.62530480  0.62736623  0.62798965  1
  Co  Co121  1  0.37256554  0.62600991  0.62353128  1
  Co  Co122  1  0.37045943  0.87399971  0.12253131  1
  Co  Co123  1  0.62496457  0.87476086  0.62415303  1
  Co  Co124  1  0.87367368  0.12672171  0.62783610  1
  Co  Co125  1  0.12751964  0.12925321  0.62575535  1
  Co  Co126  1  0.87204923  0.62676704  0.62296964  1
  Co  Co127  1  0.00365024  0.50056618  0.00682688  1
