# generated using pymatgen
data_Fe45Co19
_symmetry_space_group_name_H-M   'P 1'
_cell_length_a   11.41417801
_cell_length_b   11.41388855
_cell_length_c   11.41386631
_cell_angle_alpha   89.99538057
_cell_angle_beta   89.99750960
_cell_angle_gamma   89.99870164
_symmetry_Int_Tables_number   1
_chemical_formula_structural   Fe45Co19
_chemical_formula_sum   'Fe90 Co38'
_cell_volume   1487.00027194
_cell_formula_units_Z   2
loop_
 _symmetry_equiv_pos_site_id
 _symmetry_equiv_pos_as_xyz
  1  'x, y, z'
loop_
 _atom_site_type_symbol
 _atom_site_label
 _atom_site_symmetry_multiplicity
 _atom_site_fract_x
 _atom_site_fract_y
 _atom_site_fract_z
 _atom_site_occupancy
  Fe  Fe0  1  0.12310848  0.87277269  0.12492875  1
  Fe  Fe1  1  0.87555505  0.37438253  0.37597446  1
  Fe  Fe2  1  0.75212264  0.49738593  0.50126784  1
  Fe  Fe3  1  0.37227547  0.62452457  0.87873713  1
  Fe  Fe4  1  0.49983323  0.25023692  -0.00023105  1
  Fe  Fe5  1  0.12238870  0.38029610  0.87559805  1
  Fe  Fe6  1  0.00421969  0.00121414  0.50019650  1
  Fe  Fe7  1  0.12672834  0.62288199  0.37350561  1
  Fe  Fe8  1  0.74660225  0.25246024  0.25147029  1
  Fe  Fe9  1  0.74800507  0.75109547  0.24980370  1
  Fe  Fe10  1  0.49994661  0.00084636  0.24926687  1
  Fe  Fe11  1  0.24931309  -0.00106809  0.25001961  1
  Fe  Fe12  1  0.37346486  0.12580592  0.87462925  1
  Fe  Fe13  1  0.62788067  0.62453456  0.87522737  1
  Fe  Fe14  1  0.50051674  0.74878821  0.00107493  1
  Fe  Fe15  1  0.87547309  0.87452253  0.37497414  1
  Fe  Fe16  1  0.74946729  -0.00023852  0.50099986  1
  Fe  Fe17  1  0.62578191  0.12550747  0.37458999  1
  Fe  Fe18  1  0.87440835  0.37759915  0.87330670  1
  Fe  Fe19  1  0.62827327  0.62565233  0.62319502  1
  Fe  Fe20  1  0.37998414  0.37903331  0.12576719  1
  Fe  Fe21  1  0.49914799  0.00062995  0.50191600  1
  Fe  Fe22  1  0.37315228  0.87430249  0.62378167  1
  Fe  Fe23  1  0.75151475  0.75078338  0.74996391  1
  Fe  Fe24  1  0.12533756  0.12690232  0.12510052  1
  Fe  Fe25  1  0.50177061  0.74487342  0.25032952  1
  Fe  Fe26  1  0.25055818  0.25532663  -0.00070924  1
  Fe  Fe27  1  0.24781630  0.25191363  0.75033091  1
  Fe  Fe28  1  0.12123836  0.37873585  0.62268868  1
  Fe  Fe29  1  0.24861848  -0.00013339  0.74635609  1
  Fe  Fe30  1  0.37413412  0.87363598  0.37517093  1
  Fe  Fe31  1  0.00048144  0.24979019  0.49896877  1
  Fe  Fe32  1  0.50120160  0.24847182  0.50030685  1
  Fe  Fe33  1  0.62470431  0.87458462  0.37298712  1
  Fe  Fe34  1  0.37467571  0.12531815  0.12496405  1
  Fe  Fe35  1  0.37431569  0.87491361  0.87622822  1
  Fe  Fe36  1  0.50009226  0.50104138  0.74937050  1
  Fe  Fe37  1  0.87694212  0.87245086  0.62421210  1
  Fe  Fe38  1  0.74908253  0.75123466  0.00082796  1
  Fe  Fe39  1  0.87368699  0.12619785  0.62559955  1
  Fe  Fe40  1  0.87495106  0.12449689  0.37291534  1
  Fe  Fe41  1  -0.00500981  0.50511806  0.74757892  1
  Fe  Fe42  1  -0.00002868  0.50166924  0.25196481  1
  Fe  Fe43  1  0.50089472  0.74783324  0.49918748  1
  Fe  Fe44  1  0.75056691  0.49920932  0.00074213  1
  Fe  Fe45  1  0.87569202  0.62617502  0.12504342  1
  Fe  Fe46  1  0.87677234  0.87337776  0.12569805  1
  Fe  Fe47  1  0.25047876  0.74540731  0.24621721  1
  Fe  Fe48  1  0.62364807  0.87625319  0.87477909  1
  Fe  Fe49  1  0.37562548  0.37364816  0.62462090  1
  Fe  Fe50  1  0.87789642  0.87439200  0.87594305  1
  Fe  Fe51  1  0.87484242  0.12563905  0.12607610  1
  Fe  Fe52  1  0.00192609  0.25110564  0.25102046  1
  Fe  Fe53  1  0.00051242  -0.00057047  0.24924218  1
  Fe  Fe54  1  0.75003190  0.25181948  0.00037909  1
  Fe  Fe55  1  0.50323015  0.50396585  0.25285160  1
  Fe  Fe56  1  0.50087597  0.24895717  0.74856175  1
  Fe  Fe57  1  0.74753421  0.49919103  0.24982816  1
  Fe  Fe58  1  0.24645163  0.74945468  0.75206694  1
  Fe  Fe59  1  0.62509813  0.87527805  0.62667363  1
  Fe  Fe60  1  -0.00083908  0.25176106  -0.00047480  1
  Fe  Fe61  1  0.37859894  0.37677412  0.37489059  1
  Fe  Fe62  1  0.24887455  0.74896029  0.50002992  1
  Fe  Fe63  1  0.24878019  -0.00228432  0.00085247  1
  Fe  Fe64  1  0.49917853  0.74797352  0.74968955  1
  Fe  Fe65  1  0.62487627  0.12539365  0.12597491  1
  Fe  Fe66  1  0.37340584  0.62530299  0.62369125  1
  Fe  Fe67  1  0.74952508  -0.00216090  0.00208607  1
  Fe  Fe68  1  0.62466645  0.37639431  0.87505364  1
  Fe  Fe69  1  0.75047963  0.25128418  0.74870156  1
  Fe  Fe70  1  0.62649116  0.12262404  0.87378315  1
  Fe  Fe71  1  0.25073137  0.25385625  0.25107758  1
  Fe  Fe72  1  0.87482726  0.37491160  0.12659537  1
  Fe  Fe73  1  0.37775709  0.87335149  0.12422328  1
  Fe  Fe74  1  0.00052333  -0.00032886  0.74925421  1
  Fe  Fe75  1  0.12413391  0.12362387  0.87637394  1
  Fe  Fe76  1  -0.00018960  0.25076382  0.75074064  1
  Fe  Fe77  1  0.00422411  0.74601042  -0.00237429  1
  Fe  Fe78  1  0.37288829  0.12403977  0.37580473  1
  Fe  Fe79  1  0.87474789  0.12332354  0.87599648  1
  Fe  Fe80  1  0.00132124  0.74577406  0.50048610  1
  Fe  Fe81  1  0.25112698  0.49944804  0.49760303  1
  Fe  Fe82  1  0.12597048  0.87440348  0.37520046  1
  Fe  Fe83  1  0.62609328  0.37485766  0.62293240  1
  Fe  Fe84  1  0.87153064  0.62691682  0.37586993  1
  Fe  Fe85  1  0.12383409  0.37932909  0.12588640  1
  Fe  Fe86  1  0.49862216  0.00175872  0.74823999  1
  Fe  Fe87  1  0.00270932  0.74510491  0.75036658  1
  Fe  Fe88  1  0.25247808  0.49852208  0.75114044  1
  Fe  Fe89  1  0.24729540  0.24971668  0.49882853  1
  Co  Co90  1  0.12435038  0.62059281  0.12374356  1
  Co  Co91  1  -0.00280287  0.50424915  0.49845653  1
  Co  Co92  1  0.24750999  0.75088533  0.00132874  1
  Co  Co93  1  0.12335583  0.37649420  0.37620402  1
  Co  Co94  1  0.25236229  0.49624744  0.00048756  1
  Co  Co95  1  0.50103246  0.50105044  -0.00370245  1
  Co  Co96  1  0.62229789  0.37611967  0.12491639  1
  Co  Co97  1  0.62342989  0.37611553  0.37724966  1
  Co  Co98  1  0.49915771  0.50280071  0.50199529  1
  Co  Co99  1  0.37291173  0.12716711  0.62465530  1
  Co  Co100  1  0.87241631  0.62528388  0.87607816  1
  Co  Co101  1  0.62245490  0.87401212  0.12645151  1
  Co  Co102  1  0.37438269  0.62575243  0.37580942  1
  Co  Co103  1  0.12799083  0.62172093  0.62482906  1
  Co  Co104  1  0.37818162  0.37395779  0.87345184  1
  Co  Co105  1  0.74885335  0.75432583  0.49961878  1
  Co  Co106  1  0.75242156  -0.00284154  0.74954661  1
  Co  Co107  1  0.87709020  0.37394065  0.62453638  1
  Co  Co108  1  -0.00435277  0.50017537  0.00046065  1
  Co  Co109  1  0.00060035  0.74821618  0.25220584  1
  Co  Co110  1  0.12620817  0.12528081  0.37212931  1
  Co  Co111  1  0.12417003  0.87273707  0.62488022  1
  Co  Co112  1  0.25069667  0.50036234  0.25150325  1
  Co  Co113  1  0.49998990  0.24966470  0.25090147  1
  Co  Co114  1  0.75122346  0.24995865  0.49868941  1
  Co  Co115  1  0.37553455  0.62217004  0.12238682  1
  Co  Co116  1  0.12403318  0.12689274  0.62588100  1
  Co  Co117  1  -0.00023157  0.00050553  0.00268420  1
  Co  Co118  1  0.12378513  0.87672706  0.87398239  1
  Co  Co119  1  0.75023923  0.49998942  0.74809535  1
  Co  Co120  1  0.50036324  0.00103010  0.00011159  1
  Co  Co121  1  0.12713262  0.61948732  0.87681011  1
  Co  Co122  1  0.62644979  0.62387125  0.12317023  1
  Co  Co123  1  0.62793853  0.12506135  0.62580531  1
  Co  Co124  1  0.62894970  0.62419754  0.37880697  1
  Co  Co125  1  0.75038881  -0.00159267  0.24882930  1
  Co  Co126  1  0.24814284  0.00059239  0.50131202  1
  Co  Co127  1  0.87086810  0.62776410  0.62308748  1
