# generated using pymatgen
data_Fe45Co19
_symmetry_space_group_name_H-M   'P 1'
_cell_length_a   11.41526898
_cell_length_b   11.41562080
_cell_length_c   11.41526158
_cell_angle_alpha   90.00820347
_cell_angle_beta   90.00161176
_cell_angle_gamma   90.00215453
_symmetry_Int_Tables_number   1
_chemical_formula_structural   Fe45Co19
_chemical_formula_sum   'Fe90 Co38'
_cell_volume   1487.54991006
_cell_formula_units_Z   2
loop_
 _symmetry_equiv_pos_site_id
 _symmetry_equiv_pos_as_xyz
  1  'x, y, z'
loop_
 _atom_site_type_symbol
 _atom_site_label
 _atom_site_symmetry_multiplicity
 _atom_site_fract_x
 _atom_site_fract_y
 _atom_site_fract_z
 _atom_site_occupancy
  Fe  Fe0  1  0.74962426  0.50264159  0.74708686  1
  Fe  Fe1  1  0.49528371  0.00370694  0.74882090  1
  Fe  Fe2  1  0.62435221  0.12254221  0.87504014  1
  Fe  Fe3  1  0.49648070  -0.00330102  0.49879754  1
  Fe  Fe4  1  0.37577779  0.62717229  0.88065774  1
  Fe  Fe5  1  0.62621870  0.87709296  0.12617864  1
  Fe  Fe6  1  0.87535992  0.12687832  0.62360455  1
  Fe  Fe7  1  0.24918962  -0.00240444  0.00061572  1
  Fe  Fe8  1  0.25463767  0.50016308  0.00445815  1
  Fe  Fe9  1  0.00298449  0.74963748  -0.00139610  1
  Fe  Fe10  1  0.74787288  0.25318496  0.49890705  1
  Fe  Fe11  1  0.75108249  0.00101444  0.74856798  1
  Fe  Fe12  1  0.00294647  0.49540981  0.50276474  1
  Fe  Fe13  1  0.87800767  0.62310491  0.87496090  1
  Fe  Fe14  1  0.12565754  0.87541722  0.37437288  1
  Fe  Fe15  1  0.87383490  0.12518726  0.12372285  1
  Fe  Fe16  1  0.74812847  0.25072562  -0.00143692  1
  Fe  Fe17  1  0.62166350  0.37755187  0.86987324  1
  Fe  Fe18  1  0.87579448  0.37604655  0.37393368  1
  Fe  Fe19  1  0.62438008  0.87528670  0.37486589  1
  Fe  Fe20  1  0.37319900  0.12574712  0.37838766  1
  Fe  Fe21  1  0.12553896  0.62174186  0.12575864  1
  Fe  Fe22  1  0.12600436  0.12443059  0.87600999  1
  Fe  Fe23  1  -0.00246583  0.74905889  0.24992880  1
  Fe  Fe24  1  -0.00237459  0.49709741  0.00505996  1
  Fe  Fe25  1  0.12585625  0.12946268  0.37717230  1
  Fe  Fe26  1  0.37223738  0.87349816  0.87551538  1
  Fe  Fe27  1  0.50181545  0.49784542  0.50423726  1
  Fe  Fe28  1  0.50149771  0.25418444  0.49902783  1
  Fe  Fe29  1  0.37656526  0.37446563  0.87310223  1
  Fe  Fe30  1  0.74656830  0.49817173  0.50259368  1
  Fe  Fe31  1  0.75278655  0.50159532  0.24859147  1
  Fe  Fe32  1  0.62256469  0.12570623  0.62323121  1
  Fe  Fe33  1  0.62230458  0.87332048  0.62584634  1
  Fe  Fe34  1  0.87601305  0.37573024  0.87342395  1
  Fe  Fe35  1  0.62304253  0.62348764  0.37677299  1
  Fe  Fe36  1  0.75345293  0.75058516  0.25080250  1
  Fe  Fe37  1  0.49513932  0.50021417  0.24557080  1
  Fe  Fe38  1  0.12726134  0.12654215  0.12604066  1
  Fe  Fe39  1  0.87519411  0.37483884  0.62700660  1
  Fe  Fe40  1  0.49939166  -0.00223830  0.00025283  1
  Fe  Fe41  1  0.62309394  0.62544601  0.12347757  1
  Fe  Fe42  1  0.75210672  0.74766326  0.74876189  1
  Fe  Fe43  1  0.25157024  0.00196171  0.25218129  1
  Fe  Fe44  1  0.62438848  0.12297419  0.37513411  1
  Fe  Fe45  1  0.24855231  0.25176478  -0.00154535  1
  Fe  Fe46  1  0.37383167  0.87208636  0.12537363  1
  Fe  Fe47  1  0.87868037  0.87638719  0.87254067  1
  Fe  Fe48  1  0.00230346  0.25009716  0.75005261  1
  Fe  Fe49  1  0.62161719  0.62335285  0.87445435  1
  Fe  Fe50  1  0.12403243  0.87645079  0.86992403  1
  Fe  Fe51  1  0.74936369  0.49916229  0.00115642  1
  Fe  Fe52  1  0.87511400  0.12486641  0.87507579  1
  Fe  Fe53  1  0.87708526  0.12563702  0.37717172  1
  Fe  Fe54  1  0.62447868  0.37484196  0.12687821  1
  Fe  Fe55  1  0.50139147  0.25165183  -0.00246650  1
  Fe  Fe56  1  0.49894028  0.75036573  0.25210147  1
  Fe  Fe57  1  0.12939939  0.13038824  0.62139533  1
  Fe  Fe58  1  0.74812155  0.24874190  0.74986966  1
  Fe  Fe59  1  0.24805927  0.75162352  0.49825325  1
  Fe  Fe60  1  0.12510185  0.61941526  0.37364092  1
  Fe  Fe61  1  0.37415031  0.12678397  0.12266755  1
  Fe  Fe62  1  0.24547197  0.74523155  0.75148386  1
  Fe  Fe63  1  0.37518235  0.37061770  0.62974214  1
  Fe  Fe64  1  0.00148823  0.25226789  0.00186856  1
  Fe  Fe65  1  0.87678239  0.62404395  0.37765135  1
  Fe  Fe66  1  0.12436146  0.87531780  0.12751445  1
  Fe  Fe67  1  -0.00010821  0.00072443  0.00023984  1
  Fe  Fe68  1  0.00044853  0.25323900  0.24797077  1
  Fe  Fe69  1  0.25158147  0.00538052  0.74760124  1
  Fe  Fe70  1  0.74952680  0.75083965  -0.00115601  1
  Fe  Fe71  1  0.37369289  0.62615560  0.62229767  1
  Fe  Fe72  1  0.74999483  0.25034237  0.25226726  1
  Fe  Fe73  1  0.37175743  0.87365694  0.62421552  1
  Fe  Fe74  1  0.49812293  0.74759206  0.74923459  1
  Fe  Fe75  1  0.49860341  0.24958626  0.25172465  1
  Fe  Fe76  1  0.12500426  0.37851451  0.87385870  1
  Fe  Fe77  1  0.00385697  0.74980480  0.50285828  1
  Fe  Fe78  1  0.62508461  0.87667744  0.87247914  1
  Fe  Fe79  1  0.62492064  0.12282301  0.12625210  1
  Fe  Fe80  1  0.74931599  0.74984043  0.50120009  1
  Fe  Fe81  1  0.75421726  -0.00211328  0.25133849  1
  Fe  Fe82  1  0.88004338  0.87376469  0.62732093  1
  Fe  Fe83  1  0.00340368  0.00006094  0.50205155  1
  Fe  Fe84  1  0.24879115  0.49350644  0.49921301  1
  Fe  Fe85  1  0.24934959  0.50196584  0.74994669  1
  Fe  Fe86  1  0.37542583  0.62319514  0.37736830  1
  Fe  Fe87  1  0.25055020  0.74637490  0.25051710  1
  Fe  Fe88  1  0.75127626  -0.00159326  0.50057392  1
  Fe  Fe89  1  -0.00147478  -0.00050832  0.25104656  1
  Co  Co90  1  0.87747794  0.87398528  0.37904364  1
  Co  Co91  1  0.49808342  0.24402954  0.75233233  1
  Co  Co92  1  0.12814140  0.37247544  0.62945044  1
  Co  Co93  1  0.37345731  0.12877202  0.61866280  1
  Co  Co94  1  0.37449372  0.36914310  0.12451867  1
  Co  Co95  1  0.37220878  0.87374590  0.37376158  1
  Co  Co96  1  0.25175502  0.25105872  0.25330326  1
  Co  Co97  1  0.25019746  0.24689406  0.75343138  1
  Co  Co98  1  0.12441208  0.61849838  0.87962654  1
  Co  Co99  1  0.37382693  0.12435965  0.88043979  1
  Co  Co100  1  0.12906925  0.37680553  0.12745473  1
  Co  Co101  1  0.62359353  0.62753109  0.62433443  1
  Co  Co102  1  0.00192221  0.00583260  0.74702121  1
  Co  Co103  1  0.12670982  0.87439531  0.62899628  1
  Co  Co104  1  0.37652171  0.63130490  0.12094100  1
  Co  Co105  1  0.62259384  0.37338864  0.63079932  1
  Co  Co106  1  0.49808385  0.49775427  0.00172266  1
  Co  Co107  1  0.49640950  0.00004401  0.25092393  1
  Co  Co108  1  0.87120902  0.37246939  0.12493034  1
  Co  Co109  1  0.75080526  0.00004118  -0.00100374  1
  Co  Co110  1  0.24839689  -0.00193489  0.49935856  1
  Co  Co111  1  0.49857079  0.75124443  0.49856595  1
  Co  Co112  1  0.87617472  0.87459903  0.12169610  1
  Co  Co113  1  0.00374805  0.74264021  0.74997548  1
  Co  Co114  1  0.87589493  0.62429045  0.62223502  1
  Co  Co115  1  0.25018775  0.25769220  0.49628106  1
  Co  Co116  1  0.00242060  0.50216088  0.74637398  1
  Co  Co117  1  0.25588143  0.50069423  0.24789731  1
  Co  Co118  1  0.12747472  0.62264732  0.62167506  1
  Co  Co119  1  -0.00001634  0.25386769  0.50101889  1
  Co  Co120  1  0.37737424  0.37721277  0.37392836  1
  Co  Co121  1  0.50377792  0.75332853  -0.00118381  1
  Co  Co122  1  0.12384298  0.37622304  0.36946802  1
  Co  Co123  1  -0.00304919  0.49899129  0.24667522  1
  Co  Co124  1  0.87486046  0.62765527  0.12290846  1
  Co  Co125  1  0.62398228  0.37831813  0.37098522  1
  Co  Co126  1  0.49662249  0.50505316  0.74796583  1
  Co  Co127  1  0.24395854  0.75127119  -0.00002418  1
