# generated using pymatgen
data_Fe45Co19
_symmetry_space_group_name_H-M   'P 1'
_cell_length_a   11.41480680
_cell_length_b   11.41509407
_cell_length_c   11.41494792
_cell_angle_alpha   89.99981587
_cell_angle_beta   89.99613888
_cell_angle_gamma   90.00390558
_symmetry_Int_Tables_number   1
_chemical_formula_structural   Fe45Co19
_chemical_formula_sum   'Fe90 Co38'
_cell_volume   1487.38018727
_cell_formula_units_Z   2
loop_
 _symmetry_equiv_pos_site_id
 _symmetry_equiv_pos_as_xyz
  1  'x, y, z'
loop_
 _atom_site_type_symbol
 _atom_site_label
 _atom_site_symmetry_multiplicity
 _atom_site_fract_x
 _atom_site_fract_y
 _atom_site_fract_z
 _atom_site_occupancy
  Fe  Fe0  1  0.00316637  -0.00118178  0.24891689  1
  Fe  Fe1  1  0.25115632  0.25099859  0.00306316  1
  Fe  Fe2  1  0.12477071  0.87469068  0.62571190  1
  Fe  Fe3  1  -0.00260540  0.00103400  0.75297242  1
  Fe  Fe4  1  0.62496761  0.87231463  0.12362592  1
  Fe  Fe5  1  0.74774120  0.00003330  0.24924582  1
  Fe  Fe6  1  0.74800975  0.74875385  0.75280041  1
  Fe  Fe7  1  0.12687680  0.62451089  0.37849335  1
  Fe  Fe8  1  0.87578080  0.87289099  0.12428697  1
  Fe  Fe9  1  0.00035318  -0.00265328  -0.00212265  1
  Fe  Fe10  1  0.25220598  0.25286689  0.74690501  1
  Fe  Fe11  1  0.87722543  0.12408573  0.12365104  1
  Fe  Fe12  1  0.49991973  0.50116278  0.49879946  1
  Fe  Fe13  1  0.49739562  0.00143368  0.75162629  1
  Fe  Fe14  1  0.49684240  0.74900630  -0.00041324  1
  Fe  Fe15  1  0.49704773  0.24946461  0.00122281  1
  Fe  Fe16  1  0.37284192  0.62405094  0.37394065  1
  Fe  Fe17  1  0.25181688  -0.00020146  0.00074739  1
  Fe  Fe18  1  0.37576021  0.37466462  0.87176071  1
  Fe  Fe19  1  0.62509086  0.12631148  0.62291682  1
  Fe  Fe20  1  0.12612378  0.37342876  0.37661267  1
  Fe  Fe21  1  0.74815332  0.50101670  0.75018981  1
  Fe  Fe22  1  0.87521357  0.37784475  0.12597684  1
  Fe  Fe23  1  0.74903895  0.50340072  0.00427777  1
  Fe  Fe24  1  0.62403108  0.62637057  0.62416724  1
  Fe  Fe25  1  0.62456332  0.37571053  0.87693254  1
  Fe  Fe26  1  0.37712413  0.12205117  0.36844015  1
  Fe  Fe27  1  0.00574746  0.74964651  0.24905203  1
  Fe  Fe28  1  0.87305766  0.12552255  0.37529148  1
  Fe  Fe29  1  0.62616112  0.37764228  0.37169258  1
  Fe  Fe30  1  0.74833786  0.24963918  0.24940852  1
  Fe  Fe31  1  0.75070957  -0.00046179  0.49942180  1
  Fe  Fe32  1  0.49993284  0.50095635  0.74923589  1
  Fe  Fe33  1  0.37423288  0.62425900  0.87335113  1
  Fe  Fe34  1  0.62097678  0.12686968  0.12700964  1
  Fe  Fe35  1  0.87398878  0.37708360  0.37334042  1
  Fe  Fe36  1  0.37277260  0.37645030  0.37417955  1
  Fe  Fe37  1  0.75000898  0.00041178  -0.00032102  1
  Fe  Fe38  1  0.24799599  0.24847475  0.24825138  1
  Fe  Fe39  1  0.25224270  -0.00122510  0.49736750  1
  Fe  Fe40  1  0.49632002  0.00107286  0.00141035  1
  Fe  Fe41  1  0.75064043  0.24860277  0.75004747  1
  Fe  Fe42  1  0.49866375  -0.00171744  0.49791046  1
  Fe  Fe43  1  -0.00151466  0.24887629  0.50069392  1
  Fe  Fe44  1  0.37605451  0.12714564  0.62468800  1
  Fe  Fe45  1  0.49778933  0.75124566  0.49989542  1
  Fe  Fe46  1  0.62163282  0.87387830  0.87517542  1
  Fe  Fe47  1  0.37174335  0.62438404  0.12788183  1
  Fe  Fe48  1  0.12614286  0.12536114  0.62437998  1
  Fe  Fe49  1  0.12511805  0.12510911  0.37582003  1
  Fe  Fe50  1  0.62308340  0.12590728  0.87642120  1
  Fe  Fe51  1  0.87663406  0.87381744  0.37261684  1
  Fe  Fe52  1  0.25192974  0.75439777  0.49802307  1
  Fe  Fe53  1  0.74989271  0.24960159  0.00150184  1
  Fe  Fe54  1  0.37036557  0.87473954  0.12913180  1
  Fe  Fe55  1  0.00201719  0.25046240  0.24767841  1
  Fe  Fe56  1  0.49979805  0.24971875  0.49598149  1
  Fe  Fe57  1  -0.00140958  0.24804731  0.75074216  1
  Fe  Fe58  1  0.87505708  0.62340343  0.37293206  1
  Fe  Fe59  1  -0.00194355  -0.00003520  0.50024398  1
  Fe  Fe60  1  0.12726636  0.12567828  0.87660043  1
  Fe  Fe61  1  0.12659769  0.37693983  0.87545804  1
  Fe  Fe62  1  0.00311928  0.75110657  -0.00247720  1
  Fe  Fe63  1  0.74958367  0.50034288  0.49963050  1
  Fe  Fe64  1  0.12925072  0.62268327  0.87509457  1
  Fe  Fe65  1  0.74933535  0.74625030  0.24909101  1
  Fe  Fe66  1  0.37295525  0.62508820  0.62561435  1
  Fe  Fe67  1  0.37461274  0.37658734  0.12900314  1
  Fe  Fe68  1  0.49890518  0.50050469  0.00203778  1
  Fe  Fe69  1  0.87540586  0.62546712  0.62608923  1
  Fe  Fe70  1  0.87655103  0.62469220  0.87575855  1
  Fe  Fe71  1  0.87577425  0.87375860  0.62858930  1
  Fe  Fe72  1  0.62241154  0.37327731  0.62498210  1
  Fe  Fe73  1  -0.00034978  0.75000910  0.50109053  1
  Fe  Fe74  1  0.49937043  0.74900719  0.25160590  1
  Fe  Fe75  1  0.00254079  0.50066875  0.50300623  1
  Fe  Fe76  1  0.74945042  0.74674199  -0.00021851  1
  Fe  Fe77  1  0.00376355  0.50025553  0.24858021  1
  Fe  Fe78  1  0.24824647  0.49625779  0.50505446  1
  Fe  Fe79  1  0.12858692  0.62187800  0.12081555  1
  Fe  Fe80  1  0.62406498  0.87374043  0.37521075  1
  Fe  Fe81  1  0.87450504  0.37669621  0.87581600  1
  Fe  Fe82  1  0.25180337  0.75314293  0.75194524  1
  Fe  Fe83  1  0.75221212  0.00217189  0.75242411  1
  Fe  Fe84  1  0.87593175  0.37437722  0.62481104  1
  Fe  Fe85  1  0.00131066  0.25259245  0.00101149  1
  Fe  Fe86  1  0.75089039  0.75014094  0.49942534  1
  Fe  Fe87  1  0.62295505  0.87468509  0.62697902  1
  Fe  Fe88  1  0.25295632  -0.00099630  0.75107924  1
  Fe  Fe89  1  0.00422203  0.50182517  0.74772889  1
  Co  Co90  1  0.12761224  0.87472431  0.12262338  1
  Co  Co91  1  0.12731074  0.87691642  0.87369373  1
  Co  Co92  1  0.37457553  0.87613962  0.36974702  1
  Co  Co93  1  0.62075773  0.62562232  0.12547446  1
  Co  Co94  1  0.24953475  0.49660623  0.74621312  1
  Co  Co95  1  0.24704856  0.50047794  0.25102055  1
  Co  Co96  1  0.49986151  0.25314949  0.25125539  1
  Co  Co97  1  0.50028753  0.24834384  0.75155723  1
  Co  Co98  1  0.00194821  0.74844708  0.75291435  1
  Co  Co99  1  0.25404767  0.49768365  -0.00110483  1
  Co  Co100  1  0.12909936  0.63006017  0.62488352  1
  Co  Co101  1  0.74819678  0.50373178  0.24591530  1
  Co  Co102  1  0.24520656  0.74941197  0.25199501  1
  Co  Co103  1  0.12349072  0.37040376  0.62362899  1
  Co  Co104  1  0.62416796  0.12371281  0.37438785  1
  Co  Co105  1  0.87330276  0.87289273  0.87561512  1
  Co  Co106  1  0.12404890  0.12400283  0.12176787  1
  Co  Co107  1  0.62214666  0.62425904  0.87659311  1
  Co  Co108  1  0.00031831  0.49943666  -0.00033744  1
  Co  Co109  1  0.49826542  0.74886497  0.74997237  1
  Co  Co110  1  0.62481453  0.62578199  0.37569229  1
  Co  Co111  1  0.37533065  0.12333129  0.12984928  1
  Co  Co112  1  0.87370118  0.12609248  0.62300850  1
  Co  Co113  1  0.37551965  0.87511843  0.62619356  1
  Co  Co114  1  0.25096738  0.75033037  -0.00179235  1
  Co  Co115  1  0.24430953  -0.00010041  0.25068295  1
  Co  Co116  1  0.87966618  0.62653407  0.12527718  1
  Co  Co117  1  0.50024113  0.50100807  0.25050929  1
  Co  Co118  1  0.12702572  0.37787192  0.12382933  1
  Co  Co119  1  0.37686336  0.87516362  0.87591814  1
  Co  Co120  1  0.37251967  0.12704926  0.87519213  1
  Co  Co121  1  0.74897303  0.25194577  0.49876857  1
  Co  Co122  1  0.12398972  0.87556334  0.37775395  1
  Co  Co123  1  0.25329785  0.24838520  0.49904375  1
  Co  Co124  1  0.50392821  -0.00384656  0.24780078  1
  Co  Co125  1  0.62375431  0.37521670  0.12427626  1
  Co  Co126  1  0.87563818  0.12680238  0.87931651  1
  Co  Co127  1  0.37920972  0.37394509  0.62382178  1
