# generated using pymatgen
data_Fe45Co19
_symmetry_space_group_name_H-M   'P 1'
_cell_length_a   11.41531238
_cell_length_b   11.41465252
_cell_length_c   11.41546173
_cell_angle_alpha   90.00300510
_cell_angle_beta   90.00417464
_cell_angle_gamma   89.99967039
_symmetry_Int_Tables_number   1
_chemical_formula_structural   Fe45Co19
_chemical_formula_sum   'Fe90 Co38'
_cell_volume   1487.45548186
_cell_formula_units_Z   2
loop_
 _symmetry_equiv_pos_site_id
 _symmetry_equiv_pos_as_xyz
  1  'x, y, z'
loop_
 _atom_site_type_symbol
 _atom_site_label
 _atom_site_symmetry_multiplicity
 _atom_site_fract_x
 _atom_site_fract_y
 _atom_site_fract_z
 _atom_site_occupancy
  Fe  Fe0  1  0.75082543  0.00038755  0.74980625  1
  Fe  Fe1  1  0.50072761  0.74608212  0.25266186  1
  Fe  Fe2  1  0.12930723  0.62419828  0.62840841  1
  Fe  Fe3  1  0.49731991  0.74612720  0.49948097  1
  Fe  Fe4  1  0.75084157  0.74809847  0.25159902  1
  Fe  Fe5  1  0.00199644  0.50112871  0.74915708  1
  Fe  Fe6  1  0.74946434  0.49844120  0.74861384  1
  Fe  Fe7  1  0.62227521  0.37386465  0.87308148  1
  Fe  Fe8  1  0.25275046  0.50558908  -0.00234237  1
  Fe  Fe9  1  0.49961520  0.00173887  0.49974077  1
  Fe  Fe10  1  0.37259484  0.12478450  0.62442682  1
  Fe  Fe11  1  0.12476106  0.62518842  0.37424668  1
  Fe  Fe12  1  0.49877450  0.00134345  0.75047905  1
  Fe  Fe13  1  0.87497275  0.62308043  0.87472673  1
  Fe  Fe14  1  0.62407110  0.87539833  0.62387608  1
  Fe  Fe15  1  0.12456636  0.37734640  0.12436721  1
  Fe  Fe16  1  0.12391323  0.87634877  0.62415413  1
  Fe  Fe17  1  0.00351883  -0.00044349  0.24968685  1
  Fe  Fe18  1  0.24800046  -0.00054026  0.49726693  1
  Fe  Fe19  1  0.74978197  -0.00120636  0.00082584  1
  Fe  Fe20  1  0.62414478  0.87363745  0.12527101  1
  Fe  Fe21  1  0.50108900  0.00073646  0.00063916  1
  Fe  Fe22  1  0.12297416  0.37171027  0.62385757  1
  Fe  Fe23  1  0.12324547  0.87178681  0.12266107  1
  Fe  Fe24  1  0.24939736  0.25332160  0.75179945  1
  Fe  Fe25  1  0.37438040  0.87221470  0.87439987  1
  Fe  Fe26  1  0.62508370  0.62386238  0.12478973  1
  Fe  Fe27  1  0.25267298  0.24926151  0.24784130  1
  Fe  Fe28  1  0.87529237  0.12484142  0.12462501  1
  Fe  Fe29  1  0.87613932  0.87567173  0.62527646  1
  Fe  Fe30  1  0.37540094  0.37559528  0.62570277  1
  Fe  Fe31  1  0.00065275  0.74922607  0.75063823  1
  Fe  Fe32  1  0.12286590  0.12859655  0.62397784  1
  Fe  Fe33  1  0.37528408  0.37726324  0.12193440  1
  Fe  Fe34  1  0.49772985  0.24790906  0.24818047  1
  Fe  Fe35  1  0.62384834  0.87486033  0.37560978  1
  Fe  Fe36  1  0.12668696  0.12470819  0.87686846  1
  Fe  Fe37  1  0.49903340  0.74947579  0.74624149  1
  Fe  Fe38  1  0.49764826  0.50019655  0.75140605  1
  Fe  Fe39  1  0.75273997  0.75074223  0.00137878  1
  Fe  Fe40  1  -0.00215250  0.74570496  0.24673737  1
  Fe  Fe41  1  0.87328778  0.62505895  0.62269255  1
  Fe  Fe42  1  0.62476839  0.37580359  0.12590786  1
  Fe  Fe43  1  0.00038709  0.74906241  0.50092161  1
  Fe  Fe44  1  0.75073840  0.24990857  0.24976462  1
  Fe  Fe45  1  -0.00124688  0.25043819  -0.00167951  1
  Fe  Fe46  1  0.37509339  0.87584975  0.12580484  1
  Fe  Fe47  1  -0.00033433  0.50335595  0.00272265  1
  Fe  Fe48  1  0.87720645  0.37601397  0.37220110  1
  Fe  Fe49  1  0.87763426  0.87596844  0.87694526  1
  Fe  Fe50  1  0.87715889  0.87393577  0.37373967  1
  Fe  Fe51  1  0.24909374  -0.00194269  0.00223733  1
  Fe  Fe52  1  0.75322954  0.00118955  0.50029464  1
  Fe  Fe53  1  0.49942742  0.00426551  0.24783933  1
  Fe  Fe54  1  0.62378982  0.87347079  0.87440336  1
  Fe  Fe55  1  0.00053063  0.25173455  0.24975480  1
  Fe  Fe56  1  0.62448514  0.37662610  0.37679696  1
  Fe  Fe57  1  0.50020075  0.50201648  0.25252944  1
  Fe  Fe58  1  0.75397447  0.24974556  0.49953652  1
  Fe  Fe59  1  0.12768986  0.12780462  0.37505248  1
  Fe  Fe60  1  0.12569045  0.37402519  0.37537505  1
  Fe  Fe61  1  0.37433204  0.37495487  0.37508229  1
  Fe  Fe62  1  0.74991867  0.75026299  0.74892006  1
  Fe  Fe63  1  0.37265091  0.12750951  0.87746427  1
  Fe  Fe64  1  0.62349873  0.37408723  0.62445301  1
  Fe  Fe65  1  0.00095086  0.00185042  0.75156479  1
  Fe  Fe66  1  0.25069604  0.49922153  0.50026557  1
  Fe  Fe67  1  0.75177199  0.50167247  0.25207094  1
  Fe  Fe68  1  0.25098416  0.75061569  0.50209900  1
  Fe  Fe69  1  0.62499344  0.12637754  0.37493249  1
  Fe  Fe70  1  -0.00062258  0.00310973  0.49762282  1
  Fe  Fe71  1  0.87855991  0.36992294  0.62865022  1
  Fe  Fe72  1  0.49760623  0.24954510  0.49928198  1
  Fe  Fe73  1  0.62433778  0.62592581  0.87510150  1
  Fe  Fe74  1  0.62684036  0.12759022  0.62674989  1
  Fe  Fe75  1  0.12435651  0.37856246  0.87651620  1
  Fe  Fe76  1  0.62564124  0.12673403  0.87452065  1
  Fe  Fe77  1  0.37359467  0.87654420  0.37410341  1
  Fe  Fe78  1  0.49717674  0.74673544  0.00121915  1
  Fe  Fe79  1  0.49989275  0.25003518  0.00167686  1
  Fe  Fe80  1  0.74900739  0.49801858  -0.00067182  1
  Fe  Fe81  1  0.24887674  0.50053143  0.24946214  1
  Fe  Fe82  1  0.74850557  0.00007548  0.24880325  1
  Fe  Fe83  1  -0.00026648  0.49925891  0.49910521  1
  Fe  Fe84  1  0.24950490  -0.00247428  0.74976664  1
  Fe  Fe85  1  0.12399296  0.87043713  0.87880850  1
  Fe  Fe86  1  0.12666559  0.12625993  0.12415497  1
  Fe  Fe87  1  0.62628805  0.62236058  0.61954923  1
  Fe  Fe88  1  0.75292238  0.25283936  -0.00238900  1
  Fe  Fe89  1  0.24978061  0.74985390  0.24783642  1
  Co  Co90  1  0.37279728  0.62820621  0.86970294  1
  Co  Co91  1  0.37607650  0.37358894  0.87806105  1
  Co  Co92  1  0.25205820  0.25122749  0.50041330  1
  Co  Co93  1  0.87213127  0.62104587  0.12469559  1
  Co  Co94  1  0.37053260  0.62478814  0.37381757  1
  Co  Co95  1  0.75479122  0.49399397  0.50129123  1
  Co  Co96  1  0.87500436  0.12356082  0.37027532  1
  Co  Co97  1  0.87577194  0.37565337  0.12595694  1
  Co  Co98  1  -0.00283360  0.24917238  0.49525224  1
  Co  Co99  1  0.87483913  0.12250152  0.87544154  1
  Co  Co100  1  0.12607715  0.62677486  0.87313112  1
  Co  Co101  1  0.37106832  0.62280740  0.62863828  1
  Co  Co102  1  0.12387468  0.87129454  0.37451818  1
  Co  Co103  1  0.62837916  0.62171261  0.37981233  1
  Co  Co104  1  0.87568010  0.62504933  0.37842831  1
  Co  Co105  1  0.87783414  0.12798646  0.62864801  1
  Co  Co106  1  0.37248622  0.12447636  0.12225010  1
  Co  Co107  1  0.37617443  0.62285408  0.12761990  1
  Co  Co108  1  0.37534996  0.87702033  0.62299223  1
  Co  Co109  1  0.25231770  0.74669134  0.00231641  1
  Co  Co110  1  0.00200223  0.00139170  0.00146912  1
  Co  Co111  1  0.24867403  0.75502689  0.74800287  1
  Co  Co112  1  0.00049623  0.50127577  0.25115173  1
  Co  Co113  1  0.24692957  -0.00023257  0.24906872  1
  Co  Co114  1  0.00292889  0.24930815  0.75716586  1
  Co  Co115  1  0.49995184  0.50239851  -0.00170211  1
  Co  Co116  1  0.49557998  0.50095797  0.49866757  1
  Co  Co117  1  0.87805123  0.37979937  0.87375377  1
  Co  Co118  1  0.37328763  0.12368363  0.37459989  1
  Co  Co119  1  0.12588078  0.62423203  0.12507296  1
  Co  Co120  1  -0.00279747  0.74592760  0.00166683  1
  Co  Co121  1  0.49693143  0.24883670  0.74972482  1
  Co  Co122  1  0.87603679  0.87730456  0.12598593  1
  Co  Co123  1  0.75152518  0.25180362  0.75329158  1
  Co  Co124  1  0.62722804  0.12678907  0.12353827  1
  Co  Co125  1  0.74988392  0.75352627  0.49950646  1
  Co  Co126  1  0.24744305  0.25215473  0.00015166  1
  Co  Co127  1  0.25005651  0.49438149  0.75196039  1
