# generated using pymatgen
data_Fe45Co19
_symmetry_space_group_name_H-M   'P 1'
_cell_length_a   11.41535232
_cell_length_b   11.41651747
_cell_length_c   11.41464700
_cell_angle_alpha   90.00725966
_cell_angle_beta   90.01334396
_cell_angle_gamma   90.00299413
_symmetry_Int_Tables_number   1
_chemical_formula_structural   Fe45Co19
_chemical_formula_sum   'Fe90 Co38'
_cell_volume   1487.59748276
_cell_formula_units_Z   2
loop_
 _symmetry_equiv_pos_site_id
 _symmetry_equiv_pos_as_xyz
  1  'x, y, z'
loop_
 _atom_site_type_symbol
 _atom_site_label
 _atom_site_symmetry_multiplicity
 _atom_site_fract_x
 _atom_site_fract_y
 _atom_site_fract_z
 _atom_site_occupancy
  Fe  Fe0  1  0.37333868  0.62369165  0.37509035  1
  Fe  Fe1  1  -0.00207420  -0.00190612  -0.00085366  1
  Fe  Fe2  1  0.12420634  0.87558646  0.12527697  1
  Fe  Fe3  1  0.12663383  0.62245282  0.37565259  1
  Fe  Fe4  1  0.25073516  0.24948925  0.75091152  1
  Fe  Fe5  1  0.87403959  0.37421970  0.62408369  1
  Fe  Fe6  1  0.37583584  0.62305866  0.12392667  1
  Fe  Fe7  1  0.24962058  0.00040453  0.00041915  1
  Fe  Fe8  1  0.00216699  0.25167268  0.49675496  1
  Fe  Fe9  1  0.62352882  0.37453857  0.62412336  1
  Fe  Fe10  1  -0.00063993  0.24965936  0.74927130  1
  Fe  Fe11  1  0.12588356  0.37600045  0.62524486  1
  Fe  Fe12  1  0.50383637  0.75147376  -0.00023416  1
  Fe  Fe13  1  0.50075666  0.25119971  0.75225931  1
  Fe  Fe14  1  0.49580977  0.49591367  0.49849778  1
  Fe  Fe15  1  0.50045793  -0.00158595  0.49721028  1
  Fe  Fe16  1  0.75080102  0.00012482  0.49822502  1
  Fe  Fe17  1  -0.00206543  -0.00055863  0.49806960  1
  Fe  Fe18  1  0.25020205  0.49971637  0.75198233  1
  Fe  Fe19  1  0.37753250  0.12615162  0.12452768  1
  Fe  Fe20  1  0.50197893  0.74946309  0.25245557  1
  Fe  Fe21  1  0.62392235  0.12472359  0.37293835  1
  Fe  Fe22  1  0.49996925  0.49875737  0.75289206  1
  Fe  Fe23  1  0.24908308  0.74937191  0.50060749  1
  Fe  Fe24  1  0.00206179  0.25203801  0.00071841  1
  Fe  Fe25  1  0.37613817  0.87424256  0.12550553  1
  Fe  Fe26  1  -0.00180269  0.75114684  -0.00102505  1
  Fe  Fe27  1  -0.00124753  0.50007645  0.75112683  1
  Fe  Fe28  1  0.50447011  0.75022250  0.75239518  1
  Fe  Fe29  1  0.37544772  0.87247878  0.37530277  1
  Fe  Fe30  1  0.24451428  0.25246725  0.24929731  1
  Fe  Fe31  1  0.24893414  -0.00031365  0.75083935  1
  Fe  Fe32  1  -0.00251396  0.75113096  0.50062690  1
  Fe  Fe33  1  0.87415477  0.62426558  0.37333691  1
  Fe  Fe34  1  0.37243554  0.37710514  0.12344488  1
  Fe  Fe35  1  -0.00495589  0.74920128  0.74917829  1
  Fe  Fe36  1  0.12434338  0.12572085  0.87545356  1
  Fe  Fe37  1  0.37344647  0.37389534  0.88003605  1
  Fe  Fe38  1  0.12242249  0.87572351  0.62589382  1
  Fe  Fe39  1  0.74802090  0.25047260  0.00315486  1
  Fe  Fe40  1  -0.00119150  0.74899360  0.24854644  1
  Fe  Fe41  1  0.87162945  0.87303639  0.37057228  1
  Fe  Fe42  1  0.00050206  0.49711772  0.25105938  1
  Fe  Fe43  1  0.12467902  0.87573790  0.37268506  1
  Fe  Fe44  1  0.87366544  0.37417479  0.87454511  1
  Fe  Fe45  1  0.62466270  0.62205932  0.12569975  1
  Fe  Fe46  1  0.62273577  0.12733566  0.62299810  1
  Fe  Fe47  1  0.62298709  0.12221190  0.12695765  1
  Fe  Fe48  1  0.37697507  0.62516997  0.87753485  1
  Fe  Fe49  1  0.62536908  0.62260899  0.37490066  1
  Fe  Fe50  1  0.62371010  0.62303094  0.62339389  1
  Fe  Fe51  1  0.62628204  0.37669975  0.87682792  1
  Fe  Fe52  1  0.75112586  0.74782793  0.00271373  1
  Fe  Fe53  1  0.62736707  0.87397800  0.62500206  1
  Fe  Fe54  1  0.24757695  0.74868720  -0.00013847  1
  Fe  Fe55  1  0.37577868  0.87544350  0.87724553  1
  Fe  Fe56  1  0.87504928  0.12447091  0.62472889  1
  Fe  Fe57  1  0.25081108  0.25302916  0.49971364  1
  Fe  Fe58  1  0.12497557  0.12424200  0.62278726  1
  Fe  Fe59  1  0.50273189  -0.00118921  0.75216057  1
  Fe  Fe60  1  0.37759005  0.87374248  0.62440137  1
  Fe  Fe61  1  0.62491836  0.37904059  0.12721627  1
  Fe  Fe62  1  0.00149654  0.49871181  -0.00294269  1
  Fe  Fe63  1  0.75111920  0.50246027  0.74960084  1
  Fe  Fe64  1  -0.00346974  0.00141962  0.24921022  1
  Fe  Fe65  1  0.25009129  0.75093874  0.75125018  1
  Fe  Fe66  1  0.12307865  0.62324079  0.12381559  1
  Fe  Fe67  1  0.75180686  0.49724001  0.49779159  1
  Fe  Fe68  1  0.75094326  0.74984765  0.50093002  1
  Fe  Fe69  1  0.87528324  0.13055907  0.37073290  1
  Fe  Fe70  1  0.25164049  -0.00037658  0.24960317  1
  Fe  Fe71  1  0.12265978  0.12396414  0.12580043  1
  Fe  Fe72  1  0.12451549  0.62482419  0.62566403  1
  Fe  Fe73  1  0.37729217  0.12603444  0.62436702  1
  Fe  Fe74  1  0.87565322  0.37256802  0.12906905  1
  Fe  Fe75  1  0.24906811  0.74821813  0.24904934  1
  Fe  Fe76  1  0.25025203  -0.00173238  0.49952264  1
  Fe  Fe77  1  0.37679047  0.62590887  0.62546051  1
  Fe  Fe78  1  0.50142500  0.25358573  0.25047498  1
  Fe  Fe79  1  0.37761485  0.12548342  0.87896080  1
  Fe  Fe80  1  0.37440457  0.12739367  0.37440936  1
  Fe  Fe81  1  0.74827657  0.25186648  0.49766380  1
  Fe  Fe82  1  0.74930068  0.24872480  0.74970308  1
  Fe  Fe83  1  0.75199483  0.50096029  0.00177505  1
  Fe  Fe84  1  0.87420223  0.12613367  0.87577431  1
  Fe  Fe85  1  -0.00121700  0.49865462  0.49907404  1
  Fe  Fe86  1  0.62362069  0.12477937  0.87829388  1
  Fe  Fe87  1  0.87030652  0.87587027  0.87046700  1
  Fe  Fe88  1  0.62683032  0.87755121  0.13010539  1
  Fe  Fe89  1  0.75130716  0.00112679  0.00294296  1
  Co  Co90  1  0.00067575  0.00225531  0.75068661  1
  Co  Co91  1  0.37189359  0.37551647  0.37174636  1
  Co  Co92  1  0.24779159  0.24798253  0.00208823  1
  Co  Co93  1  0.50281914  0.25264672  0.00261883  1
  Co  Co94  1  0.50110357  -0.00267178  0.00070899  1
  Co  Co95  1  0.75038527  0.74413632  0.74695571  1
  Co  Co96  1  0.87393243  0.87348098  0.12672059  1
  Co  Co97  1  0.87414668  0.62438679  0.87697319  1
  Co  Co98  1  0.24729754  0.50290150  -0.00203225  1
  Co  Co99  1  0.50133426  0.74963661  0.49788436  1
  Co  Co100  1  0.75174278  0.50081701  0.25039091  1
  Co  Co101  1  0.75430327  0.00365181  0.24867484  1
  Co  Co102  1  0.12302932  0.62692606  0.87316775  1
  Co  Co103  1  0.49842976  0.50037784  0.25033059  1
  Co  Co104  1  0.49719487  -0.00171031  0.25275333  1
  Co  Co105  1  0.12600444  0.37749900  0.12253642  1
  Co  Co106  1  0.87271131  0.87821060  0.62782441  1
  Co  Co107  1  0.87793568  0.62232208  0.12499957  1
  Co  Co108  1  0.12448082  0.87359248  0.87433453  1
  Co  Co109  1  0.62523860  0.37691142  0.37433963  1
  Co  Co110  1  0.37603507  0.37312987  0.62710669  1
  Co  Co111  1  0.63055971  0.87397697  0.87476025  1
  Co  Co112  1  0.62666639  0.62369585  0.87680051  1
  Co  Co113  1  0.87401641  0.37195701  0.37188328  1
  Co  Co114  1  0.74965748  0.74504314  0.24769960  1
  Co  Co115  1  0.87475266  0.62243261  0.62228801  1
  Co  Co116  1  0.50039421  0.49968062  -0.00011580  1
  Co  Co117  1  0.12655359  0.12284469  0.37495870  1
  Co  Co118  1  0.24918640  0.50129580  0.24737967  1
  Co  Co119  1  0.00647521  0.25261004  0.25183194  1
  Co  Co120  1  0.74604072  0.25044456  0.24834324  1
  Co  Co121  1  0.62876549  0.87530658  0.37214956  1
  Co  Co122  1  0.87732716  0.13071267  0.12531841  1
  Co  Co123  1  0.12818910  0.37949745  0.37762426  1
  Co  Co124  1  0.12614949  0.37292512  0.87381512  1
  Co  Co125  1  0.25296355  0.50046761  0.50359783  1
  Co  Co126  1  0.49909062  0.25290563  0.49711639  1
  Co  Co127  1  0.74707808  0.00530448  0.74899963  1
