# generated using pymatgen
data_Fe45Co19
_symmetry_space_group_name_H-M   'P 1'
_cell_length_a   11.41685482
_cell_length_b   11.41658481
_cell_length_c   11.41499595
_cell_angle_alpha   90.00861020
_cell_angle_beta   89.99953307
_cell_angle_gamma   89.99835685
_symmetry_Int_Tables_number   1
_chemical_formula_structural   Fe45Co19
_chemical_formula_sum   'Fe90 Co38'
_cell_volume   1487.84757924
_cell_formula_units_Z   2
loop_
 _symmetry_equiv_pos_site_id
 _symmetry_equiv_pos_as_xyz
  1  'x, y, z'
loop_
 _atom_site_type_symbol
 _atom_site_label
 _atom_site_symmetry_multiplicity
 _atom_site_fract_x
 _atom_site_fract_y
 _atom_site_fract_z
 _atom_site_occupancy
  Fe  Fe0  1  0.12461483  0.37521164  0.87542230  1
  Fe  Fe1  1  0.50345963  0.74959346  0.25025364  1
  Fe  Fe2  1  0.75273436  0.49719565  -0.00467520  1
  Fe  Fe3  1  0.25057276  0.24873705  0.00307981  1
  Fe  Fe4  1  0.49986017  0.50086410  0.49662618  1
  Fe  Fe5  1  0.87514247  0.37583992  0.12679655  1
  Fe  Fe6  1  0.87492380  0.37590976  0.62836668  1
  Fe  Fe7  1  0.87578132  0.12138995  0.12647319  1
  Fe  Fe8  1  0.24815697  0.74768098  0.74923161  1
  Fe  Fe9  1  0.25158420  -0.00342823  0.49725037  1
  Fe  Fe10  1  0.50502566  0.50088331  0.75232370  1
  Fe  Fe11  1  0.12263952  0.62308040  0.62260461  1
  Fe  Fe12  1  0.49964990  0.25066657  0.49908884  1
  Fe  Fe13  1  0.37353893  0.12343634  0.12839529  1
  Fe  Fe14  1  0.25198041  0.50185385  0.00016144  1
  Fe  Fe15  1  -0.00319896  -0.00126014  0.49829710  1
  Fe  Fe16  1  0.37551978  0.12508391  0.87514803  1
  Fe  Fe17  1  0.49961016  -0.00157712  -0.00114296  1
  Fe  Fe18  1  -0.00246103  0.74973682  0.50012361  1
  Fe  Fe19  1  -0.00180235  0.50030853  -0.00228265  1
  Fe  Fe20  1  0.87380450  0.87360370  0.87261352  1
  Fe  Fe21  1  0.49811508  0.25054094  0.00177506  1
  Fe  Fe22  1  0.37489512  0.12472841  0.62190780  1
  Fe  Fe23  1  0.62546538  0.12400697  0.12468666  1
  Fe  Fe24  1  0.87535565  0.87912143  0.12636604  1
  Fe  Fe25  1  0.12690268  0.12292948  0.87784527  1
  Fe  Fe26  1  0.87314485  0.12623959  0.62371392  1
  Fe  Fe27  1  0.12479024  0.12514482  0.37526319  1
  Fe  Fe28  1  0.49945358  0.75010524  0.49815627  1
  Fe  Fe29  1  0.12589208  0.38009121  0.37460500  1
  Fe  Fe30  1  0.74581445  0.74639416  0.74983275  1
  Fe  Fe31  1  0.37257969  0.62519862  0.37352241  1
  Fe  Fe32  1  0.62458521  0.37596336  0.12594457  1
  Fe  Fe33  1  0.00139299  0.24970580  0.24912264  1
  Fe  Fe34  1  -0.00062530  0.75035628  0.25006624  1
  Fe  Fe35  1  0.25135793  0.74965644  -0.00064237  1
  Fe  Fe36  1  0.74728545  0.00034020  0.74843056  1
  Fe  Fe37  1  0.87163791  0.12659715  0.37507184  1
  Fe  Fe38  1  0.87320311  0.37626302  0.37169425  1
  Fe  Fe39  1  0.37598857  0.62643750  0.12673523  1
  Fe  Fe40  1  0.87402618  0.62446453  0.37209008  1
  Fe  Fe41  1  0.62457171  0.12532946  0.87545598  1
  Fe  Fe42  1  0.00045927  0.00048464  0.75003379  1
  Fe  Fe43  1  0.25125917  -0.00061707  0.74980607  1
  Fe  Fe44  1  0.37466852  0.37598948  0.13149137  1
  Fe  Fe45  1  0.37638281  0.87252732  0.87490952  1
  Fe  Fe46  1  0.12241041  0.87905662  0.12443094  1
  Fe  Fe47  1  0.74914155  0.75283276  0.00013350  1
  Fe  Fe48  1  0.24940482  0.25039492  0.74852243  1
  Fe  Fe49  1  0.62720865  0.37486586  0.37427180  1
  Fe  Fe50  1  0.37476695  0.87276220  0.62332426  1
  Fe  Fe51  1  0.50199925  -0.00198361  0.49796834  1
  Fe  Fe52  1  0.87269662  0.12657621  0.87401294  1
  Fe  Fe53  1  0.62985606  0.12653796  0.37797318  1
  Fe  Fe54  1  -0.00099058  0.75063447  -0.00222143  1
  Fe  Fe55  1  0.37743591  0.37614428  0.62443376  1
  Fe  Fe56  1  0.12425343  0.87456169  0.62213482  1
  Fe  Fe57  1  -0.00066013  0.25346006  0.50032181  1
  Fe  Fe58  1  0.50110054  0.00001894  0.74812721  1
  Fe  Fe59  1  0.62969353  0.62811741  0.37513203  1
  Fe  Fe60  1  0.62587777  0.87685042  0.12559753  1
  Fe  Fe61  1  0.24983430  0.50101955  0.74929297  1
  Fe  Fe62  1  0.87473116  0.62429336  0.62914117  1
  Fe  Fe63  1  0.12624426  0.12436814  0.62149605  1
  Fe  Fe64  1  0.50304228  -0.00069242  0.25518507  1
  Fe  Fe65  1  0.12393798  0.62287605  0.37757455  1
  Fe  Fe66  1  0.62616224  0.87322052  0.62195332  1
  Fe  Fe67  1  -0.00085599  0.50103630  0.75357352  1
  Fe  Fe68  1  0.87456051  0.62415573  0.12459110  1
  Fe  Fe69  1  0.25123003  0.25492402  0.49861483  1
  Fe  Fe70  1  0.87448629  0.87384093  0.62674976  1
  Fe  Fe71  1  0.75126900  0.50039758  0.50172519  1
  Fe  Fe72  1  0.24856598  -0.00069717  0.25281456  1
  Fe  Fe73  1  0.00069045  0.24782374  0.00134036  1
  Fe  Fe74  1  0.12323183  0.62473061  0.12385063  1
  Fe  Fe75  1  0.50344867  0.74824746  0.75200693  1
  Fe  Fe76  1  0.00309023  0.24815452  0.74897259  1
  Fe  Fe77  1  0.37569921  0.37502286  0.87423251  1
  Fe  Fe78  1  0.49974951  0.24945504  0.25239957  1
  Fe  Fe79  1  0.49729975  0.50054992  0.00005355  1
  Fe  Fe80  1  0.62603197  0.62388217  0.12205980  1
  Fe  Fe81  1  0.37708682  0.62505634  0.62534235  1
  Fe  Fe82  1  0.50205608  0.24971025  0.74800444  1
  Fe  Fe83  1  0.86994217  0.87367164  0.37340858  1
  Fe  Fe84  1  0.75000153  0.25027606  0.00143566  1
  Fe  Fe85  1  0.12601268  0.37625326  0.12689904  1
  Fe  Fe86  1  0.12504696  0.87546562  0.87571110  1
  Fe  Fe87  1  0.74529006  0.25352822  0.74783374  1
  Fe  Fe88  1  0.24690973  0.75033295  0.25162566  1
  Fe  Fe89  1  0.37598137  0.87476923  0.12812472  1
  Co  Co90  1  0.62417129  0.62455594  0.62245642  1
  Co  Co91  1  0.62526844  0.62472928  0.88020891  1
  Co  Co92  1  0.00302108  0.74995055  0.74959655  1
  Co  Co93  1  0.62314495  0.37363135  0.87814864  1
  Co  Co94  1  0.12307424  0.37678106  0.62555557  1
  Co  Co95  1  0.75007742  0.74948271  0.24554133  1
  Co  Co96  1  0.74961828  0.00009103  -0.00108643  1
  Co  Co97  1  0.12425410  0.87294224  0.37663522  1
  Co  Co98  1  0.25024386  0.74790696  0.50087956  1
  Co  Co99  1  0.24938216  0.50286062  0.24910300  1
  Co  Co100  1  0.62546867  0.12544397  0.62229861  1
  Co  Co101  1  -0.00103878  -0.00005834  0.25441341  1
  Co  Co102  1  0.75138942  0.25388896  0.50272906  1
  Co  Co103  1  0.37518622  0.87277535  0.37366777  1
  Co  Co104  1  0.37436233  0.12402642  0.37593808  1
  Co  Co105  1  0.74681984  0.49978982  0.75192318  1
  Co  Co106  1  0.24869667  0.24960477  0.25135315  1
  Co  Co107  1  0.74864723  0.00099024  0.25116929  1
  Co  Co108  1  0.62328054  0.37760478  0.62190799  1
  Co  Co109  1  0.25281993  0.49956485  0.50217386  1
  Co  Co110  1  0.37671102  0.62609875  0.87440120  1
  Co  Co111  1  0.62940652  0.87105461  0.37658392  1
  Co  Co112  1  0.74852447  0.50083669  0.24889891  1
  Co  Co113  1  0.50013577  0.75147852  0.00118615  1
  Co  Co114  1  0.12418685  0.62447640  0.87664411  1
  Co  Co115  1  -0.00291448  0.00032396  -0.00435161  1
  Co  Co116  1  0.87637975  0.37109261  0.87292059  1
  Co  Co117  1  0.87358004  0.62824239  0.87375517  1
  Co  Co118  1  -0.00434177  0.49919149  0.50064782  1
  Co  Co119  1  0.37515483  0.37736009  0.37179978  1
  Co  Co120  1  0.75061185  -0.00124120  0.50106557  1
  Co  Co121  1  0.50284183  0.50293042  0.25139225  1
  Co  Co122  1  0.12479553  0.12029557  0.12542109  1
  Co  Co123  1  -0.00008857  0.50113188  0.24820195  1
  Co  Co124  1  0.62507157  0.87490213  0.87475889  1
  Co  Co125  1  0.75370517  0.74760958  0.50263862  1
  Co  Co126  1  0.74997840  0.24986759  0.24710524  1
  Co  Co127  1  0.25366214  -0.00152615  0.00010093  1
