# generated using pymatgen
data_Fe45Co19
_symmetry_space_group_name_H-M   'P 1'
_cell_length_a   11.41525200
_cell_length_b   11.41527441
_cell_length_c   11.41548587
_cell_angle_alpha   89.99575486
_cell_angle_beta   90.00366472
_cell_angle_gamma   89.99255598
_symmetry_Int_Tables_number   1
_chemical_formula_structural   Fe45Co19
_chemical_formula_sum   'Fe90 Co38'
_cell_volume   1487.53178402
_cell_formula_units_Z   2
loop_
 _symmetry_equiv_pos_site_id
 _symmetry_equiv_pos_as_xyz
  1  'x, y, z'
loop_
 _atom_site_type_symbol
 _atom_site_label
 _atom_site_symmetry_multiplicity
 _atom_site_fract_x
 _atom_site_fract_y
 _atom_site_fract_z
 _atom_site_occupancy
  Fe  Fe0  1  0.12527425  0.87571350  0.62640976  1
  Fe  Fe1  1  0.12299645  0.37774406  0.37264197  1
  Fe  Fe2  1  0.87666211  0.62297936  0.37408269  1
  Fe  Fe3  1  0.12738982  0.62483993  0.62719850  1
  Fe  Fe4  1  0.00171435  0.00098436  0.00013203  1
  Fe  Fe5  1  0.24906772  0.74956791  0.75346352  1
  Fe  Fe6  1  0.87722867  0.37682625  0.37420635  1
  Fe  Fe7  1  0.50081821  0.74808194  0.50129124  1
  Fe  Fe8  1  0.87337648  0.12541114  0.37747751  1
  Fe  Fe9  1  0.00360732  0.24828643  -0.00121123  1
  Fe  Fe10  1  0.00050876  0.74868787  0.50031035  1
  Fe  Fe11  1  0.37379706  0.87309552  0.62621409  1
  Fe  Fe12  1  0.50029012  0.75032083  0.00014336  1
  Fe  Fe13  1  0.12606670  0.87722378  0.87473231  1
  Fe  Fe14  1  0.12531527  0.12463746  0.37580278  1
  Fe  Fe15  1  0.00063390  0.50096539  0.50194819  1
  Fe  Fe16  1  0.36800525  0.12953127  0.62771856  1
  Fe  Fe17  1  0.25004445  0.00368899  -0.00135970  1
  Fe  Fe18  1  0.12794931  0.37396267  0.62646310  1
  Fe  Fe19  1  0.62265118  0.37446891  0.37411557  1
  Fe  Fe20  1  0.00007120  0.74925652  0.75231579  1
  Fe  Fe21  1  0.00059017  0.50206586  0.75134942  1
  Fe  Fe22  1  0.24929196  0.24846236  0.24921857  1
  Fe  Fe23  1  0.87507833  0.87638581  0.87538322  1
  Fe  Fe24  1  0.62384087  0.37510784  0.12361369  1
  Fe  Fe25  1  0.37417951  0.62525895  0.12058615  1
  Fe  Fe26  1  0.75101307  0.25055365  0.75316159  1
  Fe  Fe27  1  0.62281582  0.37674670  0.62875715  1
  Fe  Fe28  1  -0.00148277  0.00142108  0.50460341  1
  Fe  Fe29  1  0.75084621  0.25010961  0.24941410  1
  Fe  Fe30  1  0.12535341  0.87536310  0.37519780  1
  Fe  Fe31  1  0.74871103  0.49846083  -0.00369995  1
  Fe  Fe32  1  0.62341109  0.12570234  0.87483523  1
  Fe  Fe33  1  0.87658487  0.37486405  0.12353753  1
  Fe  Fe34  1  0.74848179  0.75019555  -0.00276574  1
  Fe  Fe35  1  0.37846954  0.36893869  0.87263062  1
  Fe  Fe36  1  0.25029460  0.49810568  0.50108537  1
  Fe  Fe37  1  0.37540139  0.87532011  0.87482497  1
  Fe  Fe38  1  -0.00037654  0.25032796  0.24850198  1
  Fe  Fe39  1  0.37304903  0.87667745  0.12420175  1
  Fe  Fe40  1  0.74944519  0.49956573  0.50056620  1
  Fe  Fe41  1  0.49833854  0.49965963  0.24775495  1
  Fe  Fe42  1  0.62398033  0.12288750  0.37457161  1
  Fe  Fe43  1  0.37450936  0.62256930  0.62855609  1
  Fe  Fe44  1  0.74876527  0.50057534  0.75499213  1
  Fe  Fe45  1  -0.00246913  0.00210304  0.74705596  1
  Fe  Fe46  1  0.12438305  0.37743461  0.87673384  1
  Fe  Fe47  1  0.87149355  0.62771610  0.62759897  1
  Fe  Fe48  1  0.37296825  0.37096923  0.12164421  1
  Fe  Fe49  1  0.74864849  0.74945815  0.24992442  1
  Fe  Fe50  1  0.00182812  0.24773642  0.75116036  1
  Fe  Fe51  1  0.87420467  0.12394814  0.12161682  1
  Fe  Fe52  1  0.00200059  0.25010042  0.50183267  1
  Fe  Fe53  1  0.00304558  0.75115806  -0.00055032  1
  Fe  Fe54  1  0.50008115  0.75015905  0.24789166  1
  Fe  Fe55  1  0.00317992  0.74901862  0.24867445  1
  Fe  Fe56  1  0.00008302  0.49992232  0.00013519  1
  Fe  Fe57  1  0.75315102  0.00006833  0.75007667  1
  Fe  Fe58  1  0.87532949  0.37392270  0.62774529  1
  Fe  Fe59  1  0.24826027  0.74987614  0.24860495  1
  Fe  Fe60  1  0.24954435  0.74893610  0.50044924  1
  Fe  Fe61  1  0.87395419  0.87620932  0.12363764  1
  Fe  Fe62  1  0.25182702  0.00240421  0.24937602  1
  Fe  Fe63  1  0.49777483  0.00162166  0.50280821  1
  Fe  Fe64  1  0.37600167  0.87528974  0.37506025  1
  Fe  Fe65  1  0.49770295  0.00209346  0.74807989  1
  Fe  Fe66  1  0.62528071  0.12338934  0.12520656  1
  Fe  Fe67  1  0.49937919  0.49903751  -0.00334457  1
  Fe  Fe68  1  0.49786056  0.24992624  0.50296226  1
  Fe  Fe69  1  0.62607941  0.87743776  0.12600424  1
  Fe  Fe70  1  0.49941705  0.00183054  0.00027704  1
  Fe  Fe71  1  0.62377780  0.87643616  0.87358168  1
  Fe  Fe72  1  0.49885654  0.24821590  0.24843085  1
  Fe  Fe73  1  0.74923498  0.25102004  -0.00269895  1
  Fe  Fe74  1  0.12846634  0.62326787  0.12056238  1
  Fe  Fe75  1  0.87368784  0.62511614  0.12269975  1
  Fe  Fe76  1  0.49911454  0.49957282  0.50300151  1
  Fe  Fe77  1  0.62825625  0.12545973  0.62561672  1
  Fe  Fe78  1  0.74956406  0.25204799  0.50020206  1
  Fe  Fe79  1  0.62459527  0.87815633  0.37597653  1
  Fe  Fe80  1  0.87408474  0.87557412  0.37685983  1
  Fe  Fe81  1  0.25030888  0.00023624  0.50135265  1
  Fe  Fe82  1  0.74992812  0.49905476  0.24856393  1
  Fe  Fe83  1  -0.00160303  0.00012131  0.24902009  1
  Fe  Fe84  1  0.62347502  0.62342117  0.37437815  1
  Fe  Fe85  1  0.62880530  0.87276929  0.62429516  1
  Fe  Fe86  1  0.24951999  0.49943096  0.24824924  1
  Fe  Fe87  1  0.50122223  0.74756672  0.74996295  1
  Fe  Fe88  1  0.37557938  0.37352868  0.37586729  1
  Fe  Fe89  1  0.37385735  0.62517022  0.37471113  1
  Co  Co90  1  0.00148316  0.50185268  0.24612584  1
  Co  Co91  1  0.62149089  0.37218472  0.87325455  1
  Co  Co92  1  0.87827607  0.37449846  0.87497539  1
  Co  Co93  1  0.12611532  0.62364355  0.37544727  1
  Co  Co94  1  0.87629232  0.62502314  0.87650757  1
  Co  Co95  1  0.25110525  0.49856816  0.75350889  1
  Co  Co96  1  0.75157583  0.00076798  0.50185600  1
  Co  Co97  1  0.24889319  0.75324241  -0.00161643  1
  Co  Co98  1  0.50074947  0.24678652  0.74624472  1
  Co  Co99  1  0.24688806  0.24733262  -0.00264821  1
  Co  Co100  1  0.74972767  0.74869624  0.49681801  1
  Co  Co101  1  0.37415390  0.37373358  0.62835518  1
  Co  Co102  1  0.24627628  0.25218208  0.75529941  1
  Co  Co103  1  0.37515056  0.12621762  0.12265497  1
  Co  Co104  1  0.25365260  0.49589407  -0.00465526  1
  Co  Co105  1  0.12620192  0.87813786  0.12520250  1
  Co  Co106  1  0.49943553  0.50169141  0.75267970  1
  Co  Co107  1  0.12887245  0.12551697  0.62618661  1
  Co  Co108  1  0.62744517  0.62506835  0.62683385  1
  Co  Co109  1  0.37680625  0.12708956  0.87374359  1
  Co  Co110  1  0.87321073  0.87122364  0.62511009  1
  Co  Co111  1  0.62333434  0.62609145  0.87574453  1
  Co  Co112  1  0.75176777  0.00051410  0.24989029  1
  Co  Co113  1  0.37469544  0.62817733  0.87601209  1
  Co  Co114  1  0.12426120  0.12459162  0.12608133  1
  Co  Co115  1  0.74813482  -0.00019197  -0.00200236  1
  Co  Co116  1  0.12625249  0.62383609  0.87755364  1
  Co  Co117  1  0.37600202  0.12534275  0.37598688  1
  Co  Co118  1  0.24863521  0.25235988  0.49749818  1
  Co  Co119  1  0.87426042  0.12931649  0.62554797  1
  Co  Co120  1  0.75001543  0.75074721  0.75500563  1
  Co  Co121  1  0.50136094  0.24845369  0.00124504  1
  Co  Co122  1  0.25249797  -0.00186113  0.75080249  1
  Co  Co123  1  0.87550386  0.12497661  0.87642128  1
  Co  Co124  1  0.49840621  -0.00013776  0.24840915  1
  Co  Co125  1  0.62411962  0.62319046  0.12264949  1
  Co  Co126  1  0.12593235  0.37486511  0.12369690  1
  Co  Co127  1  0.12521506  0.12084359  0.87130380  1
