# generated using pymatgen
data_Fe45Co19
_symmetry_space_group_name_H-M   'P 1'
_cell_length_a   11.41489930
_cell_length_b   11.41533703
_cell_length_c   11.41446606
_cell_angle_alpha   89.99806184
_cell_angle_beta   89.99699414
_cell_angle_gamma   89.99446107
_symmetry_Int_Tables_number   1
_chemical_formula_structural   Fe45Co19
_chemical_formula_sum   'Fe90 Co38'
_cell_volume   1487.36110861
_cell_formula_units_Z   2
loop_
 _symmetry_equiv_pos_site_id
 _symmetry_equiv_pos_as_xyz
  1  'x, y, z'
loop_
 _atom_site_type_symbol
 _atom_site_label
 _atom_site_symmetry_multiplicity
 _atom_site_fract_x
 _atom_site_fract_y
 _atom_site_fract_z
 _atom_site_occupancy
  Fe  Fe0  1  0.75472873  0.50035444  0.24724964  1
  Fe  Fe1  1  0.25051335  0.50213263  0.74857410  1
  Fe  Fe2  1  0.62185659  0.12433527  0.36850489  1
  Fe  Fe3  1  0.49855236  0.49959113  0.24888501  1
  Fe  Fe4  1  0.87720339  0.62656875  0.87687610  1
  Fe  Fe5  1  0.62536455  0.62471461  0.87713429  1
  Fe  Fe6  1  0.87474589  0.37148122  0.37217807  1
  Fe  Fe7  1  0.00139670  0.24923847  0.49672665  1
  Fe  Fe8  1  0.12361116  0.62671255  0.62364575  1
  Fe  Fe9  1  0.24994868  0.00244037  0.74758339  1
  Fe  Fe10  1  0.25118840  -0.00163251  0.00227100  1
  Fe  Fe11  1  0.75010505  0.00338661  0.49996238  1
  Fe  Fe12  1  0.24183278  0.74979504  0.25459581  1
  Fe  Fe13  1  0.12489744  0.12218941  0.37525881  1
  Fe  Fe14  1  0.87736093  0.62721719  0.37390908  1
  Fe  Fe15  1  0.49955886  0.49997012  0.75178085  1
  Fe  Fe16  1  0.50081547  0.75058560  0.49393010  1
  Fe  Fe17  1  0.75529941  0.50138789  0.00351128  1
  Fe  Fe18  1  -0.00194343  0.00004157  0.50134909  1
  Fe  Fe19  1  0.12308942  0.62354332  0.87659639  1
  Fe  Fe20  1  0.25095062  -0.00040024  0.24896495  1
  Fe  Fe21  1  0.24822523  0.24667393  0.74953485  1
  Fe  Fe22  1  -0.00132254  -0.00562778  0.25007543  1
  Fe  Fe23  1  0.88432083  0.63105622  0.12593527  1
  Fe  Fe24  1  0.87423291  0.87412841  0.62322338  1
  Fe  Fe25  1  0.24667900  0.50141013  0.00272280  1
  Fe  Fe26  1  0.12479377  0.37331430  0.62466145  1
  Fe  Fe27  1  0.62708275  0.37560828  0.37172263  1
  Fe  Fe28  1  0.74896473  0.74895814  0.49806126  1
  Fe  Fe29  1  0.87661359  0.12675924  0.62699004  1
  Fe  Fe30  1  0.62590039  0.12345628  0.87765024  1
  Fe  Fe31  1  0.12657891  0.87494093  0.62525143  1
  Fe  Fe32  1  0.49893454  0.74924740  0.75085234  1
  Fe  Fe33  1  0.24974487  0.50199951  0.49929142  1
  Fe  Fe34  1  0.75279492  0.50028133  0.50092637  1
  Fe  Fe35  1  0.87601506  0.37173958  0.62590940  1
  Fe  Fe36  1  -0.00190495  -0.00200936  -0.00093231  1
  Fe  Fe37  1  0.62572240  0.87576475  0.12424639  1
  Fe  Fe38  1  -0.00149754  0.49779923  0.49885683  1
  Fe  Fe39  1  0.37279011  0.87174646  0.62355682  1
  Fe  Fe40  1  0.37649902  0.12731567  0.12631167  1
  Fe  Fe41  1  0.75062922  0.75024932  0.00077469  1
  Fe  Fe42  1  0.87546783  0.37217134  0.87664671  1
  Fe  Fe43  1  0.12154298  0.12223759  0.12471678  1
  Fe  Fe44  1  0.24468781  0.75020928  -0.00004071  1
  Fe  Fe45  1  0.49946418  0.50076441  0.49680913  1
  Fe  Fe46  1  0.37354649  0.12643708  0.87707856  1
  Fe  Fe47  1  0.49835916  -0.00092824  0.49690909  1
  Fe  Fe48  1  0.87598207  0.12540998  0.37075097  1
  Fe  Fe49  1  0.62552036  0.62535064  0.12594299  1
  Fe  Fe50  1  0.24599991  0.25062575  0.24988546  1
  Fe  Fe51  1  0.25024974  0.24748983  0.49999072  1
  Fe  Fe52  1  0.75070428  0.24482546  0.00621914  1
  Fe  Fe53  1  0.00096168  0.75229148  0.75147478  1
  Fe  Fe54  1  0.37719695  0.12560786  0.37117866  1
  Fe  Fe55  1  0.62028462  0.12707779  0.62516365  1
  Fe  Fe56  1  0.24355011  0.25069438  0.00076076  1
  Fe  Fe57  1  0.75108333  0.74883863  0.74904679  1
  Fe  Fe58  1  0.49821427  -0.00232972  0.00280888  1
  Fe  Fe59  1  0.00291614  0.75237417  0.49507711  1
  Fe  Fe60  1  0.62545131  0.87471500  0.87721051  1
  Fe  Fe61  1  0.37448910  0.62820433  0.62221893  1
  Fe  Fe62  1  0.37725386  0.37161264  0.62553178  1
  Fe  Fe63  1  0.74900408  0.24814002  0.49751925  1
  Fe  Fe64  1  0.49880966  0.00020282  0.75099433  1
  Fe  Fe65  1  0.50184189  0.25069448  0.00238315  1
  Fe  Fe66  1  0.37307762  0.37461277  0.12459034  1
  Fe  Fe67  1  0.75229841  0.50133047  0.74851513  1
  Fe  Fe68  1  0.50157433  0.75204897  0.25371869  1
  Fe  Fe69  1  -0.00146379  0.49994633  0.75028453  1
  Fe  Fe70  1  0.87989070  0.36969484  0.12602544  1
  Fe  Fe71  1  0.62536172  0.62431421  0.62362113  1
  Fe  Fe72  1  0.87379442  0.87692357  0.87625515  1
  Fe  Fe73  1  0.75150128  0.75241206  0.25091307  1
  Fe  Fe74  1  0.37208910  0.62780455  0.12798822  1
  Fe  Fe75  1  0.37239513  0.87134403  0.12752993  1
  Fe  Fe76  1  0.75087411  0.00073072  0.74948309  1
  Fe  Fe77  1  0.62328291  0.37324163  0.62431891  1
  Fe  Fe78  1  0.12101020  0.37793100  0.12674494  1
  Fe  Fe79  1  0.62532190  0.87507245  0.62342716  1
  Fe  Fe80  1  0.37240257  0.37411366  0.87589276  1
  Fe  Fe81  1  0.75300750  -0.00006690  0.24569136  1
  Fe  Fe82  1  0.37406899  0.62667865  0.87728302  1
  Fe  Fe83  1  0.25287018  0.00199094  0.50205215  1
  Fe  Fe84  1  0.37243290  0.37509362  0.37339464  1
  Fe  Fe85  1  0.62745654  0.37613868  0.87882419  1
  Fe  Fe86  1  0.74828625  0.24871823  0.75061539  1
  Fe  Fe87  1  0.49884028  0.50187882  0.00215690  1
  Fe  Fe88  1  0.00371601  0.24629042  0.75454549  1
  Fe  Fe89  1  0.37278964  0.87285252  0.87487823  1
  Co  Co90  1  0.11963313  0.62460108  0.12718910  1
  Co  Co91  1  -0.00216705  0.49767887  0.25171823  1
  Co  Co92  1  0.37955597  0.12679718  0.62550612  1
  Co  Co93  1  0.00467576  0.75471558  -0.00178940  1
  Co  Co94  1  0.12261652  0.61978464  0.37302266  1
  Co  Co95  1  0.00508994  0.24988037  0.25272008  1
  Co  Co96  1  0.12701827  0.37668904  0.37654509  1
  Co  Co97  1  0.62795730  0.62205945  0.37257760  1
  Co  Co98  1  0.62879822  0.87835623  0.37446493  1
  Co  Co99  1  0.24909945  0.49919621  0.24840322  1
  Co  Co100  1  0.12710161  0.87944083  0.87302696  1
  Co  Co101  1  0.75097448  0.00195744  0.00391335  1
  Co  Co102  1  -0.00140492  -0.00027622  0.74930445  1
  Co  Co103  1  -0.00083921  0.49771772  -0.00011770  1
  Co  Co104  1  0.87741160  0.62718755  0.62249051  1
  Co  Co105  1  0.49672908  -0.00533178  0.24813739  1
  Co  Co106  1  0.24655390  0.74811069  0.49516312  1
  Co  Co107  1  0.12654861  0.11933173  0.87728114  1
  Co  Co108  1  0.62675833  0.37826798  0.12398411  1
  Co  Co109  1  0.88131579  0.12623853  0.12640567  1
  Co  Co110  1  0.00432327  0.24947835  -0.00253473  1
  Co  Co111  1  0.87207441  0.87616556  0.37753074  1
  Co  Co112  1  0.37088326  0.87478267  0.37451687  1
  Co  Co113  1  0.50001477  0.25478431  0.24754837  1
  Co  Co114  1  0.37308986  0.62503351  0.37247436  1
  Co  Co115  1  0.50024832  0.24983054  0.49514252  1
  Co  Co116  1  0.49922775  0.75091008  0.00178500  1
  Co  Co117  1  0.12743235  0.88208821  0.37758629  1
  Co  Co118  1  0.12484973  0.87661808  0.12490848  1
  Co  Co119  1  0.87463250  0.12482643  0.87597842  1
  Co  Co120  1  0.87584328  0.87253448  0.12297180  1
  Co  Co121  1  0.74861931  0.24821731  0.24655840  1
  Co  Co122  1  0.12245096  0.12487833  0.62322445  1
  Co  Co123  1  0.00404331  0.75698744  0.25504377  1
  Co  Co124  1  0.12643569  0.37773181  0.87289665  1
  Co  Co125  1  0.50084022  0.25063155  0.75427754  1
  Co  Co126  1  0.24864422  0.74793671  0.75169447  1
  Co  Co127  1  0.62058579  0.12188285  0.12831267  1
