# generated using pymatgen
data_Fe45Co19
_symmetry_space_group_name_H-M   'P 1'
_cell_length_a   11.41396158
_cell_length_b   11.41399842
_cell_length_c   11.41509340
_cell_angle_alpha   89.99118527
_cell_angle_beta   90.00307265
_cell_angle_gamma   90.00714692
_symmetry_Int_Tables_number   1
_chemical_formula_structural   Fe45Co19
_chemical_formula_sum   'Fe90 Co38'
_cell_volume   1487.14622981
_cell_formula_units_Z   2
loop_
 _symmetry_equiv_pos_site_id
 _symmetry_equiv_pos_as_xyz
  1  'x, y, z'
loop_
 _atom_site_type_symbol
 _atom_site_label
 _atom_site_symmetry_multiplicity
 _atom_site_fract_x
 _atom_site_fract_y
 _atom_site_fract_z
 _atom_site_occupancy
  Fe  Fe0  1  0.12631781  0.62435541  0.12376569  1
  Fe  Fe1  1  0.62398733  0.62285118  0.37666733  1
  Fe  Fe2  1  0.50084909  0.24846168  -0.00103325  1
  Fe  Fe3  1  0.24731508  0.25075908  0.25300178  1
  Fe  Fe4  1  0.87928265  0.87236771  0.37584655  1
  Fe  Fe5  1  0.62295641  0.62404658  0.87273854  1
  Fe  Fe6  1  0.24960104  0.49800054  -0.00086410  1
  Fe  Fe7  1  0.62069858  0.87380484  0.37481171  1
  Fe  Fe8  1  0.25036827  -0.00000195  -0.00071494  1
  Fe  Fe9  1  0.25130008  0.49763055  0.74787449  1
  Fe  Fe10  1  0.25111408  0.00013871  0.49883877  1
  Fe  Fe11  1  0.00070330  -0.00002617  0.50130163  1
  Fe  Fe12  1  0.37337950  0.37446117  0.12552012  1
  Fe  Fe13  1  0.12603458  0.62505875  0.62480225  1
  Fe  Fe14  1  -0.00187042  0.00086570  -0.00019233  1
  Fe  Fe15  1  0.24909884  0.00097005  0.25227986  1
  Fe  Fe16  1  0.75213414  0.00160250  0.74751327  1
  Fe  Fe17  1  0.24797091  0.24996429  -0.00135638  1
  Fe  Fe18  1  0.00119750  0.25181914  0.50011556  1
  Fe  Fe19  1  0.75242179  0.50048055  0.25237022  1
  Fe  Fe20  1  0.24776781  0.74773418  0.25251287  1
  Fe  Fe21  1  0.37387343  0.37714063  0.37559042  1
  Fe  Fe22  1  0.87525263  0.12669181  0.12591813  1
  Fe  Fe23  1  0.24828045  0.75168769  -0.00147932  1
  Fe  Fe24  1  0.75060215  0.50077201  0.75037330  1
  Fe  Fe25  1  0.12260247  0.37432105  0.87391304  1
  Fe  Fe26  1  0.37464036  0.37026595  0.62506795  1
  Fe  Fe27  1  0.00331168  0.25054084  0.25131045  1
  Fe  Fe28  1  0.75103708  -0.00246895  0.00260379  1
  Fe  Fe29  1  0.12797306  0.38107028  0.37819688  1
  Fe  Fe30  1  0.00128376  0.50428731  0.24837779  1
  Fe  Fe31  1  0.87234974  0.62461163  0.62393499  1
  Fe  Fe32  1  0.50051903  0.25116760  0.25230857  1
  Fe  Fe33  1  0.75199930  -0.00295935  0.25092202  1
  Fe  Fe34  1  0.37380041  0.12840044  0.62414922  1
  Fe  Fe35  1  0.37303584  0.12493413  0.87191869  1
  Fe  Fe36  1  0.49869846  -0.00026267  0.25142001  1
  Fe  Fe37  1  0.37570328  0.87338782  0.12751599  1
  Fe  Fe38  1  0.37558803  0.12604564  0.37699073  1
  Fe  Fe39  1  -0.00089860  0.74900561  0.74893766  1
  Fe  Fe40  1  0.62417484  0.12494862  0.37575707  1
  Fe  Fe41  1  0.75071354  0.24699909  0.74811397  1
  Fe  Fe42  1  -0.00187292  0.50017936  0.50313870  1
  Fe  Fe43  1  0.62564281  0.12416747  0.12684785  1
  Fe  Fe44  1  0.62433305  0.12368438  0.62150836  1
  Fe  Fe45  1  0.74713801  0.75038616  0.74887466  1
  Fe  Fe46  1  0.87538116  0.37356118  0.87402358  1
  Fe  Fe47  1  -0.00087952  0.50120180  0.00114363  1
  Fe  Fe48  1  0.12802176  0.12610203  0.62564226  1
  Fe  Fe49  1  0.12666367  0.62492101  0.87332055  1
  Fe  Fe50  1  0.12595107  0.87448285  0.62565837  1
  Fe  Fe51  1  0.75067138  0.25468774  0.49719688  1
  Fe  Fe52  1  0.74957552  0.25210921  0.25325935  1
  Fe  Fe53  1  0.12359061  0.12530688  0.12450126  1
  Fe  Fe54  1  0.87611964  0.87390780  0.87407319  1
  Fe  Fe55  1  0.87740740  0.12536010  0.37563560  1
  Fe  Fe56  1  0.62434183  0.37499943  0.87368928  1
  Fe  Fe57  1  0.37440325  0.12654121  0.12699239  1
  Fe  Fe58  1  0.37675794  0.37450606  0.87415241  1
  Fe  Fe59  1  0.37840581  0.62952290  0.62796100  1
  Fe  Fe60  1  0.87727736  0.62720622  0.37619942  1
  Fe  Fe61  1  -0.00110839  0.24664485  0.74953661  1
  Fe  Fe62  1  0.37512963  0.62467022  0.37473236  1
  Fe  Fe63  1  0.49874979  0.49997864  0.50320848  1
  Fe  Fe64  1  0.12322155  0.87477359  0.12636480  1
  Fe  Fe65  1  0.75023071  -0.00145374  0.49793523  1
  Fe  Fe66  1  -0.00170607  0.00384264  0.74907908  1
  Fe  Fe67  1  0.62372170  0.87772210  0.87363301  1
  Fe  Fe68  1  0.37274512  0.62586085  0.12372313  1
  Fe  Fe69  1  0.24892216  0.74865930  0.49771779  1
  Fe  Fe70  1  0.50239202  0.75117421  0.00097899  1
  Fe  Fe71  1  0.87338278  0.62681312  0.87889500  1
  Fe  Fe72  1  0.87618569  0.37592109  0.12602359  1
  Fe  Fe73  1  0.49878421  0.00023469  0.00223049  1
  Fe  Fe74  1  0.49568181  -0.00329005  0.74535084  1
  Fe  Fe75  1  -0.00044868  0.50139081  0.74859083  1
  Fe  Fe76  1  0.62528160  0.12247884  0.87437873  1
  Fe  Fe77  1  0.62565893  0.37526146  0.12670471  1
  Fe  Fe78  1  0.50141736  0.49974087  0.00086229  1
  Fe  Fe79  1  0.87574724  0.86736942  0.12550436  1
  Fe  Fe80  1  0.12253261  0.87475218  0.37431489  1
  Fe  Fe81  1  0.37722166  0.62594045  0.87394991  1
  Fe  Fe82  1  0.87447354  0.87482811  0.62432109  1
  Fe  Fe83  1  0.49898686  0.50128213  0.24748370  1
  Fe  Fe84  1  0.63032766  0.62673727  0.12508813  1
  Fe  Fe85  1  0.25230284  0.75362017  0.75156335  1
  Fe  Fe86  1  0.12439867  0.87733446  0.87338134  1
  Fe  Fe87  1  0.75012058  0.25094283  0.00017794  1
  Fe  Fe88  1  0.62660212  0.37721576  0.62418866  1
  Fe  Fe89  1  0.74745845  0.74922959  0.50092453  1
  Co  Co90  1  0.74633723  0.75295332  -0.00305944  1
  Co  Co91  1  0.75019212  0.75086673  0.25430691  1
  Co  Co92  1  0.87296099  0.12492416  0.87744630  1
  Co  Co93  1  -0.00078152  0.25000956  -0.00033632  1
  Co  Co94  1  0.12214741  0.12256214  0.37544440  1
  Co  Co95  1  0.12621173  0.12329787  0.87480901  1
  Co  Co96  1  0.00290444  0.74867921  -0.00121284  1
  Co  Co97  1  0.24810704  0.24951481  0.49745828  1
  Co  Co98  1  0.24819046  0.25242102  0.75112943  1
  Co  Co99  1  0.62609372  0.87668461  0.62290620  1
  Co  Co100  1  -0.00268883  -0.00101837  0.24856603  1
  Co  Co101  1  0.62322147  0.87497041  0.12827759  1
  Co  Co102  1  0.87160756  0.62751293  0.12248083  1
  Co  Co103  1  0.00230510  0.74588384  0.24967528  1
  Co  Co104  1  0.25338757  -0.00249867  0.74813388  1
  Co  Co105  1  0.87391114  0.12560295  0.61931023  1
  Co  Co106  1  0.62498704  0.62241649  0.62559431  1
  Co  Co107  1  0.50024078  0.74680287  0.24911567  1
  Co  Co108  1  0.75237270  0.49871077  0.49770203  1
  Co  Co109  1  0.25424055  0.50190423  0.50632084  1
  Co  Co110  1  0.37384284  0.87095898  0.61963971  1
  Co  Co111  1  0.62206611  0.37901421  0.37464678  1
  Co  Co112  1  0.87453365  0.37518064  0.62706613  1
  Co  Co113  1  0.12379336  0.37533445  0.62443389  1
  Co  Co114  1  0.12509008  0.62079104  0.37943592  1
  Co  Co115  1  0.74978124  0.49755306  -0.00115823  1
  Co  Co116  1  0.49852288  0.49711303  0.74815663  1
  Co  Co117  1  0.49674206  -0.00046084  0.50077018  1
  Co  Co118  1  0.00104668  0.74976281  0.50253166  1
  Co  Co119  1  0.50170572  0.75506901  0.74958382  1
  Co  Co120  1  0.24961833  0.50165244  0.24870186  1
  Co  Co121  1  0.12546309  0.37514757  0.12510453  1
  Co  Co122  1  0.50229987  0.74897929  0.50077529  1
  Co  Co123  1  0.87932035  0.37596451  0.37357782  1
  Co  Co124  1  0.50164867  0.25154486  0.49916643  1
  Co  Co125  1  0.50239352  0.24874703  0.74955583  1
  Co  Co126  1  0.37592045  0.87444528  0.87799018  1
  Co  Co127  1  0.37574920  0.87256044  0.37364941  1
