# generated using pymatgen
data_Fe45Co19
_symmetry_space_group_name_H-M   'P 1'
_cell_length_a   11.41443320
_cell_length_b   11.41508172
_cell_length_c   11.41580200
_cell_angle_alpha   90.00106025
_cell_angle_beta   90.00524771
_cell_angle_gamma   90.00784048
_symmetry_Int_Tables_number   1
_chemical_formula_structural   Fe45Co19
_chemical_formula_sum   'Fe90 Co38'
_cell_volume   1487.44116767
_cell_formula_units_Z   2
loop_
 _symmetry_equiv_pos_site_id
 _symmetry_equiv_pos_as_xyz
  1  'x, y, z'
loop_
 _atom_site_type_symbol
 _atom_site_label
 _atom_site_symmetry_multiplicity
 _atom_site_fract_x
 _atom_site_fract_y
 _atom_site_fract_z
 _atom_site_occupancy
  Fe  Fe0  1  0.00086183  0.49839109  -0.00218805  1
  Fe  Fe1  1  0.75045070  0.75032382  -0.00163969  1
  Fe  Fe2  1  0.87551992  0.37273527  0.62524479  1
  Fe  Fe3  1  0.12469543  0.37313616  0.12678738  1
  Fe  Fe4  1  0.87100677  0.37566127  0.37624608  1
  Fe  Fe5  1  0.00411488  0.75266283  0.49689397  1
  Fe  Fe6  1  0.00066428  0.75096211  0.75447679  1
  Fe  Fe7  1  0.62253122  0.62619237  0.62378750  1
  Fe  Fe8  1  0.37463113  0.12471915  0.37867334  1
  Fe  Fe9  1  0.75011556  0.50173637  0.74689624  1
  Fe  Fe10  1  0.12325946  0.87458697  0.12519042  1
  Fe  Fe11  1  0.87455068  0.87756002  0.37751434  1
  Fe  Fe12  1  0.87543801  0.37350716  0.12519575  1
  Fe  Fe13  1  0.24819933  0.49991051  0.50100317  1
  Fe  Fe14  1  0.37541072  0.62113241  0.87571364  1
  Fe  Fe15  1  0.12621482  0.12901823  0.62635838  1
  Fe  Fe16  1  0.62504529  0.12570098  0.37438062  1
  Fe  Fe17  1  0.49962167  0.75237899  -0.00239559  1
  Fe  Fe18  1  0.62731049  0.62245146  0.37685339  1
  Fe  Fe19  1  0.37733113  0.87390454  0.12698795  1
  Fe  Fe20  1  -0.00038957  0.49989868  0.25130121  1
  Fe  Fe21  1  0.12878430  0.37270499  0.87144326  1
  Fe  Fe22  1  0.37286102  0.62108814  0.37591641  1
  Fe  Fe23  1  0.25233489  0.50171411  0.74808036  1
  Fe  Fe24  1  0.50055622  -0.00289577  0.50042310  1
  Fe  Fe25  1  0.49990468  0.25383196  0.49565990  1
  Fe  Fe26  1  0.12583506  0.62433309  0.87509131  1
  Fe  Fe27  1  0.75038382  0.24782104  0.74938081  1
  Fe  Fe28  1  0.37341103  0.87594062  0.37410982  1
  Fe  Fe29  1  0.87397510  0.37541163  0.87388298  1
  Fe  Fe30  1  0.62261343  0.37311395  0.62744981  1
  Fe  Fe31  1  0.87379309  0.12279887  0.87537358  1
  Fe  Fe32  1  0.24688341  0.74871707  0.25288432  1
  Fe  Fe33  1  0.50113068  0.49784094  0.00161366  1
  Fe  Fe34  1  0.87629505  0.12550499  0.62425325  1
  Fe  Fe35  1  0.87472131  0.87579383  0.62541905  1
  Fe  Fe36  1  0.37584428  0.62455011  0.12547288  1
  Fe  Fe37  1  0.74625638  -0.00063463  0.50456685  1
  Fe  Fe38  1  0.12695292  0.37105283  0.62789648  1
  Fe  Fe39  1  0.49613217  0.74770522  0.75047278  1
  Fe  Fe40  1  0.74730536  0.25035171  0.00066704  1
  Fe  Fe41  1  0.00179961  0.75053699  0.25410070  1
  Fe  Fe42  1  0.62235493  0.12422009  0.87448019  1
  Fe  Fe43  1  0.62302743  0.87396235  0.12744978  1
  Fe  Fe44  1  0.25480490  0.25082110  0.24987002  1
  Fe  Fe45  1  0.74870163  0.00144811  0.24920916  1
  Fe  Fe46  1  0.62450944  0.37645150  0.87141040  1
  Fe  Fe47  1  0.62232821  0.37343627  0.13043794  1
  Fe  Fe48  1  0.12384270  0.12730734  0.12486799  1
  Fe  Fe49  1  0.74891467  0.49973074  0.00196821  1
  Fe  Fe50  1  -0.00058538  0.75256489  -0.00516795  1
  Fe  Fe51  1  0.49477109  0.00196427  0.74923515  1
  Fe  Fe52  1  0.00201926  0.24962682  -0.00378330  1
  Fe  Fe53  1  0.87614575  0.87617476  0.12331441  1
  Fe  Fe54  1  0.87391799  0.12360322  0.37845169  1
  Fe  Fe55  1  0.62638179  0.87646164  0.87005398  1
  Fe  Fe56  1  0.12640912  0.12357196  0.37500761  1
  Fe  Fe57  1  0.49132063  0.24891390  0.75520863  1
  Fe  Fe58  1  0.12625516  0.62764257  0.62350850  1
  Fe  Fe59  1  0.61973836  0.12670326  0.12558952  1
  Fe  Fe60  1  0.00108455  0.25099390  0.49915831  1
  Fe  Fe61  1  0.87702238  0.62542449  0.62206163  1
  Fe  Fe62  1  0.38066141  0.12780243  0.11905652  1
  Fe  Fe63  1  0.87505313  0.62250705  0.37921314  1
  Fe  Fe64  1  0.62540049  0.87448687  0.37457071  1
  Fe  Fe65  1  0.25301920  0.00191922  0.24620840  1
  Fe  Fe66  1  -0.00050249  0.00057453  0.24988951  1
  Fe  Fe67  1  0.87593957  0.12562154  0.12301968  1
  Fe  Fe68  1  0.12890578  0.87228330  0.62709727  1
  Fe  Fe69  1  0.87650128  0.62536680  0.12318193  1
  Fe  Fe70  1  0.36969525  0.87910247  0.87404437  1
  Fe  Fe71  1  0.24932111  0.49754139  0.00326849  1
  Fe  Fe72  1  0.37582391  0.37516890  0.62298565  1
  Fe  Fe73  1  0.24980978  0.75094546  -0.00112470  1
  Fe  Fe74  1  0.75093312  0.74754985  0.25021493  1
  Fe  Fe75  1  0.24863109  0.00000167  0.50324690  1
  Fe  Fe76  1  0.49903132  0.74914974  0.49956765  1
  Fe  Fe77  1  0.13199973  0.12403504  0.87439760  1
  Fe  Fe78  1  0.62022668  0.12697646  0.62554642  1
  Fe  Fe79  1  0.75138150  0.74866272  0.74888327  1
  Fe  Fe80  1  0.62489800  0.62400186  0.87488932  1
  Fe  Fe81  1  0.37312610  0.87134486  0.62435405  1
  Fe  Fe82  1  0.12359359  0.62505094  0.12554367  1
  Fe  Fe83  1  0.00208681  -0.00032725  0.75165312  1
  Fe  Fe84  1  0.12778961  0.37562050  0.37379776  1
  Fe  Fe85  1  0.62785949  0.37639410  0.37178194  1
  Fe  Fe86  1  0.50091144  0.74669243  0.25147789  1
  Fe  Fe87  1  -0.00005938  0.50023336  0.74908665  1
  Fe  Fe88  1  0.74714359  -0.00045799  0.00002112  1
  Fe  Fe89  1  -0.00235485  0.24979470  0.25276125  1
  Co  Co90  1  0.00182167  0.49611032  0.50183672  1
  Co  Co91  1  0.37794328  0.12787004  0.61803376  1
  Co  Co92  1  0.25330690  0.00445948  0.74420366  1
  Co  Co93  1  0.50220972  0.49909032  0.49987721  1
  Co  Co94  1  0.62340241  0.62682071  0.12274555  1
  Co  Co95  1  0.75109376  0.50322023  0.24762847  1
  Co  Co96  1  0.24908320  -0.00143257  0.00658500  1
  Co  Co97  1  0.50096618  0.25468205  -0.00467286  1
  Co  Co98  1  0.74836099  0.49804934  0.50429768  1
  Co  Co99  1  0.62193033  0.87331695  0.62788593  1
  Co  Co100  1  0.37374535  0.62515881  0.62208040  1
  Co  Co101  1  0.12496843  0.62064966  0.37581269  1
  Co  Co102  1  0.74916441  0.75121496  0.50114896  1
  Co  Co103  1  0.25063844  0.25287850  0.00061196  1
  Co  Co104  1  0.49868143  0.00118490  0.25110677  1
  Co  Co105  1  0.87228425  0.87847891  0.87340217  1
  Co  Co106  1  0.00315267  -0.00005092  0.50306182  1
  Co  Co107  1  0.37247303  0.12099189  0.88278410  1
  Co  Co108  1  0.49614577  0.24997895  0.25439255  1
  Co  Co109  1  0.25194857  0.74637851  0.75318167  1
  Co  Co110  1  0.37798123  0.37383064  0.12546015  1
  Co  Co111  1  0.74859174  0.00282753  0.74605523  1
  Co  Co112  1  0.25870557  0.24716130  0.75055685  1
  Co  Co113  1  0.24894739  0.74981189  0.49534635  1
  Co  Co114  1  -0.00069390  0.24853656  0.75241344  1
  Co  Co115  1  0.87400063  0.62259539  0.87541117  1
  Co  Co116  1  0.00271055  0.00105357  -0.00266580  1
  Co  Co117  1  0.37279694  0.37923588  0.87548777  1
  Co  Co118  1  0.25040849  0.49941914  0.24705509  1
  Co  Co119  1  0.50174636  -0.00471826  -0.00136824  1
  Co  Co120  1  0.13029563  0.87780645  0.87364016  1
  Co  Co121  1  0.49954942  0.50155878  0.25030492  1
  Co  Co122  1  0.49857359  0.50117632  0.74813291  1
  Co  Co123  1  0.74860038  0.24953793  0.50185537  1
  Co  Co124  1  0.37277765  0.37881276  0.37609677  1
  Co  Co125  1  0.75098691  0.24733316  0.24908258  1
  Co  Co126  1  0.24898849  0.25101868  0.49933657  1
  Co  Co127  1  0.12756367  0.88103298  0.37338814  1
