# generated using pymatgen
data_Fe45Co19
_symmetry_space_group_name_H-M   'P 1'
_cell_length_a   11.41526725
_cell_length_b   11.41487506
_cell_length_c   11.41618930
_cell_angle_alpha   89.99700323
_cell_angle_beta   89.99643162
_cell_angle_gamma   90.00048185
_symmetry_Int_Tables_number   1
_chemical_formula_structural   Fe45Co19
_chemical_formula_sum   'Fe90 Co38'
_cell_volume   1487.57340649
_cell_formula_units_Z   2
loop_
 _symmetry_equiv_pos_site_id
 _symmetry_equiv_pos_as_xyz
  1  'x, y, z'
loop_
 _atom_site_type_symbol
 _atom_site_label
 _atom_site_symmetry_multiplicity
 _atom_site_fract_x
 _atom_site_fract_y
 _atom_site_fract_z
 _atom_site_occupancy
  Fe  Fe0  1  0.12348699  0.37156051  0.37475068  1
  Fe  Fe1  1  0.74707085  0.50359195  0.75246056  1
  Fe  Fe2  1  0.74952660  0.00013823  0.25119920  1
  Fe  Fe3  1  0.87590639  0.62616389  0.12356141  1
  Fe  Fe4  1  0.75245827  0.75125419  0.49929337  1
  Fe  Fe5  1  0.13067114  0.87210095  0.12436677  1
  Fe  Fe6  1  0.87843695  0.12552493  0.37563190  1
  Fe  Fe7  1  0.37381563  0.12514979  0.12744956  1
  Fe  Fe8  1  0.74827275  -0.00090129  -0.00101484  1
  Fe  Fe9  1  0.75238457  -0.00157080  0.50017195  1
  Fe  Fe10  1  0.87423645  0.37517262  0.12330697  1
  Fe  Fe11  1  -0.00267926  -0.00261318  0.50420221  1
  Fe  Fe12  1  0.50325481  0.50171836  0.75026528  1
  Fe  Fe13  1  0.49950026  0.25021264  0.74788333  1
  Fe  Fe14  1  0.62543442  0.87390855  0.37521661  1
  Fe  Fe15  1  0.12889410  0.62834818  0.12383661  1
  Fe  Fe16  1  0.50052622  0.50287338  0.00127893  1
  Fe  Fe17  1  0.37734125  0.12812754  0.37528242  1
  Fe  Fe18  1  0.37286118  0.37741664  0.62402456  1
  Fe  Fe19  1  0.49997484  -0.00025863  0.24991475  1
  Fe  Fe20  1  0.49995150  0.24977531  0.00109109  1
  Fe  Fe21  1  0.37571530  0.12236858  0.87453410  1
  Fe  Fe22  1  0.62486542  0.12320561  0.62348781  1
  Fe  Fe23  1  0.62405990  0.12524253  0.87581465  1
  Fe  Fe24  1  0.12248551  0.12753747  0.37402675  1
  Fe  Fe25  1  0.25191146  0.24952660  0.75028481  1
  Fe  Fe26  1  0.62192686  0.12849324  0.37620533  1
  Fe  Fe27  1  0.00168497  0.50021776  0.50207933  1
  Fe  Fe28  1  0.62228120  0.87375320  0.12435306  1
  Fe  Fe29  1  0.75015771  0.24977698  0.50116405  1
  Fe  Fe30  1  0.12428143  0.37433386  0.87387798  1
  Fe  Fe31  1  0.87528801  0.87583218  0.12592107  1
  Fe  Fe32  1  0.50085930  -0.00133715  0.74924905  1
  Fe  Fe33  1  0.37683323  0.37677778  0.87510340  1
  Fe  Fe34  1  0.12918613  0.87563995  0.62464731  1
  Fe  Fe35  1  0.49247942  0.74675112  0.00342107  1
  Fe  Fe36  1  0.87772569  0.62716181  0.37569656  1
  Fe  Fe37  1  0.00039765  0.50288799  -0.00183931  1
  Fe  Fe38  1  0.87431694  0.12195777  0.87263989  1
  Fe  Fe39  1  0.12619119  0.37555304  0.62677090  1
  Fe  Fe40  1  0.87470154  0.37655245  0.87434488  1
  Fe  Fe41  1  0.37167837  0.87802820  0.37661299  1
  Fe  Fe42  1  -0.00037412  0.24907752  0.74960384  1
  Fe  Fe43  1  0.00031403  0.75017791  0.74985542  1
  Fe  Fe44  1  0.49630092  0.75026444  0.24950171  1
  Fe  Fe45  1  0.62485601  0.87495346  0.62301794  1
  Fe  Fe46  1  0.62594762  0.37609850  0.62500825  1
  Fe  Fe47  1  0.87481807  0.62572893  0.62587940  1
  Fe  Fe48  1  0.74867583  0.50068955  0.49791482  1
  Fe  Fe49  1  0.12583510  0.12619019  0.12591004  1
  Fe  Fe50  1  0.37330290  0.62165106  0.62393797  1
  Fe  Fe51  1  0.25025010  0.24980381  0.49995043  1
  Fe  Fe52  1  0.00039368  -0.00171843  0.00009548  1
  Fe  Fe53  1  0.49652709  0.75152693  0.50036533  1
  Fe  Fe54  1  0.37349298  0.62235610  0.37521166  1
  Fe  Fe55  1  0.12524168  0.62716598  0.37657724  1
  Fe  Fe56  1  0.00066735  0.50026040  0.24856639  1
  Fe  Fe57  1  0.74737358  0.50324189  -0.00273515  1
  Fe  Fe58  1  0.87500382  0.37525380  0.62611233  1
  Fe  Fe59  1  0.12521087  0.12378179  0.62635321  1
  Fe  Fe60  1  0.62641855  0.12609531  0.12448998  1
  Fe  Fe61  1  0.12550423  0.37346219  0.12377831  1
  Fe  Fe62  1  0.62675057  0.37408792  0.12354896  1
  Fe  Fe63  1  0.12575030  0.87349703  0.37734471  1
  Fe  Fe64  1  -0.00260164  0.24797654  0.00055760  1
  Fe  Fe65  1  0.75221740  0.24932019  0.24919533  1
  Fe  Fe66  1  0.61963777  0.87300573  0.87781633  1
  Fe  Fe67  1  0.00134700  -0.00084108  0.24865099  1
  Fe  Fe68  1  0.62389768  0.62627289  0.37476840  1
  Fe  Fe69  1  0.00122756  0.75033731  0.24897569  1
  Fe  Fe70  1  0.50028312  0.49588299  0.24986151  1
  Fe  Fe71  1  0.75050352  0.74885471  0.00020520  1
  Fe  Fe72  1  0.49760351  0.75035920  0.74652319  1
  Fe  Fe73  1  0.75033753  0.74962777  0.24946522  1
  Fe  Fe74  1  0.12792183  0.87490399  0.87507395  1
  Fe  Fe75  1  0.25039967  0.49632480  0.25155819  1
  Fe  Fe76  1  0.87716875  0.37378126  0.37548026  1
  Fe  Fe77  1  0.74895764  0.50129257  0.25124169  1
  Fe  Fe78  1  0.25138692  0.25058676  -0.00066750  1
  Fe  Fe79  1  0.37509892  0.12029528  0.62254358  1
  Fe  Fe80  1  0.74632706  0.74846622  0.75096025  1
  Fe  Fe81  1  0.87537895  0.87524923  0.87213923  1
  Fe  Fe82  1  0.12770608  0.62460559  0.62579716  1
  Fe  Fe83  1  0.12590561  0.12355571  0.87414740  1
  Fe  Fe84  1  0.25102418  0.50184260  -0.00247972  1
  Fe  Fe85  1  0.50161993  0.49699401  0.49776918  1
  Fe  Fe86  1  0.25551475  0.75198534  0.75061815  1
  Fe  Fe87  1  0.25289669  -0.00127507  -0.00019303  1
  Fe  Fe88  1  0.12593383  0.62659772  0.87404551  1
  Fe  Fe89  1  0.74806824  0.24965088  0.75129297  1
  Co  Co90  1  0.62581156  0.37155077  0.37457575  1
  Co  Co91  1  -0.00170734  0.25062803  0.24590302  1
  Co  Co92  1  0.25100396  0.25145136  0.24969355  1
  Co  Co93  1  0.62389166  0.62616487  0.12673512  1
  Co  Co94  1  0.75145575  0.24875204  -0.00199203  1
  Co  Co95  1  0.37358600  0.37615176  0.12201885  1
  Co  Co96  1  0.50163062  -0.00185848  0.49796923  1
  Co  Co97  1  0.37802084  0.87787916  0.87563222  1
  Co  Co98  1  0.37123048  0.62229323  0.12922891  1
  Co  Co99  1  0.00010191  0.75129594  -0.00055801  1
  Co  Co100  1  0.25099510  -0.00013112  0.75154231  1
  Co  Co101  1  0.25209766  0.75045208  0.25325770  1
  Co  Co102  1  0.49928329  0.00235949  0.00311848  1
  Co  Co103  1  0.37520328  0.37149935  0.37674165  1
  Co  Co104  1  0.25596886  0.74876578  -0.00315132  1
  Co  Co105  1  0.00034057  0.25066174  0.50375526  1
  Co  Co106  1  0.24898152  0.49872144  0.75248955  1
  Co  Co107  1  0.62132875  0.62865647  0.87684788  1
  Co  Co108  1  0.00033189  0.50081939  0.74976850  1
  Co  Co109  1  0.24932954  0.00147742  0.25235071  1
  Co  Co110  1  0.62285432  0.37422562  0.87548545  1
  Co  Co111  1  0.62420654  0.62574231  0.62111699  1
  Co  Co112  1  0.87264805  0.87412432  0.62978421  1
  Co  Co113  1  0.24783820  0.49879175  0.49770103  1
  Co  Co114  1  -0.00017100  0.75142905  0.50290016  1
  Co  Co115  1  0.74491730  -0.00154078  0.75123722  1
  Co  Co116  1  0.49947511  0.25264176  0.24659877  1
  Co  Co117  1  0.87665131  0.87445408  0.37301353  1
  Co  Co118  1  0.87454319  0.12187233  0.12469100  1
  Co  Co119  1  0.37616474  0.62244505  0.87136290  1
  Co  Co120  1  0.24791523  0.00263476  0.49708790  1
  Co  Co121  1  0.50011434  0.25248297  0.50404606  1
  Co  Co122  1  0.25251328  0.74880214  0.50070465  1
  Co  Co123  1  0.37246249  0.87656991  0.12650544  1
  Co  Co124  1  0.00221192  -0.00059123  0.74868369  1
  Co  Co125  1  0.37304052  0.88010146  0.62297011  1
  Co  Co126  1  0.87361291  0.12455091  0.62756767  1
  Co  Co127  1  0.87573889  0.62641873  0.87441186  1
