# generated using pymatgen
data_Fe45Co19
_symmetry_space_group_name_H-M   'P 1'
_cell_length_a   11.41441818
_cell_length_b   11.41391765
_cell_length_c   11.41520497
_cell_angle_alpha   89.99918300
_cell_angle_beta   89.99584787
_cell_angle_gamma   89.98828133
_symmetry_Int_Tables_number   1
_chemical_formula_structural   Fe45Co19
_chemical_formula_sum   'Fe90 Co38'
_cell_volume   1487.20972969
_cell_formula_units_Z   2
loop_
 _symmetry_equiv_pos_site_id
 _symmetry_equiv_pos_as_xyz
  1  'x, y, z'
loop_
 _atom_site_type_symbol
 _atom_site_label
 _atom_site_symmetry_multiplicity
 _atom_site_fract_x
 _atom_site_fract_y
 _atom_site_fract_z
 _atom_site_occupancy
  Fe  Fe0  1  0.87574300  0.62024532  0.62234438  1
  Fe  Fe1  1  0.62706165  0.62603213  0.87433768  1
  Fe  Fe2  1  0.24972779  0.00380052  -0.00084726  1
  Fe  Fe3  1  0.74912393  0.49859406  0.25286403  1
  Fe  Fe4  1  0.74873342  -0.00129277  0.75136555  1
  Fe  Fe5  1  0.87697097  0.37830582  0.38011394  1
  Fe  Fe6  1  0.49750397  0.25071797  0.25162301  1
  Fe  Fe7  1  -0.00010454  0.75161808  0.25010429  1
  Fe  Fe8  1  -0.00190511  0.75059772  0.74974104  1
  Fe  Fe9  1  0.00153013  -0.00097485  0.75236062  1
  Fe  Fe10  1  0.37221153  0.62266766  0.87670498  1
  Fe  Fe11  1  0.87715829  0.62247368  0.12679192  1
  Fe  Fe12  1  0.75621264  0.25494055  0.74705774  1
  Fe  Fe13  1  0.50168446  0.00102325  0.50105865  1
  Fe  Fe14  1  0.87670931  0.12544890  0.87527658  1
  Fe  Fe15  1  0.12764513  0.12795316  0.37657833  1
  Fe  Fe16  1  0.37291445  0.61890521  0.12600289  1
  Fe  Fe17  1  0.24683626  0.49916026  0.49732688  1
  Fe  Fe18  1  0.37298776  0.37575227  0.87445350  1
  Fe  Fe19  1  0.62665127  0.87164493  0.87429854  1
  Fe  Fe20  1  0.74885787  0.00078742  0.50021279  1
  Fe  Fe21  1  0.50095207  0.49949498  0.75112149  1
  Fe  Fe22  1  0.24982607  0.00225787  0.50137044  1
  Fe  Fe23  1  0.62744988  0.37641023  0.62203349  1
  Fe  Fe24  1  0.25200016  0.74836123  0.50193134  1
  Fe  Fe25  1  0.24931486  0.24895233  0.74892982  1
  Fe  Fe26  1  0.75084983  0.24928677  0.00216160  1
  Fe  Fe27  1  0.00284029  0.25059245  -0.00291581  1
  Fe  Fe28  1  0.75299521  0.75079035  0.00176439  1
  Fe  Fe29  1  0.49748314  0.74846291  0.00106134  1
  Fe  Fe30  1  0.62490357  0.62835009  0.37368915  1
  Fe  Fe31  1  0.62390692  0.87405721  0.37496088  1
  Fe  Fe32  1  0.49841814  0.00236727  0.25050888  1
  Fe  Fe33  1  0.49739312  0.25002048  0.49911976  1
  Fe  Fe34  1  0.50075513  -0.00031072  0.74977083  1
  Fe  Fe35  1  0.87766582  0.37501646  0.12383586  1
  Fe  Fe36  1  0.25108575  0.75005768  0.74843748  1
  Fe  Fe37  1  0.62413787  0.87579990  0.12479710  1
  Fe  Fe38  1  0.37544762  0.12457886  0.62618037  1
  Fe  Fe39  1  0.24920109  0.25126997  -0.00114708  1
  Fe  Fe40  1  0.75227635  0.74928934  0.50108056  1
  Fe  Fe41  1  0.37302236  0.87626093  0.87428216  1
  Fe  Fe42  1  0.37573243  0.87502629  0.62401957  1
  Fe  Fe43  1  0.12515018  0.87749080  0.12489750  1
  Fe  Fe44  1  0.12007570  0.37066309  0.62117605  1
  Fe  Fe45  1  0.62703987  0.37462713  0.87510825  1
  Fe  Fe46  1  -0.00151816  0.49592746  0.75008544  1
  Fe  Fe47  1  0.37480086  0.87489552  0.37610566  1
  Fe  Fe48  1  -0.00303862  0.24825731  0.25343420  1
  Fe  Fe49  1  0.37441330  0.37682103  0.62292070  1
  Fe  Fe50  1  0.74858243  0.49936038  0.00055750  1
  Fe  Fe51  1  0.87483759  0.87696024  0.62554716  1
  Fe  Fe52  1  0.25042630  0.75008293  0.24843458  1
  Fe  Fe53  1  0.00472760  0.49819535  0.25291975  1
  Fe  Fe54  1  0.37402556  0.38000669  0.12837440  1
  Fe  Fe55  1  0.62660924  0.12610171  0.62641619  1
  Fe  Fe56  1  0.75222629  0.75065074  0.24883455  1
  Fe  Fe57  1  0.12377556  0.12537758  0.12620869  1
  Fe  Fe58  1  0.50055001  0.49993603  0.49521592  1
  Fe  Fe59  1  0.12703044  0.87499489  0.87536149  1
  Fe  Fe60  1  0.49773806  0.25098660  0.00047659  1
  Fe  Fe61  1  0.12552844  0.87393634  0.37634172  1
  Fe  Fe62  1  0.24838880  0.49922050  0.74779882  1
  Fe  Fe63  1  0.12352278  0.62659004  0.62513143  1
  Fe  Fe64  1  0.12378528  0.87414374  0.62378043  1
  Fe  Fe65  1  0.12637504  0.62477808  0.87541337  1
  Fe  Fe66  1  0.75087224  0.00084528  0.00090638  1
  Fe  Fe67  1  0.87538000  0.87726104  0.37324266  1
  Fe  Fe68  1  0.75292160  0.24994705  0.24965316  1
  Fe  Fe69  1  0.12195465  0.12735954  0.62683831  1
  Fe  Fe70  1  0.12393209  0.62925847  0.37582379  1
  Fe  Fe71  1  0.75512544  0.24771239  0.50144059  1
  Fe  Fe72  1  0.37318502  0.87765832  0.12518336  1
  Fe  Fe73  1  0.62466231  0.12805247  0.87353203  1
  Fe  Fe74  1  0.00448166  0.49650303  -0.00011822  1
  Fe  Fe75  1  0.62479587  0.62484976  0.62541901  1
  Fe  Fe76  1  0.87746343  0.88050481  0.12695110  1
  Fe  Fe77  1  0.25253234  0.24977628  0.25186249  1
  Fe  Fe78  1  0.62322821  0.37621526  0.12669440  1
  Fe  Fe79  1  0.49863000  0.74939311  0.74757020  1
  Fe  Fe80  1  0.62401334  0.62352233  0.12541107  1
  Fe  Fe81  1  -0.00054869  0.00263995  0.49776677  1
  Fe  Fe82  1  0.12591047  0.62529396  0.12334194  1
  Fe  Fe83  1  0.62445666  0.12597909  0.12651930  1
  Fe  Fe84  1  0.87454155  0.62318183  0.87518721  1
  Fe  Fe85  1  0.49900341  0.00308627  -0.00126529  1
  Fe  Fe86  1  0.62604682  0.12702043  0.37411840  1
  Fe  Fe87  1  -0.00082503  0.75200357  -0.00046565  1
  Fe  Fe88  1  0.49734027  0.74872611  0.24874738  1
  Fe  Fe89  1  0.49976948  0.25181293  0.74891749  1
  Co  Co90  1  0.25085626  0.75029616  0.00090360  1
  Co  Co91  1  0.74731777  0.00064956  0.24775520  1
  Co  Co92  1  0.00398813  0.00234894  0.25368577  1
  Co  Co93  1  0.49946885  0.74873138  0.50110977  1
  Co  Co94  1  0.37371506  0.12536380  0.12494307  1
  Co  Co95  1  0.37496656  0.12396659  0.37676875  1
  Co  Co96  1  0.87409439  0.87506936  0.87393458  1
  Co  Co97  1  0.24921579  0.00098733  0.25180260  1
  Co  Co98  1  0.87691951  0.62350697  0.37341092  1
  Co  Co99  1  0.50322749  0.49943880  0.25460584  1
  Co  Co100  1  0.37318729  0.62413540  0.37401727  1
  Co  Co101  1  0.87724573  0.38048611  0.61758854  1
  Co  Co102  1  -0.00384458  0.75036637  0.50063681  1
  Co  Co103  1  0.74637466  0.50267965  0.49663694  1
  Co  Co104  1  0.75092967  0.49736213  0.74961611  1
  Co  Co105  1  0.12498228  0.37122012  0.12845581  1
  Co  Co106  1  -0.00665950  0.24368116  0.49983682  1
  Co  Co107  1  0.87830359  0.12401834  0.12421200  1
  Co  Co108  1  0.87577376  0.12043984  0.62945965  1
  Co  Co109  1  0.75288902  0.74798916  0.74688999  1
  Co  Co110  1  0.37549826  0.62201467  0.62343681  1
  Co  Co111  1  0.12474100  0.12537867  0.87189407  1
  Co  Co112  1  0.62608712  0.87400529  0.62515680  1
  Co  Co113  1  0.87129708  0.12088930  0.37183407  1
  Co  Co114  1  0.24966772  0.00021199  0.74752305  1
  Co  Co115  1  0.24271283  0.49996815  0.25377000  1
  Co  Co116  1  -0.00500024  0.25373190  0.74987637  1
  Co  Co117  1  0.25298260  0.24933606  0.50257811  1
  Co  Co118  1  0.62670438  0.36969154  0.37664837  1
  Co  Co119  1  0.24625066  0.49579198  0.00088569  1
  Co  Co120  1  0.37244275  0.37684605  0.37438192  1
  Co  Co121  1  0.00638453  0.50244323  0.49731203  1
  Co  Co122  1  0.12349832  0.36762242  0.37886665  1
  Co  Co123  1  0.50114045  0.49900002  -0.00193862  1
  Co  Co124  1  0.12611895  0.37453524  0.87070638  1
  Co  Co125  1  0.37480830  0.12676345  0.87263536  1
  Co  Co126  1  0.00145563  -0.00049248  -0.00183063  1
  Co  Co127  1  0.87442041  0.37612376  0.87941159  1
