# generated using pymatgen
data_Fe45Co19
_symmetry_space_group_name_H-M   'P 1'
_cell_length_a   11.41592874
_cell_length_b   11.41466299
_cell_length_c   11.41581452
_cell_angle_alpha   89.99463694
_cell_angle_beta   90.00400901
_cell_angle_gamma   89.99666042
_symmetry_Int_Tables_number   1
_chemical_formula_structural   Fe45Co19
_chemical_formula_sum   'Fe90 Co38'
_cell_volume   1487.58312503
_cell_formula_units_Z   2
loop_
 _symmetry_equiv_pos_site_id
 _symmetry_equiv_pos_as_xyz
  1  'x, y, z'
loop_
 _atom_site_type_symbol
 _atom_site_label
 _atom_site_symmetry_multiplicity
 _atom_site_fract_x
 _atom_site_fract_y
 _atom_site_fract_z
 _atom_site_occupancy
  Fe  Fe0  1  0.12266702  0.12416034  0.87450317  1
  Fe  Fe1  1  0.75171936  0.50210630  0.50036965  1
  Fe  Fe2  1  0.74808614  0.24709765  0.49990051  1
  Fe  Fe3  1  0.50114816  0.25168543  0.24997421  1
  Fe  Fe4  1  0.87934241  0.12535211  0.37441152  1
  Fe  Fe5  1  0.37027075  0.36910517  0.62503649  1
  Fe  Fe6  1  0.24956969  0.24893332  -0.00094288  1
  Fe  Fe7  1  0.37270748  0.87599199  0.12352191  1
  Fe  Fe8  1  0.87727742  0.62546619  0.12606416  1
  Fe  Fe9  1  0.50026207  0.75371581  0.75004203  1
  Fe  Fe10  1  0.74979756  0.24889317  0.25076351  1
  Fe  Fe11  1  0.24819858  0.74871131  0.74855337  1
  Fe  Fe12  1  0.50038357  0.75348215  -0.00205151  1
  Fe  Fe13  1  0.50196599  0.75359934  0.50109472  1
  Fe  Fe14  1  0.25251608  0.00297368  -0.00123867  1
  Fe  Fe15  1  0.12766324  0.87730841  0.62426242  1
  Fe  Fe16  1  0.87717315  0.62732791  0.62725711  1
  Fe  Fe17  1  0.62277467  0.62304229  0.87551364  1
  Fe  Fe18  1  0.75082212  0.00202583  0.50263981  1
  Fe  Fe19  1  -0.00115564  -0.00043344  0.00093500  1
  Fe  Fe20  1  0.00211520  0.25305279  0.74918771  1
  Fe  Fe21  1  0.00067081  0.25122445  0.00073357  1
  Fe  Fe22  1  0.87461886  0.87351371  0.87320151  1
  Fe  Fe23  1  0.62240435  0.62425417  0.37549580  1
  Fe  Fe24  1  0.25188511  0.00380541  0.74941876  1
  Fe  Fe25  1  0.62587300  0.87766932  0.37734308  1
  Fe  Fe26  1  0.86950997  0.87010089  0.62804278  1
  Fe  Fe27  1  0.50018831  0.25115270  -0.00073025  1
  Fe  Fe28  1  0.00081200  0.74996694  0.50144230  1
  Fe  Fe29  1  0.87575334  0.62455557  0.37427766  1
  Fe  Fe30  1  0.24827356  0.74902737  0.24837007  1
  Fe  Fe31  1  0.62506625  0.37576223  0.62385362  1
  Fe  Fe32  1  0.37805535  0.12699312  0.87031747  1
  Fe  Fe33  1  0.62140851  0.12199743  0.37370877  1
  Fe  Fe34  1  0.37513372  0.62680019  0.62444215  1
  Fe  Fe35  1  0.25216979  0.50242617  0.24959019  1
  Fe  Fe36  1  0.37297052  0.37538128  0.87415816  1
  Fe  Fe37  1  0.37701179  0.62676282  0.37501714  1
  Fe  Fe38  1  0.87654587  0.12751514  0.87310152  1
  Fe  Fe39  1  0.49764622  0.49795594  0.74910743  1
  Fe  Fe40  1  0.49617337  0.49791112  0.49992833  1
  Fe  Fe41  1  0.00438618  0.25498931  0.49601295  1
  Fe  Fe42  1  0.00286445  0.75286041  0.25104881  1
  Fe  Fe43  1  0.62526906  0.37584050  0.37581221  1
  Fe  Fe44  1  0.62725819  0.87883177  0.87213621  1
  Fe  Fe45  1  0.00107145  0.49802407  -0.00015421  1
  Fe  Fe46  1  0.74970172  0.74792421  -0.00129204  1
  Fe  Fe47  1  0.37603264  0.12414463  0.12728122  1
  Fe  Fe48  1  0.50041307  0.75243971  0.24956875  1
  Fe  Fe49  1  0.12783084  0.87780180  0.12366913  1
  Fe  Fe50  1  0.24439150  0.24413018  0.25360897  1
  Fe  Fe51  1  0.37395596  0.87626633  0.62417756  1
  Fe  Fe52  1  0.12509768  0.62219197  0.37749237  1
  Fe  Fe53  1  0.75151080  0.00218977  -0.00015800  1
  Fe  Fe54  1  0.37341967  0.62513103  0.87787837  1
  Fe  Fe55  1  0.87398415  0.87619880  0.37431705  1
  Fe  Fe56  1  0.12718235  0.87911499  0.37712357  1
  Fe  Fe57  1  -0.00013297  0.49497918  0.25386558  1
  Fe  Fe58  1  0.74999554  0.24902755  0.00056535  1
  Fe  Fe59  1  0.74973742  0.24886368  0.74913701  1
  Fe  Fe60  1  0.00356322  0.75017144  0.00022590  1
  Fe  Fe61  1  0.87402557  0.87451122  0.12547896  1
  Fe  Fe62  1  0.62716332  0.37505636  0.87590203  1
  Fe  Fe63  1  0.87407462  0.37297392  0.62318350  1
  Fe  Fe64  1  0.74635724  0.50009264  0.24822662  1
  Fe  Fe65  1  0.37846944  0.62377017  0.12205241  1
  Fe  Fe66  1  0.61991117  0.12200463  0.62835680  1
  Fe  Fe67  1  0.87384278  0.37355364  0.12581602  1
  Fe  Fe68  1  0.37167960  0.37207047  0.37557734  1
  Fe  Fe69  1  0.49814569  0.24818000  0.50003092  1
  Fe  Fe70  1  0.62282961  0.12317042  0.87267811  1
  Fe  Fe71  1  -0.00286996  -0.00161650  0.50397989  1
  Fe  Fe72  1  0.37476655  0.37529721  0.12545653  1
  Fe  Fe73  1  0.87865440  0.12542926  0.12834966  1
  Fe  Fe74  1  0.75232426  0.49965055  0.74985814  1
  Fe  Fe75  1  0.87843219  0.62461180  0.87331520  1
  Fe  Fe76  1  0.62642036  0.87672645  0.12394950  1
  Fe  Fe77  1  0.12571062  0.62334194  0.87290232  1
  Fe  Fe78  1  0.37375279  0.87772065  0.37487012  1
  Fe  Fe79  1  0.62282093  0.12309692  0.12533371  1
  Fe  Fe80  1  0.62466272  0.62639586  0.62478513  1
  Fe  Fe81  1  0.24887674  0.74795786  0.50040074  1
  Fe  Fe82  1  0.74881263  0.50053353  0.00205881  1
  Fe  Fe83  1  0.74854805  0.74933789  0.25035993  1
  Fe  Fe84  1  0.12751408  0.87603602  0.87489882  1
  Fe  Fe85  1  0.12649999  0.37454998  0.12661446  1
  Fe  Fe86  1  0.25444480  0.00947887  0.50012727  1
  Fe  Fe87  1  0.12688662  0.37679955  0.87391285  1
  Fe  Fe88  1  0.13040847  0.37838971  0.62154694  1
  Fe  Fe89  1  -0.00246903  -0.00085276  0.74742129  1
  Co  Co90  1  0.00126839  -0.00294064  0.24730938  1
  Co  Co91  1  0.74779001  0.74680738  0.75392155  1
  Co  Co92  1  0.75414669  0.00422650  0.74748207  1
  Co  Co93  1  0.00278535  0.25325691  0.25353572  1
  Co  Co94  1  0.37911994  0.12452165  0.37089339  1
  Co  Co95  1  -0.00286615  0.49842013  0.49944420  1
  Co  Co96  1  0.12204603  0.12487304  0.62471868  1
  Co  Co97  1  0.87353425  0.37397186  0.87571784  1
  Co  Co98  1  0.36999586  0.87222029  0.87596928  1
  Co  Co99  1  0.75076288  0.00144677  0.25069259  1
  Co  Co100  1  0.50060636  0.49613081  -0.00070953  1
  Co  Co101  1  0.13206671  0.37938380  0.37731566  1
  Co  Co102  1  -0.00022457  0.49695190  0.74846065  1
  Co  Co103  1  0.50282459  0.25496575  0.75100154  1
  Co  Co104  1  0.24618974  0.74676985  0.00303014  1
  Co  Co105  1  0.37841730  0.12956161  0.63058578  1
  Co  Co106  1  0.25563419  0.50287162  0.50048578  1
  Co  Co107  1  0.49792105  0.00060095  0.50205287  1
  Co  Co108  1  0.00461510  0.75183436  0.74891737  1
  Co  Co109  1  0.49774905  -0.00005408  -0.00117735  1
  Co  Co110  1  0.62914394  0.87520067  0.62583959  1
  Co  Co111  1  0.12400087  0.62176555  0.62278387  1
  Co  Co112  1  0.86950377  0.37340425  0.37576685  1
  Co  Co113  1  0.24883563  0.00230625  0.25047984  1
  Co  Co114  1  0.49940996  0.49822474  0.25150449  1
  Co  Co115  1  0.24542739  0.24831369  0.75109171  1
  Co  Co116  1  0.24843424  0.24157039  0.49725214  1
  Co  Co117  1  0.12162749  0.62167094  0.12794938  1
  Co  Co118  1  0.12337512  0.12460210  0.12294706  1
  Co  Co119  1  0.11803529  0.11910354  0.37617448  1
  Co  Co120  1  0.49998272  -0.00340521  0.24875811  1
  Co  Co121  1  0.62094194  0.62646139  0.12413080  1
  Co  Co122  1  0.24824294  0.49948832  0.00116675  1
  Co  Co123  1  0.49680057  -0.00587075  0.74981485  1
  Co  Co124  1  0.87882150  0.13078874  0.62327360  1
  Co  Co125  1  0.62454730  0.37343351  0.12493494  1
  Co  Co126  1  0.75038851  0.74779631  0.49753728  1
  Co  Co127  1  0.25239319  0.50156177  0.74856793  1
