# generated using pymatgen
data_Fe45Co19
_symmetry_space_group_name_H-M   'P 1'
_cell_length_a   11.41601039
_cell_length_b   11.41540413
_cell_length_c   11.41652647
_cell_angle_alpha   90.00475242
_cell_angle_beta   89.99673297
_cell_angle_gamma   90.00409147
_symmetry_Int_Tables_number   1
_chemical_formula_structural   Fe45Co19
_chemical_formula_sum   'Fe90 Co38'
_cell_volume   1487.78313509
_cell_formula_units_Z   2
loop_
 _symmetry_equiv_pos_site_id
 _symmetry_equiv_pos_as_xyz
  1  'x, y, z'
loop_
 _atom_site_type_symbol
 _atom_site_label
 _atom_site_symmetry_multiplicity
 _atom_site_fract_x
 _atom_site_fract_y
 _atom_site_fract_z
 _atom_site_occupancy
  Fe  Fe0  1  0.50154169  0.50305632  0.75045715  1
  Fe  Fe1  1  0.37266191  0.37483419  0.37383317  1
  Fe  Fe2  1  0.62274326  0.87288865  0.37549373  1
  Fe  Fe3  1  0.25114463  0.75283146  0.50188540  1
  Fe  Fe4  1  0.87450655  0.62462633  0.62872593  1
  Fe  Fe5  1  0.62240794  0.12631295  0.62266094  1
  Fe  Fe6  1  0.12665256  0.12805836  0.87766482  1
  Fe  Fe7  1  0.87595953  0.87560062  0.62833588  1
  Fe  Fe8  1  0.62510711  0.62476030  0.12244550  1
  Fe  Fe9  1  0.75111427  0.75139796  0.50143496  1
  Fe  Fe10  1  0.37420674  0.37494666  0.62823739  1
  Fe  Fe11  1  0.37633995  0.12849984  0.87520099  1
  Fe  Fe12  1  0.62258731  0.37433492  0.87672362  1
  Fe  Fe13  1  0.12434929  0.37145647  0.87199184  1
  Fe  Fe14  1  0.62497425  0.37493790  0.62361178  1
  Fe  Fe15  1  0.12566245  0.87861298  0.62647768  1
  Fe  Fe16  1  -0.00043432  0.00175907  0.00066797  1
  Fe  Fe17  1  0.00080229  0.00341973  0.75215746  1
  Fe  Fe18  1  0.75393668  0.74882867  -0.00104942  1
  Fe  Fe19  1  0.62472649  0.12740549  0.87823883  1
  Fe  Fe20  1  0.12563756  0.37388683  0.62900270  1
  Fe  Fe21  1  0.37506600  0.37153058  0.87241987  1
  Fe  Fe22  1  0.37293976  0.37645394  0.12562771  1
  Fe  Fe23  1  0.36984747  0.62153875  0.12431532  1
  Fe  Fe24  1  0.12664051  0.37745188  0.12232392  1
  Fe  Fe25  1  0.62447331  0.62531925  0.37745222  1
  Fe  Fe26  1  0.12535123  0.87395673  0.87664443  1
  Fe  Fe27  1  0.74691125  0.50395107  0.75232691  1
  Fe  Fe28  1  0.87473818  0.87595193  0.12437255  1
  Fe  Fe29  1  0.49477861  0.75059892  0.00221681  1
  Fe  Fe30  1  0.00017146  0.50305512  -0.00122559  1
  Fe  Fe31  1  0.12777401  0.62752764  0.87819014  1
  Fe  Fe32  1  0.00046567  0.75011338  0.50096204  1
  Fe  Fe33  1  0.00273096  0.74813916  0.24707468  1
  Fe  Fe34  1  0.87644485  0.37642888  0.12521054  1
  Fe  Fe35  1  0.87794839  0.37357422  0.37415027  1
  Fe  Fe36  1  0.25057230  0.24711713  0.50153622  1
  Fe  Fe37  1  0.62406141  0.37293216  0.37676940  1
  Fe  Fe38  1  0.87262021  0.12681950  0.87857920  1
  Fe  Fe39  1  0.75055968  -0.00054119  0.25123190  1
  Fe  Fe40  1  0.49964388  0.50042001  0.25097825  1
  Fe  Fe41  1  0.37018314  0.62268097  0.37550028  1
  Fe  Fe42  1  0.00169519  0.50079542  0.50076975  1
  Fe  Fe43  1  0.00492686  0.50423046  0.24996596  1
  Fe  Fe44  1  0.12593409  0.37433581  0.37673983  1
  Fe  Fe45  1  0.62839365  0.12462562  0.12061750  1
  Fe  Fe46  1  0.37267519  0.62639033  0.87392759  1
  Fe  Fe47  1  -0.00028609  0.00152529  0.24797181  1
  Fe  Fe48  1  0.00257104  0.74876133  0.75000532  1
  Fe  Fe49  1  0.87697578  0.62656032  0.37392339  1
  Fe  Fe50  1  0.25191755  0.00090537  0.49946350  1
  Fe  Fe51  1  0.75197066  0.50092795  -0.00102047  1
  Fe  Fe52  1  0.00001431  -0.00020879  0.49896598  1
  Fe  Fe53  1  0.74965047  0.50013301  0.25106349  1
  Fe  Fe54  1  0.49753342  0.74776579  0.24929766  1
  Fe  Fe55  1  0.75070752  0.75006207  0.24974006  1
  Fe  Fe56  1  0.37192045  0.12298153  0.12299010  1
  Fe  Fe57  1  0.74933504  0.25021016  0.75035725  1
  Fe  Fe58  1  0.50136030  0.00173052  0.25041508  1
  Fe  Fe59  1  0.75106224  0.24992075  0.24895234  1
  Fe  Fe60  1  0.87633557  0.12553062  0.37518553  1
  Fe  Fe61  1  0.25027493  0.00155612  0.75068328  1
  Fe  Fe62  1  0.49737752  0.49972924  -0.00079665  1
  Fe  Fe63  1  0.87429763  0.12369992  0.62540487  1
  Fe  Fe64  1  0.12772562  0.87582259  0.12093146  1
  Fe  Fe65  1  0.37357828  0.62623197  0.62685164  1
  Fe  Fe66  1  0.61905352  0.87257730  0.62550707  1
  Fe  Fe67  1  0.74630419  -0.00126983  0.75134537  1
  Fe  Fe68  1  0.12769052  0.62390728  0.62506974  1
  Fe  Fe69  1  0.12367813  0.87481990  0.37546075  1
  Fe  Fe70  1  0.24871153  0.74925494  0.24790177  1
  Fe  Fe71  1  0.00230944  0.24621399  0.24481460  1
  Fe  Fe72  1  0.00048327  0.24855600  0.50322643  1
  Fe  Fe73  1  0.87853208  0.37488226  0.87304167  1
  Fe  Fe74  1  0.87595702  0.87314933  0.87299573  1
  Fe  Fe75  1  0.49937342  0.24892293  0.24808248  1
  Fe  Fe76  1  0.87600031  0.37606172  0.62867748  1
  Fe  Fe77  1  0.49771899  0.50007961  0.49994902  1
  Fe  Fe78  1  0.24786767  0.24876051  0.24893837  1
  Fe  Fe79  1  0.62316720  0.87077818  0.87515339  1
  Fe  Fe80  1  0.74937742  -0.00236064  0.49935529  1
  Fe  Fe81  1  0.62418734  0.37581995  0.12384499  1
  Fe  Fe82  1  0.37509209  0.87294580  0.86953170  1
  Fe  Fe83  1  0.49786371  -0.00182901  -0.00108610  1
  Fe  Fe84  1  0.24827218  0.00106311  0.25195051  1
  Fe  Fe85  1  0.75188728  0.49925088  0.49901043  1
  Fe  Fe86  1  0.62355342  0.12808123  0.37834066  1
  Fe  Fe87  1  0.62355414  0.87410208  0.12392110  1
  Fe  Fe88  1  0.37611877  0.87619145  0.37382643  1
  Fe  Fe89  1  0.37897725  0.12326028  0.62621309  1
  Co  Co90  1  0.25395455  0.75370921  0.00092784  1
  Co  Co91  1  0.62349193  0.62721980  0.87948957  1
  Co  Co92  1  0.49574056  0.74932171  0.49858850  1
  Co  Co93  1  0.24726722  0.75114688  0.74877736  1
  Co  Co94  1  0.49864827  0.25036757  0.00290880  1
  Co  Co95  1  -0.00178573  0.74877356  0.00111272  1
  Co  Co96  1  0.75126605  0.25535746  0.00008137  1
  Co  Co97  1  0.24923655  0.49851161  0.50243206  1
  Co  Co98  1  0.37688401  0.87668624  0.62802867  1
  Co  Co99  1  0.37420800  0.87873588  0.12868636  1
  Co  Co100  1  0.50269617  0.25030630  0.74915557  1
  Co  Co101  1  0.25042236  0.49627357  -0.00497090  1
  Co  Co102  1  0.49679618  0.25219595  0.50056803  1
  Co  Co103  1  0.37527228  0.12570050  0.37378040  1
  Co  Co104  1  0.24582280  0.50011294  0.25059966  1
  Co  Co105  1  0.12988419  0.12161265  0.12153472  1
  Co  Co106  1  0.74780292  0.74955420  0.74967741  1
  Co  Co107  1  0.12459300  0.12249209  0.62464792  1
  Co  Co108  1  0.50095141  0.74626016  0.74945526  1
  Co  Co109  1  0.49903483  -0.00137417  0.49787288  1
  Co  Co110  1  0.50211261  0.00059210  0.75310760  1
  Co  Co111  1  0.12354088  0.12525928  0.37548345  1
  Co  Co112  1  0.87105778  0.12398811  0.12188366  1
  Co  Co113  1  0.00418201  0.50347296  0.75040765  1
  Co  Co114  1  0.62444023  0.62527972  0.62191339  1
  Co  Co115  1  0.74947058  -0.00474903  -0.00259409  1
  Co  Co116  1  0.75282210  0.25125816  0.50079479  1
  Co  Co117  1  0.12701453  0.62607279  0.37756392  1
  Co  Co118  1  0.25014758  0.24696190  0.74840252  1
  Co  Co119  1  0.25334981  -0.00222792  -0.00451566  1
  Co  Co120  1  0.87438093  0.62371883  0.12622292  1
  Co  Co121  1  0.87548150  0.62564353  0.87156408  1
  Co  Co122  1  0.12985270  0.62483579  0.11934860  1
  Co  Co123  1  0.87681291  0.87401362  0.37439446  1
  Co  Co124  1  -0.00085121  0.24585013  0.74909539  1
  Co  Co125  1  0.00060686  0.24923095  0.00266946  1
  Co  Co126  1  0.24925043  0.50051070  0.75214414  1
  Co  Co127  1  0.24991169  0.25240589  0.00042595  1
