# generated using pymatgen
data_Fe45Co19
_symmetry_space_group_name_H-M   'P 1'
_cell_length_a   11.41535331
_cell_length_b   11.41522023
_cell_length_c   11.41402150
_cell_angle_alpha   90.00599239
_cell_angle_beta   90.01621326
_cell_angle_gamma   89.99680573
_symmetry_Int_Tables_number   1
_chemical_formula_structural   Fe45Co19
_chemical_formula_sum   'Fe90 Co38'
_cell_volume   1487.34705547
_cell_formula_units_Z   2
loop_
 _symmetry_equiv_pos_site_id
 _symmetry_equiv_pos_as_xyz
  1  'x, y, z'
loop_
 _atom_site_type_symbol
 _atom_site_label
 _atom_site_symmetry_multiplicity
 _atom_site_fract_x
 _atom_site_fract_y
 _atom_site_fract_z
 _atom_site_occupancy
  Fe  Fe0  1  0.12759733  0.12501311  0.62206781  1
  Fe  Fe1  1  0.37555303  0.62617683  0.12410920  1
  Fe  Fe2  1  0.87523805  0.12866240  0.12640459  1
  Fe  Fe3  1  0.74826724  0.49825111  0.25030722  1
  Fe  Fe4  1  0.74719202  0.50069171  0.74634135  1
  Fe  Fe5  1  0.37783444  0.87630794  0.87152798  1
  Fe  Fe6  1  0.12655552  0.37886318  0.37560316  1
  Fe  Fe7  1  0.24894039  0.74995199  -0.00252737  1
  Fe  Fe8  1  0.49998747  0.50037986  0.24999981  1
  Fe  Fe9  1  0.37710143  0.62930977  0.62736812  1
  Fe  Fe10  1  0.50084589  0.49980962  -0.00072663  1
  Fe  Fe11  1  -0.00100319  0.50283454  0.75028073  1
  Fe  Fe12  1  0.62340904  0.12910068  0.61948737  1
  Fe  Fe13  1  0.49913507  0.00016570  0.00150856  1
  Fe  Fe14  1  0.25252121  0.49903210  0.74713505  1
  Fe  Fe15  1  0.25215339  0.00137093  0.74590383  1
  Fe  Fe16  1  0.62658072  0.12635575  0.12633467  1
  Fe  Fe17  1  0.74824384  0.75216281  0.50019450  1
  Fe  Fe18  1  0.75266347  -0.00146988  0.24978858  1
  Fe  Fe19  1  0.25008729  0.24951940  -0.00208319  1
  Fe  Fe20  1  0.50135576  0.24837164  -0.00175849  1
  Fe  Fe21  1  0.62413614  0.62304805  0.37794280  1
  Fe  Fe22  1  0.50192257  0.24871397  0.25574211  1
  Fe  Fe23  1  0.00081735  0.50222413  -0.00147193  1
  Fe  Fe24  1  0.75060402  0.75130666  0.25130857  1
  Fe  Fe25  1  0.49934347  0.00554947  0.74761416  1
  Fe  Fe26  1  0.50030987  0.75061735  0.25125216  1
  Fe  Fe27  1  0.87810788  0.87111137  0.12455224  1
  Fe  Fe28  1  0.74914231  0.24755495  0.75005753  1
  Fe  Fe29  1  0.62331935  0.87901475  0.37338068  1
  Fe  Fe30  1  0.87242575  0.62695077  0.62521579  1
  Fe  Fe31  1  0.25066276  0.50063488  0.00193734  1
  Fe  Fe32  1  0.25017463  -0.00204744  0.00019876  1
  Fe  Fe33  1  0.87476800  0.12505367  0.37495266  1
  Fe  Fe34  1  -0.00238163  0.00175764  0.75057372  1
  Fe  Fe35  1  0.62665880  0.62510789  0.87402994  1
  Fe  Fe36  1  0.12456708  0.12491533  0.12685715  1
  Fe  Fe37  1  0.75073416  0.49798387  0.50085871  1
  Fe  Fe38  1  0.74690815  0.25354890  0.25582925  1
  Fe  Fe39  1  0.12140516  0.87294442  0.12614821  1
  Fe  Fe40  1  0.12604330  0.12375720  0.87531453  1
  Fe  Fe41  1  0.87449607  0.62736259  0.12404885  1
  Fe  Fe42  1  0.12583595  0.62844432  0.62815141  1
  Fe  Fe43  1  0.62501487  0.62607890  0.12526391  1
  Fe  Fe44  1  0.00178025  0.24927860  0.75091793  1
  Fe  Fe45  1  -0.00020056  0.75112423  0.49999822  1
  Fe  Fe46  1  -0.00063971  0.24929090  -0.00117299  1
  Fe  Fe47  1  0.37730909  0.37323052  0.12562324  1
  Fe  Fe48  1  0.12397830  0.87391958  0.87042245  1
  Fe  Fe49  1  0.87393192  0.37291314  0.12532243  1
  Fe  Fe50  1  -0.00057336  -0.00167190  0.49958410  1
  Fe  Fe51  1  0.50251035  0.75142539  -0.00269194  1
  Fe  Fe52  1  0.62502770  0.87373861  0.63064075  1
  Fe  Fe53  1  0.25075073  -0.00141433  0.24969187  1
  Fe  Fe54  1  0.37458329  0.62530027  0.87240307  1
  Fe  Fe55  1  0.74991662  -0.00037858  0.50178852  1
  Fe  Fe56  1  0.37247592  0.37896814  0.37648968  1
  Fe  Fe57  1  0.12832614  0.62356560  0.37633336  1
  Fe  Fe58  1  0.62315604  0.37169921  0.62242200  1
  Fe  Fe59  1  0.37274756  0.62527415  0.37673623  1
  Fe  Fe60  1  0.00137891  0.50149444  0.24859474  1
  Fe  Fe61  1  0.00076521  0.50102519  0.50247781  1
  Fe  Fe62  1  0.49716302  0.49991437  0.50429272  1
  Fe  Fe63  1  0.12322404  0.87599776  0.37360003  1
  Fe  Fe64  1  0.37565878  0.87383354  0.12594807  1
  Fe  Fe65  1  0.50021791  0.75362203  0.50008967  1
  Fe  Fe66  1  0.25065667  0.75618674  0.50342700  1
  Fe  Fe67  1  0.12620378  0.37665492  0.87401560  1
  Fe  Fe68  1  0.62476766  0.37394167  0.87428813  1
  Fe  Fe69  1  0.00010238  0.25125896  0.49800741  1
  Fe  Fe70  1  0.87523247  0.12696707  0.62429498  1
  Fe  Fe71  1  -0.00085123  0.74651571  -0.00718051  1
  Fe  Fe72  1  0.75337370  -0.00151212  -0.00134541  1
  Fe  Fe73  1  0.87381010  0.62472615  0.37607691  1
  Fe  Fe74  1  0.87547954  0.87419122  0.62809315  1
  Fe  Fe75  1  0.62740740  0.12293929  0.87693044  1
  Fe  Fe76  1  0.62485068  0.87521952  0.12466464  1
  Fe  Fe77  1  -0.00197508  0.00060906  -0.00100249  1
  Fe  Fe78  1  0.37441280  0.12581972  0.12434858  1
  Fe  Fe79  1  0.74763902  0.49818928  0.00273364  1
  Fe  Fe80  1  0.25134279  0.24882085  0.25428998  1
  Fe  Fe81  1  0.24943191  0.74936388  0.24961538  1
  Fe  Fe82  1  0.87491336  0.37298262  0.62468696  1
  Fe  Fe83  1  0.37790672  0.11689351  0.38083466  1
  Fe  Fe84  1  0.12378911  0.12221448  0.37479800  1
  Fe  Fe85  1  0.12705087  0.37297631  0.62428868  1
  Fe  Fe86  1  0.37532835  0.36717510  0.62662509  1
  Fe  Fe87  1  0.12669718  0.37391223  0.12615004  1
  Fe  Fe88  1  0.87351703  0.37471146  0.87420329  1
  Fe  Fe89  1  0.37617352  0.37273451  0.87225322  1
  Co  Co90  1  0.62459916  0.87925638  0.87219847  1
  Co  Co91  1  0.11974651  0.87453361  0.62888147  1
  Co  Co92  1  0.12357719  0.62743828  0.12358821  1
  Co  Co93  1  0.49922459  0.25102477  0.49439699  1
  Co  Co94  1  0.75136434  0.25100315  0.49614841  1
  Co  Co95  1  0.74956783  0.24989927  -0.00139984  1
  Co  Co96  1  0.87516800  0.12649528  0.87398406  1
  Co  Co97  1  -0.00399411  0.74541190  0.75323867  1
  Co  Co98  1  0.24882253  -0.00568951  0.50263740  1
  Co  Co99  1  0.87317811  0.87620290  0.87068933  1
  Co  Co100  1  0.49967142  0.00089752  0.24599213  1
  Co  Co101  1  0.74952914  0.00421654  0.74817498  1
  Co  Co102  1  -0.00076011  0.74796387  0.25375991  1
  Co  Co103  1  0.62447547  0.62563791  0.62210134  1
  Co  Co104  1  0.37851702  0.87595369  0.62771392  1
  Co  Co105  1  0.24848656  0.24702698  0.75116626  1
  Co  Co106  1  0.86868408  0.62119388  0.87544788  1
  Co  Co107  1  0.25175093  0.50081974  0.50702378  1
  Co  Co108  1  0.00118033  0.25129688  0.25140629  1
  Co  Co109  1  0.50081991  0.49943565  0.74789712  1
  Co  Co110  1  0.62213969  0.37282254  0.12553363  1
  Co  Co111  1  0.25158250  0.75282705  0.74849343  1
  Co  Co112  1  0.50142876  0.24566455  0.75223029  1
  Co  Co113  1  0.12956615  0.62332275  0.87150603  1
  Co  Co114  1  0.25041825  0.50182664  0.24580165  1
  Co  Co115  1  0.62454211  0.11947089  0.37673729  1
  Co  Co116  1  0.37396512  0.12798691  0.61976894  1
  Co  Co117  1  0.50342016  0.74791333  0.75195085  1
  Co  Co118  1  0.74853903  0.75277714  -0.00165629  1
  Co  Co119  1  0.37707056  0.87714356  0.37345634  1
  Co  Co120  1  -0.00293752  -0.00056462  0.24919853  1
  Co  Co121  1  0.87467745  0.87561195  0.37720541  1
  Co  Co122  1  0.24923083  0.24923122  0.49539992  1
  Co  Co123  1  0.87785601  0.37771521  0.37597524  1
  Co  Co124  1  0.50219189  -0.00430353  0.50485947  1
  Co  Co125  1  0.62356918  0.38025660  0.37948608  1
  Co  Co126  1  0.37347758  0.12368852  0.87626877  1
  Co  Co127  1  0.74962912  0.74845280  0.75110295  1
