# generated using pymatgen
data_Fe45Co19
_symmetry_space_group_name_H-M   'P 1'
_cell_length_a   11.41548183
_cell_length_b   11.41499214
_cell_length_c   11.41588938
_cell_angle_alpha   90.00149775
_cell_angle_beta   90.00889832
_cell_angle_gamma   89.99949651
_symmetry_Int_Tables_number   1
_chemical_formula_structural   Fe45Co19
_chemical_formula_sum   'Fe90 Co38'
_cell_volume   1487.57753285
_cell_formula_units_Z   2
loop_
 _symmetry_equiv_pos_site_id
 _symmetry_equiv_pos_as_xyz
  1  'x, y, z'
loop_
 _atom_site_type_symbol
 _atom_site_label
 _atom_site_symmetry_multiplicity
 _atom_site_fract_x
 _atom_site_fract_y
 _atom_site_fract_z
 _atom_site_occupancy
  Fe  Fe0  1  0.49828162  0.50076699  0.49897252  1
  Fe  Fe1  1  0.74968847  0.50025964  0.74897254  1
  Fe  Fe2  1  0.49932042  -0.00231493  0.00032518  1
  Fe  Fe3  1  0.50161806  0.49774511  0.25084713  1
  Fe  Fe4  1  0.87647912  0.12233437  0.62338439  1
  Fe  Fe5  1  0.87854417  0.37464296  0.62692715  1
  Fe  Fe6  1  0.74970051  0.50033284  0.25037454  1
  Fe  Fe7  1  0.25121238  0.75196488  0.24952500  1
  Fe  Fe8  1  0.37336966  0.12334081  0.62523147  1
  Fe  Fe9  1  0.12756025  0.12333242  0.12516921  1
  Fe  Fe10  1  -0.00260674  0.75086481  0.25093672  1
  Fe  Fe11  1  0.50241686  -0.00094518  0.25002867  1
  Fe  Fe12  1  0.12572632  0.12452626  0.87748200  1
  Fe  Fe13  1  0.87206036  0.12243598  0.37624511  1
  Fe  Fe14  1  0.25156241  0.25065240  0.49794079  1
  Fe  Fe15  1  0.00058315  0.75319985  0.49660656  1
  Fe  Fe16  1  0.87316233  0.62642266  0.87279366  1
  Fe  Fe17  1  0.24941068  0.24740180  0.75174861  1
  Fe  Fe18  1  0.50137418  0.75168825  -0.00331679  1
  Fe  Fe19  1  0.87847648  0.87453095  0.62592913  1
  Fe  Fe20  1  0.00003380  -0.00086266  0.25083723  1
  Fe  Fe21  1  0.49907276  0.50080836  -0.00188156  1
  Fe  Fe22  1  0.75118544  0.50011453  0.50076326  1
  Fe  Fe23  1  0.75107373  0.24902428  -0.00046248  1
  Fe  Fe24  1  0.37680926  0.87501688  0.37452854  1
  Fe  Fe25  1  0.12657269  0.37726851  0.37276968  1
  Fe  Fe26  1  0.74766912  -0.00117124  0.74751689  1
  Fe  Fe27  1  0.62596547  0.12429411  0.12276541  1
  Fe  Fe28  1  0.25105103  0.75235245  0.49964190  1
  Fe  Fe29  1  0.37309287  0.12421309  0.37360151  1
  Fe  Fe30  1  0.12435109  0.62501712  0.37305845  1
  Fe  Fe31  1  0.74952769  0.24872593  0.74808390  1
  Fe  Fe32  1  0.12468624  0.87598472  0.12579302  1
  Fe  Fe33  1  0.87436083  0.87549187  0.87383386  1
  Fe  Fe34  1  0.37639224  0.62654654  0.12426853  1
  Fe  Fe35  1  0.12367311  0.37606075  0.12539869  1
  Fe  Fe36  1  0.37506423  0.62788038  0.62714084  1
  Fe  Fe37  1  0.87509708  0.12481106  0.87419185  1
  Fe  Fe38  1  0.37557419  0.37425805  0.62425108  1
  Fe  Fe39  1  0.12330641  0.37401061  0.62619117  1
  Fe  Fe40  1  0.62109843  0.87332467  0.62522273  1
  Fe  Fe41  1  0.50319884  0.75211104  0.25021732  1
  Fe  Fe42  1  0.25419120  -0.00126765  0.00014103  1
  Fe  Fe43  1  0.87278151  0.12286381  0.12632474  1
  Fe  Fe44  1  0.12505082  0.12181823  0.62275220  1
  Fe  Fe45  1  -0.00299095  -0.00027899  0.00156797  1
  Fe  Fe46  1  0.37452949  0.37397438  0.87407789  1
  Fe  Fe47  1  0.12038972  0.37279165  0.87544261  1
  Fe  Fe48  1  0.37377900  0.37350530  0.12753534  1
  Fe  Fe49  1  0.87733423  0.62778790  0.62606817  1
  Fe  Fe50  1  0.62866077  0.12581690  0.38036610  1
  Fe  Fe51  1  0.87658585  0.37497270  0.12449742  1
  Fe  Fe52  1  0.12516621  0.62608800  0.87408739  1
  Fe  Fe53  1  0.49921848  0.25049624  -0.00001978  1
  Fe  Fe54  1  0.12642930  0.12182924  0.37473745  1
  Fe  Fe55  1  -0.00093570  0.75106554  -0.00077699  1
  Fe  Fe56  1  0.24861515  0.49980126  0.75002397  1
  Fe  Fe57  1  0.25079929  0.50176017  0.50044913  1
  Fe  Fe58  1  0.74881537  0.75433300  0.00082493  1
  Fe  Fe59  1  0.87919833  0.37312691  0.87382584  1
  Fe  Fe60  1  0.12302471  0.62845693  0.62590889  1
  Fe  Fe61  1  0.50100219  0.50211455  0.75205773  1
  Fe  Fe62  1  0.37481042  0.62443248  0.37340841  1
  Fe  Fe63  1  0.37373396  0.12664512  0.12655253  1
  Fe  Fe64  1  0.12292266  0.62440015  0.12688676  1
  Fe  Fe65  1  0.24852594  0.75639912  0.75039355  1
  Fe  Fe66  1  0.24977796  0.50000135  0.00021841  1
  Fe  Fe67  1  0.24958878  -0.00524595  0.50022959  1
  Fe  Fe68  1  0.74761740  0.25090982  0.24984065  1
  Fe  Fe69  1  0.87457661  0.37521279  0.37508123  1
  Fe  Fe70  1  0.00043702  0.50140005  0.49970174  1
  Fe  Fe71  1  0.62664461  0.62583573  0.37559479  1
  Fe  Fe72  1  0.86992785  0.87655051  0.37228971  1
  Fe  Fe73  1  0.62424731  0.62648614  0.62522486  1
  Fe  Fe74  1  0.62528541  0.12295084  0.87551879  1
  Fe  Fe75  1  0.62518065  0.37477331  0.87612547  1
  Fe  Fe76  1  0.62512821  0.62478486  0.12295860  1
  Fe  Fe77  1  0.75115386  0.49896435  -0.00062105  1
  Fe  Fe78  1  0.00361888  -0.00123573  0.75037087  1
  Fe  Fe79  1  0.74847851  0.75196680  0.50069381  1
  Fe  Fe80  1  0.50129535  -0.00032977  0.50044887  1
  Fe  Fe81  1  0.62330101  0.37201975  0.62149313  1
  Fe  Fe82  1  0.25089059  0.75182677  0.00010162  1
  Fe  Fe83  1  0.50221137  0.25185153  0.25314371  1
  Fe  Fe84  1  0.49992349  0.24769448  0.74914619  1
  Fe  Fe85  1  0.00137344  0.24854625  0.24948642  1
  Fe  Fe86  1  -0.00029010  0.24845311  0.49930579  1
  Fe  Fe87  1  0.50092720  0.74833779  0.75457033  1
  Fe  Fe88  1  0.49834093  0.00065725  0.75020430  1
  Fe  Fe89  1  0.87506307  0.62564564  0.12541095  1
  Co  Co90  1  -0.00093635  0.24735411  0.00289542  1
  Co  Co91  1  0.75397277  0.24980445  0.50343779  1
  Co  Co92  1  0.25101553  0.50230363  0.24759135  1
  Co  Co93  1  0.87414243  0.62604209  0.37638246  1
  Co  Co94  1  0.62572393  0.37559436  0.12318487  1
  Co  Co95  1  -0.00016311  0.50251028  -0.00167240  1
  Co  Co96  1  0.74833179  0.74859232  0.24874671  1
  Co  Co97  1  0.37535455  0.87527441  0.87410416  1
  Co  Co98  1  0.37351269  0.37654844  0.37427508  1
  Co  Co99  1  0.24853471  0.24933594  0.25067820  1
  Co  Co100  1  0.62614556  0.87602520  0.12467883  1
  Co  Co101  1  0.00131524  0.24551964  0.74830057  1
  Co  Co102  1  0.37565294  0.12466353  0.87563609  1
  Co  Co103  1  0.74556895  0.00054483  0.24909525  1
  Co  Co104  1  0.62652963  0.37389562  0.37948996  1
  Co  Co105  1  0.74852275  -0.00356400  0.50431683  1
  Co  Co106  1  0.75137437  -0.00115327  -0.00034740  1
  Co  Co107  1  0.62658826  0.87533984  0.37545424  1
  Co  Co108  1  0.74860671  0.75156267  0.74827913  1
  Co  Co109  1  -0.00233534  0.50113181  0.25032764  1
  Co  Co110  1  0.37174501  0.62606505  0.87435812  1
  Co  Co111  1  0.24996575  0.25077499  -0.00017377  1
  Co  Co112  1  0.62434008  0.12677574  0.62292034  1
  Co  Co113  1  0.49960981  0.74895346  0.49774806  1
  Co  Co114  1  0.25208367  -0.00278795  0.24926453  1
  Co  Co115  1  0.49585808  0.24810507  0.49810602  1
  Co  Co116  1  0.62872908  0.62467804  0.87630706  1
  Co  Co117  1  0.12257830  0.87539242  0.62389465  1
  Co  Co118  1  -0.00050492  -0.00206171  0.49679623  1
  Co  Co119  1  0.37759076  0.87399772  0.62591628  1
  Co  Co120  1  0.00139951  0.75145562  0.75334871  1
  Co  Co121  1  0.62529834  0.87729978  0.87416367  1
  Co  Co122  1  0.12580520  0.87488204  0.37225929  1
  Co  Co123  1  0.87414374  0.87623744  0.12770788  1
  Co  Co124  1  0.12521808  0.87745690  0.87878700  1
  Co  Co125  1  0.00033476  0.50323500  0.75053701  1
  Co  Co126  1  0.37644597  0.87393699  0.12534080  1
  Co  Co127  1  0.24876623  -0.00117704  0.75033588  1
