# generated using pymatgen
data_Fe45Co19
_symmetry_space_group_name_H-M   'P 1'
_cell_length_a   11.41425251
_cell_length_b   11.41619614
_cell_length_c   11.41608403
_cell_angle_alpha   89.99636315
_cell_angle_beta   89.99632645
_cell_angle_gamma   89.99532613
_symmetry_Int_Tables_number   1
_chemical_formula_structural   Fe45Co19
_chemical_formula_sum   'Fe90 Co38'
_cell_volume   1487.59959384
_cell_formula_units_Z   2
loop_
 _symmetry_equiv_pos_site_id
 _symmetry_equiv_pos_as_xyz
  1  'x, y, z'
loop_
 _atom_site_type_symbol
 _atom_site_label
 _atom_site_symmetry_multiplicity
 _atom_site_fract_x
 _atom_site_fract_y
 _atom_site_fract_z
 _atom_site_occupancy
  Fe  Fe0  1  0.74911328  0.50043162  0.50002352  1
  Fe  Fe1  1  0.49945658  0.24845765  0.50216577  1
  Fe  Fe2  1  0.74908916  0.25032385  0.24983859  1
  Fe  Fe3  1  0.25145521  0.50269556  0.49774601  1
  Fe  Fe4  1  0.12201339  0.62314009  0.37059587  1
  Fe  Fe5  1  0.49837855  0.00158310  -0.00225810  1
  Fe  Fe6  1  0.87411469  0.37159361  0.87621934  1
  Fe  Fe7  1  0.00003077  0.49798199  0.75120029  1
  Fe  Fe8  1  0.87362331  0.62492129  0.62665181  1
  Fe  Fe9  1  0.37939925  0.62809880  0.87369234  1
  Fe  Fe10  1  0.74690341  0.49757376  0.75277759  1
  Fe  Fe11  1  0.62237056  0.12752928  0.12452798  1
  Fe  Fe12  1  0.62961762  0.87686950  0.62248993  1
  Fe  Fe13  1  0.74770624  0.75041161  0.25082387  1
  Fe  Fe14  1  -0.00170206  0.74852033  0.50129325  1
  Fe  Fe15  1  0.25412731  0.25333062  0.24788899  1
  Fe  Fe16  1  0.74709323  0.74966803  -0.00178508  1
  Fe  Fe17  1  0.00045874  0.74859917  0.00299008  1
  Fe  Fe18  1  0.49964306  -0.00030571  0.25261643  1
  Fe  Fe19  1  0.00466555  0.25316736  0.50375832  1
  Fe  Fe20  1  0.62013258  0.37176634  0.12379584  1
  Fe  Fe21  1  0.13014987  0.38383737  0.12308674  1
  Fe  Fe22  1  0.37277226  0.12285271  0.62640877  1
  Fe  Fe23  1  0.62278991  0.37369895  0.37439853  1
  Fe  Fe24  1  0.37477883  0.87707080  0.12450273  1
  Fe  Fe25  1  0.37492806  0.87169267  0.37421204  1
  Fe  Fe26  1  0.12892175  0.12242231  0.12674389  1
  Fe  Fe27  1  0.62350661  0.87502749  0.12420120  1
  Fe  Fe28  1  0.12779527  0.87553253  0.12506919  1
  Fe  Fe29  1  0.50226917  0.00066453  0.74886782  1
  Fe  Fe30  1  0.00301859  0.25311556  0.24737386  1
  Fe  Fe31  1  0.49919243  0.49972464  0.50101110  1
  Fe  Fe32  1  0.87845841  0.12706692  0.87352633  1
  Fe  Fe33  1  0.24428439  -0.00431612  0.75062046  1
  Fe  Fe34  1  0.87561420  0.37481216  0.37601963  1
  Fe  Fe35  1  0.50386237  0.75224246  0.75212058  1
  Fe  Fe36  1  0.87556306  0.37580992  0.62419945  1
  Fe  Fe37  1  0.87624512  0.62469893  0.12620538  1
  Fe  Fe38  1  0.37341942  0.87462579  0.87398604  1
  Fe  Fe39  1  -0.00072312  -0.00223837  0.50314912  1
  Fe  Fe40  1  0.61987075  0.62651513  0.12363059  1
  Fe  Fe41  1  0.00223971  0.75411586  0.74870046  1
  Fe  Fe42  1  0.12653978  0.37837661  0.37470348  1
  Fe  Fe43  1  0.12491314  0.12519032  0.37416339  1
  Fe  Fe44  1  0.62607466  0.12526846  0.37754713  1
  Fe  Fe45  1  0.62549944  0.12991954  0.87397836  1
  Fe  Fe46  1  0.37637869  0.37311506  0.87314406  1
  Fe  Fe47  1  0.12547797  0.87334137  0.37529078  1
  Fe  Fe48  1  0.87415738  0.62533837  0.87476838  1
  Fe  Fe49  1  0.50025477  0.49828390  -0.00515216  1
  Fe  Fe50  1  0.87608040  0.62373031  0.37243082  1
  Fe  Fe51  1  0.62463514  0.62417664  0.62714345  1
  Fe  Fe52  1  0.00051124  -0.00256108  0.25097647  1
  Fe  Fe53  1  0.24746044  0.25065569  0.74730362  1
  Fe  Fe54  1  0.24955215  0.74776300  0.50043623  1
  Fe  Fe55  1  0.75120157  0.00286422  0.74804221  1
  Fe  Fe56  1  0.37241992  0.87306369  0.62666521  1
  Fe  Fe57  1  0.50336439  0.75189575  0.49965424  1
  Fe  Fe58  1  0.25018160  -0.00049335  0.49857013  1
  Fe  Fe59  1  0.87548794  0.87655384  0.87497664  1
  Fe  Fe60  1  0.12304061  0.12463944  0.87286048  1
  Fe  Fe61  1  0.25345165  0.24858105  0.00162750  1
  Fe  Fe62  1  0.37391058  0.37610019  0.62479040  1
  Fe  Fe63  1  0.74965116  0.00314455  -0.00037968  1
  Fe  Fe64  1  0.37687652  0.62666912  0.62639907  1
  Fe  Fe65  1  0.74967861  0.00106461  0.25104312  1
  Fe  Fe66  1  0.00225399  0.25100988  0.00199156  1
  Fe  Fe67  1  0.49301262  0.49965721  0.25207908  1
  Fe  Fe68  1  0.74917474  0.49893004  0.24866566  1
  Fe  Fe69  1  0.87164580  0.87357858  0.37713491  1
  Fe  Fe70  1  0.87736725  0.12785706  0.62566513  1
  Fe  Fe71  1  0.37364089  0.12728236  0.37373389  1
  Fe  Fe72  1  0.49947819  -0.00075997  0.50025335  1
  Fe  Fe73  1  0.87451483  0.37497776  0.12378028  1
  Fe  Fe74  1  0.00228915  -0.00021262  0.00019273  1
  Fe  Fe75  1  0.12492602  0.62334928  0.62636907  1
  Fe  Fe76  1  0.87342148  0.87563370  0.12427709  1
  Fe  Fe77  1  0.87624156  0.12522591  0.12586053  1
  Fe  Fe78  1  0.25229376  0.74447832  0.24744312  1
  Fe  Fe79  1  0.74705776  0.75064081  0.75258224  1
  Fe  Fe80  1  0.87639997  0.12838416  0.37572683  1
  Fe  Fe81  1  0.62224143  0.62488555  0.37325435  1
  Fe  Fe82  1  0.74801725  0.49896750  -0.00066265  1
  Fe  Fe83  1  0.12335903  0.62485655  0.87654996  1
  Fe  Fe84  1  0.24765722  0.24920767  0.50288248  1
  Fe  Fe85  1  0.12576274  0.37605507  0.87597661  1
  Fe  Fe86  1  0.37241420  0.12357169  0.87209177  1
  Fe  Fe87  1  0.25236934  0.50276820  0.75183554  1
  Fe  Fe88  1  0.62301645  0.37266948  0.62856454  1
  Fe  Fe89  1  0.25050679  0.74699506  0.00035574  1
  Co  Co90  1  -0.00339279  0.49993655  -0.00127264  1
  Co  Co91  1  0.12531359  0.12137061  0.62624941  1
  Co  Co92  1  0.87043192  0.87103661  0.62481680  1
  Co  Co93  1  -0.00076002  0.50119612  0.50050785  1
  Co  Co94  1  0.50023622  0.75379241  -0.00304944  1
  Co  Co95  1  0.75288499  0.00348138  0.50180587  1
  Co  Co96  1  0.74856763  0.74437933  0.49774022  1
  Co  Co97  1  0.62734704  0.87899081  0.87548294  1
  Co  Co98  1  0.75060313  0.24998816  0.74829775  1
  Co  Co99  1  0.49809110  0.75098026  0.24979103  1
  Co  Co100  1  0.62404516  0.36934565  0.87515655  1
  Co  Co101  1  0.49729987  0.24772815  0.74839985  1
  Co  Co102  1  0.37872559  0.62823473  0.37896069  1
  Co  Co103  1  0.25730466  0.50258843  0.25393507  1
  Co  Co104  1  0.37862042  0.62282578  0.12084728  1
  Co  Co105  1  -0.00008906  0.75260658  0.24823158  1
  Co  Co106  1  0.37471080  0.37200770  0.37928640  1
  Co  Co107  1  -0.00195283  0.49711394  0.24841001  1
  Co  Co108  1  0.74893925  0.25219412  0.50069189  1
  Co  Co109  1  0.00076803  -0.00446065  0.74772985  1
  Co  Co110  1  0.24983666  0.00083522  -0.00245212  1
  Co  Co111  1  0.12492026  0.61909603  0.12570781  1
  Co  Co112  1  0.62460580  0.62376913  0.87577349  1
  Co  Co113  1  0.62730358  0.87608444  0.37658267  1
  Co  Co114  1  0.49726123  0.24940208  0.25040918  1
  Co  Co115  1  0.25059344  -0.00101190  0.25362626  1
  Co  Co116  1  0.24837764  0.74843435  0.75181018  1
  Co  Co117  1  0.25402631  0.50309124  -0.00531999  1
  Co  Co118  1  0.00324820  0.25369122  0.74748025  1
  Co  Co119  1  0.37404009  0.12143118  0.12725251  1
  Co  Co120  1  0.49963755  0.49946239  0.75139747  1
  Co  Co121  1  0.62487427  0.12561053  0.62370444  1
  Co  Co122  1  0.75066448  0.24963754  0.00185560  1
  Co  Co123  1  0.37595323  0.37847973  0.12242143  1
  Co  Co124  1  0.12431149  0.87308109  0.87833212  1
  Co  Co125  1  0.12823152  0.38099039  0.62536818  1
  Co  Co126  1  0.12782957  0.87400169  0.62221579  1
  Co  Co127  1  0.49408025  0.24655631  -0.00085792  1
