# generated using pymatgen
data_Fe45Co19
_symmetry_space_group_name_H-M   'P 1'
_cell_length_a   11.41516823
_cell_length_b   11.41582331
_cell_length_c   11.41564730
_cell_angle_alpha   90.00013080
_cell_angle_beta   89.99899483
_cell_angle_gamma   89.99944730
_symmetry_Int_Tables_number   1
_chemical_formula_structural   Fe45Co19
_chemical_formula_sum   'Fe90 Co38'
_cell_volume   1487.61345139
_cell_formula_units_Z   2
loop_
 _symmetry_equiv_pos_site_id
 _symmetry_equiv_pos_as_xyz
  1  'x, y, z'
loop_
 _atom_site_type_symbol
 _atom_site_label
 _atom_site_symmetry_multiplicity
 _atom_site_fract_x
 _atom_site_fract_y
 _atom_site_fract_z
 _atom_site_occupancy
  Fe  Fe0  1  0.37550061  0.37533138  0.87173548  1
  Fe  Fe1  1  0.75019634  0.00184463  0.75072760  1
  Fe  Fe2  1  0.37408024  0.12623934  0.62373280  1
  Fe  Fe3  1  0.49943221  0.50143649  0.24773313  1
  Fe  Fe4  1  0.62609807  0.62328627  0.88170641  1
  Fe  Fe5  1  0.62403230  0.12393619  0.62167142  1
  Fe  Fe6  1  0.37597222  0.62547467  0.87692224  1
  Fe  Fe7  1  -0.00023082  -0.00002664  -0.00160984  1
  Fe  Fe8  1  0.50062698  0.24815870  0.75002705  1
  Fe  Fe9  1  -0.00644561  0.50018816  -0.00032405  1
  Fe  Fe10  1  0.87457081  0.62372873  0.62694699  1
  Fe  Fe11  1  0.62403975  0.87518998  0.87565709  1
  Fe  Fe12  1  0.74881488  0.50260317  0.24850923  1
  Fe  Fe13  1  -0.00168341  0.74931439  0.00117969  1
  Fe  Fe14  1  0.00202609  0.00196027  0.24956800  1
  Fe  Fe15  1  0.87602345  0.87484954  0.87163616  1
  Fe  Fe16  1  0.24526531  0.00336773  0.74891884  1
  Fe  Fe17  1  0.87561797  0.37413322  0.12747488  1
  Fe  Fe18  1  0.12499449  0.37720165  0.12329355  1
  Fe  Fe19  1  0.87664246  0.12617272  0.37552088  1
  Fe  Fe20  1  0.62393507  0.87714264  0.37457189  1
  Fe  Fe21  1  0.24993808  0.74818928  0.50218676  1
  Fe  Fe22  1  0.37465527  0.37643206  0.62912911  1
  Fe  Fe23  1  0.24806666  0.74510063  0.74741167  1
  Fe  Fe24  1  0.62378417  0.37535437  0.12364717  1
  Fe  Fe25  1  0.12899033  0.12468289  0.11745955  1
  Fe  Fe26  1  0.25032700  0.50298269  0.24799145  1
  Fe  Fe27  1  0.25205214  0.50073029  0.50130763  1
  Fe  Fe28  1  0.62324376  0.62287330  0.37898290  1
  Fe  Fe29  1  0.50208757  0.74848487  0.25021322  1
  Fe  Fe30  1  0.75329606  -0.00178225  0.49850663  1
  Fe  Fe31  1  0.75005041  0.00108034  0.25121065  1
  Fe  Fe32  1  0.49942832  0.00184281  0.75055636  1
  Fe  Fe33  1  0.62568087  0.12487274  0.87831306  1
  Fe  Fe34  1  0.87524212  0.37560169  0.62944877  1
  Fe  Fe35  1  0.00116022  0.50245161  0.24937217  1
  Fe  Fe36  1  0.62524341  0.37731642  0.87709007  1
  Fe  Fe37  1  0.49549377  -0.00141641  0.49699818  1
  Fe  Fe38  1  0.74655921  0.24669359  0.25001670  1
  Fe  Fe39  1  0.37567323  0.62697248  0.37599067  1
  Fe  Fe40  1  0.74864842  0.24867808  0.75060365  1
  Fe  Fe41  1  0.25106357  -0.00120507  0.49892023  1
  Fe  Fe42  1  0.12449040  0.37612645  0.62729360  1
  Fe  Fe43  1  0.75181722  -0.00328284  -0.00027228  1
  Fe  Fe44  1  0.62588102  0.62617915  0.11917074  1
  Fe  Fe45  1  0.62422511  0.87530181  0.12464331  1
  Fe  Fe46  1  0.00061786  -0.00270526  0.50101061  1
  Fe  Fe47  1  0.24865489  0.25231184  0.50132698  1
  Fe  Fe48  1  0.87496155  0.62660534  0.37232209  1
  Fe  Fe49  1  0.24642079  0.74747990  0.24709952  1
  Fe  Fe50  1  0.87831253  0.12471858  0.62561242  1
  Fe  Fe51  1  0.87396467  0.12573718  0.12320106  1
  Fe  Fe52  1  0.62397436  0.87666885  0.62483471  1
  Fe  Fe53  1  0.12526093  0.87578220  0.87462995  1
  Fe  Fe54  1  0.00106664  0.50175474  0.75292790  1
  Fe  Fe55  1  0.75312802  0.25235926  -0.00102343  1
  Fe  Fe56  1  0.62277925  0.62155274  0.61922051  1
  Fe  Fe57  1  0.12502972  0.37673750  0.37431981  1
  Fe  Fe58  1  0.37419803  0.87393060  0.87142980  1
  Fe  Fe59  1  0.12551563  0.87352367  0.37496713  1
  Fe  Fe60  1  0.12543237  0.62396928  0.87833703  1
  Fe  Fe61  1  0.12455931  0.12673646  0.37909351  1
  Fe  Fe62  1  0.50113978  0.50217945  0.75049444  1
  Fe  Fe63  1  0.25505041  0.49759950  0.00186109  1
  Fe  Fe64  1  0.62562423  0.37774664  0.62331477  1
  Fe  Fe65  1  0.75007404  0.75094353  0.49740458  1
  Fe  Fe66  1  0.37448494  0.87312919  0.62685748  1
  Fe  Fe67  1  0.24904521  0.00160629  0.25083481  1
  Fe  Fe68  1  0.87531973  0.87250434  0.12918111  1
  Fe  Fe69  1  0.00159548  0.74966734  0.50043631  1
  Fe  Fe70  1  0.00269179  0.74922156  0.74906518  1
  Fe  Fe71  1  0.37044787  0.12542657  0.87679389  1
  Fe  Fe72  1  0.49897089  0.00723932  0.25147561  1
  Fe  Fe73  1  0.49592091  -0.00020524  0.00077806  1
  Fe  Fe74  1  0.00365015  0.24451629  0.75431703  1
  Fe  Fe75  1  0.50211199  0.74775114  0.74969235  1
  Fe  Fe76  1  0.37580617  0.87510762  0.12902599  1
  Fe  Fe77  1  0.37429545  0.37052879  0.36837766  1
  Fe  Fe78  1  0.87508971  0.37390943  0.37102168  1
  Fe  Fe79  1  0.87639968  0.87508086  0.62746648  1
  Fe  Fe80  1  0.75253630  0.25187050  0.50017260  1
  Fe  Fe81  1  0.12574875  0.37386706  0.87624423  1
  Fe  Fe82  1  0.49933173  0.25163116  0.49805915  1
  Fe  Fe83  1  0.00430987  0.24824439  0.24840621  1
  Fe  Fe84  1  -0.00261617  0.49894989  0.49877510  1
  Fe  Fe85  1  0.25038464  0.75282155  0.00293668  1
  Fe  Fe86  1  0.62535269  0.37535413  0.37497738  1
  Fe  Fe87  1  0.49611379  0.24988124  0.00310594  1
  Fe  Fe88  1  0.00427283  0.74763479  0.24854922  1
  Fe  Fe89  1  0.74750538  0.74769160  0.75050295  1
  Co  Co90  1  0.75485254  0.49875000  0.49857314  1
  Co  Co91  1  -0.00145281  0.25062608  0.00004923  1
  Co  Co92  1  0.74569424  0.74960334  0.25178428  1
  Co  Co93  1  0.75602447  0.49864030  0.00069403  1
  Co  Co94  1  0.87424884  0.62597359  0.87284004  1
  Co  Co95  1  0.24201852  0.24859248  0.24814836  1
  Co  Co96  1  0.37597576  0.62764729  0.12370277  1
  Co  Co97  1  0.87445742  0.37408686  0.87099597  1
  Co  Co98  1  0.12608466  0.87445856  0.62510009  1
  Co  Co99  1  0.49544760  0.49732122  0.00252814  1
  Co  Co100  1  0.12522817  0.62393009  0.37696174  1
  Co  Co101  1  0.24813540  0.24836702  0.74991812  1
  Co  Co102  1  0.49470987  0.49524311  0.49748294  1
  Co  Co103  1  0.25321389  0.25628138  0.00076917  1
  Co  Co104  1  0.12967069  0.12520537  0.88205718  1
  Co  Co105  1  0.00450459  0.00303365  0.75132598  1
  Co  Co106  1  0.12347454  0.87626530  0.12538848  1
  Co  Co107  1  0.49952466  0.75402793  0.49986880  1
  Co  Co108  1  0.49766969  0.75415240  -0.00048255  1
  Co  Co109  1  0.50549203  0.24449774  0.24889935  1
  Co  Co110  1  0.25297839  -0.00612444  0.00081917  1
  Co  Co111  1  0.12350979  0.62142849  0.62438259  1
  Co  Co112  1  0.75280356  0.75241721  -0.00042363  1
  Co  Co113  1  0.87402813  0.62775745  0.12757463  1
  Co  Co114  1  0.87794403  0.87338954  0.37178309  1
  Co  Co115  1  0.24998286  0.50222976  0.75134846  1
  Co  Co116  1  -0.00081060  0.25438797  0.49921104  1
  Co  Co117  1  0.37327300  0.87174621  0.37096182  1
  Co  Co118  1  0.37809606  0.62431465  0.62425608  1
  Co  Co119  1  0.37060438  0.12726255  0.12595852  1
  Co  Co120  1  0.87378258  0.12404435  0.87618454  1
  Co  Co121  1  0.37590506  0.37124102  0.13304829  1
  Co  Co122  1  0.74680387  0.50153059  0.75123442  1
  Co  Co123  1  0.62653479  0.12429655  0.38023344  1
  Co  Co124  1  0.62729248  0.12383375  0.11970163  1
  Co  Co125  1  0.12388461  0.12660465  0.62126189  1
  Co  Co126  1  0.12476904  0.62158114  0.12048323  1
  Co  Co127  1  0.37250063  0.13049879  0.37414651  1
