# generated using pymatgen
data_Fe45Co19
_symmetry_space_group_name_H-M   'P 1'
_cell_length_a   11.41515131
_cell_length_b   11.41616110
_cell_length_c   11.41479981
_cell_angle_alpha   90.01008662
_cell_angle_beta   90.00881856
_cell_angle_gamma   90.01188886
_symmetry_Int_Tables_number   1
_chemical_formula_structural   Fe45Co19
_chemical_formula_sum   'Fe90 Co38'
_cell_volume   1487.54474992
_cell_formula_units_Z   2
loop_
 _symmetry_equiv_pos_site_id
 _symmetry_equiv_pos_as_xyz
  1  'x, y, z'
loop_
 _atom_site_type_symbol
 _atom_site_label
 _atom_site_symmetry_multiplicity
 _atom_site_fract_x
 _atom_site_fract_y
 _atom_site_fract_z
 _atom_site_occupancy
  Fe  Fe0  1  0.62342301  0.37294143  0.37793561  1
  Fe  Fe1  1  0.75125348  0.25279493  0.25189319  1
  Fe  Fe2  1  0.75257446  0.25156690  -0.00757196  1
  Fe  Fe3  1  0.49932180  0.24868760  -0.00186430  1
  Fe  Fe4  1  0.62262522  0.87406645  0.87688044  1
  Fe  Fe5  1  0.12240186  0.87546079  0.87718380  1
  Fe  Fe6  1  0.62303528  0.87524954  0.37457794  1
  Fe  Fe7  1  -0.00049386  0.24845934  0.50226339  1
  Fe  Fe8  1  0.49647276  0.49986293  -0.00210212  1
  Fe  Fe9  1  0.37681251  0.37352292  0.37955479  1
  Fe  Fe10  1  0.24885098  -0.00190798  0.75159147  1
  Fe  Fe11  1  0.49724587  0.49967406  0.74972616  1
  Fe  Fe12  1  0.50219198  0.00357980  0.00151845  1
  Fe  Fe13  1  0.74945627  0.49695057  0.75231145  1
  Fe  Fe14  1  0.62699811  0.62590909  0.62444295  1
  Fe  Fe15  1  0.87212457  0.12553265  0.63246849  1
  Fe  Fe16  1  0.37560384  0.62309168  0.12745818  1
  Fe  Fe17  1  0.87445909  0.62402060  0.37505871  1
  Fe  Fe18  1  0.74984293  0.00179378  -0.00124936  1
  Fe  Fe19  1  0.36995116  0.37391926  0.11867843  1
  Fe  Fe20  1  -0.00114942  0.00233392  0.50064968  1
  Fe  Fe21  1  0.12595415  0.37641286  0.87800670  1
  Fe  Fe22  1  0.25184306  0.74855129  0.00085704  1
  Fe  Fe23  1  0.25101774  0.50187015  0.75375733  1
  Fe  Fe24  1  0.62664202  0.12558932  0.87130848  1
  Fe  Fe25  1  0.62616070  0.37499027  0.12187653  1
  Fe  Fe26  1  0.87706044  0.62308634  0.87297483  1
  Fe  Fe27  1  0.87244670  0.87608168  0.12708206  1
  Fe  Fe28  1  0.87418855  0.87504355  0.37423891  1
  Fe  Fe29  1  0.74926084  0.49969922  0.49965275  1
  Fe  Fe30  1  0.37704837  0.87468692  0.87715510  1
  Fe  Fe31  1  -0.00073008  0.74994614  0.25001395  1
  Fe  Fe32  1  0.37231092  0.12580060  0.12767771  1
  Fe  Fe33  1  0.75086843  0.75176741  0.75193907  1
  Fe  Fe34  1  0.12382884  0.87556309  0.37590652  1
  Fe  Fe35  1  0.12642946  0.62358340  0.12735069  1
  Fe  Fe36  1  0.12202957  0.37196505  0.37578310  1
  Fe  Fe37  1  0.74937865  0.49674815  0.25160583  1
  Fe  Fe38  1  0.25099068  0.49539875  0.25169168  1
  Fe  Fe39  1  0.74517489  0.74870779  0.24907795  1
  Fe  Fe40  1  0.87750959  0.37622597  0.62808096  1
  Fe  Fe41  1  0.37456002  0.12421802  0.87240810  1
  Fe  Fe42  1  0.12761225  0.12370664  0.62482542  1
  Fe  Fe43  1  0.62432911  0.37287700  0.62543932  1
  Fe  Fe44  1  -0.00123944  0.24976555  0.00018839  1
  Fe  Fe45  1  0.37913988  0.62355486  0.37610117  1
  Fe  Fe46  1  0.37433277  0.87649867  0.62213386  1
  Fe  Fe47  1  0.12423214  0.62690678  0.87531257  1
  Fe  Fe48  1  0.87209608  0.12655645  0.12628205  1
  Fe  Fe49  1  0.62234333  0.62441276  0.87515530  1
  Fe  Fe50  1  0.37130323  0.62455549  0.62046136  1
  Fe  Fe51  1  0.75114796  0.49799027  -0.00350358  1
  Fe  Fe52  1  0.00009230  0.50275693  0.50266647  1
  Fe  Fe53  1  0.12021725  0.12097938  0.87438904  1
  Fe  Fe54  1  0.12664087  0.12952052  0.12954174  1
  Fe  Fe55  1  0.61990839  0.62281855  0.37396980  1
  Fe  Fe56  1  0.49753680  0.24524708  0.50267983  1
  Fe  Fe57  1  -0.00012639  0.00106452  0.24864741  1
  Fe  Fe58  1  0.87435852  0.12620614  0.37343652  1
  Fe  Fe59  1  0.25328408  0.00230806  0.49573901  1
  Fe  Fe60  1  0.75155591  0.24967817  0.50203927  1
  Fe  Fe61  1  0.25107809  0.75081576  0.75065409  1
  Fe  Fe62  1  0.37624315  0.87753597  0.12714137  1
  Fe  Fe63  1  -0.00005333  0.74903307  0.74621010  1
  Fe  Fe64  1  -0.00180672  0.74971501  0.00238001  1
  Fe  Fe65  1  0.50523762  0.00459377  0.24873252  1
  Fe  Fe66  1  0.00049581  0.49869719  0.00254005  1
  Fe  Fe67  1  0.87271993  0.87396014  0.62256954  1
  Fe  Fe68  1  -0.00165206  0.49489014  0.24819735  1
  Fe  Fe69  1  0.87311653  0.62293840  0.12634684  1
  Fe  Fe70  1  0.50176651  0.74855814  0.00520758  1
  Fe  Fe71  1  0.24834754  0.00155538  0.00136377  1
  Fe  Fe72  1  0.12525042  0.62436859  0.37527202  1
  Fe  Fe73  1  0.49910356  0.74988517  0.74687477  1
  Fe  Fe74  1  0.12666281  0.12838370  0.37201585  1
  Fe  Fe75  1  0.74876129  0.00226499  0.49910296  1
  Fe  Fe76  1  0.50159330  -0.00013056  0.74821548  1
  Fe  Fe77  1  0.25322102  0.75203187  0.25403550  1
  Fe  Fe78  1  0.62624422  0.87497293  0.62266374  1
  Fe  Fe79  1  0.74893064  0.74869265  0.00124919  1
  Fe  Fe80  1  0.49980511  0.00578075  0.50023285  1
  Fe  Fe81  1  0.12628297  0.37627540  0.62433957  1
  Fe  Fe82  1  -0.00057559  0.74655268  0.50192039  1
  Fe  Fe83  1  0.37217821  0.37401394  0.62459240  1
  Fe  Fe84  1  0.12567782  0.87345535  0.12554720  1
  Fe  Fe85  1  0.49950667  0.25197288  0.24827148  1
  Fe  Fe86  1  0.12740990  0.87411007  0.62154256  1
  Fe  Fe87  1  0.24790040  0.24901670  0.75151340  1
  Fe  Fe88  1  0.87892903  0.87909009  0.87589353  1
  Fe  Fe89  1  0.49992498  0.25035848  0.74963707  1
  Co  Co90  1  0.37277007  0.12459802  0.62835970  1
  Co  Co91  1  0.25077335  0.50445960  -0.00203266  1
  Co  Co92  1  0.87640377  0.37494131  0.37944611  1
  Co  Co93  1  0.62906230  0.13038748  0.12433560  1
  Co  Co94  1  0.62565577  0.12936451  0.37532730  1
  Co  Co95  1  0.12795381  0.37370387  0.12263142  1
  Co  Co96  1  0.74814580  0.74799959  0.49652332  1
  Co  Co97  1  0.00397600  0.50305667  0.74810524  1
  Co  Co98  1  0.24811760  0.24392096  -0.00317754  1
  Co  Co99  1  0.25286588  0.25610600  0.25173096  1
  Co  Co100  1  0.50204510  0.74959385  0.24688568  1
  Co  Co101  1  0.00083636  -0.00274099  0.74481014  1
  Co  Co102  1  0.74856866  -0.00345304  0.75154893  1
  Co  Co103  1  0.50130231  0.49908156  0.50312010  1
  Co  Co104  1  0.49956519  0.74969963  0.50072430  1
  Co  Co105  1  0.24910216  0.49783807  0.49632603  1
  Co  Co106  1  0.62811850  0.12618937  0.62791185  1
  Co  Co107  1  0.49799168  0.49354598  0.24883726  1
  Co  Co108  1  0.00369242  0.24986855  0.74993262  1
  Co  Co109  1  0.37279225  0.37224845  0.87556567  1
  Co  Co110  1  0.87080881  0.62373785  0.62615773  1
  Co  Co111  1  0.74763806  0.00144093  0.25140881  1
  Co  Co112  1  0.62474505  0.61788252  0.12441685  1
  Co  Co113  1  0.13120775  0.62572674  0.62355814  1
  Co  Co114  1  -0.00344536  0.25265874  0.24881847  1
  Co  Co115  1  0.25055332  0.24860778  0.49987459  1
  Co  Co116  1  0.88158105  0.37617963  0.87138234  1
  Co  Co117  1  0.38085912  0.87851325  0.37300180  1
  Co  Co118  1  0.37374207  0.12546975  0.37034966  1
  Co  Co119  1  0.61984033  0.37614052  0.87566559  1
  Co  Co120  1  0.62621036  0.87777827  0.12423878  1
  Co  Co121  1  0.00051588  0.00178455  0.00644109  1
  Co  Co122  1  0.74991079  0.25460204  0.75403943  1
  Co  Co123  1  0.87791847  0.12223158  0.87099272  1
  Co  Co124  1  0.24754854  -0.00228031  0.25019039  1
  Co  Co125  1  0.25269849  0.75166511  0.49442247  1
  Co  Co126  1  0.87203178  0.37443864  0.12347186  1
  Co  Co127  1  0.37785622  0.62877428  0.87503845  1
