# generated using pymatgen
data_Fe45Co19
_symmetry_space_group_name_H-M   'P 1'
_cell_length_a   11.42258125
_cell_length_b   11.42231776
_cell_length_c   11.42342607
_cell_angle_alpha   89.99956283
_cell_angle_beta   89.99903030
_cell_angle_gamma   90.00333259
_symmetry_Int_Tables_number   1
_chemical_formula_structural   Fe45Co19
_chemical_formula_sum   'Fe90 Co38'
_cell_volume   1490.44127265
_cell_formula_units_Z   2
loop_
 _symmetry_equiv_pos_site_id
 _symmetry_equiv_pos_as_xyz
  1  'x, y, z'
loop_
 _atom_site_type_symbol
 _atom_site_label
 _atom_site_symmetry_multiplicity
 _atom_site_fract_x
 _atom_site_fract_y
 _atom_site_fract_z
 _atom_site_occupancy
  Fe  Fe0  1  0.75114617  0.49950620  0.25008381  1
  Fe  Fe1  1  0.37109749  0.87544555  0.87585050  1
  Fe  Fe2  1  0.87765076  0.12565304  0.37563833  1
  Fe  Fe3  1  0.12721432  0.87573633  0.37234267  1
  Fe  Fe4  1  0.49679034  0.00124744  0.75106546  1
  Fe  Fe5  1  0.87547439  0.87413005  0.12462680  1
  Fe  Fe6  1  0.87903498  0.62350947  0.12430565  1
  Fe  Fe7  1  0.49919035  0.00007310  0.24910146  1
  Fe  Fe8  1  0.75048968  0.00070199  0.00099105  1
  Fe  Fe9  1  0.75058289  0.74776046  -0.00060250  1
  Fe  Fe10  1  0.87539053  0.87569308  0.37550805  1
  Fe  Fe11  1  0.12610934  0.62433472  0.37443783  1
  Fe  Fe12  1  0.87865605  0.12768741  0.12364361  1
  Fe  Fe13  1  0.12223131  0.12177749  0.62755275  1
  Fe  Fe14  1  0.00426988  0.49608328  -0.00252271  1
  Fe  Fe15  1  0.37442386  0.12696692  0.37321580  1
  Fe  Fe16  1  0.62491207  0.87510890  0.37548118  1
  Fe  Fe17  1  0.62430125  0.62475634  0.12337859  1
  Fe  Fe18  1  0.62433226  0.62432008  0.62549670  1
  Fe  Fe19  1  0.24862247  0.24835787  0.50126838  1
  Fe  Fe20  1  0.49773548  0.75006514  0.24812102  1
  Fe  Fe21  1  0.87765578  0.62436944  0.62417428  1
  Fe  Fe22  1  0.00300271  0.25333782  0.49786337  1
  Fe  Fe23  1  0.75210297  0.74843535  0.75086051  1
  Fe  Fe24  1  0.87725632  0.37355285  0.12348219  1
  Fe  Fe25  1  0.24806862  -0.00023858  0.50009278  1
  Fe  Fe26  1  0.75171895  0.24766927  0.74782283  1
  Fe  Fe27  1  0.62430124  0.12555909  0.87464213  1
  Fe  Fe28  1  0.49737867  0.49852645  0.24870094  1
  Fe  Fe29  1  0.62640803  0.37485880  0.12403122  1
  Fe  Fe30  1  0.75078592  0.49957149  0.50008406  1
  Fe  Fe31  1  0.37230168  0.87595744  0.12452614  1
  Fe  Fe32  1  0.49796108  0.00004468  0.50024202  1
  Fe  Fe33  1  0.00225085  0.75052749  0.24892224  1
  Fe  Fe34  1  0.37065233  0.62314502  0.12162056  1
  Fe  Fe35  1  0.62433436  0.37285683  0.62411541  1
  Fe  Fe36  1  0.62273132  0.12837116  0.37666256  1
  Fe  Fe37  1  0.49811331  0.74737159  0.75119406  1
  Fe  Fe38  1  0.37127563  0.37532875  0.62717293  1
  Fe  Fe39  1  0.24939261  0.50129196  0.75339369  1
  Fe  Fe40  1  0.24777425  0.00286149  -0.00135491  1
  Fe  Fe41  1  0.12680767  0.87720358  0.12634812  1
  Fe  Fe42  1  0.00129868  0.49983135  0.75045153  1
  Fe  Fe43  1  0.24828599  0.74947651  0.75148726  1
  Fe  Fe44  1  0.37131039  0.87397479  0.62497867  1
  Fe  Fe45  1  0.62473164  0.87618236  0.62633505  1
  Fe  Fe46  1  0.87906241  0.12631749  0.87822777  1
  Fe  Fe47  1  0.87815710  0.87685544  0.62307992  1
  Fe  Fe48  1  0.50039065  0.25138805  0.00103464  1
  Fe  Fe49  1  0.75241213  0.25112719  0.25038308  1
  Fe  Fe50  1  0.00137389  0.25094812  0.75075296  1
  Fe  Fe51  1  0.37157575  0.87329827  0.37403158  1
  Fe  Fe52  1  0.37321340  0.37381972  0.87622734  1
  Fe  Fe53  1  0.00454965  0.75162472  -0.00120429  1
  Fe  Fe54  1  0.62332652  0.62482194  0.37500160  1
  Fe  Fe55  1  0.62426057  0.37227622  0.37632435  1
  Fe  Fe56  1  0.87632279  0.87490443  0.87710526  1
  Fe  Fe57  1  0.75097694  0.50096953  0.75108158  1
  Fe  Fe58  1  0.37186698  0.37249494  0.37293935  1
  Fe  Fe59  1  0.75025281  0.00026504  0.24890994  1
  Fe  Fe60  1  0.75334285  0.00385146  0.74777147  1
  Fe  Fe61  1  0.75058047  0.00411217  0.50303107  1
  Fe  Fe62  1  0.12706045  0.62199533  0.12352633  1
  Fe  Fe63  1  0.24419745  0.25003327  -0.00152736  1
  Fe  Fe64  1  0.49808424  0.24966004  0.75006167  1
  Fe  Fe65  1  0.62476211  0.12588815  0.12510371  1
  Fe  Fe66  1  0.62579471  0.87529172  0.87451068  1
  Fe  Fe67  1  0.49616580  0.49943993  0.50037961  1
  Fe  Fe68  1  0.49880081  0.74964183  -0.00101785  1
  Fe  Fe69  1  0.00364010  0.75145567  0.50003482  1
  Fe  Fe70  1  0.37385238  0.12668910  0.12429794  1
  Fe  Fe71  1  0.49712159  0.74830585  0.50137350  1
  Fe  Fe72  1  0.25039273  0.50097436  0.49898668  1
  Fe  Fe73  1  0.24879126  0.24631509  0.75170668  1
  Fe  Fe74  1  0.75077425  0.74945455  0.50062312  1
  Fe  Fe75  1  0.49954940  -0.00016377  -0.00027585  1
  Fe  Fe76  1  0.12125409  0.12596223  0.12749340  1
  Fe  Fe77  1  0.87732458  0.37493422  0.62298971  1
  Fe  Fe78  1  0.36993641  0.37456580  0.12410143  1
  Fe  Fe79  1  0.12573246  0.62366151  0.62499005  1
  Fe  Fe80  1  0.75134186  0.50094323  -0.00150902  1
  Fe  Fe81  1  0.75056745  0.74928224  0.24924660  1
  Fe  Fe82  1  0.62563304  0.37468231  0.87573153  1
  Fe  Fe83  1  0.87587613  0.37396443  0.87562025  1
  Fe  Fe84  1  0.00264828  0.49577322  0.25223431  1
  Fe  Fe85  1  0.12417172  0.12476620  0.37153222  1
  Fe  Fe86  1  0.37480108  0.12478797  0.62505753  1
  Fe  Fe87  1  0.49867467  0.50149485  0.75237258  1
  Fe  Fe88  1  0.87761037  0.62372991  0.37518194  1
  Fe  Fe89  1  0.00178709  0.75134329  0.75134579  1
  Co  Co90  1  0.88310672  0.12676434  0.62310764  1
  Co  Co91  1  0.13002140  0.37472862  0.37508253  1
  Co  Co92  1  0.25265242  0.00255961  0.75043145  1
  Co  Co93  1  0.37408553  0.62628670  0.37359932  1
  Co  Co94  1  0.49898525  0.25132894  0.24737334  1
  Co  Co95  1  0.12763986  0.37537883  0.62635938  1
  Co  Co96  1  -0.00149142  -0.00168155  0.24925461  1
  Co  Co97  1  0.62047300  0.12623481  0.62518549  1
  Co  Co98  1  0.75207553  0.24827874  0.50193529  1
  Co  Co99  1  0.24916305  0.74865815  0.24796400  1
  Co  Co100  1  0.24778301  0.74942619  0.50029776  1
  Co  Co101  1  -0.00329819  -0.00166259  0.75215857  1
  Co  Co102  1  -0.00022383  0.25399814  0.25217167  1
  Co  Co103  1  0.24823833  0.24868758  0.24886000  1
  Co  Co104  1  0.24694951  0.75187255  -0.00014334  1
  Co  Co105  1  0.49878644  0.49841609  0.00042348  1
  Co  Co106  1  0.62447741  0.62455336  0.87606267  1
  Co  Co107  1  0.00328578  0.49856398  0.49981138  1
  Co  Co108  1  0.12550102  0.62505856  0.87594506  1
  Co  Co109  1  0.62480597  0.87413624  0.12399308  1
  Co  Co110  1  0.12666771  0.37508068  0.12799740  1
  Co  Co111  1  0.00559609  0.25299964  -0.00148624  1
  Co  Co112  1  0.12167892  0.12163553  0.87285857  1
  Co  Co113  1  0.49500743  0.25171359  0.50155714  1
  Co  Co114  1  0.00142299  -0.00164892  0.00150944  1
  Co  Co115  1  0.24639409  0.49621379  -0.00311903  1
  Co  Co116  1  0.87906908  0.62447879  0.87612184  1
  Co  Co117  1  0.87430841  0.37625098  0.37717738  1
  Co  Co118  1  0.25087657  0.00163259  0.24914890  1
  Co  Co119  1  0.00335025  -0.00079969  0.49745062  1
  Co  Co120  1  0.37201315  0.62464389  0.87852746  1
  Co  Co121  1  0.12560372  0.37426178  0.87077613  1
  Co  Co122  1  0.37208689  0.62414759  0.62645861  1
  Co  Co123  1  0.24997712  0.50093271  0.25102320  1
  Co  Co124  1  0.12691289  0.87915605  0.87296025  1
  Co  Co125  1  0.74974671  0.24965648  -0.00016986  1
  Co  Co126  1  0.12577003  0.87794720  0.62768825  1
  Co  Co127  1  0.37493284  0.12718087  0.87794282  1
