# generated using pymatgen
data_Fe45Co19
_symmetry_space_group_name_H-M   'P 1'
_cell_length_a   11.41460831
_cell_length_b   11.41288442
_cell_length_c   11.41444619
_cell_angle_alpha   90.01684214
_cell_angle_beta   90.00564494
_cell_angle_gamma   90.00029394
_symmetry_Int_Tables_number   1
_chemical_formula_structural   Fe45Co19
_chemical_formula_sum   'Fe90 Co38'
_cell_volume   1487.00098663
_cell_formula_units_Z   2
loop_
 _symmetry_equiv_pos_site_id
 _symmetry_equiv_pos_as_xyz
  1  'x, y, z'
loop_
 _atom_site_type_symbol
 _atom_site_label
 _atom_site_symmetry_multiplicity
 _atom_site_fract_x
 _atom_site_fract_y
 _atom_site_fract_z
 _atom_site_occupancy
  Fe  Fe0  1  0.37526473  0.62608138  0.12642510  1
  Fe  Fe1  1  0.37619324  0.13248196  0.87900017  1
  Fe  Fe2  1  0.50003692  0.24940307  0.25211546  1
  Fe  Fe3  1  0.87449211  0.62332678  0.37567913  1
  Fe  Fe4  1  0.00137665  0.50029779  -0.00000145  1
  Fe  Fe5  1  0.12589651  0.12572129  0.62500021  1
  Fe  Fe6  1  0.50096029  0.50136882  0.25005389  1
  Fe  Fe7  1  0.74828924  0.50036267  0.50255142  1
  Fe  Fe8  1  0.00045451  0.25094469  -0.00032439  1
  Fe  Fe9  1  0.25061186  0.25213680  0.49736687  1
  Fe  Fe10  1  0.74882529  0.74775164  0.24962213  1
  Fe  Fe11  1  0.25248770  0.75076770  -0.00082865  1
  Fe  Fe12  1  0.87646106  0.87486532  0.62689564  1
  Fe  Fe13  1  0.49937020  0.00170692  0.75053648  1
  Fe  Fe14  1  0.75142170  0.25367864  0.25046353  1
  Fe  Fe15  1  0.00148314  0.50186285  0.75077429  1
  Fe  Fe16  1  0.25249482  0.00172753  0.75280109  1
  Fe  Fe17  1  0.00054264  0.24845911  0.75067824  1
  Fe  Fe18  1  0.49863278  0.49943499  0.50740717  1
  Fe  Fe19  1  0.24974797  0.75005497  0.49898620  1
  Fe  Fe20  1  -0.00242455  0.49721008  0.25102453  1
  Fe  Fe21  1  0.62559307  0.12425698  0.87415241  1
  Fe  Fe22  1  0.62430732  0.37603430  0.37679450  1
  Fe  Fe23  1  0.50008603  0.74843679  -0.00080148  1
  Fe  Fe24  1  0.74918837  0.74786535  0.74874480  1
  Fe  Fe25  1  0.12732784  0.62208276  0.37287914  1
  Fe  Fe26  1  0.12665172  0.62501821  0.12494804  1
  Fe  Fe27  1  0.37311940  0.62201289  0.37480640  1
  Fe  Fe28  1  0.62340804  0.87481520  0.12625924  1
  Fe  Fe29  1  0.62301654  0.38175348  0.86733912  1
  Fe  Fe30  1  0.25323289  0.25103041  0.24938896  1
  Fe  Fe31  1  0.75003911  0.24982183  0.75089244  1
  Fe  Fe32  1  0.74756997  0.74780026  0.00133668  1
  Fe  Fe33  1  -0.00084615  -0.00075116  0.24808794  1
  Fe  Fe34  1  0.12582762  0.87392178  0.87663046  1
  Fe  Fe35  1  0.74938634  0.25040899  0.50070306  1
  Fe  Fe36  1  0.12535413  0.87427020  0.62740554  1
  Fe  Fe37  1  0.37869882  0.37230723  0.12315479  1
  Fe  Fe38  1  0.49896115  0.74654198  0.74897646  1
  Fe  Fe39  1  0.00143567  0.74993804  0.49898448  1
  Fe  Fe40  1  0.62409074  0.62708991  0.37955564  1
  Fe  Fe41  1  0.75102161  -0.00072596  -0.00143006  1
  Fe  Fe42  1  0.62395163  0.87142126  0.62254762  1
  Fe  Fe43  1  0.87677297  0.62505110  0.62383965  1
  Fe  Fe44  1  0.25354698  0.00141485  0.00230541  1
  Fe  Fe45  1  0.49952902  0.25100831  0.50037136  1
  Fe  Fe46  1  0.24956656  -0.00025231  0.50042563  1
  Fe  Fe47  1  -0.00092641  0.00125236  0.75227745  1
  Fe  Fe48  1  0.87422842  0.12329744  0.62606776  1
  Fe  Fe49  1  0.37367548  0.87325303  0.62753292  1
  Fe  Fe50  1  0.62650875  0.37935587  0.12646767  1
  Fe  Fe51  1  -0.00354238  0.25321634  0.25184693  1
  Fe  Fe52  1  0.62361781  0.87398349  0.87390854  1
  Fe  Fe53  1  0.37454812  0.12755860  0.62433709  1
  Fe  Fe54  1  0.62525088  0.12505505  0.62541370  1
  Fe  Fe55  1  0.12386058  0.37449993  0.12743416  1
  Fe  Fe56  1  0.25231445  0.00285493  0.24573908  1
  Fe  Fe57  1  0.25202715  0.49968611  0.74802658  1
  Fe  Fe58  1  0.74817334  -0.00229633  0.49924022  1
  Fe  Fe59  1  -0.00059435  0.74971680  0.24733708  1
  Fe  Fe60  1  0.49962741  0.00174404  0.25154188  1
  Fe  Fe61  1  0.62418105  0.12546718  0.12519033  1
  Fe  Fe62  1  -0.00244375  -0.00044307  0.00104809  1
  Fe  Fe63  1  0.37412090  0.62340097  0.87238174  1
  Fe  Fe64  1  0.12580774  0.87500240  0.37310987  1
  Fe  Fe65  1  0.12558514  0.87357913  0.12369739  1
  Fe  Fe66  1  0.50105933  0.50023759  -0.00159662  1
  Fe  Fe67  1  0.87389003  0.37686684  0.87555607  1
  Fe  Fe68  1  0.37350101  0.87642230  0.37308350  1
  Fe  Fe69  1  0.12480711  0.37380465  0.62483301  1
  Fe  Fe70  1  0.87469374  0.12686420  0.12299329  1
  Fe  Fe71  1  0.12526678  0.12648224  0.37343339  1
  Fe  Fe72  1  0.87485317  0.87326420  0.87500886  1
  Fe  Fe73  1  0.49924112  0.74987483  0.25160720  1
  Fe  Fe74  1  0.25128668  0.49704316  0.50078446  1
  Fe  Fe75  1  0.00181499  0.49763837  0.49825775  1
  Fe  Fe76  1  0.25221892  0.49702468  0.00223868  1
  Fe  Fe77  1  0.50117327  -0.00079705  0.49751735  1
  Fe  Fe78  1  0.00054107  0.00042000  0.49991943  1
  Fe  Fe79  1  0.74730394  0.25343414  -0.00154098  1
  Fe  Fe80  1  0.00475355  0.74591125  0.75236677  1
  Fe  Fe81  1  0.12557032  0.12493942  0.87775432  1
  Fe  Fe82  1  0.87178861  0.62053032  0.12364215  1
  Fe  Fe83  1  0.87561220  0.37468664  0.62453729  1
  Fe  Fe84  1  0.87435820  0.12588165  0.37675554  1
  Fe  Fe85  1  0.87425413  0.87462924  0.37352209  1
  Fe  Fe86  1  0.74874901  0.00033944  0.25122669  1
  Fe  Fe87  1  0.49808257  -0.00070968  -0.00010186  1
  Fe  Fe88  1  0.87360719  0.62372513  0.87667800  1
  Fe  Fe89  1  0.12755872  0.37612440  0.87418530  1
  Co  Co90  1  0.37160096  0.62795744  0.62506927  1
  Co  Co91  1  0.50128536  0.24890197  0.74992668  1
  Co  Co92  1  0.12858721  0.62309027  0.87824321  1
  Co  Co93  1  0.62518497  0.62874991  0.62270968  1
  Co  Co94  1  0.87340181  0.37782047  0.12166531  1
  Co  Co95  1  0.74826224  -0.00208392  0.74986435  1
  Co  Co96  1  0.12605349  0.37464423  0.37337451  1
  Co  Co97  1  0.37948690  0.13004327  0.12116887  1
  Co  Co98  1  0.37763034  0.37730828  0.37472466  1
  Co  Co99  1  0.75408624  0.75062389  0.50009774  1
  Co  Co100  1  0.37565299  0.37366029  0.87393691  1
  Co  Co101  1  0.37439966  0.37035475  0.62831785  1
  Co  Co102  1  0.62537549  0.12739501  0.37504629  1
  Co  Co103  1  0.50770974  0.25471238  -0.00236034  1
  Co  Co104  1  0.62445502  0.62402183  0.12508730  1
  Co  Co105  1  0.62538712  0.87170382  0.37538186  1
  Co  Co106  1  0.37578359  0.87363150  0.87294142  1
  Co  Co107  1  0.37459837  0.12457592  0.37629428  1
  Co  Co108  1  0.12588488  0.62334153  0.62261434  1
  Co  Co109  1  0.12253394  0.12616047  0.12635955  1
  Co  Co110  1  0.37670501  0.87391045  0.12635975  1
  Co  Co111  1  0.75187965  0.50289036  0.74617480  1
  Co  Co112  1  0.49404591  0.75064294  0.49837955  1
  Co  Co113  1  0.62417232  0.62252362  0.87187733  1
  Co  Co114  1  0.74590002  0.49972200  -0.00174872  1
  Co  Co115  1  0.00101633  0.24906061  0.50034171  1
  Co  Co116  1  0.74881815  0.50024833  0.25392046  1
  Co  Co117  1  0.24833167  0.24916748  0.75149808  1
  Co  Co118  1  0.49666832  0.50254480  0.74392251  1
  Co  Co119  1  0.25041398  0.74926452  0.25023021  1
  Co  Co120  1  0.87290436  0.37548190  0.37932572  1
  Co  Co121  1  0.87251628  0.87480774  0.12490873  1
  Co  Co122  1  0.24670008  0.25223626  0.00227018  1
  Co  Co123  1  0.24688446  0.74862504  0.75100457  1
  Co  Co124  1  0.62584819  0.37443926  0.62757814  1
  Co  Co125  1  0.87371245  0.12573706  0.87587917  1
  Co  Co126  1  -0.00137342  0.74806167  0.00117546  1
  Co  Co127  1  0.25203370  0.49698275  0.24665318  1
