# generated using pymatgen
data_Fe45Co19
_symmetry_space_group_name_H-M   'P 1'
_cell_length_a   11.41501602
_cell_length_b   11.41522055
_cell_length_c   11.41490252
_cell_angle_alpha   90.00096437
_cell_angle_beta   89.99089716
_cell_angle_gamma   90.00563703
_symmetry_Int_Tables_number   1
_chemical_formula_structural   Fe45Co19
_chemical_formula_sum   'Fe90 Co38'
_cell_volume   1487.41799653
_cell_formula_units_Z   2
loop_
 _symmetry_equiv_pos_site_id
 _symmetry_equiv_pos_as_xyz
  1  'x, y, z'
loop_
 _atom_site_type_symbol
 _atom_site_label
 _atom_site_symmetry_multiplicity
 _atom_site_fract_x
 _atom_site_fract_y
 _atom_site_fract_z
 _atom_site_occupancy
  Fe  Fe0  1  0.62567532  0.12583130  0.87476636  1
  Fe  Fe1  1  -0.00107367  0.74986545  0.24891097  1
  Fe  Fe2  1  0.25127058  0.74962373  0.24911435  1
  Fe  Fe3  1  0.74912932  -0.00182724  0.50130649  1
  Fe  Fe4  1  0.62419024  0.87477641  0.37339837  1
  Fe  Fe5  1  0.25186149  0.25109097  0.75168904  1
  Fe  Fe6  1  0.87624310  0.62374082  0.37594426  1
  Fe  Fe7  1  0.87613225  0.37346286  0.12702557  1
  Fe  Fe8  1  0.62312113  0.12567161  0.62473344  1
  Fe  Fe9  1  0.37599349  0.62148159  0.37611949  1
  Fe  Fe10  1  0.49979655  0.00187338  0.24953737  1
  Fe  Fe11  1  -0.00105943  0.49837289  -0.00083797  1
  Fe  Fe12  1  0.87358871  0.12532762  0.62460632  1
  Fe  Fe13  1  0.87135399  0.37662778  0.62714517  1
  Fe  Fe14  1  0.62623656  0.62423501  0.87908154  1
  Fe  Fe15  1  0.37378430  0.12450197  0.12308597  1
  Fe  Fe16  1  0.75199265  -0.00009312  0.00188135  1
  Fe  Fe17  1  0.87427747  0.87522992  0.87417227  1
  Fe  Fe18  1  0.50003289  0.74648083  0.24723361  1
  Fe  Fe19  1  0.74828662  0.74802725  0.74981839  1
  Fe  Fe20  1  0.62499789  0.37458661  0.12616826  1
  Fe  Fe21  1  0.87497237  0.62412186  0.87789913  1
  Fe  Fe22  1  0.62449880  0.12511303  0.12426217  1
  Fe  Fe23  1  0.62333101  0.12732219  0.37630019  1
  Fe  Fe24  1  0.24894444  0.75074692  0.00093125  1
  Fe  Fe25  1  0.75208289  0.00216163  0.24759675  1
  Fe  Fe26  1  0.37707661  0.87517499  0.37512214  1
  Fe  Fe27  1  0.50018142  0.49923938  0.00203782  1
  Fe  Fe28  1  0.25165598  -0.00121857  0.50089378  1
  Fe  Fe29  1  -0.00015911  0.74661937  0.74948833  1
  Fe  Fe30  1  0.37451514  0.62477501  0.87715921  1
  Fe  Fe31  1  0.62042580  0.37340721  0.37195045  1
  Fe  Fe32  1  -0.00015394  0.00041712  0.74992543  1
  Fe  Fe33  1  0.49983878  0.25231861  0.74878872  1
  Fe  Fe34  1  0.37518165  0.37514848  0.12672295  1
  Fe  Fe35  1  0.74935418  0.50046070  0.24896762  1
  Fe  Fe36  1  0.62698969  0.37494246  0.87299662  1
  Fe  Fe37  1  0.75121471  0.75021235  0.00460424  1
  Fe  Fe38  1  0.24849274  -0.00064018  -0.00108817  1
  Fe  Fe39  1  0.88258046  0.12819235  0.12332917  1
  Fe  Fe40  1  0.75056323  0.74828760  0.24622603  1
  Fe  Fe41  1  0.50026691  0.50079172  0.75018550  1
  Fe  Fe42  1  0.87427985  0.87412393  0.37452730  1
  Fe  Fe43  1  0.25017400  0.49940987  -0.00170690  1
  Fe  Fe44  1  0.37694473  0.87352071  0.62651212  1
  Fe  Fe45  1  0.37681619  0.87693035  0.12386255  1
  Fe  Fe46  1  0.49939745  0.75005299  0.00146164  1
  Fe  Fe47  1  0.24817087  0.25142701  -0.00093761  1
  Fe  Fe48  1  0.12477450  0.12281616  0.37396318  1
  Fe  Fe49  1  0.37210596  0.37782929  0.62411442  1
  Fe  Fe50  1  -0.00262254  0.25033463  0.75093576  1
  Fe  Fe51  1  0.12418681  0.12535029  0.87497500  1
  Fe  Fe52  1  0.25089167  0.25123969  0.49888943  1
  Fe  Fe53  1  0.62364995  0.62387109  0.37591948  1
  Fe  Fe54  1  0.62263400  0.87321205  0.62451296  1
  Fe  Fe55  1  0.87427716  0.62472278  0.62227328  1
  Fe  Fe56  1  0.12490543  0.87590822  0.37421580  1
  Fe  Fe57  1  -0.00130023  -0.00160635  0.50018997  1
  Fe  Fe58  1  0.25090028  0.50078240  0.25064257  1
  Fe  Fe59  1  0.75257834  0.25029201  -0.00107712  1
  Fe  Fe60  1  0.62422227  0.87480833  0.87774676  1
  Fe  Fe61  1  0.12487719  0.62350591  0.12414310  1
  Fe  Fe62  1  0.37784563  0.12709690  0.37689230  1
  Fe  Fe63  1  0.12416243  0.87271604  0.62467682  1
  Fe  Fe64  1  0.12411722  0.37327843  0.12506135  1
  Fe  Fe65  1  0.87152734  0.37747130  0.87100572  1
  Fe  Fe66  1  0.12723641  0.37491714  0.37596546  1
  Fe  Fe67  1  0.87392711  0.12831204  0.37638974  1
  Fe  Fe68  1  0.37556072  0.12370952  0.62516107  1
  Fe  Fe69  1  0.25074735  0.74741195  0.75162527  1
  Fe  Fe70  1  0.37445678  0.12400193  0.87490461  1
  Fe  Fe71  1  0.87477926  0.37442825  0.37448415  1
  Fe  Fe72  1  0.37611273  0.62466586  0.62313065  1
  Fe  Fe73  1  0.00089246  0.49942382  0.24977214  1
  Fe  Fe74  1  0.00377647  0.49917235  0.50377837  1
  Fe  Fe75  1  0.49948061  0.25013393  -0.00036568  1
  Fe  Fe76  1  0.74996990  -0.00013542  0.74941964  1
  Fe  Fe77  1  0.24899352  0.24778512  0.24944674  1
  Fe  Fe78  1  0.12376880  0.62588020  0.37637970  1
  Fe  Fe79  1  0.00076433  0.75121109  0.00180401  1
  Fe  Fe80  1  0.75017294  0.75060985  0.49996281  1
  Fe  Fe81  1  0.25002244  0.74911588  0.49885645  1
  Fe  Fe82  1  0.12370949  0.87999928  0.12875391  1
  Fe  Fe83  1  0.74621241  0.25347793  0.50141366  1
  Fe  Fe84  1  0.62391423  0.62338651  0.62151242  1
  Fe  Fe85  1  0.12584388  0.12659888  0.62565894  1
  Fe  Fe86  1  0.49891209  -0.00256916  0.75256569  1
  Fe  Fe87  1  0.12573385  0.37870898  0.86987417  1
  Fe  Fe88  1  0.00109237  0.25221773  0.50076585  1
  Fe  Fe89  1  0.12591818  0.87438909  0.87273932  1
  Co  Co90  1  0.25112640  0.50371089  0.75013486  1
  Co  Co91  1  0.49963110  0.00135074  -0.00178719  1
  Co  Co92  1  0.87612578  0.62295994  0.12499336  1
  Co  Co93  1  0.50001029  0.50245722  0.24809032  1
  Co  Co94  1  0.87499067  0.87405123  0.62674254  1
  Co  Co95  1  0.62306177  0.87561690  0.12565062  1
  Co  Co96  1  0.74861834  0.50592496  0.75077801  1
  Co  Co97  1  0.49857153  0.24779217  0.24741026  1
  Co  Co98  1  -0.00327387  0.00148723  0.25338930  1
  Co  Co99  1  -0.00073902  0.75089371  0.49956529  1
  Co  Co100  1  -0.00051245  0.50282774  0.74717455  1
  Co  Co101  1  0.50061524  0.49608719  0.50023392  1
  Co  Co102  1  0.37624381  0.37633745  0.87531175  1
  Co  Co103  1  0.49975088  0.74958649  0.49866769  1
  Co  Co104  1  0.87630699  0.87550763  0.12572468  1
  Co  Co105  1  0.37302927  0.62375930  0.12317215  1
  Co  Co106  1  0.24778720  0.50051050  0.49973722  1
  Co  Co107  1  0.37487067  0.87384574  0.87546796  1
  Co  Co108  1  0.12803792  0.37318418  0.62843992  1
  Co  Co109  1  0.50160488  0.74812204  0.75212844  1
  Co  Co110  1  0.50037113  0.25432203  0.50365717  1
  Co  Co111  1  0.12626845  0.62687590  0.62444742  1
  Co  Co112  1  0.74855343  0.49785018  0.49722462  1
  Co  Co113  1  0.00269734  0.25022941  0.25280390  1
  Co  Co114  1  0.00125866  -0.00259451  -0.00284791  1
  Co  Co115  1  0.12137239  0.12425954  0.12420067  1
  Co  Co116  1  0.75039765  0.24929509  0.24879691  1
  Co  Co117  1  0.87493911  0.12300298  0.87589007  1
  Co  Co118  1  0.62651074  0.62405232  0.12330087  1
  Co  Co119  1  0.50011345  -0.00112064  0.49995219  1
  Co  Co120  1  0.25278095  0.00170809  0.25054244  1
  Co  Co121  1  0.75130005  0.49735218  0.00170702  1
  Co  Co122  1  0.62808809  0.37747878  0.62944083  1
  Co  Co123  1  0.24953363  -0.00110245  0.74940391  1
  Co  Co124  1  0.74996731  0.24695347  0.75007684  1
  Co  Co125  1  0.12475452  0.62334841  0.87695988  1
  Co  Co126  1  0.37579653  0.37504490  0.37256912  1
  Co  Co127  1  0.00023916  0.25460234  -0.00515049  1
