# generated using pymatgen
data_Fe45Co19
_symmetry_space_group_name_H-M   'P 1'
_cell_length_a   11.41480325
_cell_length_b   11.41325520
_cell_length_c   11.41420136
_cell_angle_alpha   90.00921652
_cell_angle_beta   90.00193352
_cell_angle_gamma   89.99236605
_symmetry_Int_Tables_number   1
_chemical_formula_structural   Fe45Co19
_chemical_formula_sum   'Fe90 Co38'
_cell_volume   1487.04283434
_cell_formula_units_Z   2
loop_
 _symmetry_equiv_pos_site_id
 _symmetry_equiv_pos_as_xyz
  1  'x, y, z'
loop_
 _atom_site_type_symbol
 _atom_site_label
 _atom_site_symmetry_multiplicity
 _atom_site_fract_x
 _atom_site_fract_y
 _atom_site_fract_z
 _atom_site_occupancy
  Fe  Fe0  1  0.62504886  0.12616492  0.12650512  1
  Fe  Fe1  1  0.25152261  0.49878556  0.25014530  1
  Fe  Fe2  1  0.12159732  0.87352221  0.62553587  1
  Fe  Fe3  1  0.12610263  0.87614793  0.37330634  1
  Fe  Fe4  1  0.74905095  0.25160825  0.50420397  1
  Fe  Fe5  1  0.37276757  0.12591545  0.37295041  1
  Fe  Fe6  1  0.00251816  0.24647547  0.49331924  1
  Fe  Fe7  1  0.24704542  0.24950015  0.49711175  1
  Fe  Fe8  1  0.37638767  0.87647578  0.62527234  1
  Fe  Fe9  1  0.87685539  0.87419632  0.12397241  1
  Fe  Fe10  1  0.00107081  0.50100893  0.74814913  1
  Fe  Fe11  1  0.75059803  0.25078052  0.00002100  1
  Fe  Fe12  1  -0.00006420  0.25059433  0.75230058  1
  Fe  Fe13  1  0.62734677  0.37687820  0.87473834  1
  Fe  Fe14  1  0.50171879  0.24995535  0.49832080  1
  Fe  Fe15  1  0.50029060  0.24917388  0.75127925  1
  Fe  Fe16  1  0.74982294  -0.00068748  0.00167259  1
  Fe  Fe17  1  0.37408846  0.87416739  0.37437264  1
  Fe  Fe18  1  0.74925567  0.74694253  0.00158856  1
  Fe  Fe19  1  0.25009075  0.74956957  0.49892529  1
  Fe  Fe20  1  0.12350528  0.12795045  0.12971188  1
  Fe  Fe21  1  0.62307089  0.87541409  0.62659246  1
  Fe  Fe22  1  0.49866224  0.25412590  0.25185547  1
  Fe  Fe23  1  0.37558003  0.37506084  0.62285943  1
  Fe  Fe24  1  0.24723020  0.00144975  0.75033224  1
  Fe  Fe25  1  0.87770144  0.12602990  0.62374019  1
  Fe  Fe26  1  0.50305574  0.49835242  0.49668047  1
  Fe  Fe27  1  0.62862415  0.12590682  0.37310841  1
  Fe  Fe28  1  0.12697623  0.37644089  0.87677374  1
  Fe  Fe29  1  0.62357633  0.62418880  0.62670890  1
  Fe  Fe30  1  0.37677817  0.62420584  0.37368486  1
  Fe  Fe31  1  0.62592701  0.87391207  0.87379303  1
  Fe  Fe32  1  0.74815934  0.50272589  0.00391810  1
  Fe  Fe33  1  0.12210997  0.37452305  0.62202325  1
  Fe  Fe34  1  0.75075910  -0.00047032  0.50281749  1
  Fe  Fe35  1  0.75157283  0.49831722  0.24714296  1
  Fe  Fe36  1  0.00095413  0.50143325  0.00096962  1
  Fe  Fe37  1  0.62562152  0.12488392  0.87351782  1
  Fe  Fe38  1  0.12266872  0.62536158  0.12862594  1
  Fe  Fe39  1  0.12147398  0.37299411  0.12982072  1
  Fe  Fe40  1  0.12775688  0.62385318  0.87331297  1
  Fe  Fe41  1  0.50065935  0.74988816  0.49832101  1
  Fe  Fe42  1  0.24684725  0.00157331  0.50118869  1
  Fe  Fe43  1  0.37326815  0.87445096  0.87530060  1
  Fe  Fe44  1  0.37960194  0.62346348  0.12736740  1
  Fe  Fe45  1  0.75399207  0.49881356  0.74634139  1
  Fe  Fe46  1  0.87442644  0.37723195  0.87611064  1
  Fe  Fe47  1  0.50073652  0.00154577  0.49976345  1
  Fe  Fe48  1  0.50145874  -0.00152581  0.24923798  1
  Fe  Fe49  1  0.74995659  0.00167858  0.74809553  1
  Fe  Fe50  1  0.87672313  0.87400004  0.87335786  1
  Fe  Fe51  1  0.87535755  0.12521669  0.12505208  1
  Fe  Fe52  1  0.75361680  0.25286451  0.24773345  1
  Fe  Fe53  1  -0.00442856  0.49960540  0.25208873  1
  Fe  Fe54  1  0.50024621  0.25039805  -0.00114648  1
  Fe  Fe55  1  0.37143188  0.37881530  0.87737250  1
  Fe  Fe56  1  0.24706625  0.49949885  0.49981223  1
  Fe  Fe57  1  0.87383977  0.37752669  0.37977208  1
  Fe  Fe58  1  0.49672701  0.50167044  0.75418072  1
  Fe  Fe59  1  0.62633336  0.87601374  0.37464536  1
  Fe  Fe60  1  0.37750668  0.87140213  0.12502322  1
  Fe  Fe61  1  0.62407361  0.37529839  0.62663528  1
  Fe  Fe62  1  0.87298219  0.87547496  0.37624538  1
  Fe  Fe63  1  0.24844511  0.25129675  0.74972369  1
  Fe  Fe64  1  0.24963567  0.24996374  0.00393093  1
  Fe  Fe65  1  0.00129284  0.74920991  -0.00199383  1
  Fe  Fe66  1  0.75364253  0.74884001  0.74856512  1
  Fe  Fe67  1  0.12457431  0.62380485  0.37502452  1
  Fe  Fe68  1  0.24988487  0.74835259  0.74751643  1
  Fe  Fe69  1  0.37880390  0.37844649  0.12264991  1
  Fe  Fe70  1  0.74895515  0.75153474  0.24700507  1
  Fe  Fe71  1  0.50244088  0.74434019  -0.00286651  1
  Fe  Fe72  1  0.50013832  0.00006857  -0.00026866  1
  Fe  Fe73  1  0.87760344  0.62467889  0.62190089  1
  Fe  Fe74  1  0.24733248  -0.00035120  0.00214417  1
  Fe  Fe75  1  -0.00090832  0.74988331  0.49887562  1
  Fe  Fe76  1  0.00319074  -0.00053604  -0.00096267  1
  Fe  Fe77  1  0.37277349  0.12467183  0.87534535  1
  Fe  Fe78  1  -0.00102335  0.74976522  0.25214064  1
  Fe  Fe79  1  0.74958583  0.74908146  0.50150595  1
  Fe  Fe80  1  -0.00056991  0.25021985  -0.00009314  1
  Fe  Fe81  1  0.25164866  -0.00147226  0.24626306  1
  Fe  Fe82  1  0.62697241  0.62294406  0.37209371  1
  Fe  Fe83  1  0.87535283  0.12541336  0.87503595  1
  Fe  Fe84  1  -0.00359130  0.00251362  0.25327990  1
  Fe  Fe85  1  0.37482701  0.62304456  0.62341561  1
  Fe  Fe86  1  0.00205435  0.00131407  0.75035530  1
  Fe  Fe87  1  0.37536374  0.12549929  0.62539290  1
  Fe  Fe88  1  0.49778733  0.74772547  0.75243581  1
  Fe  Fe89  1  0.24692568  0.74937429  0.00403272  1
  Co  Co90  1  0.50006691  0.00080237  0.75110732  1
  Co  Co91  1  0.36698197  0.62380771  0.87659761  1
  Co  Co92  1  0.50232786  0.50410142  -0.00504848  1
  Co  Co93  1  0.87502342  0.62245912  0.87639510  1
  Co  Co94  1  0.37263365  0.37535064  0.37898738  1
  Co  Co95  1  0.62349291  0.87409958  0.12216317  1
  Co  Co96  1  -0.00171013  0.74592866  0.75067551  1
  Co  Co97  1  -0.00657758  0.24945286  0.25511555  1
  Co  Co98  1  0.62126340  0.62260874  0.12964500  1
  Co  Co99  1  0.37705473  0.12511566  0.12566898  1
  Co  Co100  1  0.12539088  0.87283351  0.87281796  1
  Co  Co101  1  0.00141282  0.00113787  0.49707983  1
  Co  Co102  1  0.74938320  0.50078081  0.50361471  1
  Co  Co103  1  0.25448482  0.25443349  0.24833743  1
  Co  Co104  1  0.12452280  0.62647953  0.62337027  1
  Co  Co105  1  0.12404502  0.37571795  0.37164219  1
  Co  Co106  1  0.12344360  0.12709664  0.62521078  1
  Co  Co107  1  0.87771420  0.87544588  0.62512012  1
  Co  Co108  1  0.24848478  0.49839705  0.74564207  1
  Co  Co109  1  0.12645826  0.12712995  0.87717742  1
  Co  Co110  1  0.86864146  0.12432339  0.37752741  1
  Co  Co111  1  0.12981591  0.12477839  0.36809046  1
  Co  Co112  1  0.87945765  0.37243194  0.62215138  1
  Co  Co113  1  0.62980641  0.62387685  0.87123811  1
  Co  Co114  1  0.87151725  0.62515195  0.37487081  1
  Co  Co115  1  0.12197439  0.87522220  0.12868885  1
  Co  Co116  1  0.62274792  0.37524494  0.12317729  1
  Co  Co117  1  0.50140520  0.75284536  0.25248740  1
  Co  Co118  1  0.63046315  0.37404386  0.37561290  1
  Co  Co119  1  0.25031343  0.74823861  0.24969559  1
  Co  Co120  1  0.00019702  0.50206704  0.49908493  1
  Co  Co121  1  0.50036975  0.49406133  0.25471888  1
  Co  Co122  1  0.24729257  0.50045601  0.00569381  1
  Co  Co123  1  0.87682229  0.37568849  0.12221558  1
  Co  Co124  1  0.62429331  0.12530088  0.62492333  1
  Co  Co125  1  0.75069076  -0.00231237  0.24733850  1
  Co  Co126  1  0.75137896  0.25015610  0.74940150  1
  Co  Co127  1  0.87647404  0.62687799  0.12513493  1
