# generated using pymatgen
data_Fe45Co19
_symmetry_space_group_name_H-M   'P 1'
_cell_length_a   11.41577418
_cell_length_b   11.41630558
_cell_length_c   11.41630905
_cell_angle_alpha   89.99453924
_cell_angle_beta   89.99829189
_cell_angle_gamma   89.99938894
_symmetry_Int_Tables_number   1
_chemical_formula_structural   Fe45Co19
_chemical_formula_sum   'Fe90 Co38'
_cell_volume   1487.84150178
_cell_formula_units_Z   2
loop_
 _symmetry_equiv_pos_site_id
 _symmetry_equiv_pos_as_xyz
  1  'x, y, z'
loop_
 _atom_site_type_symbol
 _atom_site_label
 _atom_site_symmetry_multiplicity
 _atom_site_fract_x
 _atom_site_fract_y
 _atom_site_fract_z
 _atom_site_occupancy
  Fe  Fe0  1  0.37581083  0.37574729  0.37791879  1
  Fe  Fe1  1  -0.00223128  0.50033007  0.50259152  1
  Fe  Fe2  1  -0.00023014  0.75126712  0.74902646  1
  Fe  Fe3  1  -0.00078849  0.00354793  0.74722524  1
  Fe  Fe4  1  0.49916401  0.00049068  0.75086012  1
  Fe  Fe5  1  0.74902962  0.24715255  -0.00182301  1
  Fe  Fe6  1  -0.00043071  0.24855255  0.24903812  1
  Fe  Fe7  1  0.75170671  -0.00201369  0.25120158  1
  Fe  Fe8  1  0.87331495  0.37145108  0.62392536  1
  Fe  Fe9  1  0.87538446  0.62489402  0.87425698  1
  Fe  Fe10  1  0.12653794  0.37337230  0.62667263  1
  Fe  Fe11  1  0.62657454  0.12513530  0.12646346  1
  Fe  Fe12  1  0.62598143  0.87616672  0.62460786  1
  Fe  Fe13  1  0.50121084  0.74784835  0.49991857  1
  Fe  Fe14  1  0.50141822  0.50098042  0.24939954  1
  Fe  Fe15  1  0.24993667  0.75044295  0.00156546  1
  Fe  Fe16  1  -0.00547733  0.75184020  0.25090105  1
  Fe  Fe17  1  0.25068296  0.00105372  0.00096027  1
  Fe  Fe18  1  0.24979211  0.49643947  0.75218842  1
  Fe  Fe19  1  0.37490469  0.37346151  0.62072561  1
  Fe  Fe20  1  0.37337471  0.62371723  0.62318476  1
  Fe  Fe21  1  0.12479181  0.62473438  0.62546596  1
  Fe  Fe22  1  0.37416495  0.62391987  0.37670328  1
  Fe  Fe23  1  0.50121500  0.74850597  0.75107827  1
  Fe  Fe24  1  0.62720331  0.37330944  0.12506795  1
  Fe  Fe25  1  0.63185769  0.62757749  0.12563201  1
  Fe  Fe26  1  0.12286201  0.62371132  0.87568681  1
  Fe  Fe27  1  0.00210415  0.24841731  0.49948836  1
  Fe  Fe28  1  0.24731534  0.24925852  0.25082803  1
  Fe  Fe29  1  0.62548490  0.37705246  0.37707171  1
  Fe  Fe30  1  -0.00637739  0.49792668  0.24427710  1
  Fe  Fe31  1  0.62857206  0.87306082  0.12448988  1
  Fe  Fe32  1  0.25038333  0.00120941  0.75041441  1
  Fe  Fe33  1  0.37574425  0.87506936  0.37488133  1
  Fe  Fe34  1  0.87864861  0.37159492  0.87599232  1
  Fe  Fe35  1  0.74559858  0.24524279  0.49903477  1
  Fe  Fe36  1  0.37466688  0.37410996  0.12464779  1
  Fe  Fe37  1  0.62960994  0.62170735  0.37492335  1
  Fe  Fe38  1  0.50372481  0.00399161  0.49931118  1
  Fe  Fe39  1  0.37690135  0.12846988  0.87787721  1
  Fe  Fe40  1  0.62504158  0.87570256  0.37547734  1
  Fe  Fe41  1  0.50036313  0.74822109  0.24840940  1
  Fe  Fe42  1  0.50059244  0.50007002  0.74892830  1
  Fe  Fe43  1  0.87537476  0.12208150  0.37803236  1
  Fe  Fe44  1  0.75140169  0.24655619  0.75239389  1
  Fe  Fe45  1  0.12166312  0.62287365  0.37424388  1
  Fe  Fe46  1  0.87357883  0.37623436  0.37684009  1
  Fe  Fe47  1  0.24755079  0.49686772  -0.00130422  1
  Fe  Fe48  1  0.75227258  0.00449952  0.75138333  1
  Fe  Fe49  1  0.12277746  0.62358706  0.12480248  1
  Fe  Fe50  1  0.12263184  0.12826211  0.87433071  1
  Fe  Fe51  1  0.00160092  0.25140464  0.00444888  1
  Fe  Fe52  1  0.24976406  0.75148849  0.75025674  1
  Fe  Fe53  1  0.24740445  0.75141246  0.50001622  1
  Fe  Fe54  1  0.12375729  0.87749070  0.37538093  1
  Fe  Fe55  1  -0.00257177  -0.00042628  0.00114710  1
  Fe  Fe56  1  0.37561211  0.62323790  0.87606205  1
  Fe  Fe57  1  -0.00128121  0.49786944  0.74970308  1
  Fe  Fe58  1  0.74979138  0.75024271  0.75244262  1
  Fe  Fe59  1  0.37541641  0.87407198  0.87644258  1
  Fe  Fe60  1  0.62463920  0.37353992  0.62326139  1
  Fe  Fe61  1  0.75382501  0.74919572  0.49736879  1
  Fe  Fe62  1  0.37396884  0.12563913  0.37617947  1
  Fe  Fe63  1  0.25029720  0.74973148  0.24844142  1
  Fe  Fe64  1  0.75311530  0.49989916  0.00059216  1
  Fe  Fe65  1  0.12809466  0.12665507  0.62336463  1
  Fe  Fe66  1  0.62502383  0.87655335  0.87513209  1
  Fe  Fe67  1  0.50086459  0.74862156  0.00071392  1
  Fe  Fe68  1  0.62788621  0.62395305  0.62446633  1
  Fe  Fe69  1  0.49934205  0.25054842  0.75145673  1
  Fe  Fe70  1  0.87422413  0.87816707  0.62284275  1
  Fe  Fe71  1  0.25087411  0.00091847  0.24846566  1
  Fe  Fe72  1  0.75192998  0.25061938  0.25093291  1
  Fe  Fe73  1  0.75157881  0.49860343  0.74964711  1
  Fe  Fe74  1  0.37564816  0.87585399  0.62338343  1
  Fe  Fe75  1  0.49933818  0.00153611  0.00291862  1
  Fe  Fe76  1  0.75357195  0.00130485  -0.00280253  1
  Fe  Fe77  1  0.62411783  0.37512891  0.87515763  1
  Fe  Fe78  1  -0.00393805  0.75150293  0.00054275  1
  Fe  Fe79  1  0.50042252  0.24997958  0.24983561  1
  Fe  Fe80  1  0.12476900  0.87626078  0.12507604  1
  Fe  Fe81  1  -0.00152502  0.00105811  0.24825893  1
  Fe  Fe82  1  0.37468846  0.12682623  0.62196673  1
  Fe  Fe83  1  0.24787395  0.25226356  -0.00050498  1
  Fe  Fe84  1  0.25031593  0.50064949  0.25014909  1
  Fe  Fe85  1  0.12326069  0.37678313  0.37358181  1
  Fe  Fe86  1  -0.00193530  0.75026812  0.49981877  1
  Fe  Fe87  1  0.12379313  0.87614495  0.87400316  1
  Fe  Fe88  1  0.50126684  0.50002169  0.00157522  1
  Fe  Fe89  1  0.49849952  0.00049927  0.24768993  1
  Co  Co90  1  0.12456719  0.87530504  0.62670044  1
  Co  Co91  1  0.37490973  0.87381977  0.12518247  1
  Co  Co92  1  0.87106493  0.62871352  0.12614338  1
  Co  Co93  1  0.11999884  0.37222485  0.87295800  1
  Co  Co94  1  0.37820156  0.37444677  0.87690126  1
  Co  Co95  1  0.87483309  0.62617426  0.62731275  1
  Co  Co96  1  0.87331489  0.12493394  0.62040673  1
  Co  Co97  1  0.00387888  0.00082753  0.50302626  1
  Co  Co98  1  0.12434263  0.12302941  0.37453099  1
  Co  Co99  1  0.12489853  0.12447643  0.12496269  1
  Co  Co100  1  0.87461202  0.62017906  0.37316939  1
  Co  Co101  1  0.50335285  0.24721604  0.49762995  1
  Co  Co102  1  0.88004424  0.12853216  0.87643110  1
  Co  Co103  1  0.75229195  0.75212491  -0.00493284  1
  Co  Co104  1  0.62604203  0.62302260  0.87503327  1
  Co  Co105  1  0.37402773  0.62350129  0.12425053  1
  Co  Co106  1  0.62236070  0.12445782  0.87499526  1
  Co  Co107  1  -0.00087488  0.24804066  0.74509964  1
  Co  Co108  1  0.50327053  0.25009999  0.00198779  1
  Co  Co109  1  0.62528039  0.12462245  0.36880048  1
  Co  Co110  1  0.75168134  0.49663250  0.24783319  1
  Co  Co111  1  0.24708345  0.49932829  0.49918517  1
  Co  Co112  1  0.62384542  0.12616506  0.62984025  1
  Co  Co113  1  0.74422041  0.00369500  0.49983238  1
  Co  Co114  1  0.87647995  0.87631614  0.87081343  1
  Co  Co115  1  0.87268660  0.37099430  0.12293779  1
  Co  Co116  1  0.50136924  0.50100397  0.50043646  1
  Co  Co117  1  0.87237649  0.87469155  0.12521504  1
  Co  Co118  1  0.75235880  0.49987214  0.50272819  1
  Co  Co119  1  0.75342944  0.75338190  0.25590570  1
  Co  Co120  1  -0.00219714  0.49925974  0.00202065  1
  Co  Co121  1  0.12557657  0.37637444  0.12788568  1
  Co  Co122  1  0.87600532  0.88138411  0.37943149  1
  Co  Co123  1  0.24720253  0.25133532  0.49729631  1
  Co  Co124  1  0.87347153  0.12525743  0.12545652  1
  Co  Co125  1  0.37418867  0.12845374  0.12484839  1
  Co  Co126  1  0.25204188  0.25041733  0.75122230  1
  Co  Co127  1  0.24904982  -0.00153346  0.49988769  1
