# generated using pymatgen
data_Fe45Co19
_symmetry_space_group_name_H-M   'P 1'
_cell_length_a   11.41580345
_cell_length_b   11.41556788
_cell_length_c   11.41692427
_cell_angle_alpha   90.00064378
_cell_angle_beta   90.00871696
_cell_angle_gamma   89.99302611
_symmetry_Int_Tables_number   1
_chemical_formula_structural   Fe45Co19
_chemical_formula_sum   'Fe90 Co38'
_cell_volume   1487.82932818
_cell_formula_units_Z   2
loop_
 _symmetry_equiv_pos_site_id
 _symmetry_equiv_pos_as_xyz
  1  'x, y, z'
loop_
 _atom_site_type_symbol
 _atom_site_label
 _atom_site_symmetry_multiplicity
 _atom_site_fract_x
 _atom_site_fract_y
 _atom_site_fract_z
 _atom_site_occupancy
  Fe  Fe0  1  0.62723892  0.12665333  0.37661043  1
  Fe  Fe1  1  0.50003009  -0.00198159  0.24800798  1
  Fe  Fe2  1  0.24996776  0.74879162  0.49757751  1
  Fe  Fe3  1  0.87465303  0.87516077  0.12509153  1
  Fe  Fe4  1  -0.00074631  0.75174156  0.50083144  1
  Fe  Fe5  1  0.37501625  0.87368107  0.37044772  1
  Fe  Fe6  1  0.49826765  -0.00208666  0.00342789  1
  Fe  Fe7  1  0.00018341  0.49963429  -0.00075288  1
  Fe  Fe8  1  0.49929604  0.00146362  0.74708632  1
  Fe  Fe9  1  0.12296189  0.87574233  0.37730964  1
  Fe  Fe10  1  0.75197182  0.00096670  -0.00108031  1
  Fe  Fe11  1  0.75244521  0.00033013  0.25117492  1
  Fe  Fe12  1  0.24766489  0.00605045  0.00022334  1
  Fe  Fe13  1  0.49940816  0.75162067  0.49848867  1
  Fe  Fe14  1  0.87978954  0.12270643  0.87262418  1
  Fe  Fe15  1  0.00258712  0.75093812  0.25059579  1
  Fe  Fe16  1  -0.00075600  0.25304028  0.74763526  1
  Fe  Fe17  1  0.50414820  0.50162668  0.25074927  1
  Fe  Fe18  1  0.11943430  0.12442831  0.37506790  1
  Fe  Fe19  1  0.24694814  0.75137041  0.75159954  1
  Fe  Fe20  1  0.87323757  0.37531200  0.12596683  1
  Fe  Fe21  1  0.74821384  0.50133796  0.24960518  1
  Fe  Fe22  1  0.12501922  0.87562822  0.12087114  1
  Fe  Fe23  1  0.00060435  0.49994979  0.24958610  1
  Fe  Fe24  1  0.25032297  0.50140555  0.49842005  1
  Fe  Fe25  1  0.37684270  0.62731803  0.37009223  1
  Fe  Fe26  1  0.24871694  0.50017829  0.74962376  1
  Fe  Fe27  1  0.25471727  0.74561782  -0.00031407  1
  Fe  Fe28  1  0.24712717  0.50021809  0.25219504  1
  Fe  Fe29  1  0.00286385  0.49961236  0.75011405  1
  Fe  Fe30  1  0.75187942  0.24761817  -0.00071800  1
  Fe  Fe31  1  0.49806811  0.25014575  0.00063871  1
  Fe  Fe32  1  0.62612784  0.37170142  0.87351118  1
  Fe  Fe33  1  0.12431167  0.62661601  0.62516314  1
  Fe  Fe34  1  0.12624519  0.37436512  0.87584900  1
  Fe  Fe35  1  0.62672742  0.87529249  0.37552032  1
  Fe  Fe36  1  0.75130043  0.50090637  -0.00188179  1
  Fe  Fe37  1  0.00677485  -0.00539966  0.75019866  1
  Fe  Fe38  1  0.62343882  0.62920947  0.87978046  1
  Fe  Fe39  1  0.49631130  0.50277561  0.00049143  1
  Fe  Fe40  1  0.49718255  0.24842473  0.50020479  1
  Fe  Fe41  1  -0.00224409  0.49674295  0.50183898  1
  Fe  Fe42  1  -0.00746386  0.25298247  0.50294882  1
  Fe  Fe43  1  0.37278900  0.87531130  0.62455716  1
  Fe  Fe44  1  0.62638778  0.87646866  0.62403258  1
  Fe  Fe45  1  0.24711374  0.00179340  0.24848614  1
  Fe  Fe46  1  0.24973753  0.00092146  0.49934471  1
  Fe  Fe47  1  0.62531768  0.12433066  0.12480618  1
  Fe  Fe48  1  0.50299762  0.49906766  0.74924761  1
  Fe  Fe49  1  0.50002027  0.75206461  0.74983024  1
  Fe  Fe50  1  0.75105635  0.75056617  0.50090734  1
  Fe  Fe51  1  0.12308595  0.37553274  0.37722086  1
  Fe  Fe52  1  0.87818525  0.12376782  0.12699681  1
  Fe  Fe53  1  0.87517628  0.62516892  0.37499092  1
  Fe  Fe54  1  -0.00134533  0.25259500  0.24981276  1
  Fe  Fe55  1  0.25248476  0.50218406  -0.00018857  1
  Fe  Fe56  1  0.87552512  0.87629797  0.62637971  1
  Fe  Fe57  1  -0.00167511  0.74871183  -0.00320589  1
  Fe  Fe58  1  0.49950615  0.24947349  0.25115323  1
  Fe  Fe59  1  0.12280454  0.12520325  0.62331109  1
  Fe  Fe60  1  0.62985349  0.36917402  0.62665088  1
  Fe  Fe61  1  0.74751337  0.00196544  0.75051339  1
  Fe  Fe62  1  0.75079519  0.49897257  0.50042850  1
  Fe  Fe63  1  0.62452628  0.62660507  0.62318279  1
  Fe  Fe64  1  0.37462598  0.37516459  0.12757328  1
  Fe  Fe65  1  -0.00035395  0.25019187  0.00005447  1
  Fe  Fe66  1  0.24759795  0.00075481  0.75123639  1
  Fe  Fe67  1  0.62376140  0.87359696  0.87873328  1
  Fe  Fe68  1  0.37438207  0.87634206  0.87652924  1
  Fe  Fe69  1  0.74614978  0.74850167  0.24899391  1
  Fe  Fe70  1  0.75019831  0.74926804  0.75146867  1
  Fe  Fe71  1  0.62145653  0.12584685  0.87423725  1
  Fe  Fe72  1  0.87248400  0.37669708  0.87174906  1
  Fe  Fe73  1  0.12641927  0.37361618  0.12428298  1
  Fe  Fe74  1  0.25001538  0.24663110  -0.00007058  1
  Fe  Fe75  1  0.87545377  0.62419449  0.62883873  1
  Fe  Fe76  1  0.62597787  0.37501852  0.12372386  1
  Fe  Fe77  1  0.25202303  0.24894576  0.49722470  1
  Fe  Fe78  1  0.25173467  0.24756981  0.75075087  1
  Fe  Fe79  1  0.37549307  0.37496957  0.87356564  1
  Fe  Fe80  1  0.62968794  0.37153903  0.37679793  1
  Fe  Fe81  1  0.87662490  0.87509962  0.87456962  1
  Fe  Fe82  1  0.49911046  0.00015415  0.50126908  1
  Fe  Fe83  1  0.50064417  0.49903798  0.50026988  1
  Fe  Fe84  1  0.37567042  0.62605808  0.62639663  1
  Fe  Fe85  1  0.12550946  0.62466354  0.12352305  1
  Fe  Fe86  1  0.75441791  0.00335098  0.49947996  1
  Fe  Fe87  1  0.87371283  0.62571567  0.12410028  1
  Fe  Fe88  1  0.37358501  0.37451525  0.62422153  1
  Fe  Fe89  1  0.25136743  0.24842272  0.25190972  1
  Co  Co90  1  0.62561159  0.62597721  0.37817276  1
  Co  Co91  1  0.87746952  0.12635372  0.37119870  1
  Co  Co92  1  0.12746712  0.87319034  0.88106728  1
  Co  Co93  1  0.12471757  0.62464865  0.87535654  1
  Co  Co94  1  0.37377467  0.62529826  0.13322861  1
  Co  Co95  1  0.87934179  0.11938915  0.62986590  1
  Co  Co96  1  0.12628649  0.87437581  0.62108560  1
  Co  Co97  1  -0.00356495  -0.00163249  0.49794215  1
  Co  Co98  1  0.87619003  0.62405327  0.87275264  1
  Co  Co99  1  0.74383904  0.50436504  0.75218370  1
  Co  Co100  1  0.75864558  0.24694636  0.50257803  1
  Co  Co101  1  0.50614094  0.75153494  0.24618397  1
  Co  Co102  1  0.62625109  0.62526234  0.11875210  1
  Co  Co103  1  0.87254011  0.37617475  0.37159429  1
  Co  Co104  1  0.75344663  0.75186334  -0.00134236  1
  Co  Co105  1  0.37634678  0.12564154  0.12574027  1
  Co  Co106  1  0.87348006  0.87154387  0.37429690  1
  Co  Co107  1  0.37006491  0.87526914  0.12683147  1
  Co  Co108  1  0.00196661  0.75276167  0.75078460  1
  Co  Co109  1  0.00022440  -0.00450820  0.25036063  1
  Co  Co110  1  0.37641890  0.12154343  0.37384215  1
  Co  Co111  1  0.12126240  0.12711998  0.87307304  1
  Co  Co112  1  0.12797794  0.37316797  0.62319492  1
  Co  Co113  1  0.24320466  0.75160464  0.25122644  1
  Co  Co114  1  0.00080905  0.00076303  0.00044026  1
  Co  Co115  1  0.12107872  0.12638169  0.12739070  1
  Co  Co116  1  0.62543506  0.12712224  0.62308747  1
  Co  Co117  1  0.74970271  0.24888722  0.24710458  1
  Co  Co118  1  0.49749058  0.24937533  0.74762571  1
  Co  Co119  1  0.12201558  0.62362313  0.37736298  1
  Co  Co120  1  0.86903866  0.37909615  0.63151635  1
  Co  Co121  1  0.37559239  0.37749135  0.37428593  1
  Co  Co122  1  0.37292030  0.12357886  0.62420088  1
  Co  Co123  1  0.62886734  0.87636012  0.12246205  1
  Co  Co124  1  0.49460823  0.75079075  0.00508290  1
  Co  Co125  1  0.37803236  0.12362429  0.87545194  1
  Co  Co126  1  0.75195417  0.24412991  0.75107033  1
  Co  Co127  1  0.37690974  0.62495115  0.87063763  1
