# generated using pymatgen
data_Fe45Co19
_symmetry_space_group_name_H-M   'P 1'
_cell_length_a   11.41527776
_cell_length_b   11.41548908
_cell_length_c   11.41478811
_cell_angle_alpha   90.00812361
_cell_angle_beta   90.00259821
_cell_angle_gamma   90.00383230
_symmetry_Int_Tables_number   1
_chemical_formula_structural   Fe45Co19
_chemical_formula_sum   'Fe90 Co38'
_cell_volume   1487.47218881
_cell_formula_units_Z   2
loop_
 _symmetry_equiv_pos_site_id
 _symmetry_equiv_pos_as_xyz
  1  'x, y, z'
loop_
 _atom_site_type_symbol
 _atom_site_label
 _atom_site_symmetry_multiplicity
 _atom_site_fract_x
 _atom_site_fract_y
 _atom_site_fract_z
 _atom_site_occupancy
  Fe  Fe0  1  0.00185302  0.49718871  0.25139883  1
  Fe  Fe1  1  0.87568580  0.62459206  0.87544250  1
  Fe  Fe2  1  0.87340512  0.37369605  0.87359268  1
  Fe  Fe3  1  0.12717134  0.87248894  0.87528260  1
  Fe  Fe4  1  0.62576223  0.87572867  0.62449909  1
  Fe  Fe5  1  0.24924009  0.74776222  0.49695206  1
  Fe  Fe6  1  0.75052465  0.74814189  0.25087530  1
  Fe  Fe7  1  0.74840725  0.00213451  0.25282942  1
  Fe  Fe8  1  0.87316587  0.87633031  0.87374995  1
  Fe  Fe9  1  0.87924019  0.87430280  0.37626061  1
  Fe  Fe10  1  0.12322207  0.12628645  0.37633199  1
  Fe  Fe11  1  -0.00250980  0.25214646  0.49896231  1
  Fe  Fe12  1  0.37505195  0.12528942  0.87535255  1
  Fe  Fe13  1  0.75084919  0.25004588  0.00362416  1
  Fe  Fe14  1  0.24885874  0.50436609  0.25237477  1
  Fe  Fe15  1  0.00325720  0.49823965  0.75183331  1
  Fe  Fe16  1  0.12718562  0.37235568  0.87677967  1
  Fe  Fe17  1  0.25152992  0.24905733  0.74749744  1
  Fe  Fe18  1  0.62362898  0.12430946  0.62392334  1
  Fe  Fe19  1  0.49711759  0.25286216  0.00236719  1
  Fe  Fe20  1  0.62011363  0.62565913  0.12264741  1
  Fe  Fe21  1  0.62347540  0.62366170  0.37743362  1
  Fe  Fe22  1  0.74931481  0.75078494  -0.00115001  1
  Fe  Fe23  1  0.37409309  0.87647537  0.62384724  1
  Fe  Fe24  1  0.37475850  0.37799614  0.87122758  1
  Fe  Fe25  1  0.24913922  0.00130880  0.74776551  1
  Fe  Fe26  1  -0.00157692  0.25157566  0.24931549  1
  Fe  Fe27  1  0.25448079  0.74579871  -0.00107163  1
  Fe  Fe28  1  0.49785257  0.74898959  0.49898085  1
  Fe  Fe29  1  0.12771893  0.12627914  0.87592764  1
  Fe  Fe30  1  0.00220305  0.00169776  0.74936689  1
  Fe  Fe31  1  0.49726685  0.25144630  0.49964959  1
  Fe  Fe32  1  0.62400196  0.87226152  0.12579322  1
  Fe  Fe33  1  0.24858208  0.50095946  0.49791862  1
  Fe  Fe34  1  0.12526327  0.87553860  0.62169119  1
  Fe  Fe35  1  0.87490659  0.87486481  0.62543273  1
  Fe  Fe36  1  0.25173091  0.24671935  0.24888075  1
  Fe  Fe37  1  0.12713582  0.37472864  0.12456787  1
  Fe  Fe38  1  0.12665137  0.37226744  0.62391306  1
  Fe  Fe39  1  0.00037275  0.49648001  0.49844953  1
  Fe  Fe40  1  0.75296976  0.25115773  0.50029440  1
  Fe  Fe41  1  0.25222667  0.50335667  -0.00287554  1
  Fe  Fe42  1  0.87637177  0.12786058  0.62804482  1
  Fe  Fe43  1  0.87812579  0.62413097  0.37489369  1
  Fe  Fe44  1  0.50060746  -0.00041603  0.75000195  1
  Fe  Fe45  1  0.37464110  0.62071238  0.62768523  1
  Fe  Fe46  1  0.49927821  0.25192040  0.74674641  1
  Fe  Fe47  1  0.50003342  0.75059310  0.74971190  1
  Fe  Fe48  1  -0.00182536  0.25020127  0.00060748  1
  Fe  Fe49  1  0.37385203  0.87304614  0.13147844  1
  Fe  Fe50  1  0.00157833  0.74995653  0.74918138  1
  Fe  Fe51  1  0.74738630  0.00136892  0.00010365  1
  Fe  Fe52  1  0.00140652  0.49910268  -0.00156307  1
  Fe  Fe53  1  0.75320301  0.25016322  0.24854891  1
  Fe  Fe54  1  0.74714688  0.49879963  0.74995767  1
  Fe  Fe55  1  0.25329132  0.24725046  0.50138058  1
  Fe  Fe56  1  0.24865514  0.00181955  0.49766061  1
  Fe  Fe57  1  0.12454121  0.62557159  0.12464434  1
  Fe  Fe58  1  0.00104693  -0.00018601  -0.00037437  1
  Fe  Fe59  1  0.37323264  0.37651057  0.12625669  1
  Fe  Fe60  1  0.61955216  0.62479022  0.87821060  1
  Fe  Fe61  1  0.62664959  0.37428115  0.37486839  1
  Fe  Fe62  1  0.74947366  0.50005478  0.24898596  1
  Fe  Fe63  1  -0.00088828  0.75136449  0.00153913  1
  Fe  Fe64  1  0.87614971  0.62370438  0.12463687  1
  Fe  Fe65  1  0.74779070  0.74926557  0.75086039  1
  Fe  Fe66  1  0.49978618  0.49883144  0.25080024  1
  Fe  Fe67  1  0.12546074  0.62495815  0.62555021  1
  Fe  Fe68  1  0.62056559  0.12782196  0.12883157  1
  Fe  Fe69  1  0.62446964  0.37450550  0.87696387  1
  Fe  Fe70  1  0.37283948  0.87440146  0.37136693  1
  Fe  Fe71  1  0.49959384  -0.00236297  0.00176647  1
  Fe  Fe72  1  0.62473932  0.12556149  0.87371175  1
  Fe  Fe73  1  0.00217995  0.00009910  0.25047621  1
  Fe  Fe74  1  0.50105851  0.00016945  0.49658329  1
  Fe  Fe75  1  0.87479451  0.62158476  0.62569773  1
  Fe  Fe76  1  0.87315798  0.87713532  0.12575583  1
  Fe  Fe77  1  0.87287476  0.12610328  0.87296878  1
  Fe  Fe78  1  0.25212407  0.00125527  0.00311752  1
  Fe  Fe79  1  0.75165160  0.00233890  0.49928937  1
  Fe  Fe80  1  0.12577408  0.12667659  0.12300449  1
  Fe  Fe81  1  0.37864081  0.12284894  0.37185873  1
  Fe  Fe82  1  0.62512293  0.37701517  0.62094895  1
  Fe  Fe83  1  0.74887836  0.49820732  0.00196473  1
  Fe  Fe84  1  0.62416877  0.62352048  0.62210781  1
  Fe  Fe85  1  0.37221657  0.37696139  0.37654487  1
  Fe  Fe86  1  0.62566316  0.87346749  0.37610780  1
  Fe  Fe87  1  0.12858792  0.87261603  0.12785112  1
  Fe  Fe88  1  0.37393998  0.87390199  0.87300138  1
  Fe  Fe89  1  0.75251196  0.74790114  0.49988438  1
  Co  Co90  1  0.87571349  0.12236168  0.12502671  1
  Co  Co91  1  0.00300186  0.25062586  0.75166477  1
  Co  Co92  1  -0.00038805  0.74822317  0.50267468  1
  Co  Co93  1  0.24732888  0.00393941  0.25062562  1
  Co  Co94  1  0.62456667  0.12953147  0.37441195  1
  Co  Co95  1  0.49592930  0.75294902  -0.00117669  1
  Co  Co96  1  0.87623547  0.37665024  0.62764451  1
  Co  Co97  1  0.25031355  0.74987779  0.74815687  1
  Co  Co98  1  0.11985604  0.62652450  0.37568663  1
  Co  Co99  1  0.49858664  0.49843662  0.49864528  1
  Co  Co100  1  0.87283886  0.37612517  0.37328958  1
  Co  Co101  1  0.50135364  0.74922206  0.25291816  1
  Co  Co102  1  0.50269051  -0.00230731  0.25087448  1
  Co  Co103  1  0.62540839  0.87580851  0.87398866  1
  Co  Co104  1  0.37864641  0.12429718  0.12610863  1
  Co  Co105  1  0.75199505  0.49987807  0.49929617  1
  Co  Co106  1  0.49653257  0.49683355  0.00163621  1
  Co  Co107  1  0.00003410  0.75108277  0.24760836  1
  Co  Co108  1  0.37718238  0.12194199  0.62448401  1
  Co  Co109  1  0.24485119  0.49921951  0.75193234  1
  Co  Co110  1  0.87598993  0.37707415  0.12463155  1
  Co  Co111  1  0.74639862  0.25256432  0.74777146  1
  Co  Co112  1  0.87627440  0.12548667  0.37442067  1
  Co  Co113  1  0.24789343  0.74477179  0.25430905  1
  Co  Co114  1  0.12492402  0.12727057  0.62336806  1
  Co  Co115  1  0.12314822  0.87432553  0.37623153  1
  Co  Co116  1  0.74962030  0.00086325  0.74809819  1
  Co  Co117  1  0.37722325  0.62393454  0.37563106  1
  Co  Co118  1  0.62464987  0.37386635  0.12690129  1
  Co  Co119  1  0.49575570  0.25445130  0.25147212  1
  Co  Co120  1  0.37255123  0.37902815  0.62556240  1
  Co  Co121  1  0.12483723  0.62930117  0.87576956  1
  Co  Co122  1  0.25345632  0.25045995  0.00099671  1
  Co  Co123  1  0.37778474  0.62597641  0.12725240  1
  Co  Co124  1  0.12841617  0.37158885  0.37488399  1
  Co  Co125  1  0.50459637  0.49770947  0.74778197  1
  Co  Co126  1  0.37740650  0.62283950  0.86970165  1
  Co  Co127  1  -0.00103228  0.00254839  0.50156193  1
