# generated using pymatgen
data_Fe45Co19
_symmetry_space_group_name_H-M   'P 1'
_cell_length_a   11.41484511
_cell_length_b   11.41496410
_cell_length_c   11.41359499
_cell_angle_alpha   90.00945771
_cell_angle_beta   90.01038623
_cell_angle_gamma   89.99928429
_symmetry_Int_Tables_number   1
_chemical_formula_structural   Fe45Co19
_chemical_formula_sum   'Fe90 Co38'
_cell_volume   1487.19192133
_cell_formula_units_Z   2
loop_
 _symmetry_equiv_pos_site_id
 _symmetry_equiv_pos_as_xyz
  1  'x, y, z'
loop_
 _atom_site_type_symbol
 _atom_site_label
 _atom_site_symmetry_multiplicity
 _atom_site_fract_x
 _atom_site_fract_y
 _atom_site_fract_z
 _atom_site_occupancy
  Fe  Fe0  1  0.12460249  0.12405015  0.12568871  1
  Fe  Fe1  1  0.62418744  0.62759458  0.12903810  1
  Fe  Fe2  1  0.37373368  0.62938743  0.87687050  1
  Fe  Fe3  1  0.37365434  0.37345581  0.12437955  1
  Fe  Fe4  1  0.75207717  -0.00111022  0.49682525  1
  Fe  Fe5  1  0.12305051  0.12096426  0.37318480  1
  Fe  Fe6  1  0.12696563  0.62386416  0.62386594  1
  Fe  Fe7  1  0.62443345  0.37780470  0.37487176  1
  Fe  Fe8  1  0.25180742  0.00167307  0.49986325  1
  Fe  Fe9  1  0.49832391  -0.00168645  0.24765823  1
  Fe  Fe10  1  0.50067552  0.75057035  0.49414240  1
  Fe  Fe11  1  0.74640457  0.74800046  0.49447067  1
  Fe  Fe12  1  0.75132883  0.50323915  0.25320375  1
  Fe  Fe13  1  0.00421788  0.75171591  0.00177282  1
  Fe  Fe14  1  0.87545450  0.37287173  0.62423177  1
  Fe  Fe15  1  -0.00056818  0.75076808  0.74711375  1
  Fe  Fe16  1  0.62781544  0.37434070  0.12526365  1
  Fe  Fe17  1  0.62401203  0.87316348  0.12911270  1
  Fe  Fe18  1  0.62566986  0.37488805  0.62591685  1
  Fe  Fe19  1  0.00206863  0.25044003  0.49962508  1
  Fe  Fe20  1  0.25057631  0.50173384  0.00029693  1
  Fe  Fe21  1  0.74995498  0.50252468  0.00054963  1
  Fe  Fe22  1  0.49991847  0.50328776  0.00156248  1
  Fe  Fe23  1  0.37387983  0.62250139  0.37434439  1
  Fe  Fe24  1  0.49767468  0.75182594  0.74854193  1
  Fe  Fe25  1  0.12348129  0.87739580  0.62186459  1
  Fe  Fe26  1  0.62385535  0.12119432  0.62393452  1
  Fe  Fe27  1  0.87475228  0.12515304  0.37252649  1
  Fe  Fe28  1  0.24960853  0.24997115  0.25082819  1
  Fe  Fe29  1  0.49968816  0.24727196  0.74958675  1
  Fe  Fe30  1  0.12513750  0.12131605  0.87540540  1
  Fe  Fe31  1  0.87492673  0.12564761  0.62500774  1
  Fe  Fe32  1  0.25252810  0.75182270  0.74757367  1
  Fe  Fe33  1  0.37388623  0.37353827  0.62585414  1
  Fe  Fe34  1  0.50124187  0.25129940  0.25015397  1
  Fe  Fe35  1  0.87550485  0.12059769  0.88019322  1
  Fe  Fe36  1  0.24938108  0.24932722  0.49843155  1
  Fe  Fe37  1  0.37595269  0.37590755  0.87609679  1
  Fe  Fe38  1  0.62162010  0.87654394  0.87476712  1
  Fe  Fe39  1  0.37518174  0.12522573  0.12580168  1
  Fe  Fe40  1  0.87883763  0.86958648  0.37373820  1
  Fe  Fe41  1  0.12574386  0.87555918  0.87332713  1
  Fe  Fe42  1  0.87273500  0.37382260  0.12503121  1
  Fe  Fe43  1  0.12399898  0.12430755  0.62516921  1
  Fe  Fe44  1  0.12521305  0.62577068  0.87348878  1
  Fe  Fe45  1  0.37664282  0.12132896  0.87539783  1
  Fe  Fe46  1  -0.00037958  0.24899181  0.00016779  1
  Fe  Fe47  1  0.62445012  0.62724878  0.62418926  1
  Fe  Fe48  1  -0.00135783  0.25015948  0.24957554  1
  Fe  Fe49  1  0.24621305  0.75212881  0.49522165  1
  Fe  Fe50  1  0.74969012  -0.00298123  0.74950846  1
  Fe  Fe51  1  0.62570966  0.62657532  0.87278817  1
  Fe  Fe52  1  0.87468994  0.62852643  0.87475833  1
  Fe  Fe53  1  0.25570708  -0.00314249  0.74721864  1
  Fe  Fe54  1  0.00002906  0.50006233  0.74730470  1
  Fe  Fe55  1  -0.00162552  -0.00039653  0.74915841  1
  Fe  Fe56  1  0.49673468  0.50313392  0.74868844  1
  Fe  Fe57  1  0.12631512  0.37815512  0.37325870  1
  Fe  Fe58  1  -0.00069212  0.50291692  0.25081600  1
  Fe  Fe59  1  0.87458791  0.37794594  0.37742117  1
  Fe  Fe60  1  0.24975731  0.24928217  0.75055701  1
  Fe  Fe61  1  0.74691091  0.75104651  -0.00005776  1
  Fe  Fe62  1  0.62333072  0.12041247  0.87682603  1
  Fe  Fe63  1  0.74820762  0.24981013  0.49789922  1
  Fe  Fe64  1  0.50036277  0.24866359  0.49920101  1
  Fe  Fe65  1  0.75059974  0.50177218  0.74776266  1
  Fe  Fe66  1  0.62460311  0.37653616  0.87507002  1
  Fe  Fe67  1  0.25344942  -0.00364365  0.00229650  1
  Fe  Fe68  1  0.50287647  0.24791542  0.00176953  1
  Fe  Fe69  1  0.12849969  0.62603327  0.12806435  1
  Fe  Fe70  1  0.87531824  0.87483828  0.87834561  1
  Fe  Fe71  1  0.37322418  0.63277484  0.12650745  1
  Fe  Fe72  1  0.87436250  0.62709630  0.62091591  1
  Fe  Fe73  1  0.74988828  0.24765892  0.75254129  1
  Fe  Fe74  1  0.12877274  0.87463794  0.12922222  1
  Fe  Fe75  1  0.24990174  0.49741539  0.50084999  1
  Fe  Fe76  1  -0.00416133  -0.00175739  0.24571450  1
  Fe  Fe77  1  0.62678985  0.12141992  0.37138591  1
  Fe  Fe78  1  0.37592690  0.12554901  0.37385258  1
  Fe  Fe79  1  0.37400162  0.87775143  0.37362592  1
  Fe  Fe80  1  -0.00083860  0.50256800  0.00174648  1
  Fe  Fe81  1  0.12453341  0.37627878  0.87383955  1
  Fe  Fe82  1  0.87438971  0.63148698  0.12846067  1
  Fe  Fe83  1  0.87512589  0.87257908  0.62182831  1
  Fe  Fe84  1  0.12574220  0.37573038  0.12554161  1
  Fe  Fe85  1  0.24964359  0.24901385  -0.00010451  1
  Fe  Fe86  1  0.49921570  0.49952763  0.50200953  1
  Fe  Fe87  1  0.62224469  0.87616242  0.62109826  1
  Fe  Fe88  1  0.49632443  0.49981299  0.24856425  1
  Fe  Fe89  1  0.87496596  0.37506183  0.87518808  1
  Co  Co90  1  0.24738090  0.75117201  0.25756287  1
  Co  Co91  1  0.37536649  0.12627875  0.62409448  1
  Co  Co92  1  0.49917468  -0.00051448  0.00573619  1
  Co  Co93  1  0.87760698  0.62759116  0.37634651  1
  Co  Co94  1  0.25234236  0.50197403  0.75078614  1
  Co  Co95  1  -0.00370223  0.00122496  0.50028632  1
  Co  Co96  1  0.12200542  0.88284019  0.37524385  1
  Co  Co97  1  0.50333963  0.75035863  0.00056652  1
  Co  Co98  1  0.24637882  0.75233064  -0.00051154  1
  Co  Co99  1  0.00673882  0.74948061  0.25177629  1
  Co  Co100  1  -0.00041809  0.24743968  0.75187707  1
  Co  Co101  1  0.00560737  0.74890231  0.49850954  1
  Co  Co102  1  0.62933375  0.12549283  0.12925144  1
  Co  Co103  1  0.37519011  0.37506523  0.37553815  1
  Co  Co104  1  0.74967373  0.75322496  0.74902408  1
  Co  Co105  1  0.49677801  -0.00263420  0.74744438  1
  Co  Co106  1  0.87421338  0.86792164  0.12487596  1
  Co  Co107  1  0.49785096  0.00208463  0.49797122  1
  Co  Co108  1  0.75500217  -0.00422140  0.24883817  1
  Co  Co109  1  0.00140539  0.49896804  0.50168692  1
  Co  Co110  1  0.12573492  0.61932398  0.37504846  1
  Co  Co111  1  0.37364212  0.62771154  0.62054606  1
  Co  Co112  1  0.25227726  0.00024605  0.24901829  1
  Co  Co113  1  0.87198281  0.12685644  0.12306792  1
  Co  Co114  1  0.74883950  0.24961489  -0.00197423  1
  Co  Co115  1  0.00261657  -0.00355924  0.00401153  1
  Co  Co116  1  0.25305722  0.49991926  0.24807605  1
  Co  Co117  1  0.74733054  -0.00311896  0.00430179  1
  Co  Co118  1  0.37750352  0.87328535  0.61924211  1
  Co  Co119  1  0.75079369  0.25191141  0.25296405  1
  Co  Co120  1  0.50014726  0.75135694  0.25594016  1
  Co  Co121  1  0.74638225  0.75001856  0.25538321  1
  Co  Co122  1  0.74868749  0.50181060  0.50045249  1
  Co  Co123  1  0.37429140  0.86856165  0.12644179  1
  Co  Co124  1  0.62448629  0.88046383  0.37440944  1
  Co  Co125  1  0.12627297  0.37386674  0.62745310  1
  Co  Co126  1  0.37698895  0.87321759  0.87798241  1
  Co  Co127  1  0.62181819  0.62031679  0.37356031  1
