# generated using pymatgen
data_Fe45Co19
_symmetry_space_group_name_H-M   'P 1'
_cell_length_a   11.41535910
_cell_length_b   11.41470315
_cell_length_c   11.41491184
_cell_angle_alpha   89.98730848
_cell_angle_beta   90.00075994
_cell_angle_gamma   89.99785345
_symmetry_Int_Tables_number   1
_chemical_formula_structural   Fe45Co19
_chemical_formula_sum   'Fe90 Co38'
_cell_volume   1487.39648351
_cell_formula_units_Z   2
loop_
 _symmetry_equiv_pos_site_id
 _symmetry_equiv_pos_as_xyz
  1  'x, y, z'
loop_
 _atom_site_type_symbol
 _atom_site_label
 _atom_site_symmetry_multiplicity
 _atom_site_fract_x
 _atom_site_fract_y
 _atom_site_fract_z
 _atom_site_occupancy
  Fe  Fe0  1  0.24866554  0.24902707  0.00059913  1
  Fe  Fe1  1  -0.00188983  0.75230317  0.25162584  1
  Fe  Fe2  1  0.62503995  0.62583666  0.12720204  1
  Fe  Fe3  1  0.37406832  0.62550962  0.62423052  1
  Fe  Fe4  1  0.12462027  0.62816346  0.62421033  1
  Fe  Fe5  1  0.00372126  0.50041829  -0.00018386  1
  Fe  Fe6  1  0.50007350  0.00151253  -0.00169572  1
  Fe  Fe7  1  0.12209509  0.87466856  0.37957860  1
  Fe  Fe8  1  -0.00051737  0.75167525  0.74937672  1
  Fe  Fe9  1  0.50025610  0.25013931  0.25061528  1
  Fe  Fe10  1  0.62623540  0.12597087  0.12720099  1
  Fe  Fe11  1  0.62434817  0.62631032  0.37475883  1
  Fe  Fe12  1  0.75135407  0.75417925  0.25313930  1
  Fe  Fe13  1  0.37802231  0.37548646  0.37733933  1
  Fe  Fe14  1  0.00112373  0.50215759  0.50025977  1
  Fe  Fe15  1  0.24948540  -0.00260965  0.25107128  1
  Fe  Fe16  1  0.62699085  0.37137600  0.62477639  1
  Fe  Fe17  1  -0.00108435  0.24335482  0.49736226  1
  Fe  Fe18  1  0.62813288  0.62671071  0.62628706  1
  Fe  Fe19  1  0.00132155  0.24935928  0.00184120  1
  Fe  Fe20  1  0.37598297  0.62617821  0.87354397  1
  Fe  Fe21  1  0.12433275  0.62722833  0.37447533  1
  Fe  Fe22  1  0.75292195  0.24461493  0.50000775  1
  Fe  Fe23  1  0.12493186  0.12551627  0.12928983  1
  Fe  Fe24  1  0.87566036  0.87749956  0.62224641  1
  Fe  Fe25  1  0.24997336  0.00109231  0.00053631  1
  Fe  Fe26  1  0.50016931  0.49794248  0.74839413  1
  Fe  Fe27  1  0.62490416  0.87300992  0.87602676  1
  Fe  Fe28  1  0.12519765  0.87477608  0.12456559  1
  Fe  Fe29  1  0.87629070  0.12296651  0.87220719  1
  Fe  Fe30  1  0.24816460  0.25062604  0.74880281  1
  Fe  Fe31  1  0.12408279  0.62565649  0.12780791  1
  Fe  Fe32  1  -0.00495342  0.25396102  0.25117021  1
  Fe  Fe33  1  0.00195625  0.25077207  0.74972075  1
  Fe  Fe34  1  0.25157750  0.75002162  0.00113401  1
  Fe  Fe35  1  0.87425139  0.87587290  0.12295122  1
  Fe  Fe36  1  0.74978322  0.50070643  0.50027296  1
  Fe  Fe37  1  0.74938970  0.74714766  -0.00160862  1
  Fe  Fe38  1  0.37625845  0.12336763  0.12596569  1
  Fe  Fe39  1  0.37488544  0.37370414  0.87523538  1
  Fe  Fe40  1  0.24674179  0.49995267  -0.00097773  1
  Fe  Fe41  1  0.62347769  0.37158578  0.87233878  1
  Fe  Fe42  1  0.49810823  0.75184352  0.25181046  1
  Fe  Fe43  1  0.00114132  0.00182237  0.00107681  1
  Fe  Fe44  1  0.25189435  0.25204662  0.25020832  1
  Fe  Fe45  1  0.62333584  0.87370865  0.12302731  1
  Fe  Fe46  1  0.50064097  -0.00131340  0.25189165  1
  Fe  Fe47  1  0.87561261  0.62454410  0.87255156  1
  Fe  Fe48  1  0.62339351  0.12781361  0.86796115  1
  Fe  Fe49  1  0.24630062  -0.00099710  0.74927397  1
  Fe  Fe50  1  0.37654284  0.87460958  0.87553180  1
  Fe  Fe51  1  0.74872172  0.00218786  -0.00137626  1
  Fe  Fe52  1  0.87526295  0.88121035  0.37871167  1
  Fe  Fe53  1  0.50042951  0.50219369  0.50091570  1
  Fe  Fe54  1  0.12314192  0.37389693  0.37625264  1
  Fe  Fe55  1  0.62978259  0.12326040  0.37249262  1
  Fe  Fe56  1  0.62642294  0.87636941  0.62039860  1
  Fe  Fe57  1  0.87469740  0.12074010  0.62912073  1
  Fe  Fe58  1  0.24452868  0.00209720  0.50088044  1
  Fe  Fe59  1  0.25222695  0.75237188  0.25188207  1
  Fe  Fe60  1  0.75082657  0.24883414  -0.00132868  1
  Fe  Fe61  1  0.87453444  0.62356353  0.37455958  1
  Fe  Fe62  1  0.37703194  0.37536774  0.12417856  1
  Fe  Fe63  1  0.37259525  0.37507560  0.62274541  1
  Fe  Fe64  1  0.24764511  0.24758087  0.50075431  1
  Fe  Fe65  1  0.50180851  0.50133040  -0.00119323  1
  Fe  Fe66  1  0.75119221  0.49760229  0.75048734  1
  Fe  Fe67  1  0.87333957  0.62597437  0.62589296  1
  Fe  Fe68  1  0.00015293  0.74917643  -0.00046680  1
  Fe  Fe69  1  0.62476086  0.37316283  0.37801008  1
  Fe  Fe70  1  0.24910215  0.50186673  0.49847525  1
  Fe  Fe71  1  0.37561768  0.87775585  0.62151114  1
  Fe  Fe72  1  0.87553309  0.62327270  0.12668912  1
  Fe  Fe73  1  0.49994852  0.24402301  0.50427680  1
  Fe  Fe74  1  0.37350974  0.12380299  0.37635086  1
  Fe  Fe75  1  0.37768189  0.87572328  0.38063597  1
  Fe  Fe76  1  0.74853757  0.50109183  -0.00248567  1
  Fe  Fe77  1  0.25054431  0.49891314  0.25176502  1
  Fe  Fe78  1  0.87771268  0.37534316  0.62281455  1
  Fe  Fe79  1  0.87451083  0.87597259  0.87605696  1
  Fe  Fe80  1  0.37632976  0.12548605  0.87167008  1
  Fe  Fe81  1  0.24849912  0.75196759  0.74806144  1
  Fe  Fe82  1  0.87843995  0.37602214  0.87560467  1
  Fe  Fe83  1  0.12454634  0.87493738  0.87621555  1
  Fe  Fe84  1  0.24513123  0.49921822  0.75024671  1
  Fe  Fe85  1  0.37642095  0.62453464  0.12647241  1
  Fe  Fe86  1  0.87229100  0.12356542  0.12989057  1
  Fe  Fe87  1  0.75109925  0.49524256  0.25132488  1
  Fe  Fe88  1  0.62549502  0.37300739  0.12402937  1
  Fe  Fe89  1  0.50113346  0.75163459  0.74759619  1
  Co  Co90  1  0.50297702  0.00694371  0.50182537  1
  Co  Co91  1  0.00203878  -0.00291702  0.75059022  1
  Co  Co92  1  0.50133120  0.49789623  0.25058439  1
  Co  Co93  1  0.87412429  0.37697997  0.12100016  1
  Co  Co94  1  0.50007033  0.74665846  0.50159735  1
  Co  Co95  1  0.62396781  0.62613998  0.87096469  1
  Co  Co96  1  0.74741131  -0.00628125  0.24825197  1
  Co  Co97  1  0.75472789  0.25257706  0.75024421  1
  Co  Co98  1  -0.00326640  0.74863977  0.49964310  1
  Co  Co99  1  0.12436614  0.12450605  0.87436034  1
  Co  Co100  1  0.12485713  0.12614202  0.36995218  1
  Co  Co101  1  0.49570231  0.25117098  0.74473956  1
  Co  Co102  1  0.37125583  0.12194840  0.62580354  1
  Co  Co103  1  0.12429790  0.12536842  0.62821096  1
  Co  Co104  1  0.75178975  0.75067274  0.49744886  1
  Co  Co105  1  0.75240186  0.25551925  0.25103368  1
  Co  Co106  1  0.12229393  0.87400944  0.62192948  1
  Co  Co107  1  0.74977348  0.00418674  0.50140352  1
  Co  Co108  1  0.12493257  0.37435201  0.12628413  1
  Co  Co109  1  0.25125050  0.74951682  0.50007133  1
  Co  Co110  1  0.00247514  0.50127698  0.74815866  1
  Co  Co111  1  0.12356016  0.37301360  0.87452145  1
  Co  Co112  1  0.49934035  0.74804829  -0.00000278  1
  Co  Co113  1  0.87483388  0.37624093  0.38080216  1
  Co  Co114  1  0.62258356  0.87570230  0.37981089  1
  Co  Co115  1  0.62863602  0.12605484  0.63146212  1
  Co  Co116  1  0.12499699  0.62821307  0.87412948  1
  Co  Co117  1  0.37650327  0.62501625  0.37494783  1
  Co  Co118  1  0.00152667  0.00608084  0.49947288  1
  Co  Co119  1  0.49980606  0.24849062  0.00014518  1
  Co  Co120  1  -0.00112979  0.49721832  0.25136922  1
  Co  Co121  1  0.50129941  -0.00170852  0.74831009  1
  Co  Co122  1  0.37653718  0.87656891  0.12382340  1
  Co  Co123  1  0.74940413  -0.00314735  0.75115042  1
  Co  Co124  1  0.75060632  0.75308526  0.74962876  1
  Co  Co125  1  0.00148476  -0.00262642  0.24906776  1
  Co  Co126  1  0.12297357  0.37371385  0.62187221  1
  Co  Co127  1  0.87205846  0.11952459  0.36823669  1
