# generated using pymatgen
data_Fe45Co19
_symmetry_space_group_name_H-M   'P 1'
_cell_length_a   11.41657888
_cell_length_b   11.41645674
_cell_length_c   11.41511501
_cell_angle_alpha   90.01054799
_cell_angle_beta   90.00368631
_cell_angle_gamma   90.00210621
_symmetry_Int_Tables_number   1
_chemical_formula_structural   Fe45Co19
_chemical_formula_sum   'Fe90 Co38'
_cell_volume   1487.81043299
_cell_formula_units_Z   2
loop_
 _symmetry_equiv_pos_site_id
 _symmetry_equiv_pos_as_xyz
  1  'x, y, z'
loop_
 _atom_site_type_symbol
 _atom_site_label
 _atom_site_symmetry_multiplicity
 _atom_site_fract_x
 _atom_site_fract_y
 _atom_site_fract_z
 _atom_site_occupancy
  Fe  Fe0  1  0.62994491  0.62657909  0.87785680  1
  Fe  Fe1  1  0.75117037  0.50064876  0.49981860  1
  Fe  Fe2  1  0.00033723  -0.00123960  -0.00201129  1
  Fe  Fe3  1  0.50029659  0.75119027  0.25497506  1
  Fe  Fe4  1  0.12240705  0.87388713  0.62589294  1
  Fe  Fe5  1  0.37537133  0.37572378  0.62571800  1
  Fe  Fe6  1  0.87307670  0.12314377  0.87199040  1
  Fe  Fe7  1  0.87592363  0.12279308  0.12707330  1
  Fe  Fe8  1  0.74552885  0.24605831  0.24996455  1
  Fe  Fe9  1  0.87667148  0.62307675  0.37490888  1
  Fe  Fe10  1  0.37632325  0.12598910  0.62500227  1
  Fe  Fe11  1  0.24934454  0.25143180  0.50164622  1
  Fe  Fe12  1  0.87790599  0.37306927  0.62565201  1
  Fe  Fe13  1  0.25000548  0.74967932  0.00022038  1
  Fe  Fe14  1  0.50138848  0.74895748  0.75190826  1
  Fe  Fe15  1  0.37527306  0.37829716  0.87656729  1
  Fe  Fe16  1  0.00223752  0.49395419  0.49478194  1
  Fe  Fe17  1  0.74979552  0.50006545  0.24983132  1
  Fe  Fe18  1  0.12577157  0.62402400  0.87563383  1
  Fe  Fe19  1  0.37560978  0.62319536  0.37660330  1
  Fe  Fe20  1  0.00010035  0.00041975  0.50056057  1
  Fe  Fe21  1  0.24806596  0.49831953  0.50014751  1
  Fe  Fe22  1  0.50085017  0.50311167  0.75131939  1
  Fe  Fe23  1  0.12329673  0.12885168  0.62685849  1
  Fe  Fe24  1  0.37687303  0.62592272  0.62396806  1
  Fe  Fe25  1  0.62482717  0.87540743  0.12711983  1
  Fe  Fe26  1  0.50028712  0.74805791  -0.00073685  1
  Fe  Fe27  1  0.87325649  0.37419266  0.87282174  1
  Fe  Fe28  1  0.87492463  0.37459372  0.12745269  1
  Fe  Fe29  1  0.12448861  0.37504186  0.87209755  1
  Fe  Fe30  1  0.62682459  0.37573648  0.87570837  1
  Fe  Fe31  1  0.37536157  0.87257655  0.62386156  1
  Fe  Fe32  1  -0.00235081  0.49905884  -0.00030185  1
  Fe  Fe33  1  0.12658084  0.12462159  0.87322074  1
  Fe  Fe34  1  0.62409925  0.62751837  0.61932624  1
  Fe  Fe35  1  0.75194876  0.50197769  0.74805364  1
  Fe  Fe36  1  0.62548165  0.87071781  0.62042739  1
  Fe  Fe37  1  0.12429701  0.12636193  0.37458782  1
  Fe  Fe38  1  0.62370806  0.12586540  0.62336197  1
  Fe  Fe39  1  0.24957753  0.74821936  0.25122908  1
  Fe  Fe40  1  0.12509184  0.87647057  0.12549934  1
  Fe  Fe41  1  0.25231075  0.24812164  0.24841284  1
  Fe  Fe42  1  0.00137288  0.75005444  0.25215444  1
  Fe  Fe43  1  0.24901671  0.50055297  0.74885659  1
  Fe  Fe44  1  0.62691777  0.62513529  0.12474053  1
  Fe  Fe45  1  0.24996652  0.00166826  0.00294425  1
  Fe  Fe46  1  0.12272011  0.62320918  0.12490363  1
  Fe  Fe47  1  0.12400390  0.37480151  0.12726588  1
  Fe  Fe48  1  0.38120962  0.12445192  0.37635509  1
  Fe  Fe49  1  0.50055673  -0.00063911  0.00041145  1
  Fe  Fe50  1  0.62473852  0.37501851  0.37733916  1
  Fe  Fe51  1  0.74986278  0.24957384  0.50039612  1
  Fe  Fe52  1  0.87608953  0.12654916  0.62684835  1
  Fe  Fe53  1  0.75026424  0.24865514  0.00033974  1
  Fe  Fe54  1  -0.00055400  0.75334749  -0.00272305  1
  Fe  Fe55  1  0.38042054  0.12628137  0.12527230  1
  Fe  Fe56  1  0.74971042  -0.00040192  0.49931650  1
  Fe  Fe57  1  0.87850711  0.62784996  0.62364308  1
  Fe  Fe58  1  0.25005208  0.24971291  0.00069012  1
  Fe  Fe59  1  0.37579629  0.37421641  0.37547138  1
  Fe  Fe60  1  0.25035909  0.00256813  0.24861871  1
  Fe  Fe61  1  0.24965239  0.74935576  0.49878732  1
  Fe  Fe62  1  0.74798111  -0.00317809  0.74915508  1
  Fe  Fe63  1  0.87651078  0.87197467  0.62783858  1
  Fe  Fe64  1  0.37709121  0.37631116  0.12170330  1
  Fe  Fe65  1  0.87444788  0.12475466  0.37445280  1
  Fe  Fe66  1  0.12680129  0.87579631  0.37484157  1
  Fe  Fe67  1  0.62493345  0.37595281  0.62514094  1
  Fe  Fe68  1  0.62368178  0.37458106  0.12119720  1
  Fe  Fe69  1  0.24782710  0.74947944  0.75035808  1
  Fe  Fe70  1  -0.00040301  0.24882718  -0.00090669  1
  Fe  Fe71  1  0.37470596  0.87443826  0.87481215  1
  Fe  Fe72  1  0.12079257  0.62416473  0.62314223  1
  Fe  Fe73  1  0.37549284  0.62320625  0.12310419  1
  Fe  Fe74  1  0.24975275  -0.00061983  0.74799857  1
  Fe  Fe75  1  0.87482540  0.62526077  0.12470366  1
  Fe  Fe76  1  0.24852101  0.50131040  0.24980223  1
  Fe  Fe77  1  0.50003660  0.25033286  0.75079588  1
  Fe  Fe78  1  0.74916409  0.74998525  0.25323851  1
  Fe  Fe79  1  0.50091061  0.49905994  0.25052898  1
  Fe  Fe80  1  0.87561175  0.87686450  0.12806737  1
  Fe  Fe81  1  0.62572250  0.12415660  0.87506695  1
  Fe  Fe82  1  0.37533253  0.87472734  0.12702178  1
  Fe  Fe83  1  0.25052291  0.00082157  0.50104703  1
  Fe  Fe84  1  0.87133962  0.62883678  0.87634388  1
  Fe  Fe85  1  0.74993282  -0.00301892  0.00112229  1
  Fe  Fe86  1  0.87462557  0.87747143  0.37366881  1
  Fe  Fe87  1  0.50112003  -0.00210572  0.74761218  1
  Fe  Fe88  1  -0.00058724  0.25009551  0.25251247  1
  Fe  Fe89  1  0.37471731  0.12383320  0.87364973  1
  Co  Co90  1  -0.00017137  0.25125408  0.49784346  1
  Co  Co91  1  0.75075522  0.75532543  0.00291089  1
  Co  Co92  1  0.37174615  0.87793624  0.37438027  1
  Co  Co93  1  0.62146627  0.12443136  0.37897517  1
  Co  Co94  1  -0.00115087  0.24843935  0.75134016  1
  Co  Co95  1  0.12825776  0.87753867  0.87513465  1
  Co  Co96  1  0.62464089  0.62268528  0.37724130  1
  Co  Co97  1  0.12184473  0.12624110  0.12569193  1
  Co  Co98  1  0.49767890  0.75232729  0.49442626  1
  Co  Co99  1  0.75206806  0.49824669  0.00163412  1
  Co  Co100  1  -0.00268103  0.50163773  0.75214060  1
  Co  Co101  1  0.49998255  0.25205431  0.50256999  1
  Co  Co102  1  0.12387438  0.62447751  0.37655875  1
  Co  Co103  1  0.74601350  0.00266582  0.25046061  1
  Co  Co104  1  0.00074520  -0.00005240  0.75017556  1
  Co  Co105  1  0.62398547  0.87471072  0.87597378  1
  Co  Co106  1  -0.00019899  0.75282192  0.49699770  1
  Co  Co107  1  0.12223951  0.37423911  0.62755266  1
  Co  Co108  1  0.75300592  0.74933950  0.49640562  1
  Co  Co109  1  0.87066808  0.37347368  0.37312102  1
  Co  Co110  1  0.74830862  0.74949832  0.74790472  1
  Co  Co111  1  0.50269371  0.25188063  0.24958297  1
  Co  Co112  1  0.50172674  0.50376083  -0.00155448  1
  Co  Co113  1  0.37212768  0.62529196  0.87537594  1
  Co  Co114  1  0.50228313  -0.00046939  0.25065158  1
  Co  Co115  1  0.62657671  0.87686987  0.37706963  1
  Co  Co116  1  0.49975485  0.24947817  -0.00270861  1
  Co  Co117  1  0.24787877  0.49935164  0.00098028  1
  Co  Co118  1  0.49876858  0.49873929  0.50025872  1
  Co  Co119  1  0.00242443  0.00001192  0.25154560  1
  Co  Co120  1  0.25189811  0.25137785  0.75007791  1
  Co  Co121  1  0.12844714  0.37237932  0.37130891  1
  Co  Co122  1  0.49929942  -0.00333171  0.50180663  1
  Co  Co123  1  0.00163965  0.74999038  0.75364439  1
  Co  Co124  1  0.87276173  0.87440194  0.87122923  1
  Co  Co125  1  0.74923932  0.25043749  0.74892130  1
  Co  Co126  1  0.62327393  0.12445301  0.12207043  1
  Co  Co127  1  -0.00023199  0.49911415  0.25161884  1
