# generated using pymatgen
data_Fe45Co19
_symmetry_space_group_name_H-M   'P 1'
_cell_length_a   11.41388500
_cell_length_b   11.41557644
_cell_length_c   11.41681935
_cell_angle_alpha   90.00380572
_cell_angle_beta   90.00385868
_cell_angle_gamma   90.00277784
_symmetry_Int_Tables_number   1
_chemical_formula_structural   Fe45Co19
_chemical_formula_sum   'Fe90 Co38'
_cell_volume   1487.56676068
_cell_formula_units_Z   2
loop_
 _symmetry_equiv_pos_site_id
 _symmetry_equiv_pos_as_xyz
  1  'x, y, z'
loop_
 _atom_site_type_symbol
 _atom_site_label
 _atom_site_symmetry_multiplicity
 _atom_site_fract_x
 _atom_site_fract_y
 _atom_site_fract_z
 _atom_site_occupancy
  Fe  Fe0  1  0.12562159  0.87420885  0.37764004  1
  Fe  Fe1  1  0.37622832  0.12422561  0.62438965  1
  Fe  Fe2  1  0.24932861  0.00060619  0.74935318  1
  Fe  Fe3  1  0.74900377  0.75184687  0.25066623  1
  Fe  Fe4  1  0.49992825  0.75140625  0.74832812  1
  Fe  Fe5  1  0.12338835  0.12599881  0.62638571  1
  Fe  Fe6  1  0.50207231  0.25112792  0.74759701  1
  Fe  Fe7  1  0.24784699  0.00059457  0.25141436  1
  Fe  Fe8  1  0.62704934  0.12365866  0.12500482  1
  Fe  Fe9  1  0.37498248  0.12508167  0.37428908  1
  Fe  Fe10  1  0.87485535  0.87747032  0.62787127  1
  Fe  Fe11  1  -0.00060449  0.49607284  0.25250375  1
  Fe  Fe12  1  0.12372000  0.62467245  0.87214460  1
  Fe  Fe13  1  0.74740204  0.00311281  0.75190222  1
  Fe  Fe14  1  0.00155859  -0.00073252  0.25047322  1
  Fe  Fe15  1  0.37347275  0.87546550  0.37834193  1
  Fe  Fe16  1  0.12305261  0.62133012  0.62732506  1
  Fe  Fe17  1  0.87677193  0.62441435  0.12895090  1
  Fe  Fe18  1  0.12466544  0.87465717  0.12253014  1
  Fe  Fe19  1  0.75072015  0.74890221  -0.00024677  1
  Fe  Fe20  1  0.25123113  0.50091299  0.50034687  1
  Fe  Fe21  1  0.50186195  0.00062352  0.75047722  1
  Fe  Fe22  1  -0.00006158  0.74851381  -0.00000717  1
  Fe  Fe23  1  0.12400061  0.87726557  0.62524182  1
  Fe  Fe24  1  0.12489763  0.37356386  0.87760946  1
  Fe  Fe25  1  0.25089980  0.75157308  0.74683633  1
  Fe  Fe26  1  0.87632766  0.62451052  0.87106439  1
  Fe  Fe27  1  0.75167533  0.50317234  0.49590295  1
  Fe  Fe28  1  0.24762636  0.49861885  0.25048246  1
  Fe  Fe29  1  0.87353121  0.12334773  0.12669276  1
  Fe  Fe30  1  0.00013236  0.49882030  -0.00009504  1
  Fe  Fe31  1  0.12262745  0.12945168  0.87356392  1
  Fe  Fe32  1  0.49975516  0.25239971  0.24990951  1
  Fe  Fe33  1  0.25115408  0.24969181  0.50173250  1
  Fe  Fe34  1  0.12546719  0.12792240  0.12459002  1
  Fe  Fe35  1  0.87447915  0.87276610  0.87171981  1
  Fe  Fe36  1  0.62254200  0.62627749  0.37376873  1
  Fe  Fe37  1  0.75100577  0.49984208  -0.00072599  1
  Fe  Fe38  1  -0.00195984  0.74781276  0.50147072  1
  Fe  Fe39  1  0.24910024  0.25159267  0.25008192  1
  Fe  Fe40  1  -0.00111340  0.00305992  0.50013822  1
  Fe  Fe41  1  0.62394013  0.62257959  0.62731392  1
  Fe  Fe42  1  0.74668748  -0.00264848  0.25278266  1
  Fe  Fe43  1  0.62459028  0.37435568  0.61976978  1
  Fe  Fe44  1  0.12548239  0.87410089  0.87483783  1
  Fe  Fe45  1  0.25116485  0.25211191  0.74817829  1
  Fe  Fe46  1  0.37345095  0.87517850  0.87501438  1
  Fe  Fe47  1  0.50242128  0.00321767  0.49745589  1
  Fe  Fe48  1  0.74888234  0.00339676  0.49797531  1
  Fe  Fe49  1  0.11958923  0.37110332  0.37951711  1
  Fe  Fe50  1  0.37704792  0.62172366  0.87197875  1
  Fe  Fe51  1  0.50088977  0.25036556  0.00216798  1
  Fe  Fe52  1  0.62869520  0.37055694  0.87671628  1
  Fe  Fe53  1  0.87462145  0.87435069  0.37634752  1
  Fe  Fe54  1  0.62689269  0.87425321  0.87607819  1
  Fe  Fe55  1  0.62470040  0.37236289  0.37829666  1
  Fe  Fe56  1  0.75215931  0.74729466  0.50215732  1
  Fe  Fe57  1  0.62742944  0.37644931  0.12505510  1
  Fe  Fe58  1  0.87214355  0.13106934  0.87218939  1
  Fe  Fe59  1  -0.00237825  0.00157679  -0.00348154  1
  Fe  Fe60  1  0.24972402  0.74563077  0.00151947  1
  Fe  Fe61  1  0.49981446  0.75173300  0.25024716  1
  Fe  Fe62  1  0.50074845  0.74858273  -0.00045169  1
  Fe  Fe63  1  0.37242338  0.37776365  0.12196677  1
  Fe  Fe64  1  0.12114417  0.12873608  0.37578272  1
  Fe  Fe65  1  0.75373950  0.25152806  0.25081000  1
  Fe  Fe66  1  0.37560424  0.37590615  0.87711410  1
  Fe  Fe67  1  0.87768116  0.62071257  0.62870092  1
  Fe  Fe68  1  0.37634126  0.12593434  0.87506219  1
  Fe  Fe69  1  0.75052804  0.49592236  0.75097496  1
  Fe  Fe70  1  0.25283532  0.74736557  0.50299495  1
  Fe  Fe71  1  0.12356341  0.62729464  0.37296250  1
  Fe  Fe72  1  0.50267499  0.00085926  -0.00060297  1
  Fe  Fe73  1  0.87400995  0.87524286  0.12452264  1
  Fe  Fe74  1  0.37426789  0.12471176  0.12545908  1
  Fe  Fe75  1  0.37688124  0.62018817  0.12582838  1
  Fe  Fe76  1  0.62517075  0.87558241  0.62299935  1
  Fe  Fe77  1  0.24867681  0.00298284  -0.00133430  1
  Fe  Fe78  1  0.37717791  0.37674122  0.37781471  1
  Fe  Fe79  1  0.75575684  0.24479191  0.50214989  1
  Fe  Fe80  1  0.49635332  0.74555943  0.50199709  1
  Fe  Fe81  1  0.75097999  0.49843429  0.25451300  1
  Fe  Fe82  1  -0.00436524  0.25711724  0.74357072  1
  Fe  Fe83  1  0.24918448  0.49583235  0.74940076  1
  Fe  Fe84  1  0.50326984  -0.00171232  0.25248238  1
  Fe  Fe85  1  0.37525763  0.87643359  0.12395206  1
  Fe  Fe86  1  -0.00287552  0.25255580  0.00445962  1
  Fe  Fe87  1  0.62436372  0.62370588  0.12641068  1
  Fe  Fe88  1  0.62511912  0.62413057  0.87294586  1
  Fe  Fe89  1  0.24989273  0.75020109  0.24863320  1
  Co  Co90  1  -0.00047127  0.49401855  0.75215515  1
  Co  Co91  1  0.87677941  0.12462957  0.37129397  1
  Co  Co92  1  0.62400711  0.12563175  0.62411461  1
  Co  Co93  1  0.00026944  0.75409586  0.25080225  1
  Co  Co94  1  0.87531821  0.12016429  0.63013131  1
  Co  Co95  1  0.87634492  0.62730509  0.37109587  1
  Co  Co96  1  -0.00162585  0.25267073  0.24634380  1
  Co  Co97  1  0.12360427  0.37636129  0.62032795  1
  Co  Co98  1  0.87331700  0.37890677  0.12558537  1
  Co  Co99  1  0.50403077  0.49451109  0.75033090  1
  Co  Co100  1  0.37612375  0.87862562  0.62241261  1
  Co  Co101  1  0.00092379  0.75072826  0.74762333  1
  Co  Co102  1  0.00059049  0.00011791  0.75338147  1
  Co  Co103  1  0.24751907  0.50290222  -0.00146503  1
  Co  Co104  1  0.87732083  0.37223378  0.37947939  1
  Co  Co105  1  0.62718632  0.12944643  0.87606846  1
  Co  Co106  1  0.75074229  0.25288472  0.74330013  1
  Co  Co107  1  0.62623699  0.12950195  0.37321635  1
  Co  Co108  1  0.75103268  0.24992544  0.00442863  1
  Co  Co109  1  0.25118950  0.24873912  -0.00082391  1
  Co  Co110  1  0.62593387  0.87503748  0.12197711  1
  Co  Co111  1  0.49779477  0.24822062  0.49934679  1
  Co  Co112  1  -0.00548245  0.24571249  0.50552068  1
  Co  Co113  1  0.49956455  0.50277538  0.49925167  1
  Co  Co114  1  -0.00058832  0.50450429  0.49655709  1
  Co  Co115  1  0.50357023  0.49867145  -0.00101650  1
  Co  Co116  1  0.62470409  0.87058597  0.37966263  1
  Co  Co117  1  0.87278667  0.37214515  0.87644472  1
  Co  Co118  1  0.74959239  0.74905856  0.74802641  1
  Co  Co119  1  0.12158673  0.62366423  0.12828609  1
  Co  Co120  1  0.75216470  0.00055287  -0.00367202  1
  Co  Co121  1  0.37549144  0.62007672  0.63061303  1
  Co  Co122  1  0.37444835  0.62328541  0.37162611  1
  Co  Co123  1  0.24764098  0.00358838  0.50017402  1
  Co  Co124  1  0.50196739  0.49625188  0.25142004  1
  Co  Co125  1  0.12690955  0.37468709  0.12328813  1
  Co  Co126  1  0.37666890  0.37635203  0.62298089  1
  Co  Co127  1  0.87420749  0.38170260  0.61880753  1
