# generated using pymatgen
data_Fe45Co19
_symmetry_space_group_name_H-M   'P 1'
_cell_length_a   11.41313706
_cell_length_b   11.41399848
_cell_length_c   11.41480066
_cell_angle_alpha   90.00116464
_cell_angle_beta   90.00460584
_cell_angle_gamma   89.99649205
_symmetry_Int_Tables_number   1
_chemical_formula_structural   Fe45Co19
_chemical_formula_sum   'Fe90 Co38'
_cell_volume   1487.00069767
_cell_formula_units_Z   2
loop_
 _symmetry_equiv_pos_site_id
 _symmetry_equiv_pos_as_xyz
  1  'x, y, z'
loop_
 _atom_site_type_symbol
 _atom_site_label
 _atom_site_symmetry_multiplicity
 _atom_site_fract_x
 _atom_site_fract_y
 _atom_site_fract_z
 _atom_site_occupancy
  Fe  Fe0  1  0.62445332  0.37280630  0.37557347  1
  Fe  Fe1  1  0.62799589  0.87669059  0.12998894  1
  Fe  Fe2  1  0.24871024  0.00087720  0.25163375  1
  Fe  Fe3  1  0.87621190  0.87401966  0.62294276  1
  Fe  Fe4  1  0.37291854  0.87590002  0.12733963  1
  Fe  Fe5  1  0.25050669  0.25078168  0.00073455  1
  Fe  Fe6  1  0.50156004  -0.00063987  0.75123611  1
  Fe  Fe7  1  0.37553926  0.37439403  0.37466652  1
  Fe  Fe8  1  0.50007868  0.75092683  0.25114503  1
  Fe  Fe9  1  0.75008861  0.25090414  0.74878372  1
  Fe  Fe10  1  -0.00165691  0.00303045  0.25105135  1
  Fe  Fe11  1  -0.00222800  0.74954752  0.24975725  1
  Fe  Fe12  1  0.24979095  0.24904781  0.24998516  1
  Fe  Fe13  1  0.24698025  -0.00100889  0.75022391  1
  Fe  Fe14  1  0.00114354  0.24969298  0.74791611  1
  Fe  Fe15  1  0.75053051  -0.00126170  0.74954755  1
  Fe  Fe16  1  0.62689804  0.87223683  0.87456880  1
  Fe  Fe17  1  0.00414123  0.50153523  0.25361339  1
  Fe  Fe18  1  0.75011247  0.50113389  0.74942798  1
  Fe  Fe19  1  0.87272162  0.12049271  0.12019320  1
  Fe  Fe20  1  0.62326431  0.62397490  0.62567301  1
  Fe  Fe21  1  0.12484149  0.37470163  0.12725638  1
  Fe  Fe22  1  0.00212281  -0.00389469  0.49797426  1
  Fe  Fe23  1  0.24576543  -0.00379108  0.49853969  1
  Fe  Fe24  1  0.62557763  0.37572473  0.87417924  1
  Fe  Fe25  1  0.87577047  0.37449554  0.87649465  1
  Fe  Fe26  1  0.87599145  0.37843804  0.12581638  1
  Fe  Fe27  1  0.87582294  0.87473174  0.87855657  1
  Fe  Fe28  1  0.37392905  0.12220761  0.62353205  1
  Fe  Fe29  1  0.12101975  0.12966109  0.37565957  1
  Fe  Fe30  1  0.24882099  0.50339148  0.74802081  1
  Fe  Fe31  1  0.24884245  0.25146370  0.50099873  1
  Fe  Fe32  1  0.88005884  0.62629949  0.62226674  1
  Fe  Fe33  1  0.00231734  0.50371392  0.75151710  1
  Fe  Fe34  1  0.12626778  0.62700612  0.12270886  1
  Fe  Fe35  1  0.37632095  0.12539735  0.37502295  1
  Fe  Fe36  1  0.13074556  0.62980323  0.38025471  1
  Fe  Fe37  1  0.87342893  0.62621410  0.37480819  1
  Fe  Fe38  1  0.37538503  0.12412867  0.87483139  1
  Fe  Fe39  1  0.50008717  0.25143498  0.74921160  1
  Fe  Fe40  1  0.62615317  0.62723086  0.87720927  1
  Fe  Fe41  1  0.12345911  0.87034781  0.87555920  1
  Fe  Fe42  1  0.74972154  0.50151665  0.00161596  1
  Fe  Fe43  1  0.62612664  0.87386345  0.62306706  1
  Fe  Fe44  1  0.62186841  0.12479389  0.37370710  1
  Fe  Fe45  1  0.86803396  0.87391137  0.37366725  1
  Fe  Fe46  1  0.37487089  0.87615909  0.62709018  1
  Fe  Fe47  1  0.62415365  0.12463560  0.62386853  1
  Fe  Fe48  1  0.00308733  0.50204428  -0.00135447  1
  Fe  Fe49  1  0.00120781  0.24867574  0.00240537  1
  Fe  Fe50  1  0.74976655  0.50105865  0.49983837  1
  Fe  Fe51  1  0.75312378  0.74902413  0.74748306  1
  Fe  Fe52  1  0.49965839  0.50092358  0.25144395  1
  Fe  Fe53  1  0.87471653  0.37668804  0.62463601  1
  Fe  Fe54  1  0.87532366  0.62590713  0.87712999  1
  Fe  Fe55  1  0.49734599  0.49881833  -0.00193096  1
  Fe  Fe56  1  0.50105147  -0.00316328  0.49682750  1
  Fe  Fe57  1  0.12246307  0.87566945  0.12599931  1
  Fe  Fe58  1  0.24953504  0.50120249  0.25239399  1
  Fe  Fe59  1  0.75432826  0.74943941  0.00797783  1
  Fe  Fe60  1  0.62395416  0.12340079  0.12568866  1
  Fe  Fe61  1  0.87753695  0.12361336  0.62293484  1
  Fe  Fe62  1  0.49731005  0.75237088  0.00051704  1
  Fe  Fe63  1  0.62637794  0.12508653  0.87630980  1
  Fe  Fe64  1  0.00046863  -0.00069449  0.75126683  1
  Fe  Fe65  1  0.37432433  0.37553846  0.12662630  1
  Fe  Fe66  1  0.24765596  0.74836151  0.74650287  1
  Fe  Fe67  1  0.74838527  0.50248336  0.24965092  1
  Fe  Fe68  1  0.37791801  0.37693240  0.62601085  1
  Fe  Fe69  1  0.12527707  0.12605549  0.87519216  1
  Fe  Fe70  1  0.37465390  0.62573228  0.12598332  1
  Fe  Fe71  1  0.75246940  0.24695533  0.24925565  1
  Fe  Fe72  1  0.75016987  0.24880512  0.50031969  1
  Fe  Fe73  1  0.49832842  0.50165871  0.49899312  1
  Fe  Fe74  1  0.62532625  0.37547579  0.12577199  1
  Fe  Fe75  1  0.62577088  0.62852704  0.37384274  1
  Fe  Fe76  1  0.12705497  0.37559412  0.87531390  1
  Fe  Fe77  1  0.24919242  -0.00238239  -0.00186246  1
  Fe  Fe78  1  0.37243577  0.87273884  0.37284463  1
  Fe  Fe79  1  0.87351602  0.12473508  0.87745057  1
  Fe  Fe80  1  0.00255866  0.49855921  0.49684316  1
  Fe  Fe81  1  0.49834148  0.74844979  0.75083664  1
  Fe  Fe82  1  0.49990210  -0.00298274  -0.00107701  1
  Fe  Fe83  1  0.37159290  0.62510609  0.87603852  1
  Fe  Fe84  1  0.87793449  0.37188027  0.37307810  1
  Fe  Fe85  1  0.37560064  0.12279454  0.12567963  1
  Fe  Fe86  1  0.49891408  0.25174598  0.00058061  1
  Fe  Fe87  1  0.12461475  0.37782722  0.62358227  1
  Fe  Fe88  1  0.24951192  0.24921896  0.74748601  1
  Fe  Fe89  1  0.49813201  0.75052218  0.49906509  1
  Co  Co90  1  0.37210983  0.37520380  0.87250239  1
  Co  Co91  1  -0.00035442  0.74725682  0.75225635  1
  Co  Co92  1  0.87881979  0.61912200  0.12726807  1
  Co  Co93  1  0.49909527  0.24984190  0.50097385  1
  Co  Co94  1  0.12809365  0.12301725  0.12560652  1
  Co  Co95  1  0.75228594  0.74614032  0.24405577  1
  Co  Co96  1  0.24904079  0.74975639  0.24760506  1
  Co  Co97  1  0.37206706  0.62775757  0.37438388  1
  Co  Co98  1  0.74993132  0.25142764  0.00130273  1
  Co  Co99  1  0.12173170  0.87248671  0.62667762  1
  Co  Co100  1  -0.00247549  0.74834861  0.00269892  1
  Co  Co101  1  0.12438953  0.12178580  0.62320946  1
  Co  Co102  1  0.12335276  0.36997898  0.37309243  1
  Co  Co103  1  0.25154393  0.75540013  0.50373275  1
  Co  Co104  1  0.00140439  0.25331197  0.50501040  1
  Co  Co105  1  -0.00063442  0.75394090  0.49491704  1
  Co  Co106  1  0.37457426  0.62461852  0.62380496  1
  Co  Co107  1  0.63069535  0.87168456  0.37386448  1
  Co  Co108  1  0.75008067  0.74730764  0.50272616  1
  Co  Co109  1  0.75146767  0.00506780  0.25364314  1
  Co  Co110  1  0.12578703  0.87302053  0.37013681  1
  Co  Co111  1  0.49944403  0.25032129  0.24886928  1
  Co  Co112  1  0.62075052  0.62452496  0.12398540  1
  Co  Co113  1  0.74862628  0.00249146  0.49921209  1
  Co  Co114  1  0.12229086  0.62713327  0.61890753  1
  Co  Co115  1  0.25104225  0.49797052  0.49893719  1
  Co  Co116  1  0.25027743  0.49927683  0.00221080  1
  Co  Co117  1  0.37377185  0.87484594  0.87118787  1
  Co  Co118  1  -0.00317518  0.24630866  0.24315408  1
  Co  Co119  1  0.49930124  -0.00264335  0.25226815  1
  Co  Co120  1  0.25103751  0.75288840  0.00126003  1
  Co  Co121  1  0.74630071  -0.00290274  -0.00141223  1
  Co  Co122  1  0.12751625  0.62682629  0.87777231  1
  Co  Co123  1  0.62450528  0.37711806  0.62385640  1
  Co  Co124  1  0.00382852  0.00104257  -0.00159933  1
  Co  Co125  1  0.50012946  0.50165387  0.75294881  1
  Co  Co126  1  0.87683910  0.88010378  0.12618783  1
  Co  Co127  1  0.88040546  0.12749803  0.37977200  1
