# generated using pymatgen
data_Fe45Co19
_symmetry_space_group_name_H-M   'P 1'
_cell_length_a   11.41445037
_cell_length_b   11.41538032
_cell_length_c   11.41490168
_cell_angle_alpha   90.00175073
_cell_angle_beta   89.99916496
_cell_angle_gamma   89.99793265
_symmetry_Int_Tables_number   1
_chemical_formula_structural   Fe45Co19
_chemical_formula_sum   'Fe90 Co38'
_cell_volume   1487.36502259
_cell_formula_units_Z   2
loop_
 _symmetry_equiv_pos_site_id
 _symmetry_equiv_pos_as_xyz
  1  'x, y, z'
loop_
 _atom_site_type_symbol
 _atom_site_label
 _atom_site_symmetry_multiplicity
 _atom_site_fract_x
 _atom_site_fract_y
 _atom_site_fract_z
 _atom_site_occupancy
  Fe  Fe0  1  0.12448112  0.87285156  0.87878443  1
  Fe  Fe1  1  0.37307629  0.37572497  0.62562847  1
  Fe  Fe2  1  0.12377010  0.62658771  0.37327841  1
  Fe  Fe3  1  0.49898981  -0.00481844  0.75102057  1
  Fe  Fe4  1  0.62485036  0.62827240  0.37257302  1
  Fe  Fe5  1  0.49973851  0.50121126  0.49973558  1
  Fe  Fe6  1  0.50260189  0.24837198  0.24730731  1
  Fe  Fe7  1  0.37577451  0.62418778  0.12677479  1
  Fe  Fe8  1  0.37574058  0.37889073  0.87633813  1
  Fe  Fe9  1  0.87574748  0.37343580  0.37554937  1
  Fe  Fe10  1  0.25243257  0.24759489  0.49925639  1
  Fe  Fe11  1  0.24980730  -0.00056170  0.50025933  1
  Fe  Fe12  1  0.62438098  0.87186748  0.62367582  1
  Fe  Fe13  1  0.49899352  0.74833915  -0.00036632  1
  Fe  Fe14  1  0.37326493  0.12206460  0.87310947  1
  Fe  Fe15  1  0.74905345  0.00033720  0.50066081  1
  Fe  Fe16  1  -0.00033164  0.25248766  0.74741264  1
  Fe  Fe17  1  0.24673263  0.00202666  0.24921769  1
  Fe  Fe18  1  0.74459499  -0.00053074  0.24959869  1
  Fe  Fe19  1  -0.00066364  0.00229492  0.50100076  1
  Fe  Fe20  1  0.75145498  0.25319728  0.74907086  1
  Fe  Fe21  1  0.24907587  0.50128005  0.00248797  1
  Fe  Fe22  1  0.24789228  0.24676105  0.24822719  1
  Fe  Fe23  1  0.00190369  0.00402300  0.25010255  1
  Fe  Fe24  1  0.37637391  0.12358215  0.37207624  1
  Fe  Fe25  1  0.25425447  0.75518248  0.75184874  1
  Fe  Fe26  1  0.87346446  0.87291778  0.87640680  1
  Fe  Fe27  1  0.87699467  0.38030152  0.87154994  1
  Fe  Fe28  1  0.62618084  0.12542225  0.62608170  1
  Fe  Fe29  1  -0.00609073  0.74839846  0.00411087  1
  Fe  Fe30  1  -0.00250243  0.75118471  0.74904832  1
  Fe  Fe31  1  0.75036880  -0.00389086  0.74817447  1
  Fe  Fe32  1  -0.00067552  0.50313374  0.00030339  1
  Fe  Fe33  1  0.87501945  0.62071544  0.63050894  1
  Fe  Fe34  1  0.50214282  0.00168744  0.00029607  1
  Fe  Fe35  1  0.37518940  0.37584572  0.37244726  1
  Fe  Fe36  1  0.24798835  0.50218294  0.50008500  1
  Fe  Fe37  1  0.25034860  0.75063692  0.25058688  1
  Fe  Fe38  1  0.62643847  0.87079759  0.87646335  1
  Fe  Fe39  1  0.12565703  0.12550630  0.87388008  1
  Fe  Fe40  1  0.50223584  0.00033380  0.49837560  1
  Fe  Fe41  1  0.87551459  0.37603362  0.12662599  1
  Fe  Fe42  1  0.75104754  0.50342130  -0.00215528  1
  Fe  Fe43  1  0.49724905  0.24861747  0.00119255  1
  Fe  Fe44  1  0.87270299  0.12440061  0.12399891  1
  Fe  Fe45  1  0.12399483  0.62771531  0.87460726  1
  Fe  Fe46  1  0.74924157  0.49766102  0.25122525  1
  Fe  Fe47  1  0.75215676  0.75393620  0.24673878  1
  Fe  Fe48  1  0.24682871  0.49922789  0.74883708  1
  Fe  Fe49  1  0.74942858  0.50116873  0.49917258  1
  Fe  Fe50  1  0.87516415  0.87612800  0.37487907  1
  Fe  Fe51  1  0.37319858  0.62699682  0.62478403  1
  Fe  Fe52  1  0.50639937  -0.00061206  0.24951950  1
  Fe  Fe53  1  0.87132411  0.12664338  0.37484687  1
  Fe  Fe54  1  0.00334914  0.50162625  0.50296497  1
  Fe  Fe55  1  0.49911557  0.24846444  0.50096496  1
  Fe  Fe56  1  -0.00154110  0.74827114  0.49991782  1
  Fe  Fe57  1  0.12566685  0.87266997  0.62304685  1
  Fe  Fe58  1  0.00075280  -0.00229253  0.75049357  1
  Fe  Fe59  1  0.12356578  0.37202321  0.37606378  1
  Fe  Fe60  1  0.37498717  0.62334359  0.87548502  1
  Fe  Fe61  1  0.37350941  0.12219831  0.62855735  1
  Fe  Fe62  1  0.37622978  0.87564790  0.12333042  1
  Fe  Fe63  1  0.12560533  0.37411102  0.87615486  1
  Fe  Fe64  1  0.62535580  0.37166686  0.37711995  1
  Fe  Fe65  1  0.12176528  0.87575323  0.12358322  1
  Fe  Fe66  1  0.25327838  0.24875991  0.00144677  1
  Fe  Fe67  1  -0.00316774  0.24844587  -0.00020129  1
  Fe  Fe68  1  0.12285859  0.87493481  0.37574307  1
  Fe  Fe69  1  0.87377461  0.12373889  0.87252674  1
  Fe  Fe70  1  0.62610695  0.62765932  0.12587831  1
  Fe  Fe71  1  -0.00296574  0.24828159  0.50316964  1
  Fe  Fe72  1  0.37587265  0.87559511  0.37417769  1
  Fe  Fe73  1  0.62584288  0.37601995  0.62438029  1
  Fe  Fe74  1  0.50158361  0.49975403  0.24917944  1
  Fe  Fe75  1  0.62538760  0.62751066  0.87223039  1
  Fe  Fe76  1  0.62604106  0.37341587  0.12117463  1
  Fe  Fe77  1  0.87665697  0.62439099  0.37029302  1
  Fe  Fe78  1  0.75289377  0.74871614  0.50146486  1
  Fe  Fe79  1  0.49825876  0.25094120  0.75033281  1
  Fe  Fe80  1  0.12741884  0.12533729  0.62769675  1
  Fe  Fe81  1  0.74982788  -0.00184151  0.00053291  1
  Fe  Fe82  1  0.12333727  0.37267935  0.12470639  1
  Fe  Fe83  1  0.62224151  0.37583143  0.87635253  1
  Fe  Fe84  1  0.62711092  0.12626209  0.87505017  1
  Fe  Fe85  1  0.24786111  0.00055489  -0.00007030  1
  Fe  Fe86  1  0.62400807  0.62656577  0.62818030  1
  Fe  Fe87  1  0.49761483  0.74897392  0.49729465  1
  Fe  Fe88  1  0.12184925  0.62588120  0.12766719  1
  Fe  Fe89  1  0.24816475  0.49955587  0.24988906  1
  Co  Co90  1  0.75375355  0.25236996  -0.00330379  1
  Co  Co91  1  -0.00128794  0.00075708  -0.00320414  1
  Co  Co92  1  0.49922930  0.50030136  0.74811954  1
  Co  Co93  1  0.75178199  0.75163789  0.74813947  1
  Co  Co94  1  0.87642286  0.88032335  0.12610587  1
  Co  Co95  1  0.87501528  0.62137594  0.13015607  1
  Co  Co96  1  0.49821803  0.75118274  0.25059578  1
  Co  Co97  1  0.87429641  0.38086069  0.62483966  1
  Co  Co98  1  0.62651489  0.87079290  0.37748730  1
  Co  Co99  1  0.00019338  0.24655792  0.24948968  1
  Co  Co100  1  0.87610835  0.62367482  0.87013283  1
  Co  Co101  1  0.37601027  0.87513004  0.62085863  1
  Co  Co102  1  0.37586448  0.12154675  0.12656902  1
  Co  Co103  1  0.87632648  0.87572055  0.62288006  1
  Co  Co104  1  0.12334972  0.12546841  0.11979191  1
  Co  Co105  1  0.62623036  0.12822530  0.37700745  1
  Co  Co106  1  0.37487216  0.37643436  0.12613538  1
  Co  Co107  1  0.12752988  0.63160312  0.62715241  1
  Co  Co108  1  0.37549148  0.62255009  0.37343850  1
  Co  Co109  1  0.50127189  0.50244574  0.00169450  1
  Co  Co110  1  0.49622272  0.75304975  0.75146645  1
  Co  Co111  1  0.12532800  0.12613557  0.37852990  1
  Co  Co112  1  0.74904336  0.25101402  0.24930108  1
  Co  Co113  1  0.24908127  -0.00645401  0.75120903  1
  Co  Co114  1  0.00764666  0.49887382  0.74762340  1
  Co  Co115  1  0.75162792  0.24997055  0.50332450  1
  Co  Co116  1  0.75470783  0.74714080  0.00228690  1
  Co  Co117  1  0.74592152  0.49845226  0.75216723  1
  Co  Co118  1  0.12724796  0.37114475  0.62299538  1
  Co  Co119  1  0.25108601  0.75036745  0.49523962  1
  Co  Co120  1  0.37503404  0.87660186  0.88158843  1
  Co  Co121  1  0.62802867  0.12723862  0.12045848  1
  Co  Co122  1  0.87401483  0.12303421  0.62809459  1
  Co  Co123  1  -0.00073923  0.75263794  0.24906089  1
  Co  Co124  1  0.00161511  0.49679696  0.25159843  1
  Co  Co125  1  0.62372483  0.87219206  0.12161524  1
  Co  Co126  1  0.25182924  0.25199059  0.75265490  1
  Co  Co127  1  0.25016606  0.74823182  0.00270050  1
