# generated using pymatgen
data_Fe45Co19
_symmetry_space_group_name_H-M   'P 1'
_cell_length_a   11.41545556
_cell_length_b   11.41433582
_cell_length_c   11.41577804
_cell_angle_alpha   90.00652274
_cell_angle_beta   90.00924258
_cell_angle_gamma   90.01087511
_symmetry_Int_Tables_number   1
_chemical_formula_structural   Fe45Co19
_chemical_formula_sum   'Fe90 Co38'
_cell_volume   1487.47403327
_cell_formula_units_Z   2
loop_
 _symmetry_equiv_pos_site_id
 _symmetry_equiv_pos_as_xyz
  1  'x, y, z'
loop_
 _atom_site_type_symbol
 _atom_site_label
 _atom_site_symmetry_multiplicity
 _atom_site_fract_x
 _atom_site_fract_y
 _atom_site_fract_z
 _atom_site_occupancy
  Fe  Fe0  1  0.62946097  0.87897578  0.12423039  1
  Fe  Fe1  1  0.12442588  0.37364539  0.12473758  1
  Fe  Fe2  1  0.62272092  0.12175034  0.37385326  1
  Fe  Fe3  1  0.37742960  0.62362773  0.37354528  1
  Fe  Fe4  1  0.12460090  0.12609841  0.87411162  1
  Fe  Fe5  1  0.24811061  0.00214976  0.00021376  1
  Fe  Fe6  1  0.25137075  0.74976743  0.25101710  1
  Fe  Fe7  1  -0.00187892  -0.00341595  0.24765873  1
  Fe  Fe8  1  0.24801497  0.49911204  0.75386426  1
  Fe  Fe9  1  0.12328728  0.37096612  0.37619031  1
  Fe  Fe10  1  0.50136459  0.50061630  0.00212987  1
  Fe  Fe11  1  0.50030584  0.24857377  0.24954147  1
  Fe  Fe12  1  0.87568156  0.12450183  0.87387815  1
  Fe  Fe13  1  0.74856389  0.75329158  -0.00394444  1
  Fe  Fe14  1  0.62627566  0.37303805  0.62425257  1
  Fe  Fe15  1  -0.00021784  0.75188768  0.74619761  1
  Fe  Fe16  1  0.37793518  0.87556416  0.87676046  1
  Fe  Fe17  1  0.37695135  0.37624913  0.87544098  1
  Fe  Fe18  1  0.37340894  0.87648386  0.62346583  1
  Fe  Fe19  1  0.87610760  0.62644995  0.37502162  1
  Fe  Fe20  1  -0.00078604  0.49867868  0.24919506  1
  Fe  Fe21  1  -0.00069532  0.75208506  0.00433107  1
  Fe  Fe22  1  0.62390175  0.87908437  0.37739882  1
  Fe  Fe23  1  0.37463689  0.62393863  0.62511486  1
  Fe  Fe24  1  0.87215236  0.12245554  0.12714074  1
  Fe  Fe25  1  0.50063527  0.25117131  0.75132514  1
  Fe  Fe26  1  0.00098594  -0.00220516  0.74786644  1
  Fe  Fe27  1  0.87425640  0.87417678  0.37984095  1
  Fe  Fe28  1  0.24965362  0.00243798  0.24753697  1
  Fe  Fe29  1  0.00158315  0.49913671  0.75040360  1
  Fe  Fe30  1  0.87409162  0.37388659  0.87420515  1
  Fe  Fe31  1  0.87310028  0.62570783  0.62396177  1
  Fe  Fe32  1  0.12287760  0.62795127  0.37561801  1
  Fe  Fe33  1  0.87363757  0.12451518  0.62636473  1
  Fe  Fe34  1  0.25026703  0.75130124  0.75113215  1
  Fe  Fe35  1  0.62473899  0.62417635  0.62457362  1
  Fe  Fe36  1  0.62515353  0.12523988  0.62468350  1
  Fe  Fe37  1  0.62583003  0.62447689  0.12608864  1
  Fe  Fe38  1  0.74819714  0.49792806  0.75112723  1
  Fe  Fe39  1  0.25027530  0.74814736  0.00000809  1
  Fe  Fe40  1  0.74895449  0.49803624  -0.00027790  1
  Fe  Fe41  1  -0.00185467  0.00245251  0.50145400  1
  Fe  Fe42  1  0.74835476  0.25025987  0.00090325  1
  Fe  Fe43  1  0.37371655  0.87589691  0.12356842  1
  Fe  Fe44  1  0.50206668  0.00220770  0.00295423  1
  Fe  Fe45  1  -0.00165059  0.24955626  0.00324197  1
  Fe  Fe46  1  0.49989941  0.75135198  0.24679582  1
  Fe  Fe47  1  0.37746654  0.62539521  0.87526481  1
  Fe  Fe48  1  0.74860391  0.49614538  0.25071267  1
  Fe  Fe49  1  0.12336368  0.87431528  0.87629869  1
  Fe  Fe50  1  0.50238439  0.24816370  0.00050554  1
  Fe  Fe51  1  0.37686800  0.87926331  0.37524688  1
  Fe  Fe52  1  0.12512835  0.87425258  0.37640697  1
  Fe  Fe53  1  0.25040871  0.24755597  0.25084939  1
  Fe  Fe54  1  0.50057105  0.75110964  0.74921853  1
  Fe  Fe55  1  0.24758960  0.50057552  -0.00139510  1
  Fe  Fe56  1  0.12462500  0.62717842  0.12679303  1
  Fe  Fe57  1  0.49490591  0.24735181  0.49787900  1
  Fe  Fe58  1  0.75115710  -0.00193361  0.75211097  1
  Fe  Fe59  1  0.12739282  0.62640945  0.62329672  1
  Fe  Fe60  1  0.87682944  0.62695546  0.87484003  1
  Fe  Fe61  1  0.37687076  0.37586291  0.12759508  1
  Fe  Fe62  1  -0.00071786  0.49896608  0.50120782  1
  Fe  Fe63  1  0.25290065  0.00502145  0.50012257  1
  Fe  Fe64  1  0.37373582  0.12358251  0.87285376  1
  Fe  Fe65  1  0.13028901  0.12790158  0.62699939  1
  Fe  Fe66  1  0.62217913  0.62480708  0.87390762  1
  Fe  Fe67  1  0.12770978  0.37232260  0.62350282  1
  Fe  Fe68  1  0.62378088  0.62450659  0.37501372  1
  Fe  Fe69  1  0.87749539  0.37151477  0.37628467  1
  Fe  Fe70  1  0.75003598  0.25075692  0.24987378  1
  Fe  Fe71  1  0.25077024  0.49911055  0.49741635  1
  Fe  Fe72  1  0.62843246  0.87653055  0.62206527  1
  Fe  Fe73  1  0.25000264  0.24932422  -0.00041844  1
  Fe  Fe74  1  0.49984949  0.49713168  0.49849135  1
  Fe  Fe75  1  0.00057304  0.50005974  -0.00031277  1
  Fe  Fe76  1  0.49955686  0.00033673  0.74760518  1
  Fe  Fe77  1  0.75005877  0.75190483  0.25238443  1
  Fe  Fe78  1  0.87335018  0.62609102  0.12634935  1
  Fe  Fe79  1  -0.00033355  -0.00153368  0.00346207  1
  Fe  Fe80  1  0.75288669  0.24721719  0.49919666  1
  Fe  Fe81  1  0.37300872  0.37285421  0.62505941  1
  Fe  Fe82  1  0.12760983  0.87417872  0.62117560  1
  Fe  Fe83  1  0.24975651  0.50064030  0.25023298  1
  Fe  Fe84  1  0.12077688  0.12708006  0.37369663  1
  Fe  Fe85  1  -0.00059201  0.25194317  0.74822196  1
  Fe  Fe86  1  0.74974591  0.75277407  0.75179477  1
  Fe  Fe87  1  0.62659514  0.12414123  0.87423581  1
  Fe  Fe88  1  0.49962425  0.75095625  0.49998349  1
  Fe  Fe89  1  0.74982610  0.49881226  0.49819601  1
  Co  Co90  1  0.75274844  -0.00043434  0.25513477  1
  Co  Co91  1  0.25337735  0.24642398  0.49513843  1
  Co  Co92  1  0.49801167  0.00222747  0.50406664  1
  Co  Co93  1  0.24907543  -0.00325065  0.75161331  1
  Co  Co94  1  0.62518581  0.37536411  0.87523695  1
  Co  Co95  1  0.87420672  0.37608430  0.12443748  1
  Co  Co96  1  0.37824297  0.12054030  0.37131494  1
  Co  Co97  1  0.25305261  0.74937823  0.49737584  1
  Co  Co98  1  0.74861488  0.74797616  0.49885255  1
  Co  Co99  1  0.50043185  0.49793926  0.74859754  1
  Co  Co100  1  0.50252518  0.50071613  0.25044298  1
  Co  Co101  1  0.75101059  -0.00006882  -0.00419944  1
  Co  Co102  1  0.37489551  0.12610269  0.12471055  1
  Co  Co103  1  0.50029323  -0.00122063  0.24451362  1
  Co  Co104  1  -0.00124955  0.24847252  0.50512484  1
  Co  Co105  1  0.87239396  0.37564645  0.62561394  1
  Co  Co106  1  -0.00078155  0.74900630  0.50102313  1
  Co  Co107  1  0.12286709  0.62874271  0.87522826  1
  Co  Co108  1  0.62452201  0.37233515  0.37632886  1
  Co  Co109  1  0.37462465  0.37592398  0.37158939  1
  Co  Co110  1  -0.00114934  0.25077444  0.24538502  1
  Co  Co111  1  0.37199647  0.12696591  0.62992643  1
  Co  Co112  1  0.75194300  0.00491062  0.49794497  1
  Co  Co113  1  0.12134327  0.37184531  0.87661032  1
  Co  Co114  1  0.62284296  0.37469316  0.12568526  1
  Co  Co115  1  0.12831887  0.87399054  0.12562717  1
  Co  Co116  1  -0.00144642  0.75345066  0.24952440  1
  Co  Co117  1  0.74945605  0.24922669  0.75054011  1
  Co  Co118  1  0.50233941  0.74999839  0.00311381  1
  Co  Co119  1  0.86967296  0.87489559  0.12416699  1
  Co  Co120  1  0.62891519  0.12307712  0.12707871  1
  Co  Co121  1  0.62132277  0.87768113  0.87487741  1
  Co  Co122  1  0.87905602  0.87501755  0.87469554  1
  Co  Co123  1  0.87150127  0.87517387  0.62191767  1
  Co  Co124  1  0.87937252  0.12776543  0.37249012  1
  Co  Co125  1  0.25014283  0.25305463  0.75444343  1
  Co  Co126  1  0.12425236  0.12545421  0.12571158  1
  Co  Co127  1  0.37509925  0.62320042  0.12516825  1
