# generated using pymatgen
data_Fe45Co19
_symmetry_space_group_name_H-M   'P 1'
_cell_length_a   11.41596800
_cell_length_b   11.41552578
_cell_length_c   11.41447782
_cell_angle_alpha   90.01579918
_cell_angle_beta   90.00371915
_cell_angle_gamma   90.00340102
_symmetry_Int_Tables_number   1
_chemical_formula_structural   Fe45Co19
_chemical_formula_sum   'Fe90 Co38'
_cell_volume   1487.52643443
_cell_formula_units_Z   2
loop_
 _symmetry_equiv_pos_site_id
 _symmetry_equiv_pos_as_xyz
  1  'x, y, z'
loop_
 _atom_site_type_symbol
 _atom_site_label
 _atom_site_symmetry_multiplicity
 _atom_site_fract_x
 _atom_site_fract_y
 _atom_site_fract_z
 _atom_site_occupancy
  Fe  Fe0  1  0.37545605  0.12408130  0.12354526  1
  Fe  Fe1  1  0.12141955  0.12479538  0.37672298  1
  Fe  Fe2  1  0.24564403  0.74879976  0.49972555  1
  Fe  Fe3  1  0.12411119  0.87313063  0.37407822  1
  Fe  Fe4  1  0.50010037  0.25069289  -0.00013077  1
  Fe  Fe5  1  0.37163569  0.12296040  0.87605749  1
  Fe  Fe6  1  0.12890464  0.87870529  0.87251096  1
  Fe  Fe7  1  0.12257349  0.62340425  0.87228101  1
  Fe  Fe8  1  0.37297897  0.87467010  0.62662380  1
  Fe  Fe9  1  0.37785036  0.62820697  0.37853495  1
  Fe  Fe10  1  0.12647897  0.37567656  0.12629643  1
  Fe  Fe11  1  0.75116206  0.74986644  0.50143618  1
  Fe  Fe12  1  0.25058939  0.50127505  0.74893173  1
  Fe  Fe13  1  0.50115473  0.50118951  0.25395822  1
  Fe  Fe14  1  0.49943191  0.75228821  0.25162364  1
  Fe  Fe15  1  0.62977453  0.87495435  0.63359263  1
  Fe  Fe16  1  0.87551188  0.12288406  0.37597368  1
  Fe  Fe17  1  0.24971641  0.24841299  0.74829279  1
  Fe  Fe18  1  0.75335281  -0.00151674  0.50305091  1
  Fe  Fe19  1  0.87699098  0.12877267  0.87656969  1
  Fe  Fe20  1  0.74922816  0.00038796  -0.00181328  1
  Fe  Fe21  1  0.50032017  -0.00263841  0.25103896  1
  Fe  Fe22  1  0.37583449  0.62579786  0.62165988  1
  Fe  Fe23  1  0.87166063  0.87297760  0.87238686  1
  Fe  Fe24  1  -0.00094435  0.49830007  -0.00036648  1
  Fe  Fe25  1  -0.00330506  0.75353104  0.24795687  1
  Fe  Fe26  1  0.62525556  0.37467131  0.37671018  1
  Fe  Fe27  1  0.24981479  -0.00138559  0.25067048  1
  Fe  Fe28  1  0.87637241  0.37585564  0.37510870  1
  Fe  Fe29  1  0.49955922  0.24935849  0.74900322  1
  Fe  Fe30  1  0.62633973  0.37680873  0.87388724  1
  Fe  Fe31  1  0.62234144  0.62552560  0.62466655  1
  Fe  Fe32  1  0.00183511  0.75301709  0.74776584  1
  Fe  Fe33  1  0.75083467  0.50222213  0.25065272  1
  Fe  Fe34  1  0.24923320  0.50101182  -0.00073016  1
  Fe  Fe35  1  0.00037145  -0.00254895  0.00129574  1
  Fe  Fe36  1  0.50161382  -0.00388988  0.50231747  1
  Fe  Fe37  1  0.87585243  0.62694518  0.12241870  1
  Fe  Fe38  1  0.75132335  0.24890889  0.50070511  1
  Fe  Fe39  1  0.37688045  0.12323040  0.37737440  1
  Fe  Fe40  1  0.87280927  0.37308922  0.12243029  1
  Fe  Fe41  1  0.00547482  0.50274377  0.49764853  1
  Fe  Fe42  1  0.62366931  0.12343764  0.87419611  1
  Fe  Fe43  1  0.24883010  0.50185650  0.25475877  1
  Fe  Fe44  1  0.37765037  0.62783030  0.87681139  1
  Fe  Fe45  1  0.75246119  0.75075884  0.25057622  1
  Fe  Fe46  1  -0.00087969  0.25218804  0.74863356  1
  Fe  Fe47  1  0.37405275  0.37531147  0.61961641  1
  Fe  Fe48  1  0.74645069  0.74744290  -0.00606498  1
  Fe  Fe49  1  0.62544447  0.37622573  0.62523987  1
  Fe  Fe50  1  0.74796371  0.24683516  0.24889603  1
  Fe  Fe51  1  0.62841973  0.87493760  0.37497423  1
  Fe  Fe52  1  0.37557796  0.62630871  0.12460427  1
  Fe  Fe53  1  0.37418419  0.37457725  0.87494815  1
  Fe  Fe54  1  0.37236054  0.87428601  0.12531412  1
  Fe  Fe55  1  0.75357448  0.50455065  0.75362578  1
  Fe  Fe56  1  0.62564794  0.12222973  0.37599618  1
  Fe  Fe57  1  0.62780633  0.87546373  0.12529564  1
  Fe  Fe58  1  0.87777869  0.62630027  0.37533877  1
  Fe  Fe59  1  0.12745967  0.37536350  0.62149165  1
  Fe  Fe60  1  0.49956081  0.50004249  0.00087053  1
  Fe  Fe61  1  0.50136509  0.24870522  0.25093610  1
  Fe  Fe62  1  0.37447666  0.37397042  0.38005898  1
  Fe  Fe63  1  0.24843552  0.00032287  0.50110857  1
  Fe  Fe64  1  0.74835974  0.50343378  0.49856145  1
  Fe  Fe65  1  0.24948208  0.74912156  0.74951696  1
  Fe  Fe66  1  0.37627743  0.12487510  0.62355204  1
  Fe  Fe67  1  0.12152672  0.12470395  0.62349195  1
  Fe  Fe68  1  -0.00243614  -0.00135119  0.74833071  1
  Fe  Fe69  1  0.12506264  0.37407573  0.87561841  1
  Fe  Fe70  1  0.88012731  0.62589063  0.62644485  1
  Fe  Fe71  1  0.62548943  0.12372019  0.62620346  1
  Fe  Fe72  1  0.87513017  0.37692700  0.62367765  1
  Fe  Fe73  1  0.75203566  0.24884736  0.74945019  1
  Fe  Fe74  1  0.00277029  0.75366981  -0.00003721  1
  Fe  Fe75  1  0.12442908  0.62573901  0.12808887  1
  Fe  Fe76  1  -0.00318461  -0.00424731  0.24745193  1
  Fe  Fe77  1  -0.00356643  -0.00589936  0.50359351  1
  Fe  Fe78  1  0.62584287  0.37540729  0.12445078  1
  Fe  Fe79  1  0.24981756  0.24864289  0.25199046  1
  Fe  Fe80  1  0.49768925  0.50110929  0.74786158  1
  Fe  Fe81  1  0.12657182  0.12437051  0.87649622  1
  Fe  Fe82  1  0.12658621  0.12364344  0.12299365  1
  Fe  Fe83  1  -0.00020467  0.25088051  0.24948216  1
  Fe  Fe84  1  0.87342100  0.12470842  0.12370770  1
  Fe  Fe85  1  0.49903611  -0.00561896  -0.00382974  1
  Fe  Fe86  1  0.37403964  0.37557075  0.12601629  1
  Fe  Fe87  1  0.75203617  0.50331767  -0.00405486  1
  Fe  Fe88  1  0.24834601  0.75145809  0.00048037  1
  Fe  Fe89  1  0.62379964  0.62564042  0.12555739  1
  Co  Co90  1  0.00002734  0.49573275  0.75005650  1
  Co  Co91  1  0.37082644  0.87368458  0.87191948  1
  Co  Co92  1  0.49707055  -0.00074456  0.75082210  1
  Co  Co93  1  0.37268404  0.87535156  0.37780178  1
  Co  Co94  1  0.00251954  0.25027291  0.00219729  1
  Co  Co95  1  0.50319060  0.75511972  0.50198877  1
  Co  Co96  1  0.12683081  0.87554507  0.62541252  1
  Co  Co97  1  0.24900775  0.24607716  0.49916107  1
  Co  Co98  1  -0.00186008  0.25166023  0.49976186  1
  Co  Co99  1  0.87415545  0.37184078  0.87633331  1
  Co  Co100  1  0.24970047  0.00284316  0.74652942  1
  Co  Co101  1  0.25038326  0.25103226  0.00101605  1
  Co  Co102  1  0.12693952  0.87435279  0.12815435  1
  Co  Co103  1  0.62184725  0.12150963  0.12402801  1
  Co  Co104  1  0.12337781  0.62462707  0.62881796  1
  Co  Co105  1  0.50130082  0.75481420  -0.00012663  1
  Co  Co106  1  0.75471222  0.00549799  0.75122022  1
  Co  Co107  1  0.49963668  0.75113458  0.75018838  1
  Co  Co108  1  0.24586181  0.50474188  0.49688536  1
  Co  Co109  1  0.87042583  0.87132807  0.63038801  1
  Co  Co110  1  0.12112192  0.63043534  0.36973542  1
  Co  Co111  1  0.62803226  0.87575324  0.86834725  1
  Co  Co112  1  0.74642030  0.24758330  0.00015093  1
  Co  Co113  1  0.12483549  0.37273188  0.37571256  1
  Co  Co114  1  0.61769909  0.62266918  0.87511756  1
  Co  Co115  1  0.75172862  0.00068979  0.24872234  1
  Co  Co116  1  0.00076123  0.75168345  0.50215575  1
  Co  Co117  1  0.87432434  0.87481531  0.37597322  1
  Co  Co118  1  0.74942108  0.74101515  0.75300850  1
  Co  Co119  1  0.50243623  0.24878661  0.50065593  1
  Co  Co120  1  0.50264210  0.50073589  0.49869527  1
  Co  Co121  1  -0.00156740  0.49897041  0.24868194  1
  Co  Co122  1  0.88329037  0.62728826  0.87451018  1
  Co  Co123  1  0.25025143  -0.00320409  0.00174920  1
  Co  Co124  1  0.62488197  0.62912020  0.37442281  1
  Co  Co125  1  0.87053118  0.87380549  0.12057922  1
  Co  Co126  1  0.87730766  0.12599856  0.62365646  1
  Co  Co127  1  0.25292475  0.74994853  0.25078338  1
