# generated using pymatgen
data_Fe45Co19
_symmetry_space_group_name_H-M   'P 1'
_cell_length_a   11.41599658
_cell_length_b   11.41391964
_cell_length_c   11.41581549
_cell_angle_alpha   90.00913091
_cell_angle_beta   89.99802778
_cell_angle_gamma   89.99219198
_symmetry_Int_Tables_number   1
_chemical_formula_structural   Fe45Co19
_chemical_formula_sum   'Fe90 Co38'
_cell_volume   1487.49519528
_cell_formula_units_Z   2
loop_
 _symmetry_equiv_pos_site_id
 _symmetry_equiv_pos_as_xyz
  1  'x, y, z'
loop_
 _atom_site_type_symbol
 _atom_site_label
 _atom_site_symmetry_multiplicity
 _atom_site_fract_x
 _atom_site_fract_y
 _atom_site_fract_z
 _atom_site_occupancy
  Fe  Fe0  1  0.62748742  0.62468012  0.87729875  1
  Fe  Fe1  1  0.87392933  0.62663133  0.37622527  1
  Fe  Fe2  1  0.12473170  0.37532714  0.62423908  1
  Fe  Fe3  1  0.87991320  0.61995169  0.12734033  1
  Fe  Fe4  1  0.25250983  0.50076040  0.50119189  1
  Fe  Fe5  1  -0.00257521  0.24897972  0.00119573  1
  Fe  Fe6  1  0.25041550  0.00066807  -0.00093416  1
  Fe  Fe7  1  0.37279452  0.62771023  0.37344829  1
  Fe  Fe8  1  0.12410038  0.12387356  0.87368347  1
  Fe  Fe9  1  0.75157586  0.74945788  0.00329342  1
  Fe  Fe10  1  -0.00014929  0.24800259  0.74828802  1
  Fe  Fe11  1  0.25440756  -0.00251202  0.50155186  1
  Fe  Fe12  1  0.75234597  0.00080421  0.00202937  1
  Fe  Fe13  1  0.75311132  0.24782490  0.00414641  1
  Fe  Fe14  1  0.74639791  -0.00056688  0.74690882  1
  Fe  Fe15  1  0.37522857  0.12791358  0.87288430  1
  Fe  Fe16  1  0.75217028  0.50135095  0.00439944  1
  Fe  Fe17  1  0.74888450  -0.00039293  0.25167072  1
  Fe  Fe18  1  0.38001207  0.12653352  0.62965846  1
  Fe  Fe19  1  0.74801064  0.24894534  0.74757496  1
  Fe  Fe20  1  0.49912108  0.50006705  0.00110402  1
  Fe  Fe21  1  0.49753012  0.49899932  0.49896754  1
  Fe  Fe22  1  0.12532137  0.87415443  0.62405084  1
  Fe  Fe23  1  0.50042580  0.24969625  0.00137601  1
  Fe  Fe24  1  0.49884756  -0.00039163  -0.00103685  1
  Fe  Fe25  1  0.62075308  0.87437268  0.62153167  1
  Fe  Fe26  1  0.37297885  0.12623296  0.37137059  1
  Fe  Fe27  1  0.74675748  0.75104699  0.74898980  1
  Fe  Fe28  1  0.25052702  -0.00044857  0.74859331  1
  Fe  Fe29  1  0.74970034  0.49934441  0.49880984  1
  Fe  Fe30  1  0.12378726  0.12424919  0.62191649  1
  Fe  Fe31  1  0.12125324  0.37748792  0.12438481  1
  Fe  Fe32  1  0.87475399  0.87592684  0.87446757  1
  Fe  Fe33  1  0.62422704  0.87598741  0.12474279  1
  Fe  Fe34  1  0.50078566  0.49827895  0.74985676  1
  Fe  Fe35  1  0.12774599  0.37307216  0.37788248  1
  Fe  Fe36  1  0.12284196  0.12352098  0.12443628  1
  Fe  Fe37  1  0.37243540  0.37192533  0.87389222  1
  Fe  Fe38  1  0.62555305  0.12750473  0.38008243  1
  Fe  Fe39  1  -0.00156166  -0.00263180  0.49746733  1
  Fe  Fe40  1  0.87348420  0.37547010  0.87532628  1
  Fe  Fe41  1  0.00190402  0.24883810  0.25165875  1
  Fe  Fe42  1  0.74781688  0.49895027  0.74768506  1
  Fe  Fe43  1  0.24871195  0.50105473  0.00161314  1
  Fe  Fe44  1  0.24631405  0.00064925  0.25030196  1
  Fe  Fe45  1  0.49845960  -0.00180145  0.49897432  1
  Fe  Fe46  1  0.25101255  0.49982322  0.74825610  1
  Fe  Fe47  1  0.87392477  0.62583705  0.62389744  1
  Fe  Fe48  1  0.87443902  0.87327720  0.62178962  1
  Fe  Fe49  1  0.62272807  0.37054508  0.61946592  1
  Fe  Fe50  1  0.62695058  0.37550596  0.87763890  1
  Fe  Fe51  1  0.00015915  0.50159721  0.49815218  1
  Fe  Fe52  1  0.00144586  0.75007742  0.25210181  1
  Fe  Fe53  1  0.37457778  0.87622834  0.12768519  1
  Fe  Fe54  1  0.37650895  0.63097049  0.62656799  1
  Fe  Fe55  1  0.49987020  0.75203293  0.25181958  1
  Fe  Fe56  1  0.62264473  0.62651365  0.62204438  1
  Fe  Fe57  1  0.25386920  0.24956346  0.50255356  1
  Fe  Fe58  1  0.87269506  0.37711010  0.37185632  1
  Fe  Fe59  1  0.62523619  0.62606105  0.37544827  1
  Fe  Fe60  1  0.62468942  0.12370955  0.87566710  1
  Fe  Fe61  1  0.12360598  0.87495701  0.12416689  1
  Fe  Fe62  1  0.12641574  0.62668954  0.62486143  1
  Fe  Fe63  1  0.62594194  0.37538956  0.12625617  1
  Fe  Fe64  1  0.74984785  0.74945165  0.24929163  1
  Fe  Fe65  1  0.37502538  0.62687605  0.12625040  1
  Fe  Fe66  1  0.24910608  0.74943314  0.00060951  1
  Fe  Fe67  1  0.12812252  0.62750270  0.37587737  1
  Fe  Fe68  1  0.12624348  0.37407797  0.87438590  1
  Fe  Fe69  1  0.87604573  0.37654919  0.62537968  1
  Fe  Fe70  1  0.50230072  0.49940609  0.25001465  1
  Fe  Fe71  1  0.50073877  0.75120763  -0.00141052  1
  Fe  Fe72  1  0.74805378  0.24928525  0.24909029  1
  Fe  Fe73  1  0.37458075  0.12673288  0.12671601  1
  Fe  Fe74  1  0.37466804  0.37262665  0.37172311  1
  Fe  Fe75  1  -0.00296083  0.25041900  0.49899359  1
  Fe  Fe76  1  0.87895125  0.87904737  0.12771499  1
  Fe  Fe77  1  0.12746397  0.87372666  0.37684541  1
  Fe  Fe78  1  0.24812534  0.50060300  0.24868581  1
  Fe  Fe79  1  -0.00032716  0.74652366  -0.00269541  1
  Fe  Fe80  1  0.12321213  0.87635194  0.87412917  1
  Fe  Fe81  1  0.87494882  0.12196999  0.37461412  1
  Fe  Fe82  1  0.37418705  0.62642197  0.87307549  1
  Fe  Fe83  1  -0.00091733  0.50237468  0.75309617  1
  Fe  Fe84  1  0.37422574  0.37184340  0.12712516  1
  Fe  Fe85  1  0.87357023  0.12298884  0.62264946  1
  Fe  Fe86  1  -0.00049046  0.74876400  0.75073781  1
  Fe  Fe87  1  0.87598882  0.12217107  0.87308063  1
  Fe  Fe88  1  0.50230407  0.00158282  0.25098432  1
  Fe  Fe89  1  0.37610143  0.87430030  0.87092422  1
  Co  Co90  1  0.37972567  0.87150799  0.62887869  1
  Co  Co91  1  -0.00082737  -0.00113253  0.74694518  1
  Co  Co92  1  0.50363431  -0.00064772  0.75097191  1
  Co  Co93  1  0.74641820  0.50230939  0.25006100  1
  Co  Co94  1  0.49430699  0.25006035  0.49753506  1
  Co  Co95  1  0.87743970  0.12178842  0.12958009  1
  Co  Co96  1  0.50413368  0.25288437  0.75205167  1
  Co  Co97  1  0.00109523  0.74933268  0.49973291  1
  Co  Co98  1  0.12255074  0.62360630  0.12523693  1
  Co  Co99  1  0.24735104  0.24827735  0.74723488  1
  Co  Co100  1  0.12679307  0.12572233  0.38059596  1
  Co  Co101  1  0.62451898  0.37383463  0.37735096  1
  Co  Co102  1  0.24811538  0.75261141  0.74981734  1
  Co  Co103  1  0.62466294  0.12270914  0.12270157  1
  Co  Co104  1  0.25366866  0.75291412  0.50058768  1
  Co  Co105  1  -0.00021833  0.00103280  -0.00033178  1
  Co  Co106  1  0.00432776  -0.00053511  0.25491389  1
  Co  Co107  1  0.86924239  0.62469759  0.87337403  1
  Co  Co108  1  0.74778311  0.75107054  0.49963589  1
  Co  Co109  1  -0.00063452  0.50149976  -0.00524220  1
  Co  Co110  1  0.74906857  -0.00264681  0.50021363  1
  Co  Co111  1  0.62791363  0.87602483  0.87933463  1
  Co  Co112  1  0.37309674  0.87677900  0.37105671  1
  Co  Co113  1  0.62198021  0.62681623  0.12458278  1
  Co  Co114  1  0.49756871  0.75201252  0.49497345  1
  Co  Co115  1  0.50543657  0.74985027  0.75395214  1
  Co  Co116  1  0.62368187  0.12775306  0.62071041  1
  Co  Co117  1  0.00335443  0.50038447  0.25599253  1
  Co  Co118  1  0.24894252  0.75056577  0.24815608  1
  Co  Co119  1  0.24566795  0.24924091  0.24829218  1
  Co  Co120  1  0.62595883  0.87487146  0.37398898  1
  Co  Co121  1  0.87437769  0.87366047  0.37465292  1
  Co  Co122  1  0.24823530  0.24900834  0.00183525  1
  Co  Co123  1  0.50415092  0.24918141  0.24941623  1
  Co  Co124  1  0.37536166  0.37381973  0.62722064  1
  Co  Co125  1  0.12834172  0.62465070  0.87359163  1
  Co  Co126  1  0.87663118  0.37727966  0.12821818  1
  Co  Co127  1  0.75453510  0.25157746  0.49952231  1
