# generated using pymatgen
data_Fe45Co19
_symmetry_space_group_name_H-M   'P 1'
_cell_length_a   11.41469246
_cell_length_b   11.41500871
_cell_length_c   11.41421713
_cell_angle_alpha   89.99916768
_cell_angle_beta   90.00571626
_cell_angle_gamma   90.00271829
_symmetry_Int_Tables_number   1
_chemical_formula_structural   Fe45Co19
_chemical_formula_sum   'Fe90 Co38'
_cell_volume   1487.25894342
_cell_formula_units_Z   2
loop_
 _symmetry_equiv_pos_site_id
 _symmetry_equiv_pos_as_xyz
  1  'x, y, z'
loop_
 _atom_site_type_symbol
 _atom_site_label
 _atom_site_symmetry_multiplicity
 _atom_site_fract_x
 _atom_site_fract_y
 _atom_site_fract_z
 _atom_site_occupancy
  Fe  Fe0  1  0.25494927  0.00249460  0.25023627  1
  Fe  Fe1  1  -0.00070994  0.75000868  0.75179826  1
  Fe  Fe2  1  0.87494101  0.37317950  0.62541039  1
  Fe  Fe3  1  -0.00154276  0.24961780  0.75085388  1
  Fe  Fe4  1  -0.00303550  0.50053466  0.24777766  1
  Fe  Fe5  1  0.49752267  0.00239028  0.25093621  1
  Fe  Fe6  1  0.00169335  0.24860918  -0.00235541  1
  Fe  Fe7  1  0.00320029  0.75240892  0.49860726  1
  Fe  Fe8  1  0.49980472  0.74882036  0.25126267  1
  Fe  Fe9  1  0.75182027  0.50107629  0.74805473  1
  Fe  Fe10  1  0.25162493  0.24775112  0.75037678  1
  Fe  Fe11  1  0.00445152  -0.00262079  0.50441244  1
  Fe  Fe12  1  0.74707438  0.25085706  -0.00478020  1
  Fe  Fe13  1  0.00150286  0.49998308  0.50190354  1
  Fe  Fe14  1  0.12532000  0.37729025  0.87189919  1
  Fe  Fe15  1  0.87608229  0.62691904  0.62394616  1
  Fe  Fe16  1  0.37346053  0.62401100  0.37624467  1
  Fe  Fe17  1  0.87562544  0.12609389  0.62458957  1
  Fe  Fe18  1  0.00028499  0.49927220  0.00071448  1
  Fe  Fe19  1  0.25082289  0.24670429  0.24925699  1
  Fe  Fe20  1  0.50153434  0.75091504  -0.00112067  1
  Fe  Fe21  1  0.62383064  0.12694296  0.12370726  1
  Fe  Fe22  1  0.37756011  0.12056973  0.87583111  1
  Fe  Fe23  1  0.37464834  0.12992229  0.61959576  1
  Fe  Fe24  1  0.12576339  0.62711336  0.62646775  1
  Fe  Fe25  1  -0.00145996  -0.00044592  0.00114918  1
  Fe  Fe26  1  0.25177646  0.50352577  0.74948233  1
  Fe  Fe27  1  0.62354013  0.37027736  0.63023671  1
  Fe  Fe28  1  0.25036909  -0.00104234  -0.00079034  1
  Fe  Fe29  1  0.62455968  0.87668117  0.87076541  1
  Fe  Fe30  1  0.49977041  0.50137703  0.25022292  1
  Fe  Fe31  1  0.87305081  0.87656495  0.87294850  1
  Fe  Fe32  1  0.24922514  0.50005520  -0.00013341  1
  Fe  Fe33  1  0.37535029  0.87385607  0.12477654  1
  Fe  Fe34  1  -0.00058531  0.75177533  -0.00021745  1
  Fe  Fe35  1  0.24930935  0.24872753  -0.00085360  1
  Fe  Fe36  1  0.87517860  0.37499436  0.37438581  1
  Fe  Fe37  1  0.87665575  0.87718390  0.37582340  1
  Fe  Fe38  1  0.62571809  0.37711657  0.37265956  1
  Fe  Fe39  1  0.75156495  0.75006925  0.25071104  1
  Fe  Fe40  1  0.49788931  0.24698916  0.25210629  1
  Fe  Fe41  1  0.87352341  0.62453793  0.87691100  1
  Fe  Fe42  1  0.12505679  0.87749285  0.12618551  1
  Fe  Fe43  1  0.74829589  0.25039996  0.50088005  1
  Fe  Fe44  1  0.50271420  0.25128887  -0.00521575  1
  Fe  Fe45  1  0.87503182  0.12464623  0.37821023  1
  Fe  Fe46  1  0.37601364  0.37288221  0.12432672  1
  Fe  Fe47  1  0.62416366  0.87483332  0.37523357  1
  Fe  Fe48  1  0.37323750  0.37355409  0.37674630  1
  Fe  Fe49  1  0.25118370  0.74878325  0.75713350  1
  Fe  Fe50  1  0.12407549  0.37297121  0.12692402  1
  Fe  Fe51  1  0.37207986  0.87287115  0.62639820  1
  Fe  Fe52  1  0.74787753  0.49942532  0.50128843  1
  Fe  Fe53  1  0.62472267  0.12432288  0.37735600  1
  Fe  Fe54  1  0.62636791  0.87447673  0.12700264  1
  Fe  Fe55  1  0.87456038  0.37596510  0.87441814  1
  Fe  Fe56  1  0.24639121  0.75291807  0.49454684  1
  Fe  Fe57  1  0.12541281  0.37756959  0.37203176  1
  Fe  Fe58  1  0.49803692  0.74885096  0.75185108  1
  Fe  Fe59  1  0.49945865  0.49935447  0.50182812  1
  Fe  Fe60  1  0.62447208  0.62763063  0.62425398  1
  Fe  Fe61  1  0.75051046  0.25094082  0.24973081  1
  Fe  Fe62  1  0.00332328  0.25064050  0.49907705  1
  Fe  Fe63  1  0.75072680  0.00100621  0.24925840  1
  Fe  Fe64  1  0.49934157  0.75023178  0.49859235  1
  Fe  Fe65  1  0.49588401  0.50200956  0.74681414  1
  Fe  Fe66  1  0.00037516  0.74910271  0.25055089  1
  Fe  Fe67  1  0.12438361  0.12202343  0.87338780  1
  Fe  Fe68  1  0.24886534  0.75035839  0.25259341  1
  Fe  Fe69  1  0.75042072  -0.00071840  0.00117114  1
  Fe  Fe70  1  0.62806779  0.62468936  0.12631647  1
  Fe  Fe71  1  0.24994042  0.49878933  0.50213254  1
  Fe  Fe72  1  0.74762437  -0.00159847  0.50390880  1
  Fe  Fe73  1  0.12492636  0.37530017  0.62857448  1
  Fe  Fe74  1  0.00238861  -0.00124376  0.74727059  1
  Fe  Fe75  1  0.49988434  -0.00111346  0.50233590  1
  Fe  Fe76  1  0.62641539  0.62355410  0.87480463  1
  Fe  Fe77  1  0.12576978  0.62414286  0.12552968  1
  Fe  Fe78  1  0.74752803  0.00170223  0.74558495  1
  Fe  Fe79  1  0.50133661  -0.00223545  0.00140345  1
  Fe  Fe80  1  -0.00168423  0.00348634  0.24805397  1
  Fe  Fe81  1  0.50141789  0.49876957  0.00121120  1
  Fe  Fe82  1  0.37368244  0.62552010  0.12344115  1
  Fe  Fe83  1  0.37539866  0.37729045  0.87343387  1
  Fe  Fe84  1  0.75025818  0.75248578  0.50117381  1
  Fe  Fe85  1  0.87528028  0.12918979  0.12317421  1
  Fe  Fe86  1  0.87330269  0.62314979  0.37591977  1
  Fe  Fe87  1  0.12792824  0.12237309  0.37710062  1
  Fe  Fe88  1  0.24972692  0.75105635  -0.00373154  1
  Fe  Fe89  1  0.74958102  0.49601815  0.00449559  1
  Co  Co90  1  0.87814787  0.36912592  0.12448254  1
  Co  Co91  1  0.12259748  0.62315827  0.87536750  1
  Co  Co92  1  0.12411800  0.87814360  0.87463367  1
  Co  Co93  1  0.12566508  0.12336138  0.12366274  1
  Co  Co94  1  0.62287256  0.13026217  0.62468365  1
  Co  Co95  1  0.37723516  0.87847308  0.87420308  1
  Co  Co96  1  0.50350804  0.25363019  0.49737213  1
  Co  Co97  1  0.37171295  0.62963670  0.62193507  1
  Co  Co98  1  0.37623825  0.87590033  0.37516363  1
  Co  Co99  1  0.87581379  0.12208634  0.87402126  1
  Co  Co100  1  0.12357519  0.88064582  0.37088957  1
  Co  Co101  1  0.62650853  0.62506708  0.37588817  1
  Co  Co102  1  0.37733918  0.12602103  0.12025115  1
  Co  Co103  1  0.75117436  0.24737995  0.75311346  1
  Co  Co104  1  0.00223889  0.24661123  0.25341458  1
  Co  Co105  1  0.25255174  0.49935539  0.24840231  1
  Co  Co106  1  0.87565231  0.87478645  0.62591549  1
  Co  Co107  1  0.75034611  0.74913228  0.74979584  1
  Co  Co108  1  0.37344706  0.12609006  0.38264613  1
  Co  Co109  1  0.74888698  0.75304654  -0.00112494  1
  Co  Co110  1  0.12519031  0.12712423  0.62586121  1
  Co  Co111  1  0.75195055  0.49809118  0.24718958  1
  Co  Co112  1  0.62382074  0.12019582  0.87393967  1
  Co  Co113  1  0.87528718  0.87490815  0.12666335  1
  Co  Co114  1  0.12490495  0.62094762  0.37395976  1
  Co  Co115  1  0.62458211  0.37888745  0.86972611  1
  Co  Co116  1  0.12894571  0.87055449  0.62949580  1
  Co  Co117  1  0.37722136  0.62263379  0.87889675  1
  Co  Co118  1  -0.00211599  0.50111822  0.74912868  1
  Co  Co119  1  0.87346843  0.62660676  0.12327577  1
  Co  Co120  1  0.25149753  0.00286551  0.74765156  1
  Co  Co121  1  0.37553105  0.37051559  0.62528292  1
  Co  Co122  1  0.49824388  0.00199916  0.74338556  1
  Co  Co123  1  0.24424510  0.25369543  0.49966196  1
  Co  Co124  1  0.49812365  0.24735979  0.75459126  1
  Co  Co125  1  0.24884283  -0.00345303  0.50315558  1
  Co  Co126  1  0.62294994  0.87136603  0.62599758  1
  Co  Co127  1  0.62225749  0.37240370  0.12689974  1
