# generated using pymatgen
data_Fe45Co19
_symmetry_space_group_name_H-M   'P 1'
_cell_length_a   11.41672693
_cell_length_b   11.41639370
_cell_length_c   11.41455708
_cell_angle_alpha   89.98895620
_cell_angle_beta   90.00344224
_cell_angle_gamma   90.00263168
_symmetry_Int_Tables_number   1
_chemical_formula_structural   Fe45Co19
_chemical_formula_sum   'Fe90 Co38'
_cell_volume   1487.74879041
_cell_formula_units_Z   2
loop_
 _symmetry_equiv_pos_site_id
 _symmetry_equiv_pos_as_xyz
  1  'x, y, z'
loop_
 _atom_site_type_symbol
 _atom_site_label
 _atom_site_symmetry_multiplicity
 _atom_site_fract_x
 _atom_site_fract_y
 _atom_site_fract_z
 _atom_site_occupancy
  Fe  Fe0  1  0.12490767  0.12462120  0.37375523  1
  Fe  Fe1  1  -0.00385124  0.49873829  0.50106282  1
  Fe  Fe2  1  0.49909669  0.24977040  0.49915351  1
  Fe  Fe3  1  0.24937347  0.49975416  0.74850044  1
  Fe  Fe4  1  0.75017313  0.25085931  -0.00077705  1
  Fe  Fe5  1  0.25639854  0.74536835  0.25000474  1
  Fe  Fe6  1  0.87667451  0.87293422  0.12468614  1
  Fe  Fe7  1  0.87461679  0.12386164  0.12547843  1
  Fe  Fe8  1  0.62426699  0.12202342  0.87662483  1
  Fe  Fe9  1  0.87228828  0.62363158  0.37466218  1
  Fe  Fe10  1  0.12717888  0.62377377  0.37430045  1
  Fe  Fe11  1  0.00019148  0.25061856  0.25043548  1
  Fe  Fe12  1  0.37589642  0.37672169  0.87538451  1
  Fe  Fe13  1  0.62453467  0.87349730  0.62470382  1
  Fe  Fe14  1  0.62656177  0.37680089  0.37669446  1
  Fe  Fe15  1  0.74899590  -0.00162088  0.24841416  1
  Fe  Fe16  1  0.49769940  0.75089054  0.49744963  1
  Fe  Fe17  1  0.12430462  0.62726422  0.62495263  1
  Fe  Fe18  1  0.37237401  0.87493617  0.62276326  1
  Fe  Fe19  1  0.50143409  0.49879532  0.50413126  1
  Fe  Fe20  1  0.25199844  0.74815500  0.00074139  1
  Fe  Fe21  1  0.24888691  0.25224868  0.74953351  1
  Fe  Fe22  1  0.75287276  0.75088696  -0.00510455  1
  Fe  Fe23  1  0.87502111  0.12203475  0.87579191  1
  Fe  Fe24  1  0.37679375  0.62603386  0.62504540  1
  Fe  Fe25  1  0.62035203  0.87078441  0.12268182  1
  Fe  Fe26  1  0.12433525  0.37654463  0.12470951  1
  Fe  Fe27  1  -0.00188609  0.25093441  -0.00113939  1
  Fe  Fe28  1  0.49986668  0.24983212  0.75052308  1
  Fe  Fe29  1  0.49971828  0.75124108  0.75369883  1
  Fe  Fe30  1  0.25318851  0.50145415  0.24612602  1
  Fe  Fe31  1  0.74959681  0.74953281  0.50049934  1
  Fe  Fe32  1  0.62228356  0.62892889  0.12307823  1
  Fe  Fe33  1  0.49996390  0.50145364  0.24853555  1
  Fe  Fe34  1  0.12535082  0.37733223  0.37398781  1
  Fe  Fe35  1  -0.00052359  0.25280560  0.49992795  1
  Fe  Fe36  1  0.12528687  0.12658630  0.12509541  1
  Fe  Fe37  1  0.25063087  0.50104553  0.50288651  1
  Fe  Fe38  1  0.49948434  0.00179351  0.24498901  1
  Fe  Fe39  1  0.37407255  0.12238208  0.87810780  1
  Fe  Fe40  1  -0.00359593  0.74849510  0.75445741  1
  Fe  Fe41  1  0.12558157  0.62420137  0.87819280  1
  Fe  Fe42  1  -0.00143505  0.50299792  0.24796026  1
  Fe  Fe43  1  0.74935815  -0.00236256  0.74898755  1
  Fe  Fe44  1  0.25194428  0.00112744  0.24528842  1
  Fe  Fe45  1  0.37492745  0.62096912  0.87715137  1
  Fe  Fe46  1  0.74772863  0.75077681  0.25230892  1
  Fe  Fe47  1  0.74865988  0.50135494  0.24755791  1
  Fe  Fe48  1  0.12573508  0.12483540  0.87514611  1
  Fe  Fe49  1  0.24947990  0.25154047  -0.00069178  1
  Fe  Fe50  1  0.12872531  0.87421350  0.37353505  1
  Fe  Fe51  1  -0.00231184  0.50467924  0.00340696  1
  Fe  Fe52  1  0.37852162  0.37163296  0.12395129  1
  Fe  Fe53  1  0.62746807  0.37721734  0.87345086  1
  Fe  Fe54  1  0.25110158  0.74952201  0.75079794  1
  Fe  Fe55  1  0.62263743  0.37121456  0.12467155  1
  Fe  Fe56  1  0.37323517  0.12440992  0.62467888  1
  Fe  Fe57  1  0.87150014  0.38043788  0.87422505  1
  Fe  Fe58  1  0.62525201  0.12493126  0.62285015  1
  Fe  Fe59  1  0.75014103  0.24966661  0.75120891  1
  Fe  Fe60  1  0.24873912  0.25096513  0.50116386  1
  Fe  Fe61  1  0.24712425  -0.00141534  0.74850907  1
  Fe  Fe62  1  0.37384842  0.12517701  0.37338893  1
  Fe  Fe63  1  0.37492802  0.37538748  0.37436375  1
  Fe  Fe64  1  0.87556774  0.87323243  0.62552417  1
  Fe  Fe65  1  0.12444575  0.37831655  0.87633460  1
  Fe  Fe66  1  0.37587143  0.87901791  0.87967237  1
  Fe  Fe67  1  0.75222427  0.25104321  0.49793330  1
  Fe  Fe68  1  0.62538039  0.12177575  0.37530723  1
  Fe  Fe69  1  0.87428611  0.37527418  0.12672785  1
  Fe  Fe70  1  0.50302455  0.49890054  0.74774091  1
  Fe  Fe71  1  0.87502399  0.87604666  0.37432608  1
  Fe  Fe72  1  0.62903308  0.62321274  0.87336464  1
  Fe  Fe73  1  0.62400899  0.62362602  0.37729625  1
  Fe  Fe74  1  0.74803604  -0.00135384  0.00128609  1
  Fe  Fe75  1  0.00182773  0.75029958  0.49772962  1
  Fe  Fe76  1  0.00031987  0.25207268  0.75096624  1
  Fe  Fe77  1  0.74979616  0.24961294  0.25168306  1
  Fe  Fe78  1  0.87552321  0.12553620  0.62521310  1
  Fe  Fe79  1  0.00240349  -0.00042923  0.74874611  1
  Fe  Fe80  1  -0.00155749  0.50067619  0.74829761  1
  Fe  Fe81  1  0.62301829  0.87770478  0.37606503  1
  Fe  Fe82  1  0.87633088  0.12192663  0.37340929  1
  Fe  Fe83  1  0.12433660  0.87338544  0.87650779  1
  Fe  Fe84  1  0.12546184  0.87061385  0.12552250  1
  Fe  Fe85  1  0.50034667  -0.00103658  0.74899823  1
  Fe  Fe86  1  -0.00029891  0.74771722  0.25002975  1
  Fe  Fe87  1  0.00351953  -0.00184461  0.50112541  1
  Fe  Fe88  1  0.00257476  -0.00138785  0.00157811  1
  Fe  Fe89  1  0.37426134  0.87720532  0.37533446  1
  Co  Co90  1  0.50170512  0.24874596  0.25377638  1
  Co  Co91  1  0.24779657  0.25180562  0.24968652  1
  Co  Co92  1  0.12476494  0.12771364  0.62622206  1
  Co  Co93  1  0.62236969  0.63075127  0.62507049  1
  Co  Co94  1  0.25152846  0.49932860  0.00292863  1
  Co  Co95  1  0.87342942  0.37778262  0.37209348  1
  Co  Co96  1  0.62412846  0.87709452  0.87549320  1
  Co  Co97  1  0.87064382  0.61903447  0.87493098  1
  Co  Co98  1  0.37515852  0.37460233  0.62607948  1
  Co  Co99  1  0.75203113  0.75147111  0.75242737  1
  Co  Co100  1  0.50114743  0.24950563  -0.00434668  1
  Co  Co101  1  0.49859474  0.00050237  0.50100457  1
  Co  Co102  1  0.62603728  0.36988395  0.62437178  1
  Co  Co103  1  0.87332914  0.37281172  0.62715169  1
  Co  Co104  1  0.12689750  0.62719972  0.12509313  1
  Co  Co105  1  0.37667472  0.62132540  0.37746659  1
  Co  Co106  1  0.24827804  -0.00067419  0.00401945  1
  Co  Co107  1  0.49801260  0.74863526  0.25473148  1
  Co  Co108  1  0.50259533  0.49881459  -0.00095258  1
  Co  Co109  1  0.38058591  0.62614903  0.12164890  1
  Co  Co110  1  0.87608002  0.62840936  0.62432904  1
  Co  Co111  1  0.25099938  0.74820079  0.49892423  1
  Co  Co112  1  0.12465575  0.37574820  0.62516322  1
  Co  Co113  1  0.49960838  0.74771086  -0.00728167  1
  Co  Co114  1  0.24689667  0.00059672  0.50071599  1
  Co  Co115  1  0.74818534  0.49944076  0.00534282  1
  Co  Co116  1  0.87116708  0.62894369  0.12649360  1
  Co  Co117  1  -0.00266208  0.74711212  -0.00142352  1
  Co  Co118  1  0.37885734  0.87097222  0.12261183  1
  Co  Co119  1  0.75179648  -0.00103265  0.50100400  1
  Co  Co120  1  0.50073428  0.00280351  0.00430840  1
  Co  Co121  1  0.87660355  0.87897561  0.87522672  1
  Co  Co122  1  0.37520531  0.13075594  0.12363115  1
  Co  Co123  1  0.00115286  -0.00153046  0.24931623  1
  Co  Co124  1  0.12561090  0.87023918  0.62660379  1
  Co  Co125  1  0.74806041  0.50238380  0.74101694  1
  Co  Co126  1  0.75083166  0.50102957  0.50503259  1
  Co  Co127  1  0.62603744  0.12838609  0.12471061  1
