# generated using pymatgen
data_Fe45Co19
_symmetry_space_group_name_H-M   'P 1'
_cell_length_a   11.41501025
_cell_length_b   11.41532774
_cell_length_c   11.41515121
_cell_angle_alpha   90.00764799
_cell_angle_beta   90.00537378
_cell_angle_gamma   90.01516172
_symmetry_Int_Tables_number   1
_chemical_formula_structural   Fe45Co19
_chemical_formula_sum   'Fe90 Co38'
_cell_volume   1487.46357002
_cell_formula_units_Z   2
loop_
 _symmetry_equiv_pos_site_id
 _symmetry_equiv_pos_as_xyz
  1  'x, y, z'
loop_
 _atom_site_type_symbol
 _atom_site_label
 _atom_site_symmetry_multiplicity
 _atom_site_fract_x
 _atom_site_fract_y
 _atom_site_fract_z
 _atom_site_occupancy
  Fe  Fe0  1  -0.00012894  0.74690800  0.74841274  1
  Fe  Fe1  1  0.12463561  0.87750112  0.62487002  1
  Fe  Fe2  1  0.87370329  0.62380845  0.87577851  1
  Fe  Fe3  1  0.75086666  0.00152120  0.24938529  1
  Fe  Fe4  1  0.37459015  0.87507184  0.37426191  1
  Fe  Fe5  1  0.00074159  0.74835940  0.24770318  1
  Fe  Fe6  1  0.12439415  0.37605990  0.62707401  1
  Fe  Fe7  1  0.74991565  0.49928621  0.25107037  1
  Fe  Fe8  1  0.75026868  0.24890323  0.24541785  1
  Fe  Fe9  1  0.49916760  -0.00134326  -0.00184375  1
  Fe  Fe10  1  -0.00075094  0.00135577  -0.00162429  1
  Fe  Fe11  1  0.12471662  0.87890939  0.12399567  1
  Fe  Fe12  1  0.62672937  0.62379681  0.62157857  1
  Fe  Fe13  1  0.62664288  0.12698889  0.37712972  1
  Fe  Fe14  1  0.25120185  0.49761998  0.49821351  1
  Fe  Fe15  1  0.75510103  0.00019594  0.50025515  1
  Fe  Fe16  1  0.62674494  0.62592938  0.37580154  1
  Fe  Fe17  1  0.25122864  0.00172585  0.75427478  1
  Fe  Fe18  1  0.00292124  0.25085359  0.75344386  1
  Fe  Fe19  1  0.00039436  0.00335680  0.75219448  1
  Fe  Fe20  1  0.62220736  0.12102922  0.62239081  1
  Fe  Fe21  1  0.87527907  0.87382193  0.87358960  1
  Fe  Fe22  1  0.37284874  0.62488942  0.37281206  1
  Fe  Fe23  1  0.25256840  0.00239371  0.49858833  1
  Fe  Fe24  1  0.74775220  0.49936155  0.75043413  1
  Fe  Fe25  1  0.37754833  0.12969254  0.87751231  1
  Fe  Fe26  1  0.87287700  0.62750671  0.37547498  1
  Fe  Fe27  1  0.24884204  0.75126560  0.00132571  1
  Fe  Fe28  1  0.49968656  0.75100217  0.49900024  1
  Fe  Fe29  1  0.62431688  0.87771319  0.62506547  1
  Fe  Fe30  1  0.75091705  -0.00086038  -0.00088141  1
  Fe  Fe31  1  0.24710237  0.74919135  0.24942807  1
  Fe  Fe32  1  0.87475893  0.36969580  0.37262153  1
  Fe  Fe33  1  0.12637648  0.62064153  0.12185627  1
  Fe  Fe34  1  -0.00398292  0.49256447  -0.00399477  1
  Fe  Fe35  1  0.24901704  0.74974811  0.74906157  1
  Fe  Fe36  1  0.62565082  0.37849574  0.12419620  1
  Fe  Fe37  1  0.12352142  0.87588513  0.37635324  1
  Fe  Fe38  1  0.62520678  0.37170071  0.37557788  1
  Fe  Fe39  1  0.50100570  0.74864963  0.00482730  1
  Fe  Fe40  1  -0.00086752  0.74990804  0.00053827  1
  Fe  Fe41  1  0.50118029  0.74819341  0.74916498  1
  Fe  Fe42  1  0.75076452  0.49593495  0.49932501  1
  Fe  Fe43  1  0.50055699  0.50187933  0.24958037  1
  Fe  Fe44  1  0.37503431  0.62440833  0.62492445  1
  Fe  Fe45  1  0.62749901  0.87481469  0.37549562  1
  Fe  Fe46  1  0.37667721  0.87832472  0.62574107  1
  Fe  Fe47  1  0.25592301  0.49454351  -0.00166812  1
  Fe  Fe48  1  0.62001860  0.37307320  0.87414451  1
  Fe  Fe49  1  -0.00193128  0.49850349  0.49980471  1
  Fe  Fe50  1  0.74836646  0.75016273  0.24471954  1
  Fe  Fe51  1  -0.00215330  0.24832047  0.49980967  1
  Fe  Fe52  1  0.24838026  0.24580678  0.24616741  1
  Fe  Fe53  1  0.62624696  0.62594757  0.87993762  1
  Fe  Fe54  1  0.12590374  0.62577959  0.37792521  1
  Fe  Fe55  1  0.49929029  0.24955490  0.50236104  1
  Fe  Fe56  1  0.50041205  0.00197266  0.25211609  1
  Fe  Fe57  1  0.12383466  0.87453886  0.87479388  1
  Fe  Fe58  1  0.87483829  0.37353256  0.62852268  1
  Fe  Fe59  1  0.50270562  0.74876113  0.24706508  1
  Fe  Fe60  1  0.12471131  0.37094648  0.37410525  1
  Fe  Fe61  1  0.37583237  0.87200081  0.87482130  1
  Fe  Fe62  1  0.00077553  0.49931669  0.25135312  1
  Fe  Fe63  1  0.37460417  0.37282618  0.37081195  1
  Fe  Fe64  1  0.49595022  0.49931850  0.00037188  1
  Fe  Fe65  1  0.24833437  0.00496866  0.24966645  1
  Fe  Fe66  1  0.74961363  0.00156963  0.75095975  1
  Fe  Fe67  1  -0.00480296  0.00236958  0.49881488  1
  Fe  Fe68  1  0.62568460  0.87299039  0.87580891  1
  Fe  Fe69  1  0.25331479  0.24974934  0.50247447  1
  Fe  Fe70  1  0.37495355  0.87716628  0.12606499  1
  Fe  Fe71  1  0.87272794  0.12963889  0.87632932  1
  Fe  Fe72  1  0.50041227  0.24766744  0.24620563  1
  Fe  Fe73  1  0.75079735  0.74942626  0.74890420  1
  Fe  Fe74  1  0.12555385  0.12495253  0.62433700  1
  Fe  Fe75  1  0.25097991  0.24973504  0.75017441  1
  Fe  Fe76  1  0.12753915  0.12952497  0.88258276  1
  Fe  Fe77  1  0.62318691  0.12766854  0.87875235  1
  Fe  Fe78  1  0.25197697  0.50006912  0.75318490  1
  Fe  Fe79  1  0.49926351  0.49840854  0.49802454  1
  Fe  Fe80  1  0.87234927  0.62069518  0.12190646  1
  Fe  Fe81  1  0.74405239  0.24920177  0.74714018  1
  Fe  Fe82  1  0.12379612  0.37302757  0.12434936  1
  Fe  Fe83  1  0.62489310  0.12263705  0.12169859  1
  Fe  Fe84  1  0.37956127  0.37625737  0.63017040  1
  Fe  Fe85  1  0.00059783  0.00688048  0.25118399  1
  Fe  Fe86  1  0.87565601  0.87742168  0.12558666  1
  Fe  Fe87  1  -0.00410261  0.75163269  0.50188953  1
  Fe  Fe88  1  0.12534298  0.62273025  0.62357843  1
  Fe  Fe89  1  0.12539526  0.62187981  0.87617192  1
  Co  Co90  1  0.62743099  0.62037084  0.12226618  1
  Co  Co91  1  0.25112695  0.75153114  0.50069109  1
  Co  Co92  1  0.37606228  0.12162742  0.62640986  1
  Co  Co93  1  0.87642128  0.12750787  0.62890987  1
  Co  Co94  1  0.37553322  0.12184225  0.12258234  1
  Co  Co95  1  0.87242592  0.62232250  0.62432341  1
  Co  Co96  1  0.38133777  0.37091439  0.86944859  1
  Co  Co97  1  0.87483288  0.37495603  0.12871707  1
  Co  Co98  1  0.87521882  0.12558340  0.12176672  1
  Co  Co99  1  0.00143555  0.24567270  0.24792411  1
  Co  Co100  1  0.74912936  0.25348260  0.00209197  1
  Co  Co101  1  0.50006027  0.00080214  0.75507092  1
  Co  Co102  1  0.25592361  0.25514451  0.00223350  1
  Co  Co103  1  0.37434620  0.62780629  0.87681423  1
  Co  Co104  1  0.75125308  0.49371319  -0.00332757  1
  Co  Co105  1  0.24560931  0.49968086  0.25187779  1
  Co  Co106  1  0.75141233  0.75370702  0.50168096  1
  Co  Co107  1  -0.00422886  0.25489232  -0.00138449  1
  Co  Co108  1  0.87076116  0.37094457  0.86864971  1
  Co  Co109  1  0.49934243  0.25294129  0.00563577  1
  Co  Co110  1  0.12807316  0.37463249  0.87536459  1
  Co  Co111  1  0.87587887  0.87718380  0.62963002  1
  Co  Co112  1  0.25173479  -0.00170894  -0.00267139  1
  Co  Co113  1  0.49902735  0.00043441  0.49583631  1
  Co  Co114  1  0.87496137  0.87442537  0.37071082  1
  Co  Co115  1  0.87163315  0.12882511  0.37380922  1
  Co  Co116  1  0.37561400  0.12842572  0.37395837  1
  Co  Co117  1  0.75147101  0.75291116  0.00304361  1
  Co  Co118  1  0.12585625  0.12706740  0.37885199  1
  Co  Co119  1  0.37472686  0.37654518  0.13124614  1
  Co  Co120  1  0.50328554  0.24514618  0.74576690  1
  Co  Co121  1  0.50192343  0.50574309  0.75250937  1
  Co  Co122  1  0.62438784  0.87851815  0.12426201  1
  Co  Co123  1  0.37228417  0.62400052  0.12688784  1
  Co  Co124  1  0.12476080  0.12664812  0.11721219  1
  Co  Co125  1  -0.00063817  0.49967769  0.75122311  1
  Co  Co126  1  0.62181143  0.37795981  0.62504503  1
  Co  Co127  1  0.74955770  0.25028612  0.50440651  1
