# generated using pymatgen
data_Fe45Co19
_symmetry_space_group_name_H-M   'P 1'
_cell_length_a   11.41438485
_cell_length_b   11.41494378
_cell_length_c   11.41608413
_cell_angle_alpha   89.99679120
_cell_angle_beta   90.00290272
_cell_angle_gamma   89.99394406
_symmetry_Int_Tables_number   1
_chemical_formula_structural   Fe45Co19
_chemical_formula_sum   'Fe90 Co38'
_cell_volume   1487.45366095
_cell_formula_units_Z   2
loop_
 _symmetry_equiv_pos_site_id
 _symmetry_equiv_pos_as_xyz
  1  'x, y, z'
loop_
 _atom_site_type_symbol
 _atom_site_label
 _atom_site_symmetry_multiplicity
 _atom_site_fract_x
 _atom_site_fract_y
 _atom_site_fract_z
 _atom_site_occupancy
  Fe  Fe0  1  0.62546749  0.87478312  0.87430203  1
  Fe  Fe1  1  0.49803822  0.49686594  0.25087079  1
  Fe  Fe2  1  0.24865165  0.00250599  0.50166529  1
  Fe  Fe3  1  0.87594500  0.37526294  0.12341707  1
  Fe  Fe4  1  0.75110244  0.75163503  0.00265662  1
  Fe  Fe5  1  0.87446483  0.62242166  0.12493487  1
  Fe  Fe6  1  0.00179335  0.49851162  -0.00180973  1
  Fe  Fe7  1  0.62741685  0.12419160  0.62313627  1
  Fe  Fe8  1  0.87269428  0.12397459  0.87546543  1
  Fe  Fe9  1  -0.00227498  0.25135392  0.74929018  1
  Fe  Fe10  1  0.50193800  0.00340834  -0.00126089  1
  Fe  Fe11  1  0.87472608  0.62351912  0.87384982  1
  Fe  Fe12  1  0.49865123  0.75030978  0.49961080  1
  Fe  Fe13  1  0.12384865  0.37474684  0.12587104  1
  Fe  Fe14  1  0.25023683  0.75067479  0.74822474  1
  Fe  Fe15  1  -0.00374469  0.24829858  0.25178407  1
  Fe  Fe16  1  0.50039749  0.00234434  0.25487246  1
  Fe  Fe17  1  0.87385937  0.37879923  0.37712089  1
  Fe  Fe18  1  0.24672735  0.49922641  0.49818740  1
  Fe  Fe19  1  0.37686071  0.87537190  0.12619863  1
  Fe  Fe20  1  0.25107437  0.25062595  0.24877460  1
  Fe  Fe21  1  0.12732201  0.62489911  0.12334918  1
  Fe  Fe22  1  0.25062177  0.75107475  0.24809135  1
  Fe  Fe23  1  0.37578873  0.87720850  0.62402934  1
  Fe  Fe24  1  0.49760866  0.49774420  0.75154080  1
  Fe  Fe25  1  0.75196440  0.74892675  0.50053974  1
  Fe  Fe26  1  0.75117783  0.74916608  0.74842740  1
  Fe  Fe27  1  0.87785550  0.62361078  0.37825380  1
  Fe  Fe28  1  0.87742868  0.87402189  0.62593603  1
  Fe  Fe29  1  0.75072506  0.75010197  0.24932295  1
  Fe  Fe30  1  0.62755319  0.12671593  0.13028504  1
  Fe  Fe31  1  0.00121221  0.00169302  0.00051478  1
  Fe  Fe32  1  0.50202815  0.50001513  0.49735734  1
  Fe  Fe33  1  0.62505051  0.62436704  0.62660535  1
  Fe  Fe34  1  -0.00037622  0.49901940  0.75074059  1
  Fe  Fe35  1  0.24863760  0.00319233  0.74682468  1
  Fe  Fe36  1  0.12113040  0.62721639  0.62488977  1
  Fe  Fe37  1  0.12415381  0.87421452  0.37311793  1
  Fe  Fe38  1  0.62444247  0.37352512  0.12649089  1
  Fe  Fe39  1  0.62770404  0.12535922  0.87263027  1
  Fe  Fe40  1  0.12323884  0.12464574  0.12661336  1
  Fe  Fe41  1  0.00061421  0.75096800  0.00078817  1
  Fe  Fe42  1  0.87684147  0.87521511  0.37170775  1
  Fe  Fe43  1  0.00133354  -0.00124784  0.49886308  1
  Fe  Fe44  1  0.12686504  0.62624588  0.87636887  1
  Fe  Fe45  1  0.12643806  0.37207419  0.62364418  1
  Fe  Fe46  1  0.49641576  0.25196040  0.74636667  1
  Fe  Fe47  1  0.37566934  0.62711133  0.37352292  1
  Fe  Fe48  1  0.74884371  0.49846154  -0.00178473  1
  Fe  Fe49  1  0.37465315  0.37021594  0.37958549  1
  Fe  Fe50  1  0.86850302  0.12260333  0.37502110  1
  Fe  Fe51  1  0.62507449  0.37311222  0.87440026  1
  Fe  Fe52  1  0.50071035  0.00102673  0.75047985  1
  Fe  Fe53  1  0.12304880  0.62565640  0.37495999  1
  Fe  Fe54  1  0.37633873  0.12608755  0.12503616  1
  Fe  Fe55  1  0.87193227  0.38065620  0.62341747  1
  Fe  Fe56  1  0.87317559  0.87763178  0.87524723  1
  Fe  Fe57  1  0.62528434  0.62646029  0.87440635  1
  Fe  Fe58  1  0.24960580  0.00041206  0.00145537  1
  Fe  Fe59  1  0.24963815  -0.00026705  0.25010100  1
  Fe  Fe60  1  0.00102218  -0.00027132  0.74947692  1
  Fe  Fe61  1  0.87488396  0.12277817  0.62341046  1
  Fe  Fe62  1  0.62528141  0.37606908  0.62149214  1
  Fe  Fe63  1  0.37306979  0.62537529  0.87598548  1
  Fe  Fe64  1  0.50011282  0.00465009  0.49555191  1
  Fe  Fe65  1  0.25155815  0.49811016  0.24985419  1
  Fe  Fe66  1  0.00182259  0.49981449  0.25128744  1
  Fe  Fe67  1  0.87870840  0.87927440  0.12806712  1
  Fe  Fe68  1  0.62312595  0.62634673  0.37238714  1
  Fe  Fe69  1  -0.00171010  0.25195485  0.49880424  1
  Fe  Fe70  1  0.12661984  0.87453763  0.87491662  1
  Fe  Fe71  1  0.49791828  0.49975023  -0.00103202  1
  Fe  Fe72  1  0.12623414  0.12744896  0.87196788  1
  Fe  Fe73  1  0.37542486  0.62332679  0.62399255  1
  Fe  Fe74  1  0.74861489  0.49788047  0.25274053  1
  Fe  Fe75  1  0.37412699  0.12913569  0.87513883  1
  Fe  Fe76  1  0.62298643  0.87547714  0.62508050  1
  Fe  Fe77  1  0.12729395  0.12873055  0.37692313  1
  Fe  Fe78  1  0.12838301  0.37215442  0.87476020  1
  Fe  Fe79  1  0.25202013  0.49671447  0.75012396  1
  Fe  Fe80  1  0.62541921  0.87512065  0.37555429  1
  Fe  Fe81  1  0.62286154  0.62475034  0.12668635  1
  Fe  Fe82  1  0.75185768  0.25103832  0.74780703  1
  Fe  Fe83  1  -0.00013447  0.24881425  -0.00001033  1
  Fe  Fe84  1  0.49766551  0.74908277  0.00003033  1
  Fe  Fe85  1  0.75024499  0.24887186  0.00151464  1
  Fe  Fe86  1  0.37498192  0.87565370  0.87379965  1
  Fe  Fe87  1  0.24906160  0.75068130  0.50059493  1
  Fe  Fe88  1  0.37602914  0.37162536  0.12032502  1
  Fe  Fe89  1  0.62264744  0.87501212  0.12534641  1
  Co  Co90  1  0.37564411  0.37822712  0.61931715  1
  Co  Co91  1  0.87400067  0.12300527  0.12498443  1
  Co  Co92  1  0.75043704  -0.00327814  0.50097620  1
  Co  Co93  1  0.74907890  0.50027824  0.75135132  1
  Co  Co94  1  0.49861565  0.24920806  0.25227160  1
  Co  Co95  1  0.75158521  0.25131104  0.50069975  1
  Co  Co96  1  0.49816505  0.74947025  0.74926621  1
  Co  Co97  1  0.00165230  0.00510093  0.25340950  1
  Co  Co98  1  0.74812387  -0.00259866  0.24944375  1
  Co  Co99  1  0.12030351  0.12704351  0.62458600  1
  Co  Co100  1  0.50003670  0.24525432  0.50027806  1
  Co  Co101  1  0.25106143  0.75293810  0.00198922  1
  Co  Co102  1  0.75393992  0.25388888  0.25027238  1
  Co  Co103  1  0.87775927  0.62242239  0.62427616  1
  Co  Co104  1  0.37367246  0.37001678  0.87896933  1
  Co  Co105  1  0.25099046  0.49842604  0.00090757  1
  Co  Co106  1  0.25191012  0.24743267  0.50534381  1
  Co  Co107  1  0.37090349  0.12730741  0.37428115  1
  Co  Co108  1  0.12634356  0.37104443  0.37429968  1
  Co  Co109  1  0.87412216  0.37426718  0.87630785  1
  Co  Co110  1  0.37578025  0.62595672  0.12659193  1
  Co  Co111  1  0.00431554  0.49723184  0.50042558  1
  Co  Co112  1  0.12173697  0.87640839  0.12714848  1
  Co  Co113  1  0.62362232  0.37039739  0.37646446  1
  Co  Co114  1  0.37664177  0.12228116  0.62485700  1
  Co  Co115  1  0.25387827  0.24996599  0.74497951  1
  Co  Co116  1  0.74776898  0.00032150  0.00227623  1
  Co  Co117  1  0.63068901  0.12785183  0.37412991  1
  Co  Co118  1  0.49947189  0.75231561  0.25112048  1
  Co  Co119  1  0.50394643  0.24680350  0.00064190  1
  Co  Co120  1  -0.00009770  0.75260304  0.49939154  1
  Co  Co121  1  -0.00006160  0.75069259  0.75225148  1
  Co  Co122  1  0.00044518  0.74640122  0.24850476  1
  Co  Co123  1  0.12495311  0.87521211  0.62554143  1
  Co  Co124  1  0.74648756  0.50294479  0.49751832  1
  Co  Co125  1  0.75004275  -0.00125102  0.74758506  1
  Co  Co126  1  0.24639269  0.24775200  0.00220458  1
  Co  Co127  1  0.37338050  0.87550300  0.37624857  1
