# generated using pymatgen
data_Fe45Co19
_symmetry_space_group_name_H-M   'P 1'
_cell_length_a   11.41504957
_cell_length_b   11.41503872
_cell_length_c   11.41567427
_cell_angle_alpha   90.00412273
_cell_angle_beta   90.00217348
_cell_angle_gamma   89.99957928
_symmetry_Int_Tables_number   1
_chemical_formula_structural   Fe45Co19
_chemical_formula_sum   'Fe90 Co38'
_cell_volume   1487.49925711
_cell_formula_units_Z   2
loop_
 _symmetry_equiv_pos_site_id
 _symmetry_equiv_pos_as_xyz
  1  'x, y, z'
loop_
 _atom_site_type_symbol
 _atom_site_label
 _atom_site_symmetry_multiplicity
 _atom_site_fract_x
 _atom_site_fract_y
 _atom_site_fract_z
 _atom_site_occupancy
  Fe  Fe0  1  0.12565665  0.87773640  0.12504449  1
  Fe  Fe1  1  0.37564258  0.37367784  0.12433805  1
  Fe  Fe2  1  0.49860041  0.49787074  0.75232729  1
  Fe  Fe3  1  0.50008472  0.75072598  0.25095422  1
  Fe  Fe4  1  0.87276740  0.12478508  0.37686169  1
  Fe  Fe5  1  0.62655963  0.62620685  0.12374685  1
  Fe  Fe6  1  0.50024307  0.74978431  0.75061059  1
  Fe  Fe7  1  0.62683689  0.62483213  0.87455317  1
  Fe  Fe8  1  0.62518993  0.37564977  0.12514142  1
  Fe  Fe9  1  0.49944166  0.50108122  0.25032180  1
  Fe  Fe10  1  0.74963804  0.25189856  -0.00215146  1
  Fe  Fe11  1  0.87779522  0.87461753  0.12404661  1
  Fe  Fe12  1  0.25050404  -0.00136496  0.50060340  1
  Fe  Fe13  1  -0.00128044  0.50209339  0.75057654  1
  Fe  Fe14  1  0.11991188  0.87457543  0.62784440  1
  Fe  Fe15  1  -0.00179921  0.24453719  0.75438902  1
  Fe  Fe16  1  0.49976155  0.49877242  -0.00173957  1
  Fe  Fe17  1  0.00198876  0.49585470  0.49744114  1
  Fe  Fe18  1  0.12477633  0.12668942  0.62502472  1
  Fe  Fe19  1  0.37462889  0.62701628  0.12277532  1
  Fe  Fe20  1  0.75086349  0.75036034  0.24842876  1
  Fe  Fe21  1  0.00026977  0.74830655  0.25074326  1
  Fe  Fe22  1  0.37310261  0.62731319  0.37666174  1
  Fe  Fe23  1  0.87595800  0.37378860  0.12481408  1
  Fe  Fe24  1  0.50234034  0.75255109  -0.00138018  1
  Fe  Fe25  1  0.24977554  0.49857641  0.74801594  1
  Fe  Fe26  1  0.74859108  -0.00355069  0.00179423  1
  Fe  Fe27  1  0.75116176  0.49837950  -0.00038243  1
  Fe  Fe28  1  0.12103409  0.62686287  0.62321697  1
  Fe  Fe29  1  0.11969786  0.88003617  0.87384050  1
  Fe  Fe30  1  0.24624519  0.74908926  0.75081902  1
  Fe  Fe31  1  0.25215574  0.25177903  0.74850849  1
  Fe  Fe32  1  0.75062919  0.24979491  0.75321140  1
  Fe  Fe33  1  0.87285865  0.12537910  0.12302249  1
  Fe  Fe34  1  0.62423397  0.12264439  0.12619210  1
  Fe  Fe35  1  0.49743882  -0.00070158  0.25117485  1
  Fe  Fe36  1  0.87781385  0.87936174  0.87178081  1
  Fe  Fe37  1  0.37476968  0.62594058  0.62453430  1
  Fe  Fe38  1  0.75066957  0.75246239  -0.00007003  1
  Fe  Fe39  1  0.50094784  0.75361012  0.49973783  1
  Fe  Fe40  1  0.24963418  0.25361954  0.50224042  1
  Fe  Fe41  1  0.62180926  0.12359138  0.62592020  1
  Fe  Fe42  1  0.87467606  0.62454312  0.87588164  1
  Fe  Fe43  1  0.24655232  0.75133331  -0.00135754  1
  Fe  Fe44  1  0.37182621  0.62414866  0.87592057  1
  Fe  Fe45  1  0.75349193  0.74849674  0.74819345  1
  Fe  Fe46  1  0.75168446  0.49948805  0.24994414  1
  Fe  Fe47  1  0.62617082  0.12096977  0.87306444  1
  Fe  Fe48  1  0.62797280  0.87943370  0.37410260  1
  Fe  Fe49  1  0.12653323  0.87572696  0.37296844  1
  Fe  Fe50  1  0.50071472  0.49953946  0.49934087  1
  Fe  Fe51  1  0.62531522  0.62448577  0.62659853  1
  Fe  Fe52  1  -0.00016194  0.49995348  0.25206884  1
  Fe  Fe53  1  0.74795230  0.24978429  0.25202077  1
  Fe  Fe54  1  0.24785948  0.75123681  0.49979663  1
  Fe  Fe55  1  0.87535786  0.62497817  0.37761642  1
  Fe  Fe56  1  0.12408143  0.37322083  0.12610371  1
  Fe  Fe57  1  0.62203153  0.37378504  0.62783160  1
  Fe  Fe58  1  0.50117124  0.25108925  -0.00294178  1
  Fe  Fe59  1  0.74471054  0.24992849  0.49683479  1
  Fe  Fe60  1  -0.00044084  0.24811955  0.25071437  1
  Fe  Fe61  1  0.12576607  0.37493947  0.87447873  1
  Fe  Fe62  1  0.12747254  0.12200419  0.12253914  1
  Fe  Fe63  1  0.24925537  0.50174620  0.24900648  1
  Fe  Fe64  1  0.37630282  0.12427479  0.37870129  1
  Fe  Fe65  1  0.37406717  0.37459789  0.37636566  1
  Fe  Fe66  1  -0.00009748  0.24656262  -0.00272369  1
  Fe  Fe67  1  0.24682089  0.49703079  0.50200565  1
  Fe  Fe68  1  0.00148274  0.25258254  0.49802410  1
  Fe  Fe69  1  -0.00064739  0.00281422  0.24896439  1
  Fe  Fe70  1  0.25057379  0.24922699  0.00082790  1
  Fe  Fe71  1  0.37515556  0.87429639  0.62587671  1
  Fe  Fe72  1  0.37199234  0.87569456  0.12686006  1
  Fe  Fe73  1  0.50042743  -0.00338927  -0.00224710  1
  Fe  Fe74  1  0.25122424  0.24592827  0.24897892  1
  Fe  Fe75  1  0.87398101  0.87735640  0.37493775  1
  Fe  Fe76  1  0.12366295  0.62641889  0.12334607  1
  Fe  Fe77  1  -0.00309878  0.00009161  0.50322589  1
  Fe  Fe78  1  0.75216502  0.75248454  0.50315456  1
  Fe  Fe79  1  0.24945180  0.00032835  0.74913429  1
  Fe  Fe80  1  0.37863794  0.12565333  0.62402337  1
  Fe  Fe81  1  0.62560737  0.87812110  0.62901476  1
  Fe  Fe82  1  0.37453275  0.87399792  0.87300975  1
  Fe  Fe83  1  0.12495963  0.12507603  0.37708770  1
  Fe  Fe84  1  0.62654567  0.62566425  0.37581888  1
  Fe  Fe85  1  0.50176412  0.24941992  0.25273677  1
  Fe  Fe86  1  0.87584954  0.37285800  0.62622239  1
  Fe  Fe87  1  0.37418452  0.12477965  0.87479214  1
  Fe  Fe88  1  0.74988602  0.49817005  0.50237020  1
  Fe  Fe89  1  -0.00002329  0.50081174  0.00007141  1
  Co  Co90  1  0.50405093  0.24979680  0.49664225  1
  Co  Co91  1  0.24859540  0.49905011  0.00302769  1
  Co  Co92  1  0.25209582  -0.00118455  -0.00177216  1
  Co  Co93  1  0.12054234  0.37297847  0.62929534  1
  Co  Co94  1  0.49771625  -0.00042533  0.75088337  1
  Co  Co95  1  0.62424019  0.87493065  0.12772067  1
  Co  Co96  1  0.75192360  0.49968601  0.74802046  1
  Co  Co97  1  0.25050417  0.00454535  0.25124688  1
  Co  Co98  1  0.75249510  -0.00037983  0.50537073  1
  Co  Co99  1  0.62633458  0.11790967  0.37391994  1
  Co  Co100  1  0.37954524  0.37442367  0.62312870  1
  Co  Co101  1  0.62658669  0.37689750  0.87396796  1
  Co  Co102  1  0.87392299  0.37339908  0.37518001  1
  Co  Co103  1  0.87857751  0.62403790  0.62125742  1
  Co  Co104  1  0.87093700  0.12081326  0.87899329  1
  Co  Co105  1  0.49939985  -0.00352033  0.50032706  1
  Co  Co106  1  0.49918757  0.25084554  0.75349828  1
  Co  Co107  1  0.87495588  0.62534804  0.12484025  1
  Co  Co108  1  0.12461800  0.62571228  0.37709380  1
  Co  Co109  1  0.37802777  0.12352426  0.12224986  1
  Co  Co110  1  0.00021373  0.74961150  -0.00141631  1
  Co  Co111  1  0.12916909  0.12379647  0.87503926  1
  Co  Co112  1  0.37170251  0.37535936  0.87649453  1
  Co  Co113  1  0.12653712  0.62285186  0.87586640  1
  Co  Co114  1  0.87947926  0.87325653  0.62968496  1
  Co  Co115  1  -0.00076091  0.74629513  0.75280403  1
  Co  Co116  1  0.75457842  0.00302572  0.74475427  1
  Co  Co117  1  0.87683657  0.37552394  0.87484183  1
  Co  Co118  1  0.24797633  0.74750367  0.24864805  1
  Co  Co119  1  0.37149861  0.87367551  0.37364953  1
  Co  Co120  1  0.62451735  0.37857690  0.37341757  1
  Co  Co121  1  -0.00020772  0.00361228  0.00118575  1
  Co  Co122  1  0.75326098  0.00042795  0.24680074  1
  Co  Co123  1  0.62798042  0.87541445  0.86972912  1
  Co  Co124  1  0.12791159  0.37244861  0.37100740  1
  Co  Co125  1  -0.00245897  0.00856253  0.74705620  1
  Co  Co126  1  -0.00101254  0.75346196  0.49768829  1
  Co  Co127  1  0.87417103  0.13216905  0.62101555  1
