# generated using pymatgen
data_Fe45Co19
_symmetry_space_group_name_H-M   'P 1'
_cell_length_a   11.41425904
_cell_length_b   11.41438296
_cell_length_c   11.41427596
_cell_angle_alpha   90.00566730
_cell_angle_beta   90.00296412
_cell_angle_gamma   89.99655490
_symmetry_Int_Tables_number   1
_chemical_formula_structural   Fe45Co19
_chemical_formula_sum   'Fe90 Co38'
_cell_volume   1487.12860834
_cell_formula_units_Z   2
loop_
 _symmetry_equiv_pos_site_id
 _symmetry_equiv_pos_as_xyz
  1  'x, y, z'
loop_
 _atom_site_type_symbol
 _atom_site_label
 _atom_site_symmetry_multiplicity
 _atom_site_fract_x
 _atom_site_fract_y
 _atom_site_fract_z
 _atom_site_occupancy
  Fe  Fe0  1  0.12636083  0.62576984  0.12717603  1
  Fe  Fe1  1  0.24962799  -0.00092548  0.24937665  1
  Fe  Fe2  1  0.49923341  0.24846031  -0.00011337  1
  Fe  Fe3  1  0.62494713  0.37538211  0.87570880  1
  Fe  Fe4  1  0.75090694  0.49941813  0.00074740  1
  Fe  Fe5  1  0.49905610  0.50033811  0.74742480  1
  Fe  Fe6  1  0.00357329  0.24853580  0.24993843  1
  Fe  Fe7  1  0.00075496  0.75116608  0.74880195  1
  Fe  Fe8  1  0.37418936  0.87201144  0.87069984  1
  Fe  Fe9  1  0.75110995  0.75139592  0.49713221  1
  Fe  Fe10  1  0.49990570  0.24940462  0.49843105  1
  Fe  Fe11  1  0.12609250  0.12328598  0.87577815  1
  Fe  Fe12  1  0.74826773  0.24804482  0.49722302  1
  Fe  Fe13  1  0.25226758  0.50302436  0.00087172  1
  Fe  Fe14  1  0.37543533  0.37655048  0.87460428  1
  Fe  Fe15  1  0.75343593  0.00042108  -0.00260684  1
  Fe  Fe16  1  0.37503740  0.37482319  0.12714750  1
  Fe  Fe17  1  0.62333579  0.37407336  0.12719836  1
  Fe  Fe18  1  -0.00084129  0.00279737  0.24996626  1
  Fe  Fe19  1  0.87564395  0.12392636  0.62633168  1
  Fe  Fe20  1  0.74953417  -0.00033089  0.49814218  1
  Fe  Fe21  1  0.37198230  0.87148126  0.12462216  1
  Fe  Fe22  1  0.62576550  0.12214926  0.62523582  1
  Fe  Fe23  1  0.50024731  -0.00237644  0.74640926  1
  Fe  Fe24  1  0.49750439  0.50212644  0.00179368  1
  Fe  Fe25  1  0.37466938  0.12250052  0.37579527  1
  Fe  Fe26  1  0.62531078  0.12420797  0.87593780  1
  Fe  Fe27  1  0.74895484  0.75087916  0.75044293  1
  Fe  Fe28  1  -0.00097867  0.50118470  0.00393458  1
  Fe  Fe29  1  0.87586084  0.87659674  0.37433860  1
  Fe  Fe30  1  0.74949134  0.75006183  0.25253013  1
  Fe  Fe31  1  0.75163943  0.50121587  0.49924038  1
  Fe  Fe32  1  0.62585530  0.87649610  0.87405025  1
  Fe  Fe33  1  0.00248912  0.00163015  0.50168276  1
  Fe  Fe34  1  0.12244825  0.62443247  0.37690662  1
  Fe  Fe35  1  0.24943203  0.74774045  -0.00261951  1
  Fe  Fe36  1  0.62450606  0.62618115  0.12558529  1
  Fe  Fe37  1  0.87438807  0.37257004  0.87641615  1
  Fe  Fe38  1  -0.00370768  0.50067402  0.50200943  1
  Fe  Fe39  1  0.75312228  0.49890161  0.74787245  1
  Fe  Fe40  1  0.74830830  0.24801478  0.25190728  1
  Fe  Fe41  1  -0.00285954  0.49839504  0.74663154  1
  Fe  Fe42  1  0.12492794  0.37647493  0.37612742  1
  Fe  Fe43  1  -0.00013489  0.74780861  0.25053089  1
  Fe  Fe44  1  0.00045750  0.24959742  0.74955926  1
  Fe  Fe45  1  0.12649164  0.37291021  0.62305598  1
  Fe  Fe46  1  0.50027153  0.24998643  0.75069299  1
  Fe  Fe47  1  0.24988115  0.24903430  -0.00083410  1
  Fe  Fe48  1  0.74983718  0.24971868  0.75022952  1
  Fe  Fe49  1  0.37908138  0.37638132  0.37363641  1
  Fe  Fe50  1  0.00218638  0.25073907  0.00216510  1
  Fe  Fe51  1  0.50285560  0.75569542  0.50190086  1
  Fe  Fe52  1  0.37297036  0.12647863  0.62466114  1
  Fe  Fe53  1  0.74737016  0.50224027  0.25369916  1
  Fe  Fe54  1  0.25079584  0.50103717  0.74750157  1
  Fe  Fe55  1  0.62573228  0.87741221  0.12663772  1
  Fe  Fe56  1  0.12319515  0.62355469  0.87407424  1
  Fe  Fe57  1  0.75066589  0.74970227  -0.00059107  1
  Fe  Fe58  1  0.37622913  0.87713152  0.37625835  1
  Fe  Fe59  1  0.62415646  0.62346547  0.87431718  1
  Fe  Fe60  1  0.12301556  0.62784221  0.62268937  1
  Fe  Fe61  1  0.25000218  0.25095568  0.75120343  1
  Fe  Fe62  1  0.24841054  0.75167513  0.49894092  1
  Fe  Fe63  1  0.62592362  0.62603757  0.62321551  1
  Fe  Fe64  1  0.62226941  0.11861799  0.37157599  1
  Fe  Fe65  1  0.12318413  0.87597733  0.37511264  1
  Fe  Fe66  1  0.87465930  0.12627530  0.12390039  1
  Fe  Fe67  1  0.87457448  0.37571882  0.12769822  1
  Fe  Fe68  1  0.37283806  0.12411778  0.12425928  1
  Fe  Fe69  1  0.37588012  0.63078292  0.62755292  1
  Fe  Fe70  1  0.24793207  -0.00061277  0.50283609  1
  Fe  Fe71  1  0.24758024  -0.00165312  0.74774766  1
  Fe  Fe72  1  0.24752679  0.24917506  0.25054886  1
  Fe  Fe73  1  0.25027091  0.50157236  0.25042254  1
  Fe  Fe74  1  0.87483615  0.87695020  0.62720923  1
  Fe  Fe75  1  0.37855624  0.62549667  0.37458241  1
  Fe  Fe76  1  0.62512924  0.37543116  0.62233663  1
  Fe  Fe77  1  0.87546621  0.37446138  0.37484582  1
  Fe  Fe78  1  0.12512504  0.37739024  0.87625379  1
  Fe  Fe79  1  0.87590912  0.62667512  0.87551052  1
  Fe  Fe80  1  0.25397129  0.49955654  0.50255398  1
  Fe  Fe81  1  0.12549947  0.87542548  0.12446348  1
  Fe  Fe82  1  0.12412610  0.87473250  0.87537197  1
  Fe  Fe83  1  0.49912834  0.74871297  -0.00177265  1
  Fe  Fe84  1  0.49636516  -0.00108752  -0.00033784  1
  Fe  Fe85  1  -0.00233972  -0.00037500  -0.00325710  1
  Fe  Fe86  1  0.62496377  0.12164522  0.12585059  1
  Fe  Fe87  1  0.87542261  0.87251917  0.12371243  1
  Fe  Fe88  1  0.00212803  0.24724647  0.49882739  1
  Fe  Fe89  1  0.50074069  0.75177800  0.25083106  1
  Co  Co90  1  0.24501595  0.74917852  0.75049736  1
  Co  Co91  1  0.24851141  0.75069112  0.25438037  1
  Co  Co92  1  0.37433434  0.62823555  0.12806365  1
  Co  Co93  1  0.87302464  0.62525725  0.12660726  1
  Co  Co94  1  0.12630878  0.12128344  0.12320557  1
  Co  Co95  1  0.75403595  -0.00001145  0.24909623  1
  Co  Co96  1  0.75208023  0.00118670  0.75426900  1
  Co  Co97  1  0.62259566  0.37643102  0.37684326  1
  Co  Co98  1  0.12747029  0.37630212  0.12456139  1
  Co  Co99  1  0.87477417  0.12975685  0.87540341  1
  Co  Co100  1  0.49582960  -0.00168922  0.24689090  1
  Co  Co101  1  0.00159612  0.74856147  0.00158563  1
  Co  Co102  1  0.62189265  0.62608823  0.37799888  1
  Co  Co103  1  0.25196575  0.25180122  0.49687014  1
  Co  Co104  1  -0.00261289  0.75164432  0.49900899  1
  Co  Co105  1  0.50512757  0.75199344  0.74938251  1
  Co  Co106  1  0.87450516  0.62904805  0.62529028  1
  Co  Co107  1  0.12320112  0.87287638  0.62371529  1
  Co  Co108  1  0.87577261  0.12493013  0.37588583  1
  Co  Co109  1  0.12717706  0.12360376  0.37508312  1
  Co  Co110  1  0.74781647  0.25035931  0.00205666  1
  Co  Co111  1  0.25223390  -0.00278543  -0.00164488  1
  Co  Co112  1  0.49768072  0.49997581  0.50352095  1
  Co  Co113  1  0.87411834  0.37044123  0.62236768  1
  Co  Co114  1  0.62426839  0.87933134  0.37214216  1
  Co  Co115  1  0.37258082  0.87208402  0.62661147  1
  Co  Co116  1  0.00174342  0.50057543  0.24871634  1
  Co  Co117  1  0.00076266  0.00040888  0.75200663  1
  Co  Co118  1  0.50192488  0.50222091  0.24849697  1
  Co  Co119  1  0.50058935  0.24693553  0.25059205  1
  Co  Co120  1  0.37626483  0.62630393  0.87104066  1
  Co  Co121  1  0.37552339  0.37143282  0.62602962  1
  Co  Co122  1  0.12696721  0.12799315  0.62529373  1
  Co  Co123  1  0.49976974  -0.00183386  0.50386661  1
  Co  Co124  1  0.87560625  0.87074410  0.87394879  1
  Co  Co125  1  0.87668219  0.62386231  0.37397724  1
  Co  Co126  1  0.62990810  0.87665641  0.62512715  1
  Co  Co127  1  0.37458291  0.12307959  0.87219998  1
