# generated using pymatgen
data_Fe45Co19
_symmetry_space_group_name_H-M   'P 1'
_cell_length_a   11.41483433
_cell_length_b   11.41517686
_cell_length_c   11.41484977
_cell_angle_alpha   89.99831846
_cell_angle_beta   90.01069065
_cell_angle_gamma   89.99317489
_symmetry_Int_Tables_number   1
_chemical_formula_structural   Fe45Co19
_chemical_formula_sum   'Fe90 Co38'
_cell_volume   1487.38174426
_cell_formula_units_Z   2
loop_
 _symmetry_equiv_pos_site_id
 _symmetry_equiv_pos_as_xyz
  1  'x, y, z'
loop_
 _atom_site_type_symbol
 _atom_site_label
 _atom_site_symmetry_multiplicity
 _atom_site_fract_x
 _atom_site_fract_y
 _atom_site_fract_z
 _atom_site_occupancy
  Fe  Fe0  1  0.75103702  0.49978447  0.00089177  1
  Fe  Fe1  1  0.37573941  0.87543940  0.62549792  1
  Fe  Fe2  1  0.62628148  0.12437431  0.87735361  1
  Fe  Fe3  1  0.12123116  0.87727827  0.37478185  1
  Fe  Fe4  1  0.25439578  0.24517958  0.75294710  1
  Fe  Fe5  1  0.50032285  0.49879274  -0.00192559  1
  Fe  Fe6  1  -0.00209949  0.24867784  -0.00329533  1
  Fe  Fe7  1  0.50058415  0.25052843  -0.00334400  1
  Fe  Fe8  1  0.00091255  0.00210185  0.00065259  1
  Fe  Fe9  1  0.74685233  0.49790821  0.74752724  1
  Fe  Fe10  1  -0.00126718  0.49873355  -0.00022905  1
  Fe  Fe11  1  0.50216914  0.00004940  0.00418302  1
  Fe  Fe12  1  0.37681803  0.12231800  0.37398111  1
  Fe  Fe13  1  0.50140381  0.75110231  0.49995473  1
  Fe  Fe14  1  0.25133104  0.50008409  0.74928862  1
  Fe  Fe15  1  0.37461611  0.37637779  0.37318092  1
  Fe  Fe16  1  0.62506289  0.87589161  0.87536792  1
  Fe  Fe17  1  0.87543849  0.62604073  0.12522762  1
  Fe  Fe18  1  0.62317386  0.12166241  0.37585892  1
  Fe  Fe19  1  0.62803633  0.37606611  0.38229464  1
  Fe  Fe20  1  0.12310309  0.62607605  0.62554740  1
  Fe  Fe21  1  0.50133150  0.75005684  0.75114001  1
  Fe  Fe22  1  0.37793473  0.12626968  0.12719012  1
  Fe  Fe23  1  0.87098504  0.87604609  0.62484678  1
  Fe  Fe24  1  0.62603459  0.62607358  0.87762736  1
  Fe  Fe25  1  -0.00093029  0.24870878  0.50153102  1
  Fe  Fe26  1  0.12449109  0.12680690  0.12689183  1
  Fe  Fe27  1  0.25259178  0.25041652  0.49913198  1
  Fe  Fe28  1  0.87174108  0.37408982  0.62179488  1
  Fe  Fe29  1  0.62502272  0.62637809  0.12475288  1
  Fe  Fe30  1  0.37654304  0.62571273  0.62497323  1
  Fe  Fe31  1  0.62633340  0.87359485  0.12478878  1
  Fe  Fe32  1  0.37462410  0.37376043  0.12561026  1
  Fe  Fe33  1  -0.00064169  0.75160377  0.25033649  1
  Fe  Fe34  1  0.74757949  0.75123299  0.74940058  1
  Fe  Fe35  1  0.62666030  0.87677340  0.37833152  1
  Fe  Fe36  1  0.12701057  0.37323636  0.87395551  1
  Fe  Fe37  1  0.12478420  0.12459928  0.37438281  1
  Fe  Fe38  1  0.62456784  0.62348573  0.62213279  1
  Fe  Fe39  1  0.24825477  0.75102054  0.50002159  1
  Fe  Fe40  1  0.38230178  0.37299704  0.62908812  1
  Fe  Fe41  1  0.75184091  0.75142461  0.25194195  1
  Fe  Fe42  1  0.25149568  0.49822059  0.50234046  1
  Fe  Fe43  1  0.12823277  0.87764092  0.87903872  1
  Fe  Fe44  1  -0.00085646  0.49742554  0.74869613  1
  Fe  Fe45  1  -0.00173363  0.24991100  0.75110507  1
  Fe  Fe46  1  0.87145242  0.37357319  0.87544907  1
  Fe  Fe47  1  0.37580150  0.87606478  0.37499140  1
  Fe  Fe48  1  0.50218524  0.25102518  0.25225839  1
  Fe  Fe49  1  0.37541442  0.62510910  0.37432281  1
  Fe  Fe50  1  0.24877272  -0.00010880  0.24760166  1
  Fe  Fe51  1  0.12598618  0.37278883  0.62612455  1
  Fe  Fe52  1  0.75292128  0.49683780  0.25068115  1
  Fe  Fe53  1  0.62740375  0.37224792  0.12257074  1
  Fe  Fe54  1  0.00176483  -0.00122104  0.75041126  1
  Fe  Fe55  1  0.25217605  0.24658748  -0.00356283  1
  Fe  Fe56  1  -0.00165251  0.25219305  0.25046508  1
  Fe  Fe57  1  -0.00546851  0.74870283  0.50027512  1
  Fe  Fe58  1  0.00027166  0.75331487  0.75139346  1
  Fe  Fe59  1  -0.00195695  0.00137160  0.50099035  1
  Fe  Fe60  1  0.87176618  0.87732951  0.87459212  1
  Fe  Fe61  1  0.75012863  0.25120865  0.25251581  1
  Fe  Fe62  1  0.12379385  0.62530231  0.87402396  1
  Fe  Fe63  1  0.87349775  0.12324114  0.62805439  1
  Fe  Fe64  1  0.37325665  0.87362171  0.12338014  1
  Fe  Fe65  1  0.12612276  0.37244149  0.12424815  1
  Fe  Fe66  1  0.50107405  0.75203359  0.25001073  1
  Fe  Fe67  1  0.37513258  0.62535026  0.87521280  1
  Fe  Fe68  1  0.24850408  0.75289942  0.75040278  1
  Fe  Fe69  1  0.12111632  0.62164397  0.37684610  1
  Fe  Fe70  1  0.24995388  -0.00023616  0.50243362  1
  Fe  Fe71  1  0.12652436  0.12477260  0.62731089  1
  Fe  Fe72  1  0.50181066  0.00197975  0.74629214  1
  Fe  Fe73  1  0.50212727  0.49851979  0.25081812  1
  Fe  Fe74  1  0.74988668  0.00054020  0.24984900  1
  Fe  Fe75  1  0.24781511  0.50054109  0.24859981  1
  Fe  Fe76  1  0.87428334  0.62583144  0.87336935  1
  Fe  Fe77  1  0.12292787  0.62742972  0.12250130  1
  Fe  Fe78  1  0.87244446  0.12777378  0.12430302  1
  Fe  Fe79  1  0.25063216  0.50011603  -0.00079054  1
  Fe  Fe80  1  0.62633505  0.62463021  0.37580962  1
  Fe  Fe81  1  0.74667126  0.24952196  0.74980963  1
  Fe  Fe82  1  0.62297005  0.12681859  0.62081766  1
  Fe  Fe83  1  0.37388767  0.87899883  0.87670508  1
  Fe  Fe84  1  0.87481585  0.12410878  0.37475089  1
  Fe  Fe85  1  0.74984812  0.00148255  0.00075904  1
  Fe  Fe86  1  0.37732082  0.62634406  0.12520093  1
  Fe  Fe87  1  0.87637245  0.87543438  0.12487059  1
  Fe  Fe88  1  0.12177271  0.37687603  0.37583699  1
  Fe  Fe89  1  0.24784946  0.74995081  0.24988043  1
  Co  Co90  1  0.75055440  0.00135975  0.50036014  1
  Co  Co91  1  0.37528445  0.12583984  0.62434599  1
  Co  Co92  1  0.87703317  0.62192004  0.37072746  1
  Co  Co93  1  0.75469181  0.50423752  0.50066608  1
  Co  Co94  1  0.62676142  0.87436290  0.62287356  1
  Co  Co95  1  0.87509849  0.62687423  0.63070914  1
  Co  Co96  1  0.87536013  0.87785869  0.37522449  1
  Co  Co97  1  0.49752911  0.24923016  0.49680569  1
  Co  Co98  1  -0.00032698  0.49690514  0.24517302  1
  Co  Co99  1  0.62283084  0.37495782  0.62108238  1
  Co  Co100  1  0.75106551  0.75124540  0.00001966  1
  Co  Co101  1  0.24794039  0.00463923  0.00424957  1
  Co  Co102  1  0.50321377  0.50210370  0.75216851  1
  Co  Co103  1  0.87754943  0.37565836  0.37819789  1
  Co  Co104  1  0.75138352  0.24690295  0.49974777  1
  Co  Co105  1  -0.00185077  0.75116602  -0.00281403  1
  Co  Co106  1  0.25006133  0.24964192  0.25248852  1
  Co  Co107  1  0.12428018  0.87353367  0.12464481  1
  Co  Co108  1  0.62633249  0.37502256  0.87529781  1
  Co  Co109  1  0.37717940  0.11865552  0.87602906  1
  Co  Co110  1  0.50094592  -0.00218264  0.24762621  1
  Co  Co111  1  0.62537575  0.12789540  0.12591845  1
  Co  Co112  1  0.50297444  0.24655700  0.75308007  1
  Co  Co113  1  0.49762019  0.50006451  0.49851801  1
  Co  Co114  1  0.37550493  0.37561616  0.87242679  1
  Co  Co115  1  -0.00066863  0.00197668  0.24803829  1
  Co  Co116  1  0.50066456  0.75111582  -0.00080959  1
  Co  Co117  1  0.25060053  0.74866052  -0.00088682  1
  Co  Co118  1  0.87299267  0.37173564  0.12295083  1
  Co  Co119  1  0.87390882  0.12337810  0.87270557  1
  Co  Co120  1  0.12428570  0.12430391  0.87155640  1
  Co  Co121  1  0.12284126  0.87470318  0.62188903  1
  Co  Co122  1  0.24935648  -0.00059326  0.74714087  1
  Co  Co123  1  0.74991092  0.24792525  -0.00306415  1
  Co  Co124  1  -0.00291176  0.50078508  0.50513235  1
  Co  Co125  1  0.74566983  0.00207643  0.74898807  1
  Co  Co126  1  0.75271827  0.74786038  0.49925318  1
  Co  Co127  1  0.49918170  -0.00094008  0.50235828  1
