# generated using pymatgen
data_Fe45Co19
_symmetry_space_group_name_H-M   'P 1'
_cell_length_a   11.41469405
_cell_length_b   11.41634412
_cell_length_c   11.41469993
_cell_angle_alpha   89.99942222
_cell_angle_beta   90.01714564
_cell_angle_gamma   90.00264272
_symmetry_Int_Tables_number   1
_chemical_formula_structural   Fe45Co19
_chemical_formula_sum   'Fe90 Co38'
_cell_volume   1487.49599815
_cell_formula_units_Z   2
loop_
 _symmetry_equiv_pos_site_id
 _symmetry_equiv_pos_as_xyz
  1  'x, y, z'
loop_
 _atom_site_type_symbol
 _atom_site_label
 _atom_site_symmetry_multiplicity
 _atom_site_fract_x
 _atom_site_fract_y
 _atom_site_fract_z
 _atom_site_occupancy
  Fe  Fe0  1  0.62271413  0.87609305  0.37086840  1
  Fe  Fe1  1  0.62023227  0.37536730  0.12190345  1
  Fe  Fe2  1  0.37319348  0.62351836  0.87671915  1
  Fe  Fe3  1  0.87746356  0.62201692  0.12503094  1
  Fe  Fe4  1  0.00194642  0.75016394  0.50111366  1
  Fe  Fe5  1  0.37172649  0.12788001  0.87609482  1
  Fe  Fe6  1  0.75066511  0.75004756  0.24853675  1
  Fe  Fe7  1  0.88141546  0.37476554  0.12054076  1
  Fe  Fe8  1  0.49779614  0.00051504  0.75061916  1
  Fe  Fe9  1  0.12884727  0.37518114  0.37800815  1
  Fe  Fe10  1  0.49985679  0.75091346  0.50148481  1
  Fe  Fe11  1  0.62628997  0.12563202  0.87593310  1
  Fe  Fe12  1  0.24970958  -0.00214421  0.24779989  1
  Fe  Fe13  1  0.87968496  0.36843980  0.62279256  1
  Fe  Fe14  1  0.00247249  0.74830513  -0.00211626  1
  Fe  Fe15  1  0.25043034  0.25386630  0.24793734  1
  Fe  Fe16  1  0.74870589  0.75113576  0.49990664  1
  Fe  Fe17  1  0.12590655  0.12470720  0.87644994  1
  Fe  Fe18  1  0.49833940  -0.00026001  0.50170181  1
  Fe  Fe19  1  0.87813942  0.12833988  0.12159512  1
  Fe  Fe20  1  0.49784756  0.24967961  0.24810171  1
  Fe  Fe21  1  0.87669493  0.87605430  0.62659805  1
  Fe  Fe22  1  0.00388940  0.00031754  -0.00008304  1
  Fe  Fe23  1  0.37259522  0.62425018  0.62539239  1
  Fe  Fe24  1  0.75142791  0.00042115  0.24776456  1
  Fe  Fe25  1  0.24488344  0.25574112  0.00060570  1
  Fe  Fe26  1  0.37413241  0.12572142  0.37443990  1
  Fe  Fe27  1  0.49707660  0.49798975  0.75172434  1
  Fe  Fe28  1  0.24959938  -0.00009634  0.50130423  1
  Fe  Fe29  1  0.62306180  0.37353598  0.87589527  1
  Fe  Fe30  1  0.75051338  0.00116553  0.50062861  1
  Fe  Fe31  1  0.24646729  0.25501361  0.75138023  1
  Fe  Fe32  1  0.36967342  0.87579530  0.87128159  1
  Fe  Fe33  1  0.74993335  0.25169751  0.24651044  1
  Fe  Fe34  1  0.62677530  0.12706213  0.62536469  1
  Fe  Fe35  1  0.00044742  0.74879326  0.75245178  1
  Fe  Fe36  1  -0.00153198  0.00453178  0.75240016  1
  Fe  Fe37  1  0.75552342  0.49604410  0.75156697  1
  Fe  Fe38  1  0.62437514  0.12397240  0.12430462  1
  Fe  Fe39  1  0.00298837  0.25043850  0.24989573  1
  Fe  Fe40  1  0.12649653  0.61957015  0.62827183  1
  Fe  Fe41  1  0.62336238  0.37525622  0.37424352  1
  Fe  Fe42  1  0.75164608  0.75127025  0.00026048  1
  Fe  Fe43  1  0.87497063  0.62591059  0.62503991  1
  Fe  Fe44  1  0.62700234  0.62419300  0.87364932  1
  Fe  Fe45  1  0.24998303  0.49625447  -0.00077866  1
  Fe  Fe46  1  0.87755024  0.87514051  0.37360740  1
  Fe  Fe47  1  0.12707969  0.12450240  0.37241695  1
  Fe  Fe48  1  0.37525812  0.62631594  0.37403717  1
  Fe  Fe49  1  0.00054694  0.00127726  0.49988105  1
  Fe  Fe50  1  0.24759824  -0.00296280  0.00184977  1
  Fe  Fe51  1  0.12472101  0.62221832  0.12836669  1
  Fe  Fe52  1  0.62658917  0.62253445  0.37514085  1
  Fe  Fe53  1  0.37166747  0.12711162  0.12342770  1
  Fe  Fe54  1  0.12429499  0.62537935  0.37254746  1
  Fe  Fe55  1  0.49679639  0.50141591  0.24723060  1
  Fe  Fe56  1  0.49830403  0.25116914  0.75036619  1
  Fe  Fe57  1  0.75385378  0.00237913  0.75109782  1
  Fe  Fe58  1  0.75475857  0.24931458  0.75271232  1
  Fe  Fe59  1  0.12461804  0.61944019  0.87144494  1
  Fe  Fe60  1  0.62449848  0.87578783  0.62629072  1
  Fe  Fe61  1  0.37022756  0.37582992  0.62163094  1
  Fe  Fe62  1  0.87400470  0.12727072  0.37647385  1
  Fe  Fe63  1  0.37586741  0.87170425  0.12681464  1
  Fe  Fe64  1  0.87972005  0.87505500  0.12507103  1
  Fe  Fe65  1  0.50020787  0.25152732  0.50082294  1
  Fe  Fe66  1  0.62605911  0.62292032  0.62721706  1
  Fe  Fe67  1  0.75182872  0.75140953  0.75123536  1
  Fe  Fe68  1  0.12785990  0.87553620  0.63017435  1
  Fe  Fe69  1  0.49782036  0.00075594  -0.00022296  1
  Fe  Fe70  1  0.37661621  0.87413797  0.37265247  1
  Fe  Fe71  1  0.75046638  -0.00095272  0.00058087  1
  Fe  Fe72  1  0.00075660  0.49916313  0.49941189  1
  Fe  Fe73  1  0.49765444  0.75058361  0.75023795  1
  Fe  Fe74  1  0.24571534  0.75117363  -0.00007835  1
  Fe  Fe75  1  0.12243922  0.87473036  0.37018556  1
  Fe  Fe76  1  0.62512518  0.62465931  0.12336515  1
  Fe  Fe77  1  0.75131951  0.49803679  -0.00212226  1
  Fe  Fe78  1  0.75002985  0.49586223  0.50286550  1
  Fe  Fe79  1  0.62563251  0.87548105  0.87578475  1
  Fe  Fe80  1  0.12307319  0.12896734  0.62465878  1
  Fe  Fe81  1  0.49977015  0.49862575  0.50144221  1
  Fe  Fe82  1  0.37322303  0.12572755  0.62542977  1
  Fe  Fe83  1  0.87382451  0.62417155  0.37600962  1
  Fe  Fe84  1  0.24899257  0.75033330  0.50048199  1
  Fe  Fe85  1  0.25315895  0.49797145  0.24976154  1
  Fe  Fe86  1  0.62497309  0.12613223  0.37430486  1
  Fe  Fe87  1  0.75160670  0.49748215  0.24771619  1
  Fe  Fe88  1  0.87454938  0.37310137  0.37563045  1
  Fe  Fe89  1  0.49992539  0.74941386  0.00001052  1
  Co  Co90  1  -0.00026622  0.49821235  0.25450572  1
  Co  Co91  1  0.12748765  0.12517758  0.12609500  1
  Co  Co92  1  0.87605598  0.12802214  0.62167837  1
  Co  Co93  1  0.25316318  0.49495480  0.75307042  1
  Co  Co94  1  -0.00511951  0.49747376  0.74829451  1
  Co  Co95  1  0.88002951  0.37200348  0.88176293  1
  Co  Co96  1  0.11881859  0.37957287  0.87334825  1
  Co  Co97  1  0.74681845  0.25165553  0.49957097  1
  Co  Co98  1  -0.00247678  0.74614321  0.24971085  1
  Co  Co99  1  0.87414260  0.62546208  0.87465801  1
  Co  Co100  1  0.24927686  0.74981069  0.24976641  1
  Co  Co101  1  0.50126124  0.74571845  0.24810714  1
  Co  Co102  1  0.87541274  0.12720520  0.88128571  1
  Co  Co103  1  0.49802288  0.00306575  0.24754674  1
  Co  Co104  1  0.37752137  0.37464474  0.12081263  1
  Co  Co105  1  0.37767935  0.37260262  0.87994365  1
  Co  Co106  1  0.12634979  0.87665063  0.87106806  1
  Co  Co107  1  0.12174877  0.37942623  0.12586521  1
  Co  Co108  1  0.12516768  0.37650912  0.62307178  1
  Co  Co109  1  0.00369323  0.24930786  0.49558747  1
  Co  Co110  1  -0.00078638  0.00500619  0.24904689  1
  Co  Co111  1  0.50037807  0.50300945  -0.00146881  1
  Co  Co112  1  0.37474968  0.37440037  0.37684065  1
  Co  Co113  1  0.62538130  0.37460103  0.62856926  1
  Co  Co114  1  0.87710179  0.87551403  0.87583897  1
  Co  Co115  1  0.74753101  0.25208371  0.00152194  1
  Co  Co116  1  0.24880653  0.00566981  0.74897662  1
  Co  Co117  1  0.62277906  0.87551913  0.12578279  1
  Co  Co118  1  0.00090101  0.24871403  0.75334637  1
  Co  Co119  1  0.37081108  0.87532799  0.62793446  1
  Co  Co120  1  0.12154572  0.87407346  0.12881834  1
  Co  Co121  1  0.00058253  0.50414399  -0.00161004  1
  Co  Co122  1  0.50126862  0.24531220  -0.00003731  1
  Co  Co123  1  0.24974459  0.24707336  0.50043228  1
  Co  Co124  1  0.24969582  0.74557689  0.75122705  1
  Co  Co125  1  0.37157018  0.62531512  0.12257209  1
  Co  Co126  1  0.00784694  0.24834607  -0.00005463  1
  Co  Co127  1  0.24935168  0.50379140  0.49741442  1
