# generated using pymatgen
data_Fe45Co19
_symmetry_space_group_name_H-M   'P 1'
_cell_length_a   11.41677151
_cell_length_b   11.41613175
_cell_length_c   11.41632764
_cell_angle_alpha   89.99895371
_cell_angle_beta   89.99791721
_cell_angle_gamma   89.99796385
_symmetry_Int_Tables_number   1
_chemical_formula_structural   Fe45Co19
_chemical_formula_sum   'Fe90 Co38'
_cell_volume   1487.95125900
_cell_formula_units_Z   2
loop_
 _symmetry_equiv_pos_site_id
 _symmetry_equiv_pos_as_xyz
  1  'x, y, z'
loop_
 _atom_site_type_symbol
 _atom_site_label
 _atom_site_symmetry_multiplicity
 _atom_site_fract_x
 _atom_site_fract_y
 _atom_site_fract_z
 _atom_site_occupancy
  Fe  Fe0  1  0.12303567  0.62479953  0.62422299  1
  Fe  Fe1  1  0.74628549  -0.00131954  0.25193356  1
  Fe  Fe2  1  0.37293619  0.87177782  0.87583433  1
  Fe  Fe3  1  0.62536840  0.87380201  0.87406762  1
  Fe  Fe4  1  0.37571108  0.12636565  0.87507769  1
  Fe  Fe5  1  0.37807488  0.12454968  0.37524857  1
  Fe  Fe6  1  0.87498866  0.12455850  0.37541535  1
  Fe  Fe7  1  0.37240390  0.37533946  0.87351497  1
  Fe  Fe8  1  0.49971074  0.49854065  0.75008081  1
  Fe  Fe9  1  0.87465560  0.37824229  0.62066310  1
  Fe  Fe10  1  0.00182016  0.50125767  0.25444401  1
  Fe  Fe11  1  0.12847537  0.37763000  0.37823862  1
  Fe  Fe12  1  0.87213655  0.87190764  0.37693611  1
  Fe  Fe13  1  0.87229798  0.62377877  0.87124749  1
  Fe  Fe14  1  0.12619398  0.37643361  0.62152902  1
  Fe  Fe15  1  0.87512695  0.37762520  0.12506055  1
  Fe  Fe16  1  0.25141591  0.25169834  0.25066056  1
  Fe  Fe17  1  -0.00073849  0.25010431  0.74868122  1
  Fe  Fe18  1  0.24919393  0.24914037  0.74809053  1
  Fe  Fe19  1  0.12436332  0.87584815  0.87548424  1
  Fe  Fe20  1  0.25038094  0.74827688  0.50059689  1
  Fe  Fe21  1  0.62724923  0.62373970  0.87234689  1
  Fe  Fe22  1  0.87725118  0.12323098  0.87543129  1
  Fe  Fe23  1  0.50063086  0.75114195  0.75073697  1
  Fe  Fe24  1  0.49741720  -0.00145699  0.00232218  1
  Fe  Fe25  1  0.75008653  -0.00149020  0.74977138  1
  Fe  Fe26  1  0.25309894  -0.00048596  0.24922468  1
  Fe  Fe27  1  0.62199683  0.62134478  0.12208374  1
  Fe  Fe28  1  0.12475544  0.62335170  0.12536567  1
  Fe  Fe29  1  0.87527936  0.12413818  0.12681092  1
  Fe  Fe30  1  0.87409632  0.37660959  0.87665457  1
  Fe  Fe31  1  0.87651130  0.62323314  0.12649859  1
  Fe  Fe32  1  -0.00045495  0.74915151  0.25395598  1
  Fe  Fe33  1  0.00054929  0.24873805  0.49772505  1
  Fe  Fe34  1  0.12410669  0.12369869  0.87497244  1
  Fe  Fe35  1  0.12297619  0.87520743  0.62196839  1
  Fe  Fe36  1  0.00099542  0.49786034  0.75058463  1
  Fe  Fe37  1  0.87567943  0.87472478  0.12439342  1
  Fe  Fe38  1  0.37643109  0.62166211  0.12271740  1
  Fe  Fe39  1  0.62182110  0.12600526  0.37774154  1
  Fe  Fe40  1  0.62251693  0.87414203  0.12537101  1
  Fe  Fe41  1  0.12413636  0.12413231  0.62333272  1
  Fe  Fe42  1  -0.00031383  0.74833353  -0.00100620  1
  Fe  Fe43  1  0.62759080  0.37604493  0.87660724  1
  Fe  Fe44  1  0.25176833  0.25180707  0.00187361  1
  Fe  Fe45  1  0.25109484  0.74818880  0.24896051  1
  Fe  Fe46  1  0.37247847  0.37564192  0.62262981  1
  Fe  Fe47  1  -0.00055125  0.75245769  0.74998314  1
  Fe  Fe48  1  0.62350297  0.12565957  0.87439260  1
  Fe  Fe49  1  0.25189474  -0.00163730  0.00286616  1
  Fe  Fe50  1  0.37545047  0.62499862  0.62732855  1
  Fe  Fe51  1  0.62566297  0.37762334  0.37883699  1
  Fe  Fe52  1  0.87244196  0.37837676  0.37734045  1
  Fe  Fe53  1  0.74858325  0.25108639  0.25091710  1
  Fe  Fe54  1  0.00023231  0.25118368  0.25238778  1
  Fe  Fe55  1  0.75054732  0.74352948  0.50490951  1
  Fe  Fe56  1  0.12506348  0.37844803  0.12406493  1
  Fe  Fe57  1  0.74760999  0.50060675  0.24966982  1
  Fe  Fe58  1  0.50170201  0.25127411  0.74724537  1
  Fe  Fe59  1  0.74854674  0.74897164  0.24835060  1
  Fe  Fe60  1  0.12487589  0.87334811  0.37657904  1
  Fe  Fe61  1  0.37542091  0.87451848  0.62448192  1
  Fe  Fe62  1  0.12585518  0.12532556  0.12701285  1
  Fe  Fe63  1  0.25055665  0.00137812  0.49817262  1
  Fe  Fe64  1  0.62444867  0.62494559  0.37599743  1
  Fe  Fe65  1  0.50106575  0.74938272  0.50156923  1
  Fe  Fe66  1  0.37450667  0.62285164  0.37448391  1
  Fe  Fe67  1  0.87438762  0.12461615  0.62331767  1
  Fe  Fe68  1  0.62293781  0.12622517  0.12483212  1
  Fe  Fe69  1  0.75022349  0.74933607  -0.00056339  1
  Fe  Fe70  1  0.12623128  0.37521949  0.87536287  1
  Fe  Fe71  1  0.37846458  0.87496293  0.37417198  1
  Fe  Fe72  1  -0.00038581  0.24983101  0.00122056  1
  Fe  Fe73  1  0.62663436  0.37654538  0.62071835  1
  Fe  Fe74  1  0.37220437  0.62634390  0.87480545  1
  Fe  Fe75  1  0.49836004  0.25401603  0.00220337  1
  Fe  Fe76  1  0.12450193  0.87379574  0.12600472  1
  Fe  Fe77  1  0.50008068  0.25411343  0.24916455  1
  Fe  Fe78  1  0.74520628  -0.00052178  0.50012078  1
  Fe  Fe79  1  0.25035893  -0.00051998  0.74931373  1
  Fe  Fe80  1  0.37753145  0.12568106  0.62308494  1
  Fe  Fe81  1  0.50055099  0.74961843  0.24896888  1
  Fe  Fe82  1  0.75042167  0.25051551  0.74849468  1
  Fe  Fe83  1  0.87575919  0.87450286  0.62361539  1
  Fe  Fe84  1  0.75087876  0.25029063  0.00142062  1
  Fe  Fe85  1  0.37366025  0.37872518  0.37683200  1
  Fe  Fe86  1  -0.00063546  -0.00122536  0.25219660  1
  Fe  Fe87  1  0.75071827  -0.00091343  -0.00014753  1
  Fe  Fe88  1  0.12779873  0.62491619  0.87347180  1
  Fe  Fe89  1  0.50045692  -0.00095236  0.74748833  1
  Co  Co90  1  -0.00009162  0.00050066  0.49739746  1
  Co  Co91  1  0.12758427  0.62688602  0.37577962  1
  Co  Co92  1  0.12542382  0.12450571  0.37277957  1
  Co  Co93  1  0.49936148  0.50180874  0.50071646  1
  Co  Co94  1  0.87242954  0.62521720  0.37188069  1
  Co  Co95  1  0.62516895  0.86952675  0.37626297  1
  Co  Co96  1  0.25035497  0.24749348  0.49886462  1
  Co  Co97  1  0.49881893  0.49830682  -0.00435054  1
  Co  Co98  1  0.62503059  0.87207456  0.62556500  1
  Co  Co99  1  0.87660972  0.87501495  0.87659352  1
  Co  Co100  1  0.37729475  0.87143074  0.12652400  1
  Co  Co101  1  0.25096736  0.50420582  0.50151074  1
  Co  Co102  1  0.62232902  0.62430237  0.62945036  1
  Co  Co103  1  0.62587136  0.37638692  0.12365600  1
  Co  Co104  1  0.49889102  0.25253077  0.50039147  1
  Co  Co105  1  0.50099306  0.74900094  -0.00148836  1
  Co  Co106  1  0.37578685  0.12699371  0.12645791  1
  Co  Co107  1  0.62488251  0.12660939  0.62535923  1
  Co  Co108  1  0.37461920  0.37972850  0.12698064  1
  Co  Co109  1  -0.00025594  0.50378395  0.49643197  1
  Co  Co110  1  0.24972594  0.50008558  0.74858121  1
  Co  Co111  1  0.25062718  0.50024353  -0.00132739  1
  Co  Co112  1  0.75038853  0.24902475  0.49886476  1
  Co  Co113  1  0.87849427  0.62191884  0.63042577  1
  Co  Co114  1  0.50218045  -0.00209594  0.50106450  1
  Co  Co115  1  -0.00080858  -0.00056435  0.74866943  1
  Co  Co116  1  -0.00009398  0.50191430  -0.00232065  1
  Co  Co117  1  0.75157617  0.75209180  0.74867640  1
  Co  Co118  1  0.24915225  0.50195321  0.25002946  1
  Co  Co119  1  0.00110928  0.00035313  0.00223930  1
  Co  Co120  1  0.24887888  0.74962786  0.00210382  1
  Co  Co121  1  0.74986630  0.50682836  0.50145354  1
  Co  Co122  1  0.24825757  0.75149777  0.74758984  1
  Co  Co123  1  -0.00260065  0.74586821  0.49823887  1
  Co  Co124  1  0.74938913  0.49688553  0.74709224  1
  Co  Co125  1  0.75080749  0.50145297  0.00127306  1
  Co  Co126  1  0.50178151  0.49923478  0.25173387  1
  Co  Co127  1  0.50184892  -0.00113219  0.25005753  1
