# generated using pymatgen
data_Fe45Co19
_symmetry_space_group_name_H-M   'P 1'
_cell_length_a   11.41588639
_cell_length_b   11.41508276
_cell_length_c   11.41622656
_cell_angle_alpha   89.99706575
_cell_angle_beta   89.99721315
_cell_angle_gamma   89.98951356
_symmetry_Int_Tables_number   1
_chemical_formula_structural   Fe45Co19
_chemical_formula_sum   'Fe90 Co38'
_cell_volume   1487.68599169
_cell_formula_units_Z   2
loop_
 _symmetry_equiv_pos_site_id
 _symmetry_equiv_pos_as_xyz
  1  'x, y, z'
loop_
 _atom_site_type_symbol
 _atom_site_label
 _atom_site_symmetry_multiplicity
 _atom_site_fract_x
 _atom_site_fract_y
 _atom_site_fract_z
 _atom_site_occupancy
  Fe  Fe0  1  0.87610422  0.62409924  0.62270057  1
  Fe  Fe1  1  -0.00109629  0.00145277  0.24898235  1
  Fe  Fe2  1  0.37554529  0.37606396  0.87492902  1
  Fe  Fe3  1  0.37426056  0.87401018  0.12629862  1
  Fe  Fe4  1  0.74877255  0.74872815  0.49810380  1
  Fe  Fe5  1  0.12692309  0.12526355  0.62383186  1
  Fe  Fe6  1  0.12583192  0.12480797  0.37679919  1
  Fe  Fe7  1  0.62680204  0.62399911  0.62552823  1
  Fe  Fe8  1  0.12522306  0.62342146  0.37728594  1
  Fe  Fe9  1  0.87449585  0.37601971  0.62389332  1
  Fe  Fe10  1  0.12300835  0.37548347  0.37441136  1
  Fe  Fe11  1  0.62275200  0.87377486  0.62232053  1
  Fe  Fe12  1  0.12322169  0.62453103  0.87262803  1
  Fe  Fe13  1  0.25194717  -0.00223115  0.74754606  1
  Fe  Fe14  1  0.49908999  0.25200832  0.74788337  1
  Fe  Fe15  1  0.62030737  0.87599415  0.37623075  1
  Fe  Fe16  1  0.75387305  0.49616259  0.24934006  1
  Fe  Fe17  1  0.62837296  0.37283472  0.12758531  1
  Fe  Fe18  1  0.25048732  0.25153238  0.75123245  1
  Fe  Fe19  1  -0.00048316  -0.00113583  0.74852783  1
  Fe  Fe20  1  0.24991066  0.25543695  0.49985132  1
  Fe  Fe21  1  0.37335559  0.62489609  0.12449843  1
  Fe  Fe22  1  0.25424484  0.49621476  0.25078306  1
  Fe  Fe23  1  0.62241355  0.12840834  0.37392591  1
  Fe  Fe24  1  0.25095003  0.74930256  0.25301150  1
  Fe  Fe25  1  0.24706965  0.75048672  0.00093108  1
  Fe  Fe26  1  0.12891634  0.37365809  0.12571485  1
  Fe  Fe27  1  0.62542855  0.37759303  0.87205027  1
  Fe  Fe28  1  0.74790741  0.25403778  0.49652826  1
  Fe  Fe29  1  0.00063754  0.25172458  0.50154217  1
  Fe  Fe30  1  0.50177993  0.25759476  0.50394572  1
  Fe  Fe31  1  0.37170244  0.62256113  0.62027724  1
  Fe  Fe32  1  0.87403009  0.12509074  0.62294876  1
  Fe  Fe33  1  0.00149474  0.74901986  0.24949412  1
  Fe  Fe34  1  0.37778740  0.61882203  0.37935161  1
  Fe  Fe35  1  0.25000713  0.49974686  -0.00155941  1
  Fe  Fe36  1  0.62464193  0.12621482  0.62502656  1
  Fe  Fe37  1  0.75385392  0.50400474  0.75303142  1
  Fe  Fe38  1  0.49814578  0.50041981  0.74713400  1
  Fe  Fe39  1  0.75142616  0.24887451  0.75303585  1
  Fe  Fe40  1  0.25263591  0.00141889  0.25188793  1
  Fe  Fe41  1  0.87673913  0.62236315  0.37542754  1
  Fe  Fe42  1  0.87298750  0.87253053  0.12509076  1
  Fe  Fe43  1  -0.00225491  0.49842329  0.24720906  1
  Fe  Fe44  1  0.25518718  -0.00386889  0.50067027  1
  Fe  Fe45  1  0.62110307  0.61836547  0.37278870  1
  Fe  Fe46  1  0.50172677  0.49999723  0.00391791  1
  Fe  Fe47  1  -0.00061710  0.50232053  0.00271526  1
  Fe  Fe48  1  0.37652932  0.62462251  0.87647801  1
  Fe  Fe49  1  0.49929936  0.00163301  0.24824196  1
  Fe  Fe50  1  0.87490977  0.87436861  0.62168773  1
  Fe  Fe51  1  0.50330818  0.24985722  -0.00149315  1
  Fe  Fe52  1  0.74794869  0.74967479  0.25199080  1
  Fe  Fe53  1  0.24841766  -0.00140825  -0.00046784  1
  Fe  Fe54  1  0.00197185  -0.00205911  0.00134108  1
  Fe  Fe55  1  0.12463716  0.87229864  0.62206094  1
  Fe  Fe56  1  0.74505284  0.00286734  0.00111836  1
  Fe  Fe57  1  0.12390424  0.87616679  0.37558114  1
  Fe  Fe58  1  0.62398382  0.87381488  0.87344855  1
  Fe  Fe59  1  0.00249983  0.25072848  -0.00049538  1
  Fe  Fe60  1  0.49774658  0.00044073  0.74660920  1
  Fe  Fe61  1  0.00418531  0.74939767  0.00408019  1
  Fe  Fe62  1  0.50028682  0.74709704  0.74816685  1
  Fe  Fe63  1  0.87171828  0.12936439  0.12340718  1
  Fe  Fe64  1  0.50285649  0.74772638  0.00226167  1
  Fe  Fe65  1  0.37540630  0.12499563  0.87453463  1
  Fe  Fe66  1  0.87551844  0.37577840  0.87762993  1
  Fe  Fe67  1  0.25057441  0.74845107  0.74904761  1
  Fe  Fe68  1  0.12483058  0.12277939  0.87294911  1
  Fe  Fe69  1  0.74807562  0.49723921  0.49795587  1
  Fe  Fe70  1  0.37562306  0.87370903  0.87507398  1
  Fe  Fe71  1  0.74813087  0.00141988  0.24955642  1
  Fe  Fe72  1  0.12806412  0.12713916  0.12613622  1
  Fe  Fe73  1  -0.00073033  0.25084791  0.74921861  1
  Fe  Fe74  1  0.50243267  0.00192850  0.00236323  1
  Fe  Fe75  1  0.12384425  0.37794617  0.87187911  1
  Fe  Fe76  1  0.50002662  0.74743788  0.25000795  1
  Fe  Fe77  1  0.74984834  0.50364232  0.00010178  1
  Fe  Fe78  1  0.87559033  0.12579297  0.37665948  1
  Fe  Fe79  1  0.74818326  0.00092324  0.49847939  1
  Fe  Fe80  1  0.87512045  0.12397003  0.87646665  1
  Fe  Fe81  1  0.87405816  0.87224825  0.87655612  1
  Fe  Fe82  1  0.49470629  0.25519578  0.24937320  1
  Fe  Fe83  1  0.37635872  0.12783698  0.37922101  1
  Fe  Fe84  1  -0.00193347  0.25088142  0.24958053  1
  Fe  Fe85  1  0.74578287  0.74581291  -0.00007771  1
  Fe  Fe86  1  -0.00134539  0.74873974  0.74824115  1
  Fe  Fe87  1  0.37179589  0.12960771  0.12266309  1
  Fe  Fe88  1  0.74995025  -0.00127031  0.74964486  1
  Fe  Fe89  1  0.87644755  0.87573196  0.37624957  1
  Co  Co90  1  0.74507140  0.24836968  -0.00461115  1
  Co  Co91  1  0.25120177  0.50200841  0.75164430  1
  Co  Co92  1  0.00002317  0.00052686  0.50055845  1
  Co  Co93  1  0.75439193  0.25305453  0.25527942  1
  Co  Co94  1  0.62133441  0.37784304  0.37023189  1
  Co  Co95  1  0.12505737  0.87381673  0.87278052  1
  Co  Co96  1  0.37939274  0.87393664  0.37362666  1
  Co  Co97  1  0.12701113  0.87624135  0.12940194  1
  Co  Co98  1  0.49403352  0.49632588  0.24366314  1
  Co  Co99  1  0.62312377  0.62391152  0.87212434  1
  Co  Co100  1  0.12817913  0.62209252  0.12802979  1
  Co  Co101  1  0.49772682  0.00112043  0.50102900  1
  Co  Co102  1  0.12614981  0.62533137  0.62413038  1
  Co  Co103  1  0.62623147  0.62256412  0.13010398  1
  Co  Co104  1  -0.00254961  0.50101114  0.74879411  1
  Co  Co105  1  0.63075901  0.37619796  0.63081145  1
  Co  Co106  1  0.50439672  0.49581640  0.50605787  1
  Co  Co107  1  0.25246707  0.25197209  0.25480293  1
  Co  Co108  1  0.75025785  0.74939675  0.74824421  1
  Co  Co109  1  -0.00070575  0.74792250  0.49829466  1
  Co  Co110  1  0.62288754  0.12357916  0.86991609  1
  Co  Co111  1  0.24550410  0.49714438  0.49984904  1
  Co  Co112  1  0.37050382  0.37143954  0.11998656  1
  Co  Co113  1  0.62588793  0.13079816  0.13007500  1
  Co  Co114  1  0.87868276  0.37717269  0.37845213  1
  Co  Co115  1  0.87805738  0.62847481  0.87718668  1
  Co  Co116  1  0.25146445  0.75128668  0.49740727  1
  Co  Co117  1  0.62491069  0.87371308  0.12606619  1
  Co  Co118  1  0.37804820  0.87111050  0.62480725  1
  Co  Co119  1  0.50091986  0.74603676  0.49875371  1
  Co  Co120  1  0.37421536  0.12898398  0.62339299  1
  Co  Co121  1  0.12527619  0.37645875  0.62873626  1
  Co  Co122  1  0.87291288  0.37232348  0.12047110  1
  Co  Co123  1  0.00294126  0.49948509  0.50227273  1
  Co  Co124  1  0.87411895  0.62748217  0.12668492  1
  Co  Co125  1  0.37066370  0.37739869  0.62531475  1
  Co  Co126  1  0.24723959  0.25022175  -0.00584217  1
  Co  Co127  1  0.37794530  0.37957504  0.38065370  1
