# generated using pymatgen
data_Fe45Co19
_symmetry_space_group_name_H-M   'P 1'
_cell_length_a   11.41447800
_cell_length_b   11.41635175
_cell_length_c   11.41526109
_cell_angle_alpha   90.00482465
_cell_angle_beta   89.99415627
_cell_angle_gamma   90.00036796
_symmetry_Int_Tables_number   1
_chemical_formula_structural   Fe45Co19
_chemical_formula_sum   'Fe90 Co38'
_cell_volume   1487.54201793
_cell_formula_units_Z   2
loop_
 _symmetry_equiv_pos_site_id
 _symmetry_equiv_pos_as_xyz
  1  'x, y, z'
loop_
 _atom_site_type_symbol
 _atom_site_label
 _atom_site_symmetry_multiplicity
 _atom_site_fract_x
 _atom_site_fract_y
 _atom_site_fract_z
 _atom_site_occupancy
  Fe  Fe0  1  0.74987811  0.75106803  0.74870374  1
  Fe  Fe1  1  0.87435113  0.12655954  0.87458584  1
  Fe  Fe2  1  0.37731567  0.12407699  0.62694126  1
  Fe  Fe3  1  0.25220633  0.50032671  -0.00313917  1
  Fe  Fe4  1  0.25311415  0.25404204  0.24752080  1
  Fe  Fe5  1  0.12519114  0.87336582  0.37755236  1
  Fe  Fe6  1  0.37839739  0.37674518  0.62238159  1
  Fe  Fe7  1  0.87239052  0.62569613  0.37661836  1
  Fe  Fe8  1  0.37570467  0.87399677  0.37614161  1
  Fe  Fe9  1  0.87367410  0.62301785  0.12552506  1
  Fe  Fe10  1  0.87570187  0.37607043  0.62324855  1
  Fe  Fe11  1  0.12643874  0.62379955  0.62583670  1
  Fe  Fe12  1  0.12385121  0.62774441  0.87367823  1
  Fe  Fe13  1  0.50228463  0.25267882  0.74753638  1
  Fe  Fe14  1  0.12492332  0.87537952  0.12306435  1
  Fe  Fe15  1  0.37422804  0.62226474  0.12618317  1
  Fe  Fe16  1  0.00053322  0.25085494  0.25042462  1
  Fe  Fe17  1  -0.00147618  0.75040521  0.24879607  1
  Fe  Fe18  1  0.12261117  0.37462584  0.62526435  1
  Fe  Fe19  1  0.62163875  0.37744301  0.12036162  1
  Fe  Fe20  1  0.25009491  -0.00191980  0.25018883  1
  Fe  Fe21  1  0.87490536  0.87596856  0.12379476  1
  Fe  Fe22  1  0.24774167  0.75443131  0.74911691  1
  Fe  Fe23  1  0.87575936  0.37474157  0.12351665  1
  Fe  Fe24  1  0.12634509  0.62354973  0.12603085  1
  Fe  Fe25  1  0.37511131  0.37191082  0.87653530  1
  Fe  Fe26  1  0.50135972  0.74982362  0.50240912  1
  Fe  Fe27  1  0.37544642  0.87493553  0.62441262  1
  Fe  Fe28  1  0.25123422  0.74885846  0.50124393  1
  Fe  Fe29  1  0.49776709  0.74605176  -0.00352134  1
  Fe  Fe30  1  0.12575558  0.12616541  0.37463591  1
  Fe  Fe31  1  0.74515214  0.49631349  0.75531225  1
  Fe  Fe32  1  0.13191837  0.12725269  0.87046743  1
  Fe  Fe33  1  0.87464312  0.37500796  0.37879308  1
  Fe  Fe34  1  0.49916106  -0.00133923  0.75148152  1
  Fe  Fe35  1  -0.00080055  0.74801259  0.50282545  1
  Fe  Fe36  1  0.62393753  0.12416628  0.37703824  1
  Fe  Fe37  1  0.24958070  0.00083080  0.50236978  1
  Fe  Fe38  1  0.87970322  0.87145516  0.87444051  1
  Fe  Fe39  1  0.12605727  0.62518978  0.37436851  1
  Fe  Fe40  1  0.25151437  0.49688789  0.75100147  1
  Fe  Fe41  1  0.74700218  0.24829009  0.50381156  1
  Fe  Fe42  1  0.00336239  0.00107996  -0.00329471  1
  Fe  Fe43  1  0.74940869  0.25083277  0.00127170  1
  Fe  Fe44  1  0.75091687  0.00041899  0.75103376  1
  Fe  Fe45  1  0.74845615  0.00018077  -0.00021959  1
  Fe  Fe46  1  0.74709070  -0.00113891  0.24741716  1
  Fe  Fe47  1  0.49969781  0.50121843  0.49824569  1
  Fe  Fe48  1  0.62796322  0.87365850  0.37773015  1
  Fe  Fe49  1  0.50273854  -0.00109397  0.24803708  1
  Fe  Fe50  1  0.00351476  0.24937523  -0.00305404  1
  Fe  Fe51  1  0.62472979  0.12676696  0.87424123  1
  Fe  Fe52  1  0.74907069  0.49867884  0.25051402  1
  Fe  Fe53  1  0.12720380  0.37654935  0.12304998  1
  Fe  Fe54  1  0.12666927  0.37553087  0.37693637  1
  Fe  Fe55  1  0.25039195  0.24888324  0.50308274  1
  Fe  Fe56  1  0.75141484  0.74691655  -0.00044367  1
  Fe  Fe57  1  0.37339357  0.87575682  0.87506895  1
  Fe  Fe58  1  -0.00002220  0.00005331  0.25121592  1
  Fe  Fe59  1  0.74866646  0.25094799  0.24827133  1
  Fe  Fe60  1  0.87457305  0.12542198  0.37565728  1
  Fe  Fe61  1  0.62474117  0.87351728  0.87668904  1
  Fe  Fe62  1  0.24985207  0.75054743  -0.00065006  1
  Fe  Fe63  1  0.00018478  0.49889960  0.25203549  1
  Fe  Fe64  1  -0.00061022  0.50158376  -0.00228058  1
  Fe  Fe65  1  0.37621731  0.12570220  0.37532408  1
  Fe  Fe66  1  0.49808320  0.00378379  0.00029998  1
  Fe  Fe67  1  0.49444792  0.24531521  0.00269215  1
  Fe  Fe68  1  0.00073780  0.49926797  0.75176024  1
  Fe  Fe69  1  0.87190412  0.87375434  0.37697322  1
  Fe  Fe70  1  0.25155861  0.74929884  0.24987424  1
  Fe  Fe71  1  0.62483254  0.62335200  0.12306179  1
  Fe  Fe72  1  0.12223627  0.12457276  0.62827361  1
  Fe  Fe73  1  0.62248429  0.62247214  0.62993201  1
  Fe  Fe74  1  0.49664814  0.49877135  0.25216646  1
  Fe  Fe75  1  0.87510199  0.37490922  0.87572880  1
  Fe  Fe76  1  0.74740294  0.25158195  0.74817198  1
  Fe  Fe77  1  0.87268069  0.62059338  0.62603182  1
  Fe  Fe78  1  0.62397560  0.37375339  0.37781123  1
  Fe  Fe79  1  0.50095003  0.75057091  0.24894230  1
  Fe  Fe80  1  0.37797503  0.62497880  0.62983488  1
  Fe  Fe81  1  0.87505515  0.12511345  0.12406839  1
  Fe  Fe82  1  0.25209362  0.50166708  0.49840591  1
  Fe  Fe83  1  0.87874722  0.12415159  0.62581889  1
  Fe  Fe84  1  0.62647418  0.62754672  0.37531813  1
  Fe  Fe85  1  0.37573503  0.87666355  0.12391987  1
  Fe  Fe86  1  0.87861085  0.87826829  0.62454206  1
  Fe  Fe87  1  0.49774577  0.25093001  0.24823045  1
  Fe  Fe88  1  0.62545793  0.87848055  0.62441736  1
  Fe  Fe89  1  0.12827415  0.12505673  0.12495223  1
  Co  Co90  1  0.37140640  0.12174847  0.12897130  1
  Co  Co91  1  0.50199093  0.24898882  0.50243134  1
  Co  Co92  1  0.00149756  0.50110443  0.49947613  1
  Co  Co93  1  0.25190665  0.25417242  0.74645015  1
  Co  Co94  1  0.37140072  0.62809621  0.86811409  1
  Co  Co95  1  0.62381121  0.87229640  0.12018879  1
  Co  Co96  1  0.12656845  0.37504398  0.87474723  1
  Co  Co97  1  0.24993903  -0.00392720  0.74824477  1
  Co  Co98  1  0.00088659  0.00125315  0.49683711  1
  Co  Co99  1  0.00061560  0.24979637  0.49980333  1
  Co  Co100  1  0.00178521  0.00099218  0.75453079  1
  Co  Co101  1  0.37279147  0.12612452  0.86908473  1
  Co  Co102  1  0.87547861  0.62621448  0.87166722  1
  Co  Co103  1  0.25034160  0.00046390  -0.00262875  1
  Co  Co104  1  0.75079415  0.00225714  0.50151263  1
  Co  Co105  1  -0.00076626  0.25160930  0.75236364  1
  Co  Co106  1  0.49734447  0.50569995  -0.00690098  1
  Co  Co107  1  0.62623286  0.12643086  0.12425182  1
  Co  Co108  1  0.62377711  0.37910783  0.62342839  1
  Co  Co109  1  0.74939435  0.74871380  0.50609842  1
  Co  Co110  1  0.75014389  0.50128061  -0.00291202  1
  Co  Co111  1  0.00022072  0.74784806  0.74514389  1
  Co  Co112  1  0.12175502  0.87673148  0.62365333  1
  Co  Co113  1  0.37617324  0.62728268  0.37521736  1
  Co  Co114  1  -0.00092039  0.74778427  0.00277288  1
  Co  Co115  1  0.25221159  0.24931324  0.00095762  1
  Co  Co116  1  0.50074340  0.75434035  0.75065867  1
  Co  Co117  1  0.62598251  0.62776038  0.87210795  1
  Co  Co118  1  0.74934548  0.75021183  0.24690592  1
  Co  Co119  1  0.37610641  0.37974514  0.12195540  1
  Co  Co120  1  0.12252976  0.87137796  0.87498345  1
  Co  Co121  1  0.50025793  0.49610803  0.75660047  1
  Co  Co122  1  0.25223924  0.49919264  0.25301157  1
  Co  Co123  1  0.62275667  0.12107014  0.62675985  1
  Co  Co124  1  0.37456283  0.37257729  0.37883905  1
  Co  Co125  1  0.49894363  -0.00152529  0.49991249  1
  Co  Co126  1  0.62167150  0.37016812  0.88131574  1
  Co  Co127  1  0.74689325  0.50065807  0.49883805  1
