# generated using pymatgen
data_Fe45Co19
_symmetry_space_group_name_H-M   'P 1'
_cell_length_a   11.41433682
_cell_length_b   11.41514589
_cell_length_c   11.41517540
_cell_angle_alpha   89.99715115
_cell_angle_beta   89.99524014
_cell_angle_gamma   89.99218069
_symmetry_Int_Tables_number   1
_chemical_formula_structural   Fe45Co19
_chemical_formula_sum   'Fe90 Co38'
_cell_volume   1487.35532630
_cell_formula_units_Z   2
loop_
 _symmetry_equiv_pos_site_id
 _symmetry_equiv_pos_as_xyz
  1  'x, y, z'
loop_
 _atom_site_type_symbol
 _atom_site_label
 _atom_site_symmetry_multiplicity
 _atom_site_fract_x
 _atom_site_fract_y
 _atom_site_fract_z
 _atom_site_occupancy
  Fe  Fe0  1  0.12751584  0.12588124  0.12351670  1
  Fe  Fe1  1  -0.00043840  0.00072753  0.50172916  1
  Fe  Fe2  1  0.37721604  0.37632651  0.37287125  1
  Fe  Fe3  1  0.24900533  0.49853860  0.24959575  1
  Fe  Fe4  1  0.87408769  0.12407392  0.37449951  1
  Fe  Fe5  1  0.50135831  0.00082492  0.74948427  1
  Fe  Fe6  1  -0.00170866  0.25278423  0.00361742  1
  Fe  Fe7  1  0.24901624  0.49803116  0.50013720  1
  Fe  Fe8  1  0.74618794  0.49824738  0.24882022  1
  Fe  Fe9  1  0.74816475  0.49857462  0.49854477  1
  Fe  Fe10  1  0.24982654  -0.00181528  0.00057935  1
  Fe  Fe11  1  0.87461561  0.12619971  0.87606716  1
  Fe  Fe12  1  0.87524883  0.87645490  0.12628479  1
  Fe  Fe13  1  0.62452977  0.87219749  0.62487847  1
  Fe  Fe14  1  0.38022662  0.11901071  0.37523822  1
  Fe  Fe15  1  0.12256573  0.37160185  0.37221820  1
  Fe  Fe16  1  0.75098405  0.25080498  0.49972349  1
  Fe  Fe17  1  0.87323263  0.87591323  0.62465994  1
  Fe  Fe18  1  0.25313571  0.75094041  0.00081182  1
  Fe  Fe19  1  0.25124091  0.49972731  0.00034042  1
  Fe  Fe20  1  -0.00017461  0.75128732  0.00012910  1
  Fe  Fe21  1  0.12804141  0.62628736  0.12516714  1
  Fe  Fe22  1  0.37671511  0.37469376  0.12592038  1
  Fe  Fe23  1  0.00077518  0.75149497  0.75023299  1
  Fe  Fe24  1  0.74538855  -0.00083996  0.25260781  1
  Fe  Fe25  1  0.74798630  -0.00068524  -0.00229400  1
  Fe  Fe26  1  0.50117618  0.24941337  -0.00310800  1
  Fe  Fe27  1  0.62319321  0.37328624  0.62584555  1
  Fe  Fe28  1  0.37607787  0.62322304  0.37235899  1
  Fe  Fe29  1  0.37560051  0.12303078  0.87618167  1
  Fe  Fe30  1  0.12667261  0.62465898  0.62500456  1
  Fe  Fe31  1  -0.00198533  0.25134452  0.74707085  1
  Fe  Fe32  1  0.12573292  0.12491544  0.87500949  1
  Fe  Fe33  1  0.87586725  0.62256683  0.37447621  1
  Fe  Fe34  1  -0.00037929  0.75131390  0.50058628  1
  Fe  Fe35  1  0.74709514  0.50052592  0.75084424  1
  Fe  Fe36  1  0.12520730  0.87721910  0.37390751  1
  Fe  Fe37  1  0.50223725  0.50598233  0.74948398  1
  Fe  Fe38  1  0.12715065  0.12501234  0.62571572  1
  Fe  Fe39  1  0.87437462  0.87541281  0.87413741  1
  Fe  Fe40  1  0.37893635  0.37929479  0.87411690  1
  Fe  Fe41  1  0.00211401  0.00218557  0.24911924  1
  Fe  Fe42  1  0.74926545  0.25173324  0.75454784  1
  Fe  Fe43  1  0.37650115  0.87807123  0.12982011  1
  Fe  Fe44  1  0.87305197  0.62376719  0.62382699  1
  Fe  Fe45  1  0.12453228  0.37490077  0.87409095  1
  Fe  Fe46  1  0.74718275  0.74791371  0.75183319  1
  Fe  Fe47  1  0.87195077  0.12483368  0.12332386  1
  Fe  Fe48  1  0.37853687  0.87291929  0.87393428  1
  Fe  Fe49  1  0.62180134  0.37218568  0.37353877  1
  Fe  Fe50  1  0.49910854  0.24680796  0.25041093  1
  Fe  Fe51  1  0.74624368  0.49451186  0.00161163  1
  Fe  Fe52  1  0.37614606  0.12470603  0.62412882  1
  Fe  Fe53  1  0.00151492  -0.00235856  -0.00040191  1
  Fe  Fe54  1  0.25244656  0.24538488  0.25045640  1
  Fe  Fe55  1  0.25299400  0.25078015  0.75156654  1
  Fe  Fe56  1  0.12464834  0.62415917  0.37471171  1
  Fe  Fe57  1  0.87194536  0.62298828  0.12473725  1
  Fe  Fe58  1  0.12702882  0.62469305  0.87490745  1
  Fe  Fe59  1  0.62264062  0.62756983  0.37397122  1
  Fe  Fe60  1  0.50177872  -0.00033511  0.00066631  1
  Fe  Fe61  1  0.62353206  0.87093426  0.12459082  1
  Fe  Fe62  1  0.37601837  0.37584508  0.62662578  1
  Fe  Fe63  1  -0.00142199  0.74902888  0.24931438  1
  Fe  Fe64  1  0.00064438  0.49739479  0.50176954  1
  Fe  Fe65  1  0.37527520  0.87601289  0.62564108  1
  Fe  Fe66  1  0.25164308  0.75256720  0.25198018  1
  Fe  Fe67  1  0.75141788  0.75232719  0.25297601  1
  Fe  Fe68  1  0.62379487  0.12888824  0.62454980  1
  Fe  Fe69  1  0.00156835  0.49762885  0.00428643  1
  Fe  Fe70  1  0.75010645  0.75145210  -0.00196946  1
  Fe  Fe71  1  0.24941569  0.75167773  0.75011102  1
  Fe  Fe72  1  0.50051288  0.49954455  0.49928733  1
  Fe  Fe73  1  0.74999548  0.25008360  0.24850143  1
  Fe  Fe74  1  0.25142317  0.75190956  0.49809063  1
  Fe  Fe75  1  0.25193769  0.25192083  -0.00078008  1
  Fe  Fe76  1  0.50049765  0.50661369  0.00553179  1
  Fe  Fe77  1  0.37368238  0.62447088  0.62594798  1
  Fe  Fe78  1  0.49734413  0.75093882  0.49932859  1
  Fe  Fe79  1  0.87791050  0.37538042  0.37105261  1
  Fe  Fe80  1  0.62534456  0.12820725  0.12231083  1
  Fe  Fe81  1  -0.00264619  0.24986661  0.50242418  1
  Fe  Fe82  1  0.74632871  -0.00020344  0.49738968  1
  Fe  Fe83  1  0.00061460  0.49764841  0.74737450  1
  Fe  Fe84  1  0.87411115  0.62176917  0.87635036  1
  Fe  Fe85  1  0.00163828  -0.00145327  0.75005009  1
  Fe  Fe86  1  0.25303679  0.24996238  0.49834718  1
  Fe  Fe87  1  0.74729337  0.00034702  0.75183025  1
  Fe  Fe88  1  0.25011920  -0.00071886  0.49907933  1
  Fe  Fe89  1  0.75125798  0.75114991  0.49711184  1
  Co  Co90  1  0.00165699  0.50225698  0.24623530  1
  Co  Co91  1  0.50602794  0.00220613  0.24831169  1
  Co  Co92  1  0.12643613  0.87624359  0.62383362  1
  Co  Co93  1  0.12374554  0.12614159  0.37701896  1
  Co  Co94  1  0.74995036  0.25357196  -0.00248124  1
  Co  Co95  1  0.49649344  0.74622194  0.00385052  1
  Co  Co96  1  0.24961596  0.49847128  0.75010907  1
  Co  Co97  1  0.12543050  0.87440302  0.12649922  1
  Co  Co98  1  0.62494334  0.62622098  0.87991704  1
  Co  Co99  1  0.49769089  0.74812285  0.24860928  1
  Co  Co100  1  0.62126470  0.87286611  0.87643713  1
  Co  Co101  1  0.87666001  0.37607745  0.87525486  1
  Co  Co102  1  0.50414955  -0.00048848  0.50241417  1
  Co  Co103  1  0.62474247  0.12472955  0.87594630  1
  Co  Co104  1  0.62588551  0.62631246  0.62039177  1
  Co  Co105  1  0.12703039  0.87463371  0.87595788  1
  Co  Co106  1  0.62041600  0.37065680  0.12512500  1
  Co  Co107  1  0.37125235  0.62408910  0.12945639  1
  Co  Co108  1  0.50217122  0.74718835  0.74878365  1
  Co  Co109  1  0.61957937  0.87210243  0.37433919  1
  Co  Co110  1  0.37758361  0.88028150  0.37207003  1
  Co  Co111  1  0.37424018  0.62626086  0.87254269  1
  Co  Co112  1  0.62355206  0.12836109  0.37672408  1
  Co  Co113  1  0.37681089  0.12467566  0.12262745  1
  Co  Co114  1  0.61987329  0.37743509  0.87442555  1
  Co  Co115  1  0.25139261  0.00025560  0.75155782  1
  Co  Co116  1  0.87072881  0.37629605  0.62555540  1
  Co  Co117  1  0.62907814  0.62943253  0.12636519  1
  Co  Co118  1  0.49727210  0.25116223  0.49951796  1
  Co  Co119  1  0.87729496  0.87808135  0.37518504  1
  Co  Co120  1  0.87430430  0.37551343  0.12768394  1
  Co  Co121  1  0.50273268  0.50163831  0.24738928  1
  Co  Co122  1  0.12865572  0.37259767  0.12811506  1
  Co  Co123  1  0.49785830  0.24783588  0.75186317  1
  Co  Co124  1  -0.00094992  0.24597045  0.24636372  1
  Co  Co125  1  0.24851902  0.00371305  0.24932277  1
  Co  Co126  1  0.12811618  0.37187368  0.62392825  1
  Co  Co127  1  0.87226494  0.12349108  0.62583429  1
