# generated using pymatgen
data_Fe45Co19
_symmetry_space_group_name_H-M   'P 1'
_cell_length_a   11.41534539
_cell_length_b   11.41574247
_cell_length_c   11.41619025
_cell_angle_alpha   89.99726528
_cell_angle_beta   90.00158547
_cell_angle_gamma   90.01773573
_symmetry_Int_Tables_number   1
_chemical_formula_structural   Fe45Co19
_chemical_formula_sum   'Fe90 Co38'
_cell_volume   1487.69668584
_cell_formula_units_Z   2
loop_
 _symmetry_equiv_pos_site_id
 _symmetry_equiv_pos_as_xyz
  1  'x, y, z'
loop_
 _atom_site_type_symbol
 _atom_site_label
 _atom_site_symmetry_multiplicity
 _atom_site_fract_x
 _atom_site_fract_y
 _atom_site_fract_z
 _atom_site_occupancy
  Fe  Fe0  1  0.62429181  0.87700122  0.12692921  1
  Fe  Fe1  1  0.50253761  0.75146982  0.49768207  1
  Fe  Fe2  1  0.50090399  0.74973439  -0.00019685  1
  Fe  Fe3  1  0.37449677  0.12551749  0.37226619  1
  Fe  Fe4  1  0.12389192  0.87518539  0.87697996  1
  Fe  Fe5  1  0.87591735  0.87702242  0.12348555  1
  Fe  Fe6  1  -0.00006621  0.00294794  0.00202286  1
  Fe  Fe7  1  0.24900806  0.24916970  0.49764976  1
  Fe  Fe8  1  0.74856262  0.25039969  0.24888195  1
  Fe  Fe9  1  0.74904186  0.75096166  0.00040561  1
  Fe  Fe10  1  0.87858996  0.37249750  0.37755465  1
  Fe  Fe11  1  0.87572260  0.12347089  0.62404622  1
  Fe  Fe12  1  0.49974431  -0.00108003  0.49577416  1
  Fe  Fe13  1  0.12520980  0.62589854  0.87391716  1
  Fe  Fe14  1  0.37138516  0.37258457  0.12404975  1
  Fe  Fe15  1  0.49999180  0.75324629  0.25374539  1
  Fe  Fe16  1  0.37528262  0.62463284  0.37508082  1
  Fe  Fe17  1  0.49819430  0.24937530  0.74870556  1
  Fe  Fe18  1  0.37557962  0.12713493  0.13095255  1
  Fe  Fe19  1  0.50067006  0.49680295  0.25074146  1
  Fe  Fe20  1  0.12432970  0.62192718  0.12817103  1
  Fe  Fe21  1  0.37373634  0.87518223  0.62175230  1
  Fe  Fe22  1  -0.00230903  0.50204814  0.50120007  1
  Fe  Fe23  1  0.37144275  0.12270925  0.62571793  1
  Fe  Fe24  1  0.00389087  0.24695962  0.00209626  1
  Fe  Fe25  1  0.75081103  0.24840751  0.50030479  1
  Fe  Fe26  1  0.62496014  0.37595546  0.37765888  1
  Fe  Fe27  1  -0.00038589  0.50045262  -0.00000043  1
  Fe  Fe28  1  0.12233068  0.62413207  0.37219835  1
  Fe  Fe29  1  0.12697533  0.12319872  0.62695922  1
  Fe  Fe30  1  0.37533681  0.87536546  0.87604538  1
  Fe  Fe31  1  0.12526595  0.87777199  0.12795411  1
  Fe  Fe32  1  0.24967826  0.49816467  0.74880839  1
  Fe  Fe33  1  0.87285825  0.12297482  0.87665950  1
  Fe  Fe34  1  0.00002795  0.25064515  0.74919211  1
  Fe  Fe35  1  0.62751657  0.62395078  0.62754097  1
  Fe  Fe36  1  0.24798641  0.74859711  0.49796427  1
  Fe  Fe37  1  0.12626106  0.87530662  0.37204533  1
  Fe  Fe38  1  0.62606332  0.12267342  0.62581868  1
  Fe  Fe39  1  0.87589115  0.37368387  0.12321730  1
  Fe  Fe40  1  0.87420085  0.37308124  0.87616430  1
  Fe  Fe41  1  0.62825864  0.87788995  0.62368167  1
  Fe  Fe42  1  0.75114727  0.49834328  0.25169176  1
  Fe  Fe43  1  0.12545140  0.12368213  0.37152509  1
  Fe  Fe44  1  0.50097985  0.00442902  0.00010747  1
  Fe  Fe45  1  0.62457818  0.37419115  0.12382453  1
  Fe  Fe46  1  0.49838200  0.00025982  0.75052509  1
  Fe  Fe47  1  0.49952420  0.49854593  0.75051000  1
  Fe  Fe48  1  0.87523916  0.62413250  0.12626042  1
  Fe  Fe49  1  0.12898662  0.12412756  0.87136231  1
  Fe  Fe50  1  0.12302315  0.87456104  0.62314355  1
  Fe  Fe51  1  0.87466419  0.62758482  0.62664673  1
  Fe  Fe52  1  0.74886121  0.50063220  -0.00137745  1
  Fe  Fe53  1  0.00129197  0.74898826  0.00276257  1
  Fe  Fe54  1  0.87396409  0.87470966  0.37679579  1
  Fe  Fe55  1  0.37461777  0.87479169  0.12587944  1
  Fe  Fe56  1  0.12366945  0.37396012  0.62088887  1
  Fe  Fe57  1  0.62811522  0.37676461  0.62397706  1
  Fe  Fe58  1  0.00553866  0.25257767  0.24655565  1
  Fe  Fe59  1  0.37139769  0.37223014  0.87706812  1
  Fe  Fe60  1  0.62556451  0.37289656  0.87437682  1
  Fe  Fe61  1  0.12840697  0.37401736  0.87812645  1
  Fe  Fe62  1  -0.00122774  0.49780778  0.75023008  1
  Fe  Fe63  1  0.49987866  0.24585485  -0.00105795  1
  Fe  Fe64  1  0.25157749  0.00341822  0.00076464  1
  Fe  Fe65  1  0.37501465  0.62685484  0.62558385  1
  Fe  Fe66  1  0.24794609  0.49454590  0.25319144  1
  Fe  Fe67  1  0.75011951  0.74997540  0.25004176  1
  Fe  Fe68  1  0.75113707  0.00194455  0.24853667  1
  Fe  Fe69  1  0.49902306  0.50044826  -0.00092640  1
  Fe  Fe70  1  0.87620980  0.62628814  0.37336435  1
  Fe  Fe71  1  0.74801802  0.74850888  0.49901348  1
  Fe  Fe72  1  0.12371664  0.62677600  0.62678322  1
  Fe  Fe73  1  0.62338402  0.12407972  0.37200540  1
  Fe  Fe74  1  0.74748342  0.24477458  0.00268461  1
  Fe  Fe75  1  0.37520599  0.62742493  0.87275482  1
  Fe  Fe76  1  0.24930251  0.74828229  0.00266394  1
  Fe  Fe77  1  0.62399008  0.62464716  0.12698216  1
  Fe  Fe78  1  0.87720626  0.12716810  0.37272421  1
  Fe  Fe79  1  0.00003058  0.00047847  0.49777924  1
  Fe  Fe80  1  0.37333973  0.37623882  0.62054405  1
  Fe  Fe81  1  0.75126120  0.24957569  0.74855784  1
  Fe  Fe82  1  -0.00318835  -0.00427758  0.74996774  1
  Fe  Fe83  1  0.24948862  0.75359224  0.75053782  1
  Fe  Fe84  1  0.87532067  0.62801815  0.87408941  1
  Fe  Fe85  1  0.62769814  0.87833518  0.87418934  1
  Fe  Fe86  1  0.49990935  0.24877349  0.49952872  1
  Fe  Fe87  1  0.50161722  0.50203819  0.50002481  1
  Fe  Fe88  1  0.37537552  0.62490471  0.12746316  1
  Fe  Fe89  1  0.62513370  0.62703447  0.87177556  1
  Co  Co90  1  0.24935910  0.74966518  0.24949208  1
  Co  Co91  1  0.87513085  0.37399870  0.62301281  1
  Co  Co92  1  0.24794976  0.00064299  0.49847908  1
  Co  Co93  1  0.62069230  0.12458309  0.13052244  1
  Co  Co94  1  0.75218047  0.49912005  0.75161617  1
  Co  Co95  1  0.87731868  0.12650422  0.12628343  1
  Co  Co96  1  0.24982743  -0.00525197  0.74978091  1
  Co  Co97  1  0.75313089  0.50063498  0.49791984  1
  Co  Co98  1  0.87488622  0.87556104  0.88114620  1
  Co  Co99  1  0.74769250  0.00353033  0.00392815  1
  Co  Co100  1  0.62672797  0.12386324  0.87123419  1
  Co  Co101  1  0.75292491  0.75456307  0.74963232  1
  Co  Co102  1  0.75161728  0.00434111  0.49770343  1
  Co  Co103  1  0.49990866  0.25463988  0.25190155  1
  Co  Co104  1  0.25229421  0.50437144  -0.00047141  1
  Co  Co105  1  0.25031245  0.25321906  0.74674956  1
  Co  Co106  1  0.24814332  0.24311901  0.00293471  1
  Co  Co107  1  0.00162733  0.74998419  0.49728931  1
  Co  Co108  1  0.12587238  0.12117047  0.12998632  1
  Co  Co109  1  0.24794183  0.50269076  0.49931964  1
  Co  Co110  1  0.37570673  0.37599180  0.37861438  1
  Co  Co111  1  0.62901462  0.87711797  0.37503503  1
  Co  Co112  1  0.00083707  0.24475460  0.50203738  1
  Co  Co113  1  -0.00171406  0.75403735  0.75089279  1
  Co  Co114  1  -0.00114430  0.49645700  0.24928326  1
  Co  Co115  1  0.12737846  0.37757854  0.11930899  1
  Co  Co116  1  0.37168563  0.12547308  0.87076321  1
  Co  Co117  1  0.24585300  0.25454703  0.25286968  1
  Co  Co118  1  -0.00071386  0.75207533  0.24857850  1
  Co  Co119  1  -0.00288856  -0.00141813  0.25173360  1
  Co  Co120  1  0.75525322  -0.00228509  0.74854860  1
  Co  Co121  1  0.25331669  -0.00097778  0.25036395  1
  Co  Co122  1  0.37139568  0.87355423  0.37701927  1
  Co  Co123  1  0.87538871  0.87411104  0.61817827  1
  Co  Co124  1  0.12003199  0.37531850  0.38154784  1
  Co  Co125  1  0.50119604  0.75355454  0.74842860  1
  Co  Co126  1  0.62422765  0.62379093  0.37304988  1
  Co  Co127  1  0.49817813  -0.00462008  0.25301337  1
