# generated using pymatgen
data_Fe45Co19
_symmetry_space_group_name_H-M   'P 1'
_cell_length_a   11.41574504
_cell_length_b   11.41562453
_cell_length_c   11.41582621
_cell_angle_alpha   90.00176738
_cell_angle_beta   90.00090930
_cell_angle_gamma   90.00649011
_symmetry_Int_Tables_number   1
_chemical_formula_structural   Fe45Co19
_chemical_formula_sum   'Fe90 Co38'
_cell_volume   1487.68602100
_cell_formula_units_Z   2
loop_
 _symmetry_equiv_pos_site_id
 _symmetry_equiv_pos_as_xyz
  1  'x, y, z'
loop_
 _atom_site_type_symbol
 _atom_site_label
 _atom_site_symmetry_multiplicity
 _atom_site_fract_x
 _atom_site_fract_y
 _atom_site_fract_z
 _atom_site_occupancy
  Fe  Fe0  1  0.75062077  0.00241349  0.75102750  1
  Fe  Fe1  1  0.25221458  -0.00349208  0.49857295  1
  Fe  Fe2  1  0.62447424  0.12569697  0.12732275  1
  Fe  Fe3  1  0.74921643  0.24991195  0.00024546  1
  Fe  Fe4  1  0.62368002  0.62344413  0.62373049  1
  Fe  Fe5  1  0.37075697  0.62462483  0.38047415  1
  Fe  Fe6  1  0.12695681  0.12426957  0.87715579  1
  Fe  Fe7  1  0.12410490  0.37708771  0.12491395  1
  Fe  Fe8  1  0.74733834  0.74926432  0.75168001  1
  Fe  Fe9  1  0.37399104  0.12501565  0.12232032  1
  Fe  Fe10  1  0.37375791  0.37664717  0.37675981  1
  Fe  Fe11  1  0.75004569  -0.00133696  0.25069069  1
  Fe  Fe12  1  0.62344250  0.87480150  0.12508944  1
  Fe  Fe13  1  0.38066297  0.87127896  0.87249412  1
  Fe  Fe14  1  0.62589407  0.62462299  0.12755289  1
  Fe  Fe15  1  0.12442996  0.37483117  0.37454280  1
  Fe  Fe16  1  0.62530156  0.37617694  0.87457400  1
  Fe  Fe17  1  0.24840753  0.50173550  0.24943673  1
  Fe  Fe18  1  0.62773973  0.37697737  0.37848593  1
  Fe  Fe19  1  0.25210852  0.74888451  0.00193631  1
  Fe  Fe20  1  0.87711433  0.62719480  0.62623140  1
  Fe  Fe21  1  0.12776956  0.12173542  0.12337784  1
  Fe  Fe22  1  0.00070339  0.50269579  0.75205646  1
  Fe  Fe23  1  0.25106385  0.74760948  0.24838220  1
  Fe  Fe24  1  0.49847990  0.74610036  0.25031813  1
  Fe  Fe25  1  -0.00075951  0.50324848  0.49613756  1
  Fe  Fe26  1  0.62351596  0.12488968  0.62266252  1
  Fe  Fe27  1  0.25099519  0.24901973  0.24893170  1
  Fe  Fe28  1  0.37500402  0.37370066  0.87670387  1
  Fe  Fe29  1  0.12782153  0.87574443  0.12525160  1
  Fe  Fe30  1  0.87483341  0.37414378  0.62437084  1
  Fe  Fe31  1  0.62579829  0.37540197  0.62270819  1
  Fe  Fe32  1  0.12286455  0.87497400  0.62688807  1
  Fe  Fe33  1  0.12548545  0.87194988  0.87456352  1
  Fe  Fe34  1  0.00192926  0.25029850  -0.00031523  1
  Fe  Fe35  1  0.75289962  0.25272825  0.25107039  1
  Fe  Fe36  1  0.87231259  0.87665414  0.87693781  1
  Fe  Fe37  1  0.75030282  0.50008692  0.74857471  1
  Fe  Fe38  1  0.25223885  -0.00015191  0.75183719  1
  Fe  Fe39  1  0.50078624  0.50129615  0.25304529  1
  Fe  Fe40  1  0.87415002  0.62360848  0.12954802  1
  Fe  Fe41  1  0.62533547  0.12525250  0.87500702  1
  Fe  Fe42  1  0.49981262  0.50198456  0.74889881  1
  Fe  Fe43  1  0.50077603  0.50116167  0.00079377  1
  Fe  Fe44  1  0.24826559  0.50216013  0.74952394  1
  Fe  Fe45  1  0.62353394  0.87691620  0.62756637  1
  Fe  Fe46  1  0.12544911  0.12272308  0.62397387  1
  Fe  Fe47  1  0.00102152  0.50179207  -0.00103269  1
  Fe  Fe48  1  0.24782614  0.50094909  -0.00115321  1
  Fe  Fe49  1  0.37668528  0.12488817  0.37744640  1
  Fe  Fe50  1  0.24979198  0.74681453  0.74571503  1
  Fe  Fe51  1  0.74942716  0.00114907  0.49682614  1
  Fe  Fe52  1  -0.00219330  0.24792692  0.49910210  1
  Fe  Fe53  1  -0.00265475  0.25246795  0.24954034  1
  Fe  Fe54  1  0.87396287  0.87577369  0.12389416  1
  Fe  Fe55  1  0.12223762  0.37571926  0.62634706  1
  Fe  Fe56  1  0.87503126  0.12338321  0.12349414  1
  Fe  Fe57  1  0.87449644  0.37297785  0.87464655  1
  Fe  Fe58  1  0.75031728  0.50051826  0.00094715  1
  Fe  Fe59  1  0.00076450  0.74846463  0.49795523  1
  Fe  Fe60  1  0.12825608  0.87395556  0.37349501  1
  Fe  Fe61  1  0.50076503  0.25036804  0.74942867  1
  Fe  Fe62  1  0.24931966  0.25143035  0.74938005  1
  Fe  Fe63  1  0.62331532  0.87325197  0.37395315  1
  Fe  Fe64  1  0.00065242  -0.00140965  0.24917802  1
  Fe  Fe65  1  -0.00049522  0.74958801  0.00016992  1
  Fe  Fe66  1  0.75021120  0.74784038  0.49864444  1
  Fe  Fe67  1  0.49879443  0.00051543  0.25300368  1
  Fe  Fe68  1  0.87367751  0.62602287  0.87459886  1
  Fe  Fe69  1  0.50038321  -0.00071285  -0.00188373  1
  Fe  Fe70  1  -0.00125011  0.24695012  0.75048063  1
  Fe  Fe71  1  0.37653636  0.37664173  0.62324397  1
  Fe  Fe72  1  0.49940880  0.25186513  0.25173624  1
  Fe  Fe73  1  0.37531195  0.37541729  0.12367483  1
  Fe  Fe74  1  0.62469068  0.37510558  0.12476161  1
  Fe  Fe75  1  0.87437857  0.87401167  0.37415452  1
  Fe  Fe76  1  0.24985833  0.25192946  0.50079953  1
  Fe  Fe77  1  0.49947681  0.74917141  0.50071654  1
  Fe  Fe78  1  -0.00233269  0.00024155  0.75195972  1
  Fe  Fe79  1  0.87418138  0.87522143  0.62522434  1
  Fe  Fe80  1  0.12472831  0.12463523  0.37468541  1
  Fe  Fe81  1  0.37753271  0.62683039  0.87581692  1
  Fe  Fe82  1  0.74625408  0.75034137  -0.00022033  1
  Fe  Fe83  1  0.75226124  0.24726867  0.49874469  1
  Fe  Fe84  1  0.37366093  0.12816293  0.87796020  1
  Fe  Fe85  1  0.37919793  0.87533745  0.62730185  1
  Fe  Fe86  1  0.00081264  0.74780640  0.25099187  1
  Fe  Fe87  1  0.37611673  0.87581726  0.12632938  1
  Fe  Fe88  1  -0.00153196  -0.00019574  0.49893932  1
  Fe  Fe89  1  0.37622340  0.12491858  0.62238005  1
  Co  Co90  1  -0.00203881  0.75165576  0.75130816  1
  Co  Co91  1  0.62445037  0.62303684  0.87604686  1
  Co  Co92  1  0.24760841  0.25336113  0.00179948  1
  Co  Co93  1  0.37415141  0.62309071  0.62189424  1
  Co  Co94  1  0.87107141  0.62472590  0.36993414  1
  Co  Co95  1  0.12915660  0.62586260  0.37592210  1
  Co  Co96  1  0.37561682  0.62272283  0.12383085  1
  Co  Co97  1  0.75259102  0.50450068  0.50229002  1
  Co  Co98  1  0.50021736  -0.00233134  0.49814514  1
  Co  Co99  1  0.87588242  0.12320774  0.37239982  1
  Co  Co100  1  0.12373675  0.62478923  0.12465652  1
  Co  Co101  1  0.24651680  0.49681960  0.50287966  1
  Co  Co102  1  0.62814920  0.62515844  0.37345601  1
  Co  Co103  1  0.74950304  0.75313513  0.24898161  1
  Co  Co104  1  0.25227478  -0.00468408  -0.00240595  1
  Co  Co105  1  0.87482376  0.12542669  0.87820131  1
  Co  Co106  1  0.62452004  0.12580333  0.37366612  1
  Co  Co107  1  0.12541794  0.62861499  0.87479816  1
  Co  Co108  1  0.50368866  0.74479938  0.74750363  1
  Co  Co109  1  0.75003101  0.49585051  0.24898266  1
  Co  Co110  1  0.00036505  0.49966622  0.25226505  1
  Co  Co111  1  0.87428949  0.12380886  0.62431172  1
  Co  Co112  1  0.62299757  0.87557729  0.87257897  1
  Co  Co113  1  0.25181291  0.00162105  0.25193024  1
  Co  Co114  1  0.00214849  -0.00256724  -0.00066978  1
  Co  Co115  1  0.50008215  0.25207798  0.49930709  1
  Co  Co116  1  0.12263823  0.62548367  0.62449361  1
  Co  Co117  1  0.37470695  0.87210879  0.37358882  1
  Co  Co118  1  0.12397776  0.37523533  0.87316849  1
  Co  Co119  1  0.50110174  0.50158085  0.49815907  1
  Co  Co120  1  0.24910959  0.75419489  0.50475486  1
  Co  Co121  1  0.49921641  0.00466602  0.75145771  1
  Co  Co122  1  0.50275052  0.74977024  0.00197154  1
  Co  Co123  1  0.74905195  0.24977360  0.74958553  1
  Co  Co124  1  0.87308342  0.37724394  0.37782904  1
  Co  Co125  1  0.87603120  0.37643274  0.12192806  1
  Co  Co126  1  0.74648827  0.00023933  0.00115967  1
  Co  Co127  1  0.50204288  0.25040482  0.00046009  1
