# generated using pymatgen
data_Fe45Co19
_symmetry_space_group_name_H-M   'P 1'
_cell_length_a   11.41449420
_cell_length_b   11.41426407
_cell_length_c   11.41506545
_cell_angle_alpha   89.99569741
_cell_angle_beta   90.00883767
_cell_angle_gamma   90.00538848
_symmetry_Int_Tables_number   1
_chemical_formula_structural   Fe45Co19
_chemical_formula_sum   'Fe90 Co38'
_cell_volume   1487.24660192
_cell_formula_units_Z   2
loop_
 _symmetry_equiv_pos_site_id
 _symmetry_equiv_pos_as_xyz
  1  'x, y, z'
loop_
 _atom_site_type_symbol
 _atom_site_label
 _atom_site_symmetry_multiplicity
 _atom_site_fract_x
 _atom_site_fract_y
 _atom_site_fract_z
 _atom_site_occupancy
  Fe  Fe0  1  0.62390806  0.37425151  0.87943728  1
  Fe  Fe1  1  0.37827225  0.62691875  0.87749555  1
  Fe  Fe2  1  -0.00168071  0.49974183  0.00097411  1
  Fe  Fe3  1  0.12217408  0.87711293  0.37600256  1
  Fe  Fe4  1  0.37680367  0.87506287  0.37340916  1
  Fe  Fe5  1  0.24941332  0.75368422  -0.00187988  1
  Fe  Fe6  1  0.87669820  0.87610212  0.37449793  1
  Fe  Fe7  1  0.62840826  0.12351857  0.12708948  1
  Fe  Fe8  1  0.62683445  0.62399627  0.62441737  1
  Fe  Fe9  1  0.50148648  0.74889088  0.24562530  1
  Fe  Fe10  1  0.74791132  0.24886109  0.75239392  1
  Fe  Fe11  1  0.75008652  0.75070967  0.24901389  1
  Fe  Fe12  1  0.12484638  0.12454673  0.62357010  1
  Fe  Fe13  1  0.50067113  0.24943474  0.49955240  1
  Fe  Fe14  1  0.25021690  0.50352457  0.49736243  1
  Fe  Fe15  1  -0.00106780  0.00243025  0.24821343  1
  Fe  Fe16  1  0.74992632  0.74845423  0.49683185  1
  Fe  Fe17  1  0.24866028  0.74996689  0.25242801  1
  Fe  Fe18  1  0.24768568  0.24570756  -0.00399405  1
  Fe  Fe19  1  0.12447928  0.62376221  0.87643348  1
  Fe  Fe20  1  0.49914450  0.49969608  0.50029522  1
  Fe  Fe21  1  0.37581890  0.62585302  0.62632204  1
  Fe  Fe22  1  0.87445141  0.37010717  0.12415148  1
  Fe  Fe23  1  0.00397798  0.24835852  0.25009218  1
  Fe  Fe24  1  0.37409046  0.87767811  0.12438777  1
  Fe  Fe25  1  0.75059401  0.00263213  0.49750273  1
  Fe  Fe26  1  0.62501598  0.12459695  0.62453725  1
  Fe  Fe27  1  0.62226384  0.62298556  0.88105963  1
  Fe  Fe28  1  0.25057632  0.49900307  0.75255326  1
  Fe  Fe29  1  0.74920550  0.74999385  0.00135500  1
  Fe  Fe30  1  0.24867564  0.74777687  0.49738272  1
  Fe  Fe31  1  0.37495138  0.37199125  0.87555122  1
  Fe  Fe32  1  0.75229669  0.00613492  -0.00136349  1
  Fe  Fe33  1  0.49999437  0.49859557  0.75109097  1
  Fe  Fe34  1  0.12274237  0.87870950  0.87526875  1
  Fe  Fe35  1  0.24915116  -0.00067504  0.49931823  1
  Fe  Fe36  1  0.12657983  0.62556097  0.12392845  1
  Fe  Fe37  1  0.38024242  0.87739145  0.87688920  1
  Fe  Fe38  1  0.62402331  0.62234468  0.37252232  1
  Fe  Fe39  1  0.12677429  0.37273004  0.12259307  1
  Fe  Fe40  1  0.75525387  0.49607770  0.49947239  1
  Fe  Fe41  1  0.87670702  0.62758253  0.87633135  1
  Fe  Fe42  1  0.24777649  0.24999545  0.49871749  1
  Fe  Fe43  1  0.49863241  0.24934096  0.74725722  1
  Fe  Fe44  1  0.00042059  0.75101227  0.50190686  1
  Fe  Fe45  1  0.25105785  0.00033303  0.74892616  1
  Fe  Fe46  1  0.12487637  0.37741389  0.62658929  1
  Fe  Fe47  1  0.00063840  0.75139225  0.24664085  1
  Fe  Fe48  1  0.74631150  -0.00110800  0.75207874  1
  Fe  Fe49  1  0.87542188  0.12806288  0.62523747  1
  Fe  Fe50  1  0.49640914  0.50031688  0.24394792  1
  Fe  Fe51  1  0.50131866  0.74881271  0.50010202  1
  Fe  Fe52  1  0.62784086  0.87998837  0.12474994  1
  Fe  Fe53  1  0.25360801  0.49820118  0.00068985  1
  Fe  Fe54  1  0.49965719  0.24762801  0.00296823  1
  Fe  Fe55  1  -0.00205299  0.00381404  0.00183868  1
  Fe  Fe56  1  0.74822793  0.24864776  0.25240168  1
  Fe  Fe57  1  0.87720017  0.12831144  0.37647857  1
  Fe  Fe58  1  0.36955397  0.12375538  0.12735718  1
  Fe  Fe59  1  0.25087657  0.50181662  0.24989991  1
  Fe  Fe60  1  0.24933680  0.75187905  0.75159748  1
  Fe  Fe61  1  0.87545069  0.62748145  0.12401786  1
  Fe  Fe62  1  0.50009641  0.00116516  0.50031410  1
  Fe  Fe63  1  0.37660360  0.12361153  0.87188498  1
  Fe  Fe64  1  0.00095404  0.24515870  -0.00183523  1
  Fe  Fe65  1  0.87514791  0.37261517  0.87553136  1
  Fe  Fe66  1  0.50029043  0.24841271  0.24941944  1
  Fe  Fe67  1  0.87125901  0.87404322  0.62419605  1
  Fe  Fe68  1  -0.00088743  -0.00187078  0.74668003  1
  Fe  Fe69  1  0.37435116  0.12419248  0.37461483  1
  Fe  Fe70  1  0.62525765  0.37583119  0.37420517  1
  Fe  Fe71  1  0.74622712  0.75218384  0.75233696  1
  Fe  Fe72  1  0.75319195  0.49949917  0.24799510  1
  Fe  Fe73  1  0.88014229  0.62272659  0.37284114  1
  Fe  Fe74  1  0.24609816  0.24769967  0.25369796  1
  Fe  Fe75  1  0.00461758  0.25118881  0.75221193  1
  Fe  Fe76  1  0.12105582  0.37957338  0.37453536  1
  Fe  Fe77  1  0.62468238  0.87743214  0.37327331  1
  Fe  Fe78  1  0.37574497  0.37544821  0.37343920  1
  Fe  Fe79  1  0.00125682  0.75162795  0.75006797  1
  Fe  Fe80  1  0.12500325  0.87895256  0.12366694  1
  Fe  Fe81  1  0.62739753  0.37590754  0.12185828  1
  Fe  Fe82  1  0.87540325  0.62459523  0.62731649  1
  Fe  Fe83  1  0.75078900  0.50003817  0.75332647  1
  Fe  Fe84  1  0.62722532  0.37513099  0.62492574  1
  Fe  Fe85  1  0.50457542  0.75345505  0.75017445  1
  Fe  Fe86  1  0.37250269  0.37412686  0.62458767  1
  Fe  Fe87  1  0.12342060  0.62385090  0.62557194  1
  Fe  Fe88  1  0.37609628  0.87466195  0.62497520  1
  Fe  Fe89  1  0.87519916  0.87525729  0.87749027  1
  Co  Co90  1  0.87389046  0.12832228  0.12834167  1
  Co  Co91  1  0.50150893  0.75089529  0.00498446  1
  Co  Co92  1  0.87375320  0.87622643  0.12273935  1
  Co  Co93  1  0.49444636  0.49700888  0.00397117  1
  Co  Co94  1  -0.00060311  0.49867849  0.24351679  1
  Co  Co95  1  0.24843034  -0.00110160  0.25248416  1
  Co  Co96  1  0.24744405  0.24947485  0.75040148  1
  Co  Co97  1  0.37106066  0.62876956  0.12382982  1
  Co  Co98  1  0.49971206  0.00468584  0.00311619  1
  Co  Co99  1  0.62422783  0.87740656  0.88141183  1
  Co  Co100  1  0.37792941  0.62550001  0.37304884  1
  Co  Co101  1  0.12217134  0.12200163  0.37805998  1
  Co  Co102  1  0.74986364  0.25152760  0.49913247  1
  Co  Co103  1  0.62444696  0.12417181  0.37457083  1
  Co  Co104  1  0.62166164  0.12609858  0.87370825  1
  Co  Co105  1  0.12800740  0.12393622  0.12448344  1
  Co  Co106  1  0.12542782  0.37617346  0.87793106  1
  Co  Co107  1  0.87675547  0.37237761  0.37046391  1
  Co  Co108  1  0.49835756  0.00159135  0.24825742  1
  Co  Co109  1  0.62704527  0.62117894  0.12272099  1
  Co  Co110  1  0.00008673  0.25449536  0.50056058  1
  Co  Co111  1  0.62728653  0.87563321  0.62074917  1
  Co  Co112  1  -0.00085593  0.49968699  0.75279670  1
  Co  Co113  1  0.37355784  0.12525743  0.62447524  1
  Co  Co114  1  0.12401295  0.12021505  0.87279031  1
  Co  Co115  1  0.37009804  0.36874736  0.12650712  1
  Co  Co116  1  -0.00457209  0.49620871  0.50238069  1
  Co  Co117  1  0.00212110  0.75074186  0.00074767  1
  Co  Co118  1  0.12716288  0.87458734  0.62443602  1
  Co  Co119  1  0.75346772  0.00091948  0.25257951  1
  Co  Co120  1  0.87652426  0.12504976  0.87074482  1
  Co  Co121  1  0.75049657  0.24579302  -0.00211437  1
  Co  Co122  1  0.50277471  -0.00197251  0.74828694  1
  Co  Co123  1  0.87462762  0.37182569  0.63086671  1
  Co  Co124  1  0.75487575  0.49951052  -0.00078973  1
  Co  Co125  1  0.25071664  0.00017131  -0.00214222  1
  Co  Co126  1  0.11951943  0.62343673  0.37422223  1
  Co  Co127  1  -0.00196823  -0.00064524  0.50290594  1
