# generated using pymatgen
data_Fe45Co19
_symmetry_space_group_name_H-M   'P 1'
_cell_length_a   11.41412329
_cell_length_b   11.41499442
_cell_length_c   11.41579828
_cell_angle_alpha   89.99768903
_cell_angle_beta   90.00594342
_cell_angle_gamma   90.00113956
_symmetry_Int_Tables_number   1
_chemical_formula_structural   Fe45Co19
_chemical_formula_sum   'Fe90 Co38'
_cell_volume   1487.38893360
_cell_formula_units_Z   2
loop_
 _symmetry_equiv_pos_site_id
 _symmetry_equiv_pos_as_xyz
  1  'x, y, z'
loop_
 _atom_site_type_symbol
 _atom_site_label
 _atom_site_symmetry_multiplicity
 _atom_site_fract_x
 _atom_site_fract_y
 _atom_site_fract_z
 _atom_site_occupancy
  Fe  Fe0  1  0.12524682  0.62258358  0.62514354  1
  Fe  Fe1  1  0.24606877  0.74672711  0.00310699  1
  Fe  Fe2  1  0.12668038  0.12670437  0.37293834  1
  Fe  Fe3  1  0.62497493  0.37543578  0.87862797  1
  Fe  Fe4  1  0.87373731  0.12595598  0.12576073  1
  Fe  Fe5  1  0.62712654  0.62559157  0.62988482  1
  Fe  Fe6  1  0.62424598  0.87225867  0.87499777  1
  Fe  Fe7  1  0.75330057  0.74915831  0.50607450  1
  Fe  Fe8  1  0.37463989  0.62595510  0.87188794  1
  Fe  Fe9  1  0.74968208  0.00040143  0.00079783  1
  Fe  Fe10  1  0.75030285  0.24885011  0.50013146  1
  Fe  Fe11  1  0.87438132  0.12597361  0.87493209  1
  Fe  Fe12  1  0.25107077  0.25029252  0.49966186  1
  Fe  Fe13  1  0.49974399  0.50373226  0.00113657  1
  Fe  Fe14  1  -0.00006008  0.25272899  0.24889811  1
  Fe  Fe15  1  0.37646996  0.12657099  0.62681753  1
  Fe  Fe16  1  0.87523582  0.87419084  0.87548869  1
  Fe  Fe17  1  0.87758643  0.87040862  0.37811012  1
  Fe  Fe18  1  0.62350856  0.87124367  0.37774555  1
  Fe  Fe19  1  0.24924143  -0.00106773  0.74961646  1
  Fe  Fe20  1  0.87557814  0.37761505  0.62462537  1
  Fe  Fe21  1  0.12308518  0.12380073  0.62452415  1
  Fe  Fe22  1  0.50055236  0.74767643  0.00252054  1
  Fe  Fe23  1  0.50317133  0.49821655  0.24976980  1
  Fe  Fe24  1  0.75110070  -0.00283165  0.25073658  1
  Fe  Fe25  1  0.75051779  0.00114145  0.50002815  1
  Fe  Fe26  1  0.24923617  0.74967450  0.74759404  1
  Fe  Fe27  1  0.50099937  0.00092051  0.50062486  1
  Fe  Fe28  1  0.50031066  0.49762107  0.75028218  1
  Fe  Fe29  1  0.00026505  0.50001745  0.75287052  1
  Fe  Fe30  1  0.37604825  0.12589701  0.37175953  1
  Fe  Fe31  1  0.25347970  0.50212300  0.49702709  1
  Fe  Fe32  1  0.37490325  0.62466007  0.13060556  1
  Fe  Fe33  1  0.37549522  0.12592634  0.12634954  1
  Fe  Fe34  1  0.24672773  0.74904279  0.24863815  1
  Fe  Fe35  1  0.11905554  0.87636006  0.62217748  1
  Fe  Fe36  1  0.00037289  -0.00067783  -0.00061756  1
  Fe  Fe37  1  -0.00225267  -0.00056130  0.25290731  1
  Fe  Fe38  1  0.12470381  0.37768648  0.62245963  1
  Fe  Fe39  1  -0.00309445  0.50455500  0.49638778  1
  Fe  Fe40  1  0.37430400  0.87295663  0.87645036  1
  Fe  Fe41  1  0.87814966  0.62610930  0.12306124  1
  Fe  Fe42  1  0.37441911  0.12605135  0.87547752  1
  Fe  Fe43  1  0.50104406  0.75195794  0.74808069  1
  Fe  Fe44  1  0.12573610  0.87305859  0.87490373  1
  Fe  Fe45  1  0.37613358  0.62371693  0.62579818  1
  Fe  Fe46  1  0.62178101  0.37204869  0.62241651  1
  Fe  Fe47  1  0.37754446  0.87022105  0.37498675  1
  Fe  Fe48  1  0.62366398  0.62735020  0.37538614  1
  Fe  Fe49  1  0.25176683  0.25453464  0.24846683  1
  Fe  Fe50  1  0.62554368  0.12562697  0.87485817  1
  Fe  Fe51  1  0.12849392  0.38095177  0.12286438  1
  Fe  Fe52  1  0.87292106  0.37591199  0.87650256  1
  Fe  Fe53  1  0.62554700  0.87362699  0.12358273  1
  Fe  Fe54  1  0.74888092  -0.00269245  0.74826525  1
  Fe  Fe55  1  0.38008673  0.37554401  0.37552297  1
  Fe  Fe56  1  -0.00402668  0.74831186  0.74888248  1
  Fe  Fe57  1  0.12499576  0.12400286  0.12646368  1
  Fe  Fe58  1  0.87203461  0.37673961  0.12373209  1
  Fe  Fe59  1  0.37268017  0.37559501  0.87883609  1
  Fe  Fe60  1  0.49957066  -0.00131863  0.00180220  1
  Fe  Fe61  1  0.25034692  -0.00413498  0.24966644  1
  Fe  Fe62  1  0.24975100  -0.00184163  0.00203603  1
  Fe  Fe63  1  0.13016326  0.37948576  0.87792806  1
  Fe  Fe64  1  0.12455443  0.37661319  0.37632451  1
  Fe  Fe65  1  0.00147768  0.25205292  0.75152698  1
  Fe  Fe66  1  0.74528389  0.25220780  0.24701867  1
  Fe  Fe67  1  0.12641182  0.12583773  0.87569205  1
  Fe  Fe68  1  0.00023133  0.25273099  0.00076925  1
  Fe  Fe69  1  0.12123583  0.87083877  0.37692923  1
  Fe  Fe70  1  -0.00108264  0.50265555  0.25269986  1
  Fe  Fe71  1  0.50229509  0.24960019  0.00410268  1
  Fe  Fe72  1  0.75015706  0.74979985  0.24879364  1
  Fe  Fe73  1  0.24983567  -0.00076720  0.49908481  1
  Fe  Fe74  1  0.74932725  0.25170627  0.74991517  1
  Fe  Fe75  1  0.87222041  0.37499433  0.37428800  1
  Fe  Fe76  1  0.62446117  0.12602266  0.37237089  1
  Fe  Fe77  1  0.74818323  0.50160422  0.25048899  1
  Fe  Fe78  1  -0.00170097  0.24858302  0.49792571  1
  Fe  Fe79  1  0.25151240  0.74809482  0.50048376  1
  Fe  Fe80  1  0.24997372  0.25247507  0.74972214  1
  Fe  Fe81  1  0.50121409  -0.00071490  0.74986248  1
  Fe  Fe82  1  0.37734274  0.37386289  0.62304652  1
  Fe  Fe83  1  0.87747239  0.12237644  0.62613610  1
  Fe  Fe84  1  0.74920575  0.50411452  -0.00208858  1
  Fe  Fe85  1  0.74809420  0.50028390  0.49988430  1
  Fe  Fe86  1  0.74934334  0.74700351  -0.00228378  1
  Fe  Fe87  1  0.37637705  0.87579503  0.62438640  1
  Fe  Fe88  1  0.87796405  0.87201030  0.12379450  1
  Fe  Fe89  1  0.50039763  -0.00399175  0.24792786  1
  Co  Co90  1  0.50153898  0.50402110  0.50074329  1
  Co  Co91  1  0.37819819  0.62707953  0.37149024  1
  Co  Co92  1  0.12117084  0.87543740  0.12613186  1
  Co  Co93  1  0.25252946  0.50822832  0.00099068  1
  Co  Co94  1  0.62472408  0.12695412  0.62632991  1
  Co  Co95  1  0.62454685  0.62660493  0.87067935  1
  Co  Co96  1  0.87076325  0.62618510  0.37441487  1
  Co  Co97  1  0.62753337  0.37855387  0.12137675  1
  Co  Co98  1  0.00207645  0.74863161  -0.00290115  1
  Co  Co99  1  0.75373116  0.75408196  0.74856890  1
  Co  Co100  1  0.24893515  0.24891454  0.00221305  1
  Co  Co101  1  0.87199045  0.12903647  0.37146520  1
  Co  Co102  1  -0.00051390  0.00437833  0.49291866  1
  Co  Co103  1  0.37401444  0.87246717  0.12397131  1
  Co  Co104  1  0.87322687  0.62375653  0.87281678  1
  Co  Co105  1  0.62469042  0.37436262  0.37732195  1
  Co  Co106  1  0.50284867  0.75150834  0.24744155  1
  Co  Co107  1  0.00116421  -0.00021828  0.75430853  1
  Co  Co108  1  -0.00015810  0.74668534  0.25090777  1
  Co  Co109  1  0.12541674  0.62385997  0.87256600  1
  Co  Co110  1  0.12124587  0.62047261  0.12606993  1
  Co  Co111  1  0.50245391  0.25392181  0.24620548  1
  Co  Co112  1  0.87960660  0.88049552  0.62255489  1
  Co  Co113  1  0.49930531  0.74729586  0.50330886  1
  Co  Co114  1  0.62480641  0.87430328  0.62381495  1
  Co  Co115  1  0.62613894  0.62506591  0.12587690  1
  Co  Co116  1  0.74643973  0.49489778  0.75164859  1
  Co  Co117  1  0.12675567  0.62581815  0.37542741  1
  Co  Co118  1  0.50018046  0.25233815  0.75352646  1
  Co  Co119  1  0.87160097  0.61870850  0.63024270  1
  Co  Co120  1  -0.00390143  0.74270799  0.50308081  1
  Co  Co121  1  0.62581499  0.12174072  0.12653898  1
  Co  Co122  1  0.49979378  0.24595620  0.49743375  1
  Co  Co123  1  -0.00150552  0.49976457  -0.00279056  1
  Co  Co124  1  0.74957450  0.24863674  0.00051275  1
  Co  Co125  1  0.25043048  0.49901355  0.25367885  1
  Co  Co126  1  0.37354220  0.37716380  0.12254302  1
  Co  Co127  1  0.25252877  0.49900588  0.74876800  1
