# generated using pymatgen
data_Fe45Co19
_symmetry_space_group_name_H-M   'P 1'
_cell_length_a   11.41606142
_cell_length_b   11.41546715
_cell_length_c   11.41555376
_cell_angle_alpha   90.00079948
_cell_angle_beta   89.99360043
_cell_angle_gamma   90.00316424
_symmetry_Int_Tables_number   1
_chemical_formula_structural   Fe45Co19
_chemical_formula_sum   'Fe90 Co38'
_cell_volume   1487.67123315
_cell_formula_units_Z   2
loop_
 _symmetry_equiv_pos_site_id
 _symmetry_equiv_pos_as_xyz
  1  'x, y, z'
loop_
 _atom_site_type_symbol
 _atom_site_label
 _atom_site_symmetry_multiplicity
 _atom_site_fract_x
 _atom_site_fract_y
 _atom_site_fract_z
 _atom_site_occupancy
  Fe  Fe0  1  0.87788371  0.12540131  0.87199813  1
  Fe  Fe1  1  0.75163572  0.25295369  0.74881622  1
  Fe  Fe2  1  0.12757713  0.62460805  0.87336825  1
  Fe  Fe3  1  0.49816495  0.00173919  0.49909327  1
  Fe  Fe4  1  -0.00000041  0.49786910  0.75229513  1
  Fe  Fe5  1  0.49855146  0.75006500  0.25025035  1
  Fe  Fe6  1  0.00181887  -0.00245356  -0.00187799  1
  Fe  Fe7  1  0.74913760  0.25203815  0.50109069  1
  Fe  Fe8  1  0.12217421  0.12366455  0.62546064  1
  Fe  Fe9  1  0.75044541  -0.00070461  0.24988925  1
  Fe  Fe10  1  0.24865853  0.24807020  0.49836546  1
  Fe  Fe11  1  0.25356407  0.75343151  0.24545767  1
  Fe  Fe12  1  0.00568320  0.75260878  -0.00126158  1
  Fe  Fe13  1  0.75148397  0.49878845  0.75136883  1
  Fe  Fe14  1  0.87572548  0.62603406  0.87642076  1
  Fe  Fe15  1  0.62239854  0.87483801  0.12492357  1
  Fe  Fe16  1  0.12631100  0.87541894  0.37731508  1
  Fe  Fe17  1  0.37178285  0.87327978  0.87613554  1
  Fe  Fe18  1  0.37313933  0.37368861  0.12082430  1
  Fe  Fe19  1  0.62741783  0.12745181  0.12493526  1
  Fe  Fe20  1  0.62420260  0.87455163  0.37613115  1
  Fe  Fe21  1  -0.00220416  0.25151290  0.25022739  1
  Fe  Fe22  1  0.50024031  0.74701925  0.74729505  1
  Fe  Fe23  1  0.00654075  0.50641866  0.49250006  1
  Fe  Fe24  1  0.87555720  0.37723874  0.37410081  1
  Fe  Fe25  1  0.74845134  0.74799357  0.00268568  1
  Fe  Fe26  1  0.25210204  -0.00089066  0.25200040  1
  Fe  Fe27  1  0.37376607  0.12567541  0.12313564  1
  Fe  Fe28  1  -0.00197309  0.74704507  0.25452379  1
  Fe  Fe29  1  0.87772450  0.62444937  0.62342895  1
  Fe  Fe30  1  0.87746654  0.87388629  0.12412506  1
  Fe  Fe31  1  0.74768743  0.75044771  0.50494643  1
  Fe  Fe32  1  0.12423073  0.37723949  0.62314523  1
  Fe  Fe33  1  0.62770356  0.62362484  0.37253722  1
  Fe  Fe34  1  0.63027149  0.37263495  0.12087783  1
  Fe  Fe35  1  0.50244314  0.74427349  0.50217524  1
  Fe  Fe36  1  0.24632943  0.74568414  0.50405203  1
  Fe  Fe37  1  0.37075772  0.62508493  0.87576906  1
  Fe  Fe38  1  0.37127765  0.62374869  0.37614624  1
  Fe  Fe39  1  -0.00171242  -0.00140062  0.25380877  1
  Fe  Fe40  1  0.37214851  0.37341781  0.87854904  1
  Fe  Fe41  1  0.87426654  0.87137746  0.37918610  1
  Fe  Fe42  1  0.37651740  0.87376744  0.62323669  1
  Fe  Fe43  1  0.37576178  0.38126038  0.62154954  1
  Fe  Fe44  1  0.25039434  -0.00076485  0.74785208  1
  Fe  Fe45  1  0.00027112  0.75183843  0.75023731  1
  Fe  Fe46  1  0.87348485  0.37487711  0.87884740  1
  Fe  Fe47  1  0.49932149  0.75013625  0.00004791  1
  Fe  Fe48  1  0.11982594  0.87751309  0.62210661  1
  Fe  Fe49  1  0.24936767  0.25253647  0.74923973  1
  Fe  Fe50  1  0.87832830  0.12584564  0.62716383  1
  Fe  Fe51  1  0.37365010  0.37548848  0.37878722  1
  Fe  Fe52  1  0.25034775  0.25049191  0.25048046  1
  Fe  Fe53  1  0.87371580  0.12678581  0.37414407  1
  Fe  Fe54  1  0.24921610  0.74879912  0.74640167  1
  Fe  Fe55  1  0.75170666  -0.00093251  0.50259432  1
  Fe  Fe56  1  0.75104124  -0.00275438  0.74751228  1
  Fe  Fe57  1  0.49936458  0.00208486  -0.00159489  1
  Fe  Fe58  1  0.49861178  0.00059858  0.25090075  1
  Fe  Fe59  1  0.87387010  0.87386599  0.87483571  1
  Fe  Fe60  1  0.62328835  0.12570657  0.62504240  1
  Fe  Fe61  1  0.49747626  0.00027001  0.75185555  1
  Fe  Fe62  1  0.62470068  0.12816323  0.87383729  1
  Fe  Fe63  1  0.12605258  0.37467142  0.87678503  1
  Fe  Fe64  1  0.62463568  0.12709215  0.37606336  1
  Fe  Fe65  1  0.49858487  0.49834142  0.24990522  1
  Fe  Fe66  1  0.87955921  0.37698436  0.62238557  1
  Fe  Fe67  1  -0.00056455  0.24914243  0.00150102  1
  Fe  Fe68  1  0.50236622  0.49771650  -0.00192889  1
  Fe  Fe69  1  0.12394342  0.37800713  0.12857305  1
  Fe  Fe70  1  0.12575954  0.62372700  0.12924255  1
  Fe  Fe71  1  0.74956119  0.75141569  0.74605964  1
  Fe  Fe72  1  0.50024028  0.25113637  0.24979697  1
  Fe  Fe73  1  0.00150743  0.24878220  0.49740839  1
  Fe  Fe74  1  0.12605182  0.12522208  0.87251526  1
  Fe  Fe75  1  0.62605571  0.37577832  0.37391307  1
  Fe  Fe76  1  0.37453048  0.87413059  0.37840306  1
  Fe  Fe77  1  0.62479535  0.87460486  0.87409529  1
  Fe  Fe78  1  0.75013793  0.74905921  0.24621357  1
  Fe  Fe79  1  0.37500132  0.62309306  0.12301809  1
  Fe  Fe80  1  0.12335914  0.12305300  0.12779508  1
  Fe  Fe81  1  0.75142681  0.00168661  0.00060210  1
  Fe  Fe82  1  -0.00021589  0.50054917  0.00212165  1
  Fe  Fe83  1  0.75447718  0.50318561  0.24365525  1
  Fe  Fe84  1  0.24747615  -0.00302459  0.00114217  1
  Fe  Fe85  1  0.62611024  0.62365216  0.87385830  1
  Fe  Fe86  1  0.74842338  0.49943103  0.50132693  1
  Fe  Fe87  1  0.37542189  0.12639915  0.62440393  1
  Fe  Fe88  1  0.49754399  0.25241808  0.75194843  1
  Fe  Fe89  1  0.62066753  0.37820310  0.62637348  1
  Co  Co90  1  0.49791669  0.49935130  0.75543380  1
  Co  Co91  1  0.62068241  0.87740699  0.62501079  1
  Co  Co92  1  0.12958806  0.87372466  0.87158603  1
  Co  Co93  1  0.87715331  0.12314193  0.12722694  1
  Co  Co94  1  0.88056878  0.87323940  0.62296425  1
  Co  Co95  1  0.25408325  0.49651375  0.24961862  1
  Co  Co96  1  0.24744286  0.50081636  0.00083023  1
  Co  Co97  1  0.62869095  0.37327326  0.87723478  1
  Co  Co98  1  0.37577461  0.12741341  0.37402424  1
  Co  Co99  1  0.75493510  0.24506263  -0.00167205  1
  Co  Co100  1  0.00444562  0.74344584  0.49683673  1
  Co  Co101  1  0.12215044  0.62138257  0.63086360  1
  Co  Co102  1  0.24495589  0.24957216  0.00204915  1
  Co  Co103  1  0.00004396  -0.00312610  0.75272074  1
  Co  Co104  1  0.62551855  0.61955187  0.62779334  1
  Co  Co105  1  0.24752777  0.75062364  0.00422906  1
  Co  Co106  1  0.37773961  0.87711114  0.12220476  1
  Co  Co107  1  0.24983055  0.49677863  0.75142112  1
  Co  Co108  1  0.13281627  0.62635042  0.36620964  1
  Co  Co109  1  0.12253567  0.87500531  0.13003406  1
  Co  Co110  1  0.50050519  0.25117899  0.49990182  1
  Co  Co111  1  0.24428736  0.50286901  0.49904758  1
  Co  Co112  1  0.75045043  0.50501170  0.00192225  1
  Co  Co113  1  0.50007521  0.24954297  -0.00019418  1
  Co  Co114  1  0.37062949  0.12607772  0.87706929  1
  Co  Co115  1  0.62008516  0.62496940  0.12579512  1
  Co  Co116  1  0.88043546  0.62871077  0.12137159  1
  Co  Co117  1  0.50157016  0.50428297  0.49640523  1
  Co  Co118  1  0.86865672  0.62502089  0.37848103  1
  Co  Co119  1  0.87334405  0.37429340  0.12363238  1
  Co  Co120  1  0.00090773  0.25396976  0.75083863  1
  Co  Co121  1  0.25066639  0.00254223  0.50004953  1
  Co  Co122  1  0.37412903  0.61949356  0.62477460  1
  Co  Co123  1  0.12527059  0.37450706  0.37200431  1
  Co  Co124  1  0.75160576  0.25014097  0.25158010  1
  Co  Co125  1  -0.00260323  0.00270289  0.49678102  1
  Co  Co126  1  0.12565120  0.12481699  0.37291444  1
  Co  Co127  1  -0.00406957  0.50336967  0.25253392  1
