# generated using pymatgen
data_Fe45Co19
_symmetry_space_group_name_H-M   'P 1'
_cell_length_a   11.41576481
_cell_length_b   11.41580806
_cell_length_c   11.41587536
_cell_angle_alpha   89.99819295
_cell_angle_beta   89.98814124
_cell_angle_gamma   89.99362701
_symmetry_Int_Tables_number   1
_chemical_formula_structural   Fe45Co19
_chemical_formula_sum   'Fe90 Co38'
_cell_volume   1487.71888927
_cell_formula_units_Z   2
loop_
 _symmetry_equiv_pos_site_id
 _symmetry_equiv_pos_as_xyz
  1  'x, y, z'
loop_
 _atom_site_type_symbol
 _atom_site_label
 _atom_site_symmetry_multiplicity
 _atom_site_fract_x
 _atom_site_fract_y
 _atom_site_fract_z
 _atom_site_occupancy
  Fe  Fe0  1  0.49791798  0.74838445  0.74643189  1
  Fe  Fe1  1  0.49709396  0.00200615  0.75104749  1
  Fe  Fe2  1  0.62461447  0.37594060  0.87321484  1
  Fe  Fe3  1  0.12585275  0.37297274  0.87455347  1
  Fe  Fe4  1  0.37430569  0.37411202  0.37754905  1
  Fe  Fe5  1  0.62704353  0.62127729  0.62358698  1
  Fe  Fe6  1  0.87402542  0.37704976  0.12553951  1
  Fe  Fe7  1  0.25058658  0.24851743  0.24732014  1
  Fe  Fe8  1  0.50079638  0.24945581  0.74626253  1
  Fe  Fe9  1  0.12556101  0.87564137  0.36944668  1
  Fe  Fe10  1  0.87809543  0.87450641  0.37233258  1
  Fe  Fe11  1  0.12976845  0.12258230  0.12323795  1
  Fe  Fe12  1  0.62633489  0.62348534  0.12660601  1
  Fe  Fe13  1  0.25244089  0.49410821  -0.00004412  1
  Fe  Fe14  1  0.49942032  -0.00082994  0.49779136  1
  Fe  Fe15  1  0.37426683  0.12575436  0.62195812  1
  Fe  Fe16  1  0.74777354  0.25166725  0.00143717  1
  Fe  Fe17  1  0.87231159  0.62334414  0.12697565  1
  Fe  Fe18  1  0.87564580  0.62432191  0.62424580  1
  Fe  Fe19  1  0.37285598  0.62414093  0.87499867  1
  Fe  Fe20  1  0.87552306  0.87449116  0.87510413  1
  Fe  Fe21  1  0.49768590  -0.00108942  0.00035745  1
  Fe  Fe22  1  0.00035089  0.49940533  -0.00012842  1
  Fe  Fe23  1  0.00218772  0.74949755  0.49921867  1
  Fe  Fe24  1  0.49840651  0.50194851  0.25061715  1
  Fe  Fe25  1  0.75027474  0.00029098  0.49916504  1
  Fe  Fe26  1  0.62432855  0.12373811  0.37565803  1
  Fe  Fe27  1  0.37213571  0.87501025  0.12801567  1
  Fe  Fe28  1  0.74935116  0.24803714  0.74677756  1
  Fe  Fe29  1  0.74949731  0.74916127  0.74967673  1
  Fe  Fe30  1  0.87342981  0.12502503  0.12361009  1
  Fe  Fe31  1  0.36967425  0.62316318  0.62246302  1
  Fe  Fe32  1  0.75105901  -0.00059475  0.25114526  1
  Fe  Fe33  1  0.50046175  0.25051769  0.25044322  1
  Fe  Fe34  1  0.49797188  0.25277634  0.00263587  1
  Fe  Fe35  1  0.87437696  0.62583662  0.37376542  1
  Fe  Fe36  1  0.00079091  0.24797615  0.24688505  1
  Fe  Fe37  1  0.24968577  0.75153552  0.00052108  1
  Fe  Fe38  1  0.25320930  0.50263665  0.25234962  1
  Fe  Fe39  1  0.37298147  0.87558870  0.62246439  1
  Fe  Fe40  1  0.00157045  0.49955203  0.74868351  1
  Fe  Fe41  1  0.37587993  0.87223154  0.87447368  1
  Fe  Fe42  1  0.12842755  0.62398032  0.87272413  1
  Fe  Fe43  1  0.00470768  0.24805327  0.50216252  1
  Fe  Fe44  1  0.87453521  0.37398647  0.87502113  1
  Fe  Fe45  1  0.12483313  0.62517210  0.37443926  1
  Fe  Fe46  1  0.75304291  0.00340701  0.75046014  1
  Fe  Fe47  1  0.62245905  0.12463344  0.12606556  1
  Fe  Fe48  1  0.24853693  0.74885912  0.49834053  1
  Fe  Fe49  1  0.00213979  0.50034719  0.49997091  1
  Fe  Fe50  1  0.49788116  0.49922317  0.74789454  1
  Fe  Fe51  1  0.00321731  0.00320105  0.49926352  1
  Fe  Fe52  1  0.00185260  0.74940987  0.74953299  1
  Fe  Fe53  1  0.87740315  0.87429964  0.12721034  1
  Fe  Fe54  1  -0.00097003  0.49994446  0.25105023  1
  Fe  Fe55  1  0.62487449  0.62367864  0.87507358  1
  Fe  Fe56  1  0.00297738  0.24978471  0.00125260  1
  Fe  Fe57  1  0.62218659  0.62787310  0.37557203  1
  Fe  Fe58  1  0.24733914  0.00391630  0.49636995  1
  Fe  Fe59  1  0.25068975  0.25099560  0.74897903  1
  Fe  Fe60  1  0.12755755  0.62267509  0.12500462  1
  Fe  Fe61  1  0.25057743  0.00034983  0.75220688  1
  Fe  Fe62  1  0.62348102  0.37680838  0.37846693  1
  Fe  Fe63  1  0.87681116  0.87571418  0.62447896  1
  Fe  Fe64  1  0.37467005  0.12792636  0.37650857  1
  Fe  Fe65  1  0.49835678  0.49735124  0.00059326  1
  Fe  Fe66  1  0.49930475  0.74989377  0.00185894  1
  Fe  Fe67  1  0.12592527  0.87620691  0.12964121  1
  Fe  Fe68  1  0.74603381  0.24880860  0.50268443  1
  Fe  Fe69  1  0.37440394  0.37494764  0.62066802  1
  Fe  Fe70  1  0.62454209  0.87806538  0.62553579  1
  Fe  Fe71  1  0.00143941  0.00171001  -0.00207104  1
  Fe  Fe72  1  0.62375313  0.87464203  0.87286422  1
  Fe  Fe73  1  0.12549740  0.37304043  0.37283098  1
  Fe  Fe74  1  0.87322878  0.37595325  0.62349982  1
  Fe  Fe75  1  0.74964062  0.74990391  0.00085734  1
  Fe  Fe76  1  0.62381939  0.12498269  0.87597308  1
  Fe  Fe77  1  0.12741187  0.37575229  0.62360884  1
  Fe  Fe78  1  0.74866317  0.75101446  0.49876328  1
  Fe  Fe79  1  0.87607199  0.37298054  0.37626654  1
  Fe  Fe80  1  0.00161848  0.74843235  0.00152594  1
  Fe  Fe81  1  0.12530252  0.87527687  0.87334742  1
  Fe  Fe82  1  0.49653845  -0.00136259  0.25240026  1
  Fe  Fe83  1  0.87437489  0.62413201  0.87461030  1
  Fe  Fe84  1  0.62426588  0.87473782  0.12804686  1
  Fe  Fe85  1  0.74962400  -0.00016218  -0.00057122  1
  Fe  Fe86  1  0.37159714  0.12793033  0.87977872  1
  Fe  Fe87  1  0.87638825  0.12706454  0.37637882  1
  Fe  Fe88  1  0.74804201  0.25213249  0.24970087  1
  Fe  Fe89  1  0.12555847  0.87582474  0.62643810  1
  Co  Co90  1  0.74986027  0.75158067  0.25085690  1
  Co  Co91  1  0.37333384  0.62372987  0.12145826  1
  Co  Co92  1  0.87832830  0.12527114  0.62341606  1
  Co  Co93  1  0.25307760  0.00234937  0.25329213  1
  Co  Co94  1  0.25027568  0.49671378  0.74933839  1
  Co  Co95  1  0.37648772  0.37372689  0.87312334  1
  Co  Co96  1  -0.00092329  0.00451666  0.24980430  1
  Co  Co97  1  0.87635651  0.12791603  0.87582406  1
  Co  Co98  1  0.24792814  0.50003191  0.49707645  1
  Co  Co99  1  0.49631960  0.74889019  0.24773731  1
  Co  Co100  1  0.75089808  0.50083101  0.49693803  1
  Co  Co101  1  0.75136131  0.49940555  0.75093893  1
  Co  Co102  1  -0.00091022  0.00010253  0.75164759  1
  Co  Co103  1  0.74974383  0.49871195  -0.00077540  1
  Co  Co104  1  0.25163922  0.75135065  0.74978415  1
  Co  Co105  1  0.74913614  0.49762273  0.25340075  1
  Co  Co106  1  0.62336294  0.37686063  0.12527316  1
  Co  Co107  1  0.62572782  0.37825021  0.62435704  1
  Co  Co108  1  0.00107063  0.74714498  0.24838469  1
  Co  Co109  1  0.25038156  0.25488409  0.00346937  1
  Co  Co110  1  0.25187474  0.74604957  0.25092083  1
  Co  Co111  1  0.12726777  0.12760021  0.87452549  1
  Co  Co112  1  0.37848459  0.62767442  0.37928471  1
  Co  Co113  1  0.37598451  0.37572833  0.12897856  1
  Co  Co114  1  0.49852209  0.49995783  0.50105769  1
  Co  Co115  1  0.50046491  0.75082381  0.50525645  1
  Co  Co116  1  -0.00000196  0.25208906  0.74862781  1
  Co  Co117  1  0.62213666  0.87293433  0.37502410  1
  Co  Co118  1  0.37391808  0.87123838  0.37637174  1
  Co  Co119  1  0.25070024  -0.00304775  -0.00170108  1
  Co  Co120  1  0.24715323  0.24830206  0.49967502  1
  Co  Co121  1  0.37532938  0.12510302  0.12332746  1
  Co  Co122  1  0.12697373  0.62552848  0.62623591  1
  Co  Co123  1  0.12395270  0.12787849  0.37170291  1
  Co  Co124  1  0.50232359  0.25001934  0.50127379  1
  Co  Co125  1  0.62296691  0.12098735  0.62447499  1
  Co  Co126  1  0.12524191  0.12422896  0.62976182  1
  Co  Co127  1  0.12507320  0.37834040  0.12818254  1
