# generated using pymatgen
data_Fe45Co19
_symmetry_space_group_name_H-M   'P 1'
_cell_length_a   11.41438782
_cell_length_b   11.41471589
_cell_length_c   11.41463202
_cell_angle_alpha   90.00100729
_cell_angle_beta   90.00231047
_cell_angle_gamma   90.00120097
_symmetry_Int_Tables_number   1
_chemical_formula_structural   Fe45Co19
_chemical_formula_sum   'Fe90 Co38'
_cell_volume   1487.23516517
_cell_formula_units_Z   2
loop_
 _symmetry_equiv_pos_site_id
 _symmetry_equiv_pos_as_xyz
  1  'x, y, z'
loop_
 _atom_site_type_symbol
 _atom_site_label
 _atom_site_symmetry_multiplicity
 _atom_site_fract_x
 _atom_site_fract_y
 _atom_site_fract_z
 _atom_site_occupancy
  Fe  Fe0  1  0.25032697  -0.00083964  0.00106764  1
  Fe  Fe1  1  0.74412530  0.74557425  0.49684595  1
  Fe  Fe2  1  0.24722204  0.24679320  0.50058260  1
  Fe  Fe3  1  0.87492235  0.62631003  0.12580844  1
  Fe  Fe4  1  0.12437515  0.62698935  0.37557828  1
  Fe  Fe5  1  0.24863705  0.74922291  0.00227343  1
  Fe  Fe6  1  0.12918488  0.87825073  0.62527936  1
  Fe  Fe7  1  0.37473427  0.37451221  0.12325414  1
  Fe  Fe8  1  0.25012552  0.24942195  0.24896338  1
  Fe  Fe9  1  0.50075096  0.25167163  0.25120390  1
  Fe  Fe10  1  0.50165153  0.75338385  0.74566109  1
  Fe  Fe11  1  0.87523005  0.37738407  0.62272808  1
  Fe  Fe12  1  0.37394043  0.12370575  0.37458158  1
  Fe  Fe13  1  0.12262181  0.62686623  0.87490568  1
  Fe  Fe14  1  0.12376712  0.12492541  0.87430997  1
  Fe  Fe15  1  -0.00257302  0.50419942  0.50069796  1
  Fe  Fe16  1  0.75347263  0.49872225  0.25244399  1
  Fe  Fe17  1  0.62351831  0.62408443  0.87256767  1
  Fe  Fe18  1  0.00105879  0.24615333  0.49927897  1
  Fe  Fe19  1  -0.00076383  0.50090986  0.25117675  1
  Fe  Fe20  1  0.49836643  -0.00453007  0.50154604  1
  Fe  Fe21  1  0.50038255  -0.00193799  0.74865257  1
  Fe  Fe22  1  0.37674522  0.62620704  0.87463139  1
  Fe  Fe23  1  0.00105217  0.75041315  0.25041851  1
  Fe  Fe24  1  0.50201853  0.50045136  0.00126195  1
  Fe  Fe25  1  -0.00402850  0.25031332  0.25109071  1
  Fe  Fe26  1  0.62573805  0.87618791  0.87402862  1
  Fe  Fe27  1  0.37262126  0.37504766  0.37711634  1
  Fe  Fe28  1  0.24956594  0.50280859  0.00168174  1
  Fe  Fe29  1  -0.00031371  0.50147699  0.00073196  1
  Fe  Fe30  1  0.87420312  0.87432916  0.12705272  1
  Fe  Fe31  1  0.87359388  0.87401926  0.87348483  1
  Fe  Fe32  1  -0.00027760  0.75052429  0.74691599  1
  Fe  Fe33  1  -0.00262477  -0.00039406  0.74941937  1
  Fe  Fe34  1  0.38014250  0.62710567  0.37722840  1
  Fe  Fe35  1  0.12454358  0.37818433  0.62344114  1
  Fe  Fe36  1  -0.00158354  -0.00125009  0.25501004  1
  Fe  Fe37  1  0.25026539  0.75026271  0.49962625  1
  Fe  Fe38  1  -0.00163996  0.24937379  0.00154356  1
  Fe  Fe39  1  0.75385722  0.25184797  0.25025819  1
  Fe  Fe40  1  0.37765219  0.87373346  0.87818943  1
  Fe  Fe41  1  -0.00163085  -0.00164652  0.00040063  1
  Fe  Fe42  1  0.50210113  0.25060561  0.00100885  1
  Fe  Fe43  1  0.12606605  0.37565975  0.87580295  1
  Fe  Fe44  1  0.37103447  0.12042278  0.62514197  1
  Fe  Fe45  1  0.75246136  0.50322647  0.74794005  1
  Fe  Fe46  1  0.75051597  0.24975749  0.49858183  1
  Fe  Fe47  1  0.62519479  0.62451110  0.12756372  1
  Fe  Fe48  1  0.75093577  -0.00131732  0.49683592  1
  Fe  Fe49  1  0.49902201  0.49758501  0.25016497  1
  Fe  Fe50  1  0.49870553  0.49747805  0.74792200  1
  Fe  Fe51  1  0.37312671  0.87290177  0.37191233  1
  Fe  Fe52  1  0.62603620  0.12478870  0.87414715  1
  Fe  Fe53  1  0.62322270  0.87462207  0.12243875  1
  Fe  Fe54  1  0.37325406  0.37403013  0.87671126  1
  Fe  Fe55  1  -0.00038350  0.24982381  0.74894285  1
  Fe  Fe56  1  0.12679139  0.87350461  0.12824789  1
  Fe  Fe57  1  0.12497785  0.37609098  0.12533034  1
  Fe  Fe58  1  0.87772581  0.62643903  0.87395339  1
  Fe  Fe59  1  0.25008492  0.75009693  0.74946123  1
  Fe  Fe60  1  0.87427247  0.37650304  0.87626714  1
  Fe  Fe61  1  0.50004091  0.25052544  0.74751833  1
  Fe  Fe62  1  0.12350310  0.87331509  0.87525619  1
  Fe  Fe63  1  0.24966346  0.50342275  0.25077892  1
  Fe  Fe64  1  0.62592224  0.12190269  0.37353377  1
  Fe  Fe65  1  0.37223466  0.37568500  0.62261568  1
  Fe  Fe66  1  0.74984484  0.74847376  -0.00170461  1
  Fe  Fe67  1  0.00233925  -0.00009299  0.49669305  1
  Fe  Fe68  1  0.12345008  0.12414852  0.12734742  1
  Fe  Fe69  1  0.37527961  0.12462018  0.12411138  1
  Fe  Fe70  1  0.24822859  0.24882632  0.74891490  1
  Fe  Fe71  1  0.75179111  0.24835058  0.74888152  1
  Fe  Fe72  1  0.74590133  0.75254588  0.25438665  1
  Fe  Fe73  1  0.12465654  0.37512605  0.37578887  1
  Fe  Fe74  1  0.50030720  0.25004588  0.50009792  1
  Fe  Fe75  1  0.24838971  0.50225657  0.74856989  1
  Fe  Fe76  1  0.37540965  0.12596515  0.87593295  1
  Fe  Fe77  1  0.37795691  0.62887004  0.12591085  1
  Fe  Fe78  1  0.62683855  0.37605357  0.87602195  1
  Fe  Fe79  1  0.00108018  0.75105336  0.50077183  1
  Fe  Fe80  1  0.75193033  0.24940039  0.00295370  1
  Fe  Fe81  1  0.49910653  -0.00322750  0.24751440  1
  Fe  Fe82  1  0.62716021  0.37760438  0.62298297  1
  Fe  Fe83  1  0.87491680  0.12329869  0.62384635  1
  Fe  Fe84  1  0.75151906  0.00105987  0.00023856  1
  Fe  Fe85  1  0.62565152  0.12193119  0.62419793  1
  Fe  Fe86  1  0.37787496  0.62567064  0.62217913  1
  Fe  Fe87  1  0.62681819  0.12435905  0.12756689  1
  Fe  Fe88  1  0.62665126  0.37740447  0.37601684  1
  Fe  Fe89  1  0.87000016  0.87272128  0.62391419  1
  Co  Co90  1  0.12556193  0.62630206  0.62449784  1
  Co  Co91  1  0.87518651  0.12233687  0.12747206  1
  Co  Co92  1  0.00034361  0.50106231  0.74921181  1
  Co  Co93  1  0.87434477  0.62826431  0.62505305  1
  Co  Co94  1  0.74991364  0.50409817  0.00030893  1
  Co  Co95  1  0.87249855  0.12363789  0.37419705  1
  Co  Co96  1  0.12665199  0.87171126  0.37304835  1
  Co  Co97  1  0.74849845  0.74707135  0.75166210  1
  Co  Co98  1  0.25135471  -0.00015638  0.24906170  1
  Co  Co99  1  0.50066477  0.00134941  0.00095648  1
  Co  Co100  1  0.62003891  0.62074842  0.37426513  1
  Co  Co101  1  0.87614213  0.62868920  0.37298230  1
  Co  Co102  1  0.50360730  0.75294111  0.25158020  1
  Co  Co103  1  0.49999934  0.49610245  0.50026952  1
  Co  Co104  1  0.37543184  0.87119160  0.12374148  1
  Co  Co105  1  0.75267839  0.50470562  0.49882399  1
  Co  Co106  1  0.12573908  0.12672481  0.37172555  1
  Co  Co107  1  0.24732306  -0.00036055  0.49421042  1
  Co  Co108  1  0.62346539  0.87890980  0.37596752  1
  Co  Co109  1  0.75198172  0.00215649  0.75091032  1
  Co  Co110  1  0.62159388  0.62340386  0.62410104  1
  Co  Co111  1  0.63080733  0.87553917  0.62609188  1
  Co  Co112  1  0.87605798  0.12559410  0.87595556  1
  Co  Co113  1  0.50299373  0.75547547  0.50157906  1
  Co  Co114  1  0.87664504  0.37521077  0.37871460  1
  Co  Co115  1  0.87443320  0.87209775  0.37667723  1
  Co  Co116  1  0.12630942  0.12000314  0.62739918  1
  Co  Co117  1  0.24997483  0.74585345  0.24902731  1
  Co  Co118  1  0.62648008  0.37565234  0.12575886  1
  Co  Co119  1  0.24866976  0.24790081  0.00169384  1
  Co  Co120  1  -0.00157620  0.75202111  0.00237109  1
  Co  Co121  1  0.25076726  -0.00124424  0.75627139  1
  Co  Co122  1  0.36999046  0.87671471  0.62474115  1
  Co  Co123  1  0.24943502  0.50276854  0.49814643  1
  Co  Co124  1  0.50348353  0.74773295  -0.00022821  1
  Co  Co125  1  0.87585884  0.37754786  0.12302890  1
  Co  Co126  1  0.74995333  -0.00439185  0.25008241  1
  Co  Co127  1  0.12210632  0.62581837  0.12449024  1
