# generated using pymatgen
data_Fe45Co19
_symmetry_space_group_name_H-M   'P 1'
_cell_length_a   11.41542210
_cell_length_b   11.41595567
_cell_length_c   11.41393336
_cell_angle_alpha   90.00584074
_cell_angle_beta   90.00065572
_cell_angle_gamma   89.99714948
_symmetry_Int_Tables_number   1
_chemical_formula_structural   Fe45Co19
_chemical_formula_sum   'Fe90 Co38'
_cell_volume   1487.44041863
_cell_formula_units_Z   2
loop_
 _symmetry_equiv_pos_site_id
 _symmetry_equiv_pos_as_xyz
  1  'x, y, z'
loop_
 _atom_site_type_symbol
 _atom_site_label
 _atom_site_symmetry_multiplicity
 _atom_site_fract_x
 _atom_site_fract_y
 _atom_site_fract_z
 _atom_site_occupancy
  Fe  Fe0  1  0.37547257  0.37779169  0.12505548  1
  Fe  Fe1  1  0.12471220  0.13058406  0.62226211  1
  Fe  Fe2  1  0.62402450  0.37347183  0.87860166  1
  Fe  Fe3  1  0.62617127  0.12735710  0.62573294  1
  Fe  Fe4  1  0.25202865  0.74821021  0.74897430  1
  Fe  Fe5  1  0.24739053  0.50176534  0.74731048  1
  Fe  Fe6  1  0.12559126  0.62680055  0.37528618  1
  Fe  Fe7  1  0.24851570  0.50270453  0.00207007  1
  Fe  Fe8  1  0.87448827  0.87668807  0.62528178  1
  Fe  Fe9  1  0.24719861  0.00118499  0.74896170  1
  Fe  Fe10  1  0.12661917  0.37045086  0.37677544  1
  Fe  Fe11  1  0.50528468  0.50231238  0.25179475  1
  Fe  Fe12  1  0.74710585  -0.00167245  0.75094132  1
  Fe  Fe13  1  -0.00027697  0.24978040  0.25159583  1
  Fe  Fe14  1  0.74811005  0.50075632  0.00056430  1
  Fe  Fe15  1  0.87232907  0.12405199  0.12424896  1
  Fe  Fe16  1  -0.00036378  0.00034509  0.00211054  1
  Fe  Fe17  1  0.12231807  0.87370092  0.12666937  1
  Fe  Fe18  1  0.37508266  0.37697822  0.37341652  1
  Fe  Fe19  1  0.12577827  0.37370331  0.87669593  1
  Fe  Fe20  1  0.24928914  -0.00146351  0.00162503  1
  Fe  Fe21  1  0.37467697  0.87476557  0.62461568  1
  Fe  Fe22  1  -0.00465346  0.25015757  -0.00110078  1
  Fe  Fe23  1  0.37449394  0.37837350  0.87674620  1
  Fe  Fe24  1  0.12462913  0.37231982  0.12417401  1
  Fe  Fe25  1  0.25303300  0.24934850  0.00068099  1
  Fe  Fe26  1  0.12400899  0.12642718  0.87573772  1
  Fe  Fe27  1  0.00202998  0.49902715  0.50064640  1
  Fe  Fe28  1  0.37478966  0.12206883  0.87587712  1
  Fe  Fe29  1  0.75372590  0.74855595  0.50021963  1
  Fe  Fe30  1  0.12592659  0.87172980  0.62336968  1
  Fe  Fe31  1  0.87671422  0.61968997  0.87098452  1
  Fe  Fe32  1  0.37588427  0.87427722  0.12380456  1
  Fe  Fe33  1  0.75034530  -0.00288567  0.24830802  1
  Fe  Fe34  1  0.37617908  0.62445119  0.12666355  1
  Fe  Fe35  1  0.00134873  0.00167561  0.49854116  1
  Fe  Fe36  1  0.50270809  -0.00142140  0.75064914  1
  Fe  Fe37  1  0.00257221  0.50211640  0.00161095  1
  Fe  Fe38  1  0.87427967  0.12401836  0.62676033  1
  Fe  Fe39  1  0.75217999  0.25135049  0.49914138  1
  Fe  Fe40  1  -0.00231475  0.74929807  0.49922894  1
  Fe  Fe41  1  0.37594136  0.87581365  0.37477082  1
  Fe  Fe42  1  0.50163731  0.50214149  0.49703173  1
  Fe  Fe43  1  0.74758079  -0.00148542  0.50069001  1
  Fe  Fe44  1  0.25143988  0.75097877  0.25085957  1
  Fe  Fe45  1  0.62595767  0.12674474  0.88117405  1
  Fe  Fe46  1  0.62477234  0.12604294  0.37334492  1
  Fe  Fe47  1  0.49752647  0.24895891  0.49861282  1
  Fe  Fe48  1  0.24897497  0.00226621  0.49584524  1
  Fe  Fe49  1  0.87558692  0.38123846  0.12768629  1
  Fe  Fe50  1  0.75098069  0.74959621  0.75054729  1
  Fe  Fe51  1  0.50151893  0.50039276  0.75001936  1
  Fe  Fe52  1  0.62445127  0.62958184  0.12393807  1
  Fe  Fe53  1  0.12782504  0.36977222  0.62249730  1
  Fe  Fe54  1  0.87448038  0.12316730  0.37460793  1
  Fe  Fe55  1  0.62470640  0.37193385  0.12269259  1
  Fe  Fe56  1  0.87401563  0.38091071  0.37165743  1
  Fe  Fe57  1  0.49861271  0.25031287  0.75257605  1
  Fe  Fe58  1  0.50334175  -0.00251798  0.24696467  1
  Fe  Fe59  1  0.24583068  0.49988025  0.24890710  1
  Fe  Fe60  1  0.00207463  -0.00108449  0.74973784  1
  Fe  Fe61  1  -0.00500828  0.74669471  0.24923474  1
  Fe  Fe62  1  -0.00239989  0.25280232  0.75159765  1
  Fe  Fe63  1  0.50235281  0.00009140  0.50053678  1
  Fe  Fe64  1  0.25073494  0.50437110  0.50139540  1
  Fe  Fe65  1  0.87746711  0.62157120  0.62818918  1
  Fe  Fe66  1  0.75248402  0.25175357  0.75465744  1
  Fe  Fe67  1  0.62494884  0.87349864  0.87960683  1
  Fe  Fe68  1  0.37458093  0.37532529  0.62568803  1
  Fe  Fe69  1  0.12190019  0.87604576  0.37165356  1
  Fe  Fe70  1  0.37466384  0.12316725  0.12724728  1
  Fe  Fe71  1  -0.00420133  0.74689308  0.00107347  1
  Fe  Fe72  1  0.75575819  0.74828973  0.25010120  1
  Fe  Fe73  1  0.62482797  0.37321481  0.62440563  1
  Fe  Fe74  1  0.49693849  0.75093639  0.75286017  1
  Fe  Fe75  1  0.62737227  0.87071900  0.12072858  1
  Fe  Fe76  1  0.62301676  0.62659450  0.87700299  1
  Fe  Fe77  1  0.74612415  0.50132339  0.49838541  1
  Fe  Fe78  1  0.49965285  0.25007057  0.24887202  1
  Fe  Fe79  1  0.12553134  0.87295578  0.87589436  1
  Fe  Fe80  1  0.37482738  0.12515403  0.62624340  1
  Fe  Fe81  1  0.25335649  0.74874941  -0.00090989  1
  Fe  Fe82  1  0.12645247  0.12486028  0.12885226  1
  Fe  Fe83  1  0.74968266  0.25191778  0.24942883  1
  Fe  Fe84  1  0.87455660  0.87709852  0.87713708  1
  Fe  Fe85  1  0.12437377  0.62655915  0.87299845  1
  Fe  Fe86  1  0.62291934  0.62792027  0.62440494  1
  Fe  Fe87  1  0.49659202  0.74862038  0.49732204  1
  Fe  Fe88  1  0.87283508  0.37823857  0.62790378  1
  Fe  Fe89  1  0.62695397  0.87115627  0.37550312  1
  Co  Co90  1  0.25028543  -0.00223136  0.25090646  1
  Co  Co91  1  0.74356835  0.50099852  0.75045907  1
  Co  Co92  1  0.50035889  -0.00099456  0.00242699  1
  Co  Co93  1  0.62453058  0.37089546  0.37631350  1
  Co  Co94  1  0.87533368  0.87509062  0.12247028  1
  Co  Co95  1  0.75548099  0.74537123  -0.00119685  1
  Co  Co96  1  0.87540983  0.61869819  0.37367196  1
  Co  Co97  1  0.25121035  0.25121476  0.25014919  1
  Co  Co98  1  0.50188419  0.50145843  0.00197680  1
  Co  Co99  1  0.87606651  0.87685214  0.37597407  1
  Co  Co100  1  0.62692647  0.12717758  0.12375663  1
  Co  Co101  1  0.49905005  0.75081659  0.24983999  1
  Co  Co102  1  -0.00213275  0.75290741  0.74996525  1
  Co  Co103  1  0.87526402  0.12095445  0.87461872  1
  Co  Co104  1  0.87571331  0.38227681  0.87536966  1
  Co  Co105  1  0.37424621  0.62055960  0.87496289  1
  Co  Co106  1  0.37722704  0.62553569  0.62469179  1
  Co  Co107  1  0.37807572  0.12287622  0.37065998  1
  Co  Co108  1  0.12239409  0.62921060  0.62472953  1
  Co  Co109  1  0.87435851  0.61764253  0.12850129  1
  Co  Co110  1  0.49536084  0.75035179  -0.00215971  1
  Co  Co111  1  0.00681536  0.49618766  0.74729875  1
  Co  Co112  1  -0.00288086  0.00159923  0.24832303  1
  Co  Co113  1  0.37310157  0.87871513  0.87366786  1
  Co  Co114  1  0.25615863  0.24674930  0.49652515  1
  Co  Co115  1  0.75532503  0.25313782  -0.00047257  1
  Co  Co116  1  0.74134874  0.50059906  0.25049459  1
  Co  Co117  1  0.00808380  0.50077546  0.25042753  1
  Co  Co118  1  0.74942554  0.00025822  0.00163252  1
  Co  Co119  1  0.49590895  0.24905969  0.00127776  1
  Co  Co120  1  -0.00592520  0.25168491  0.49890195  1
  Co  Co121  1  0.62623448  0.63100383  0.37535531  1
  Co  Co122  1  0.62374665  0.87073891  0.62414315  1
  Co  Co123  1  0.37395057  0.62325469  0.37109327  1
  Co  Co124  1  0.12407850  0.12707809  0.37340095  1
  Co  Co125  1  0.25088211  0.74982105  0.49749788  1
  Co  Co126  1  0.25125338  0.24991196  0.75234610  1
  Co  Co127  1  0.12590236  0.62967785  0.12518959  1
