# generated using pymatgen
data_Fe45Co19
_symmetry_space_group_name_H-M   'P 1'
_cell_length_a   11.41455290
_cell_length_b   11.41516705
_cell_length_c   11.41473715
_cell_angle_alpha   89.99437552
_cell_angle_beta   90.01273579
_cell_angle_gamma   90.00129303
_symmetry_Int_Tables_number   1
_chemical_formula_structural   Fe45Co19
_chemical_formula_sum   'Fe90 Co38'
_cell_volume   1487.32911298
_cell_formula_units_Z   2
loop_
 _symmetry_equiv_pos_site_id
 _symmetry_equiv_pos_as_xyz
  1  'x, y, z'
loop_
 _atom_site_type_symbol
 _atom_site_label
 _atom_site_symmetry_multiplicity
 _atom_site_fract_x
 _atom_site_fract_y
 _atom_site_fract_z
 _atom_site_occupancy
  Fe  Fe0  1  0.74799982  0.49981209  0.25418964  1
  Fe  Fe1  1  0.12377175  0.37371480  0.87364897  1
  Fe  Fe2  1  0.37546963  0.37850741  0.87288536  1
  Fe  Fe3  1  0.49892439  -0.00161308  0.24766987  1
  Fe  Fe4  1  0.25027223  0.00003406  0.24984055  1
  Fe  Fe5  1  0.49943579  0.25005412  0.00103692  1
  Fe  Fe6  1  0.74707157  0.50151871  0.74984571  1
  Fe  Fe7  1  0.62481027  0.12428723  0.12523700  1
  Fe  Fe8  1  0.37834782  0.62259903  0.37817498  1
  Fe  Fe9  1  0.49757945  0.25504112  0.74271819  1
  Fe  Fe10  1  0.12221082  0.12455215  0.87389969  1
  Fe  Fe11  1  -0.00065373  0.00117733  0.00126278  1
  Fe  Fe12  1  0.87833530  0.87518475  0.87411595  1
  Fe  Fe13  1  0.37825845  0.12380650  0.87290632  1
  Fe  Fe14  1  0.25138771  -0.00129248  -0.00155101  1
  Fe  Fe15  1  0.37306588  0.62358398  0.12383809  1
  Fe  Fe16  1  -0.00194408  0.24857806  0.74810448  1
  Fe  Fe17  1  0.12713318  0.12612089  0.62647074  1
  Fe  Fe18  1  0.12715846  0.87152149  0.62857915  1
  Fe  Fe19  1  0.87225163  0.37618540  0.62326247  1
  Fe  Fe20  1  0.12815941  0.37434215  0.12522199  1
  Fe  Fe21  1  0.87095800  0.87743744  0.61889057  1
  Fe  Fe22  1  0.12115393  0.63133826  0.87253087  1
  Fe  Fe23  1  -0.00152656  0.24846146  0.25020137  1
  Fe  Fe24  1  0.37584916  0.12341710  0.12456926  1
  Fe  Fe25  1  0.87479244  0.37382215  0.12455640  1
  Fe  Fe26  1  0.24842917  0.00215184  0.50035513  1
  Fe  Fe27  1  0.24888034  0.50537845  0.75191800  1
  Fe  Fe28  1  0.12574054  0.87417238  0.12443983  1
  Fe  Fe29  1  0.75157760  0.24679374  0.25459381  1
  Fe  Fe30  1  0.74974147  0.00058086  -0.00194143  1
  Fe  Fe31  1  0.75167651  0.75014149  0.25912233  1
  Fe  Fe32  1  0.87598126  0.37528755  0.37662005  1
  Fe  Fe33  1  0.49816825  0.75131987  0.25063161  1
  Fe  Fe34  1  0.37620617  0.87492632  0.87465607  1
  Fe  Fe35  1  0.75047085  0.75039932  0.00039635  1
  Fe  Fe36  1  0.87388496  0.87628757  0.12790272  1
  Fe  Fe37  1  0.24809709  -0.00268148  0.75181083  1
  Fe  Fe38  1  0.00161943  0.25059078  0.50088798  1
  Fe  Fe39  1  0.50063226  0.75267465  0.00278002  1
  Fe  Fe40  1  0.25288181  0.24887143  0.74942228  1
  Fe  Fe41  1  0.62399226  0.62834809  0.62139565  1
  Fe  Fe42  1  0.87667910  0.62588521  0.87497449  1
  Fe  Fe43  1  0.75248520  0.74967675  0.74848592  1
  Fe  Fe44  1  0.25067686  0.75047806  -0.00260300  1
  Fe  Fe45  1  0.50078326  0.50030047  -0.00040800  1
  Fe  Fe46  1  0.12363693  0.62579422  0.37522922  1
  Fe  Fe47  1  0.87611786  0.37459953  0.87475344  1
  Fe  Fe48  1  0.13097970  0.37419020  0.62406153  1
  Fe  Fe49  1  0.62691497  0.87572579  0.12801973  1
  Fe  Fe50  1  0.62622160  0.37356676  0.12584931  1
  Fe  Fe51  1  0.87435058  0.62404090  0.62086170  1
  Fe  Fe52  1  0.12298444  0.12414751  0.37432581  1
  Fe  Fe53  1  0.25549258  0.24801826  0.25457157  1
  Fe  Fe54  1  0.25096527  0.25020560  -0.00257676  1
  Fe  Fe55  1  -0.00061415  0.75048631  0.50095274  1
  Fe  Fe56  1  0.61730965  0.12893894  0.37801087  1
  Fe  Fe57  1  0.00212298  0.50047521  0.00059063  1
  Fe  Fe58  1  0.62631698  0.62588577  0.12829690  1
  Fe  Fe59  1  0.74642556  0.50151008  0.49664571  1
  Fe  Fe60  1  0.37595883  0.62277806  0.62361173  1
  Fe  Fe61  1  0.00233126  0.49930010  0.25070715  1
  Fe  Fe62  1  0.75022742  0.00053758  0.74911899  1
  Fe  Fe63  1  0.62461849  0.37429890  0.87305953  1
  Fe  Fe64  1  0.74873511  0.50111857  -0.00111809  1
  Fe  Fe65  1  0.62016746  0.37030909  0.37876307  1
  Fe  Fe66  1  0.25166583  0.74864238  0.50094765  1
  Fe  Fe67  1  0.50150898  -0.00378173  0.50433824  1
  Fe  Fe68  1  0.62497106  0.12787541  0.62294768  1
  Fe  Fe69  1  0.87436382  0.12225294  0.62003503  1
  Fe  Fe70  1  0.12697029  0.62517998  0.12535381  1
  Fe  Fe71  1  0.62219418  0.62734013  0.87387498  1
  Fe  Fe72  1  0.37152643  0.37709534  0.12487560  1
  Fe  Fe73  1  0.87358419  0.62404147  0.12788255  1
  Fe  Fe74  1  0.75173632  0.00249677  0.25765644  1
  Fe  Fe75  1  0.37446051  0.87716671  0.37624643  1
  Fe  Fe76  1  0.00088758  0.50110907  0.74703804  1
  Fe  Fe77  1  0.50187359  -0.00302724  0.74696481  1
  Fe  Fe78  1  0.13049680  0.37369349  0.37643412  1
  Fe  Fe79  1  0.25144954  0.74944217  0.25137589  1
  Fe  Fe80  1  0.62249415  0.12542575  0.87356547  1
  Fe  Fe81  1  0.12412482  0.87522017  0.37473770  1
  Fe  Fe82  1  -0.00151204  0.75128941  0.25106592  1
  Fe  Fe83  1  0.49732924  0.75196984  0.74601390  1
  Fe  Fe84  1  0.12554103  0.12637371  0.12515091  1
  Fe  Fe85  1  0.62444194  0.87398794  0.87358110  1
  Fe  Fe86  1  0.75097833  0.24826521  -0.00120126  1
  Fe  Fe87  1  0.49925932  0.49731740  0.25144127  1
  Fe  Fe88  1  0.75182585  0.24930449  0.74923269  1
  Fe  Fe89  1  0.00424792  0.49919629  0.50077315  1
  Co  Co90  1  0.87642380  0.12503936  0.87414469  1
  Co  Co91  1  0.37911495  0.62540504  0.87542571  1
  Co  Co92  1  0.49626052  0.25159751  0.24788769  1
  Co  Co93  1  0.00083984  0.24903604  0.00025981  1
  Co  Co94  1  0.74387319  0.00128098  0.49534093  1
  Co  Co95  1  0.12158093  0.87277158  0.87386005  1
  Co  Co96  1  0.75192213  0.24737894  0.49664268  1
  Co  Co97  1  0.63027652  0.37234585  0.62215193  1
  Co  Co98  1  0.24677355  0.50432844  0.49826433  1
  Co  Co99  1  0.87334032  0.12549141  0.12612074  1
  Co  Co100  1  0.00656084  -0.00082231  0.50370222  1
  Co  Co101  1  0.61899105  0.62558914  0.37646242  1
  Co  Co102  1  0.25031734  0.50186414  0.25291072  1
  Co  Co103  1  0.36631530  0.38071957  0.62390550  1
  Co  Co104  1  0.49848445  0.75464820  0.50129344  1
  Co  Co105  1  0.25372642  0.74856475  0.75046397  1
  Co  Co106  1  0.74972969  0.74987602  0.49332535  1
  Co  Co107  1  0.00087370  -0.00039851  0.24743455  1
  Co  Co108  1  0.50225506  0.49528264  0.50317310  1
  Co  Co109  1  0.37363547  0.87454221  0.12567241  1
  Co  Co110  1  0.62967720  0.87157322  0.62482710  1
  Co  Co111  1  0.88125568  0.12136624  0.37943520  1
  Co  Co112  1  0.37362483  0.37731489  0.37828000  1
  Co  Co113  1  0.87849592  0.62256872  0.37634241  1
  Co  Co114  1  0.49113444  0.25241692  0.50656386  1
  Co  Co115  1  0.62108676  0.87436748  0.37435101  1
  Co  Co116  1  -0.00216482  0.74994707  0.00340444  1
  Co  Co117  1  0.12477193  0.62788176  0.62603763  1
  Co  Co118  1  0.50245205  0.49794747  0.74616509  1
  Co  Co119  1  0.37096238  0.87724555  0.62433127  1
  Co  Co120  1  0.37371465  0.11998844  0.62780820  1
  Co  Co121  1  0.25484850  0.24410208  0.49834354  1
  Co  Co122  1  0.38032771  0.12020030  0.37638358  1
  Co  Co123  1  0.50069080  -0.00148976  0.00118651  1
  Co  Co124  1  0.24754989  0.50136124  -0.00427871  1
  Co  Co125  1  -0.00087095  -0.00062948  0.74685310  1
  Co  Co126  1  -0.00490508  0.75187894  0.74482866  1
  Co  Co127  1  0.87949278  0.87983801  0.37908106  1
