# generated using pymatgen
data_Fe45Co19
_symmetry_space_group_name_H-M   'P 1'
_cell_length_a   11.41634689
_cell_length_b   11.41604369
_cell_length_c   11.41497065
_cell_angle_alpha   89.99614630
_cell_angle_beta   90.00312058
_cell_angle_gamma   89.99465758
_symmetry_Int_Tables_number   1
_chemical_formula_structural   Fe45Co19
_chemical_formula_sum   'Fe90 Co38'
_cell_volume   1487.70757618
_cell_formula_units_Z   2
loop_
 _symmetry_equiv_pos_site_id
 _symmetry_equiv_pos_as_xyz
  1  'x, y, z'
loop_
 _atom_site_type_symbol
 _atom_site_label
 _atom_site_symmetry_multiplicity
 _atom_site_fract_x
 _atom_site_fract_y
 _atom_site_fract_z
 _atom_site_occupancy
  Fe  Fe0  1  0.24926072  -0.00442730  0.25092699  1
  Fe  Fe1  1  0.75170460  0.75399556  0.74539378  1
  Fe  Fe2  1  0.62523664  0.12543304  0.12812856  1
  Fe  Fe3  1  0.62408245  0.37472538  0.12480542  1
  Fe  Fe4  1  0.75120763  0.24864322  0.00114995  1
  Fe  Fe5  1  0.49958670  0.74793837  0.00043852  1
  Fe  Fe6  1  0.37419100  0.37638208  0.62308722  1
  Fe  Fe7  1  0.49725471  0.74943398  0.25053746  1
  Fe  Fe8  1  0.74937648  0.50038621  0.25049518  1
  Fe  Fe9  1  0.00402034  0.75227745  0.50094167  1
  Fe  Fe10  1  0.24964488  0.49747149  0.74962384  1
  Fe  Fe11  1  0.49695613  0.74685401  0.50354244  1
  Fe  Fe12  1  0.49905083  0.49943994  -0.00364504  1
  Fe  Fe13  1  0.37033091  0.87972750  0.62293111  1
  Fe  Fe14  1  0.74813096  -0.00121759  0.25243152  1
  Fe  Fe15  1  0.49823290  0.24485211  0.49982241  1
  Fe  Fe16  1  0.74929347  0.50193489  0.00174131  1
  Fe  Fe17  1  0.49783998  0.00064055  0.74856966  1
  Fe  Fe18  1  0.87555893  0.12315173  0.87403961  1
  Fe  Fe19  1  0.12890118  0.12209715  0.62519658  1
  Fe  Fe20  1  0.87719240  0.37556312  0.12626819  1
  Fe  Fe21  1  0.00426590  0.49989957  0.50010715  1
  Fe  Fe22  1  0.12450772  0.37522007  0.87623655  1
  Fe  Fe23  1  0.87532044  0.62580462  0.62355926  1
  Fe  Fe24  1  0.87533438  0.12335487  0.12757853  1
  Fe  Fe25  1  0.37345934  0.62297797  0.12591744  1
  Fe  Fe26  1  0.25174737  0.25247009  0.49583629  1
  Fe  Fe27  1  0.62418015  0.62411049  0.87100721  1
  Fe  Fe28  1  -0.00021800  0.75286174  0.74707469  1
  Fe  Fe29  1  0.37451675  0.87584758  0.37823998  1
  Fe  Fe30  1  0.00043814  0.25061805  0.74859866  1
  Fe  Fe31  1  0.87697596  0.62599866  0.37577837  1
  Fe  Fe32  1  0.74912566  0.74842235  0.00064768  1
  Fe  Fe33  1  0.75150583  -0.00458725  0.74649175  1
  Fe  Fe34  1  0.74858211  0.24683382  0.49859126  1
  Fe  Fe35  1  0.37544348  0.87521480  0.87662748  1
  Fe  Fe36  1  0.50000846  -0.00074704  0.25102104  1
  Fe  Fe37  1  0.87444307  0.12442022  0.37404977  1
  Fe  Fe38  1  0.75015278  0.25284525  0.74889344  1
  Fe  Fe39  1  0.12850509  0.62469632  0.62424512  1
  Fe  Fe40  1  0.37528176  0.87564442  0.12309104  1
  Fe  Fe41  1  0.37348114  0.37633617  0.12404630  1
  Fe  Fe42  1  0.50103392  0.50361740  0.50435833  1
  Fe  Fe43  1  0.75164441  0.74907224  0.25113608  1
  Fe  Fe44  1  0.37125742  0.62379604  0.37803008  1
  Fe  Fe45  1  0.87798377  0.37334465  0.37514317  1
  Fe  Fe46  1  -0.00091987  -0.00301478  0.74925398  1
  Fe  Fe47  1  0.37492731  0.12606029  0.87395998  1
  Fe  Fe48  1  0.24901800  0.25039926  0.75087366  1
  Fe  Fe49  1  0.62324557  0.37344702  0.37668036  1
  Fe  Fe50  1  0.00086847  0.24730164  0.00276504  1
  Fe  Fe51  1  0.49749768  0.24999324  0.25189547  1
  Fe  Fe52  1  0.62370184  0.87481892  0.87387535  1
  Fe  Fe53  1  0.74863357  0.49701585  0.74751193  1
  Fe  Fe54  1  0.74967971  -0.00016453  -0.00129952  1
  Fe  Fe55  1  0.87526696  0.12195064  0.62348061  1
  Fe  Fe56  1  0.62596075  0.12535639  0.87206890  1
  Fe  Fe57  1  0.50022284  0.00604359  0.50125072  1
  Fe  Fe58  1  0.00101075  0.49866959  0.74796237  1
  Fe  Fe59  1  0.00320589  -0.00179231  0.25130446  1
  Fe  Fe60  1  0.37221538  0.12442250  0.12829437  1
  Fe  Fe61  1  0.62449814  0.87408677  0.37929360  1
  Fe  Fe62  1  0.12304823  0.12304508  0.87456206  1
  Fe  Fe63  1  0.87654662  0.37480081  0.62207219  1
  Fe  Fe64  1  0.24997904  0.74807407  0.00124478  1
  Fe  Fe65  1  0.62490926  0.62714059  0.37542494  1
  Fe  Fe66  1  0.00046074  0.74759196  0.00284968  1
  Fe  Fe67  1  0.12262357  0.87531643  0.87692354  1
  Fe  Fe68  1  0.50052281  0.25400051  0.75028817  1
  Fe  Fe69  1  0.00188773  0.24731639  0.50036488  1
  Fe  Fe70  1  0.37472645  0.62299424  0.87122294  1
  Fe  Fe71  1  0.74955739  0.50145740  0.49952086  1
  Fe  Fe72  1  0.50093867  0.50115855  0.25087551  1
  Fe  Fe73  1  0.12594002  0.62469421  0.87380406  1
  Fe  Fe74  1  0.00177975  0.50077199  0.24978094  1
  Fe  Fe75  1  0.50063313  0.00190472  -0.00002448  1
  Fe  Fe76  1  0.87671833  0.37561826  0.87637237  1
  Fe  Fe77  1  0.87479566  0.62551161  0.87349530  1
  Fe  Fe78  1  0.12838263  0.12877812  0.37051406  1
  Fe  Fe79  1  0.49803457  0.74988103  0.74564007  1
  Fe  Fe80  1  0.87602138  0.87556585  0.12359865  1
  Fe  Fe81  1  0.24853020  0.49572248  0.25355098  1
  Fe  Fe82  1  0.24823885  0.24976697  0.00132139  1
  Fe  Fe83  1  0.24958604  0.75328519  0.74839877  1
  Fe  Fe84  1  0.49931548  0.25016855  -0.00104047  1
  Fe  Fe85  1  0.62410449  0.87285032  0.12572479  1
  Fe  Fe86  1  0.24796420  0.00041327  -0.00027497  1
  Fe  Fe87  1  0.12739584  0.63012618  0.37201168  1
  Fe  Fe88  1  0.00316626  0.50292432  0.00213610  1
  Fe  Fe89  1  0.87522014  0.87683553  0.38097325  1
  Co  Co90  1  0.12520432  0.37443180  0.12557270  1
  Co  Co91  1  0.37248387  0.12321219  0.37149972  1
  Co  Co92  1  0.24993252  0.75151041  0.50211701  1
  Co  Co93  1  0.50069060  0.49614910  0.74896069  1
  Co  Co94  1  0.75016171  0.74837128  0.50072451  1
  Co  Co95  1  0.12752632  0.62744258  0.13068599  1
  Co  Co96  1  0.62446656  0.12592130  0.37145715  1
  Co  Co97  1  0.12667688  0.87005402  0.37329676  1
  Co  Co98  1  0.25359729  0.25677663  0.25246846  1
  Co  Co99  1  0.87675886  0.87330955  0.87771355  1
  Co  Co100  1  0.25612229  0.75260819  0.24980404  1
  Co  Co101  1  0.12835927  0.12518778  0.12959326  1
  Co  Co102  1  0.74607827  0.00387116  0.50080745  1
  Co  Co103  1  0.11982896  0.37167590  0.37429047  1
  Co  Co104  1  0.24542933  0.49750100  0.49650232  1
  Co  Co105  1  0.62510536  0.12594073  0.62896454  1
  Co  Co106  1  0.37057780  0.12545109  0.62638088  1
  Co  Co107  1  0.12718065  0.87982030  0.62494417  1
  Co  Co108  1  0.24732170  0.00065819  0.49544454  1
  Co  Co109  1  0.62745644  0.37480587  0.87756846  1
  Co  Co110  1  0.62680731  0.62594876  0.62720606  1
  Co  Co111  1  0.75061316  0.25254326  0.25048806  1
  Co  Co112  1  0.62314207  0.62558975  0.12610142  1
  Co  Co113  1  0.25048809  -0.00100691  0.75502265  1
  Co  Co114  1  0.62462275  0.37327593  0.62000548  1
  Co  Co115  1  0.38041539  0.37826501  0.37812039  1
  Co  Co116  1  0.12473042  0.87199761  0.12540953  1
  Co  Co117  1  0.87570111  0.62455153  0.12602268  1
  Co  Co118  1  0.87743288  0.87696303  0.61702493  1
  Co  Co119  1  0.24861449  0.50156151  0.00021115  1
  Co  Co120  1  0.62245233  0.87532679  0.62100951  1
  Co  Co121  1  0.12578601  0.37328488  0.62421717  1
  Co  Co122  1  -0.00436294  0.75264007  0.25034042  1
  Co  Co123  1  -0.00123078  0.24872087  0.24802185  1
  Co  Co124  1  0.00075929  0.00172161  0.00209063  1
  Co  Co125  1  0.00619321  0.00217829  0.49612250  1
  Co  Co126  1  0.37105669  0.37463264  0.87473576  1
  Co  Co127  1  0.36972819  0.62142164  0.62581682  1
