# generated using pymatgen
data_Fe45Co19
_symmetry_space_group_name_H-M   'P 1'
_cell_length_a   11.41613517
_cell_length_b   11.41472850
_cell_length_c   11.41483574
_cell_angle_alpha   89.98272624
_cell_angle_beta   89.99633232
_cell_angle_gamma   89.98980704
_symmetry_Int_Tables_number   1
_chemical_formula_structural   Fe45Co19
_chemical_formula_sum   'Fe90 Co38'
_cell_volume   1487.49093405
_cell_formula_units_Z   2
loop_
 _symmetry_equiv_pos_site_id
 _symmetry_equiv_pos_as_xyz
  1  'x, y, z'
loop_
 _atom_site_type_symbol
 _atom_site_label
 _atom_site_symmetry_multiplicity
 _atom_site_fract_x
 _atom_site_fract_y
 _atom_site_fract_z
 _atom_site_occupancy
  Fe  Fe0  1  -0.00029759  0.75165187  0.49923691  1
  Fe  Fe1  1  0.37483185  0.62740256  0.12800141  1
  Fe  Fe2  1  0.37210673  0.37391247  0.37693033  1
  Fe  Fe3  1  0.24853911  0.24496323  0.50662880  1
  Fe  Fe4  1  0.25182371  0.00131198  -0.00025544  1
  Fe  Fe5  1  0.50044934  0.50051131  0.49754821  1
  Fe  Fe6  1  0.36838941  0.87279611  0.37999046  1
  Fe  Fe7  1  0.74927293  0.75061639  0.74800434  1
  Fe  Fe8  1  0.74935229  0.24850907  0.74927106  1
  Fe  Fe9  1  0.00075071  0.25008546  -0.00253155  1
  Fe  Fe10  1  0.12440004  0.12351163  0.87235807  1
  Fe  Fe11  1  0.00087982  0.75296192  -0.00224544  1
  Fe  Fe12  1  0.00087477  -0.00277393  -0.00326729  1
  Fe  Fe13  1  0.49977826  0.75382304  0.00116678  1
  Fe  Fe14  1  0.37315035  0.37443391  0.62572049  1
  Fe  Fe15  1  0.12855178  0.87678264  0.37921708  1
  Fe  Fe16  1  0.87845713  0.62215669  0.62611738  1
  Fe  Fe17  1  0.24978464  0.50369659  0.50178543  1
  Fe  Fe18  1  0.37379406  0.62710610  0.37334954  1
  Fe  Fe19  1  0.74670888  -0.00153874  0.74873613  1
  Fe  Fe20  1  0.62301975  0.12353196  0.37266322  1
  Fe  Fe21  1  0.87701831  0.12349032  0.12460629  1
  Fe  Fe22  1  0.12820253  0.87769722  0.62316559  1
  Fe  Fe23  1  0.87093811  0.87555134  0.62031573  1
  Fe  Fe24  1  0.12505102  0.62419945  0.37264957  1
  Fe  Fe25  1  0.61867959  0.12410917  0.12866639  1
  Fe  Fe26  1  0.75081202  0.50335682  0.49968377  1
  Fe  Fe27  1  0.49908349  0.50192904  0.75118658  1
  Fe  Fe28  1  0.87775151  0.12483202  0.62527831  1
  Fe  Fe29  1  0.62298176  0.62795323  0.87554292  1
  Fe  Fe30  1  0.62621449  0.37668247  0.62458423  1
  Fe  Fe31  1  0.62155181  0.62810314  0.62322533  1
  Fe  Fe32  1  0.87219281  0.37362802  0.12244783  1
  Fe  Fe33  1  0.62149273  0.12466735  0.62541994  1
  Fe  Fe34  1  -0.00130702  -0.00442495  0.75050063  1
  Fe  Fe35  1  0.12759391  0.37517247  0.37667097  1
  Fe  Fe36  1  0.12625422  0.37436097  0.12488227  1
  Fe  Fe37  1  0.38010413  0.12410647  0.87290891  1
  Fe  Fe38  1  -0.00148715  0.25120115  0.25059867  1
  Fe  Fe39  1  0.25187594  0.24659457  -0.00085829  1
  Fe  Fe40  1  -0.00161885  -0.00302876  0.25272404  1
  Fe  Fe41  1  0.62710377  0.37413339  0.87790507  1
  Fe  Fe42  1  -0.00151805  0.50057095  -0.00141986  1
  Fe  Fe43  1  0.63290256  0.87555579  0.37918016  1
  Fe  Fe44  1  0.62369548  0.62644544  0.12741478  1
  Fe  Fe45  1  0.74986073  0.74877245  0.00192188  1
  Fe  Fe46  1  0.75133368  0.50105681  0.24764148  1
  Fe  Fe47  1  0.75125507  0.75072781  0.24982989  1
  Fe  Fe48  1  0.24957433  0.75039144  0.00112966  1
  Fe  Fe49  1  0.25088986  0.24802626  0.24975141  1
  Fe  Fe50  1  0.50094855  0.25296758  0.75105444  1
  Fe  Fe51  1  -0.00075757  0.49745787  0.24969183  1
  Fe  Fe52  1  0.37431476  0.37352105  0.12521893  1
  Fe  Fe53  1  0.25112700  0.00014744  0.25093269  1
  Fe  Fe54  1  0.74489776  0.00295441  -0.00037959  1
  Fe  Fe55  1  0.74962618  0.24821439  0.50011506  1
  Fe  Fe56  1  0.50046448  0.49994083  0.00069644  1
  Fe  Fe57  1  0.62816341  0.37566102  0.37363273  1
  Fe  Fe58  1  0.49911825  -0.00415797  0.50075126  1
  Fe  Fe59  1  0.86982320  0.37464426  0.87718138  1
  Fe  Fe60  1  0.25107830  0.74680708  0.74840268  1
  Fe  Fe61  1  0.25257877  0.00354855  0.74434795  1
  Fe  Fe62  1  -0.00060295  0.25555726  0.50303546  1
  Fe  Fe63  1  0.37253331  0.37552508  0.87300602  1
  Fe  Fe64  1  0.50048633  0.75510148  0.25316287  1
  Fe  Fe65  1  0.87480551  0.12340645  0.87366805  1
  Fe  Fe66  1  0.50196998  0.25211810  0.49882806  1
  Fe  Fe67  1  0.12373804  0.12394974  0.12543858  1
  Fe  Fe68  1  0.37755936  0.12553614  0.37525221  1
  Fe  Fe69  1  -0.00088026  0.75514492  0.75188666  1
  Fe  Fe70  1  0.38054927  0.12155601  0.12694977  1
  Fe  Fe71  1  0.00095464  0.25494018  0.74868070  1
  Fe  Fe72  1  0.87562082  0.12419367  0.37550291  1
  Fe  Fe73  1  0.49903098  0.49796128  0.25062287  1
  Fe  Fe74  1  0.12435628  0.62433242  0.87324818  1
  Fe  Fe75  1  0.50267843  -0.00793804  0.74815286  1
  Fe  Fe76  1  0.12319023  0.12375360  0.37788382  1
  Fe  Fe77  1  0.87519121  0.62675360  0.87507599  1
  Fe  Fe78  1  0.25134126  0.50253283  0.00044441  1
  Fe  Fe79  1  0.11941757  0.62072054  0.62736341  1
  Fe  Fe80  1  0.12448704  0.62509080  0.12683532  1
  Fe  Fe81  1  0.74899957  0.50243679  0.75086039  1
  Fe  Fe82  1  0.13076281  0.37663374  0.87082453  1
  Fe  Fe83  1  0.12671018  0.87678671  0.12446095  1
  Fe  Fe84  1  0.87342710  0.87592974  0.12363865  1
  Fe  Fe85  1  0.87673068  0.62464413  0.37357262  1
  Fe  Fe86  1  0.62705996  0.37181955  0.12371863  1
  Fe  Fe87  1  -0.00036882  0.75395911  0.25102289  1
  Fe  Fe88  1  0.38025239  0.62961357  0.62259007  1
  Fe  Fe89  1  0.37368680  0.87358312  0.87412034  1
  Co  Co90  1  0.75234519  0.74284903  0.50051283  1
  Co  Co91  1  0.49909198  0.25356005  0.25139131  1
  Co  Co92  1  0.24540809  0.74416414  0.50332724  1
  Co  Co93  1  0.37779112  0.62779936  0.87804469  1
  Co  Co94  1  0.25543885  0.50716612  0.74793653  1
  Co  Co95  1  0.86935480  0.87565119  0.87735822  1
  Co  Co96  1  0.24961274  0.24429463  0.74679547  1
  Co  Co97  1  0.75003499  0.00594975  0.50228565  1
  Co  Co98  1  0.37335836  0.87069291  0.62262724  1
  Co  Co99  1  0.13059025  0.87647160  0.87286658  1
  Co  Co100  1  0.87105959  0.37521525  0.37489985  1
  Co  Co101  1  0.87687044  0.62683715  0.12533516  1
  Co  Co102  1  0.38431165  0.12658575  0.62591786  1
  Co  Co103  1  0.86952215  0.87526063  0.37770024  1
  Co  Co104  1  0.62488122  0.62405846  0.37272576  1
  Co  Co105  1  0.50196681  0.75217819  0.49444323  1
  Co  Co106  1  0.62742491  0.87117608  0.61965264  1
  Co  Co107  1  0.49920491  -0.00815375  0.25498547  1
  Co  Co108  1  0.49894120  0.25050029  -0.00111408  1
  Co  Co109  1  0.75035605  0.00161552  0.24850842  1
  Co  Co110  1  0.74902486  0.50393227  0.00065633  1
  Co  Co111  1  0.25319770  0.00632509  0.50437952  1
  Co  Co112  1  0.24827586  0.75212688  0.24843701  1
  Co  Co113  1  -0.00338655  0.49553029  0.75408753  1
  Co  Co114  1  0.74806128  0.24290418  0.00072756  1
  Co  Co115  1  0.50246368  -0.00358094  -0.00235678  1
  Co  Co116  1  -0.00041075  0.49735808  0.49809139  1
  Co  Co117  1  0.62128737  0.12527648  0.87175467  1
  Co  Co118  1  -0.00194348  -0.00343245  0.49876932  1
  Co  Co119  1  0.12895086  0.37922533  0.62759742  1
  Co  Co120  1  0.11749395  0.12232481  0.62515473  1
  Co  Co121  1  0.25076623  0.49907829  0.24972994  1
  Co  Co122  1  0.50082459  0.75316852  0.74997100  1
  Co  Co123  1  0.62633490  0.87530271  0.12557612  1
  Co  Co124  1  0.62734929  0.87120058  0.87605373  1
  Co  Co125  1  0.37434727  0.87658888  0.12408193  1
  Co  Co126  1  0.87115286  0.37754600  0.62444530  1
  Co  Co127  1  0.75047313  0.24658951  0.24916995  1
