# generated using pymatgen
data_Fe45Co19
_symmetry_space_group_name_H-M   'P 1'
_cell_length_a   11.41650946
_cell_length_b   11.41552496
_cell_length_c   11.41479304
_cell_angle_alpha   90.00125013
_cell_angle_beta   89.99592241
_cell_angle_gamma   90.00147905
_symmetry_Int_Tables_number   1
_chemical_formula_structural   Fe45Co19
_chemical_formula_sum   'Fe90 Co38'
_cell_volume   1487.63802052
_cell_formula_units_Z   2
loop_
 _symmetry_equiv_pos_site_id
 _symmetry_equiv_pos_as_xyz
  1  'x, y, z'
loop_
 _atom_site_type_symbol
 _atom_site_label
 _atom_site_symmetry_multiplicity
 _atom_site_fract_x
 _atom_site_fract_y
 _atom_site_fract_z
 _atom_site_occupancy
  Fe  Fe0  1  0.62459450  0.37696924  0.87385084  1
  Fe  Fe1  1  0.12774633  0.87584531  0.62786877  1
  Fe  Fe2  1  0.00024408  0.75113338  0.75079980  1
  Fe  Fe3  1  0.87473859  0.62507856  0.12275741  1
  Fe  Fe4  1  0.62777562  0.37589084  0.37353284  1
  Fe  Fe5  1  0.62730693  0.62792900  0.12403159  1
  Fe  Fe6  1  0.12355741  0.37484140  0.12754556  1
  Fe  Fe7  1  0.62280019  0.12569833  0.62684315  1
  Fe  Fe8  1  0.50220149  0.74991307  0.49855531  1
  Fe  Fe9  1  0.49470758  0.74483250  0.75549472  1
  Fe  Fe10  1  0.87323544  0.12182614  0.87843692  1
  Fe  Fe11  1  0.24943833  0.49979569  0.24967248  1
  Fe  Fe12  1  0.49820915  0.25229847  0.00042155  1
  Fe  Fe13  1  0.74879963  0.24800731  0.50093637  1
  Fe  Fe14  1  0.00140681  0.24921857  -0.00118529  1
  Fe  Fe15  1  0.00009095  0.00152336  0.50190668  1
  Fe  Fe16  1  0.25448089  0.24983663  0.74842542  1
  Fe  Fe17  1  -0.00309344  0.50216434  0.25208848  1
  Fe  Fe18  1  0.25034203  0.74975180  0.25028490  1
  Fe  Fe19  1  0.87282241  0.87478541  0.37767192  1
  Fe  Fe20  1  0.37666481  0.87444682  0.12546219  1
  Fe  Fe21  1  0.49983002  0.74969334  -0.00426136  1
  Fe  Fe22  1  0.87400960  0.87481230  0.62451938  1
  Fe  Fe23  1  0.74954038  0.24813802  0.75250018  1
  Fe  Fe24  1  0.62654981  0.37300370  0.12595634  1
  Fe  Fe25  1  0.62165078  0.62388445  0.62645784  1
  Fe  Fe26  1  0.37591761  0.87560955  0.37357595  1
  Fe  Fe27  1  0.87746006  0.62918335  0.62036489  1
  Fe  Fe28  1  -0.00007116  0.00242776  0.75001876  1
  Fe  Fe29  1  0.25658805  0.00251315  0.75043391  1
  Fe  Fe30  1  0.25231335  0.50429996  0.74424782  1
  Fe  Fe31  1  0.49757700  0.25043610  0.75139568  1
  Fe  Fe32  1  0.00018523  0.75085845  -0.00356221  1
  Fe  Fe33  1  0.12367556  0.87580571  0.12627141  1
  Fe  Fe34  1  0.74650729  -0.00111134  0.50293395  1
  Fe  Fe35  1  0.37369944  0.62165569  0.12121354  1
  Fe  Fe36  1  0.74872508  -0.00013975  0.75133054  1
  Fe  Fe37  1  0.75173353  0.50140039  0.74883684  1
  Fe  Fe38  1  0.49836157  0.25079529  0.25075721  1
  Fe  Fe39  1  0.49799688  0.74829275  0.25068511  1
  Fe  Fe40  1  0.74681438  -0.00042181  0.24537965  1
  Fe  Fe41  1  0.37393065  0.38076413  0.87893249  1
  Fe  Fe42  1  0.12728538  0.87595789  0.87262243  1
  Fe  Fe43  1  0.24995338  0.25223683  0.00271435  1
  Fe  Fe44  1  0.24852339  0.24884215  0.50058603  1
  Fe  Fe45  1  0.37741798  0.37698182  0.62187588  1
  Fe  Fe46  1  0.25091286  -0.00052040  0.00088956  1
  Fe  Fe47  1  0.62370988  0.12414170  0.37317542  1
  Fe  Fe48  1  -0.00138615  0.75111116  0.25251169  1
  Fe  Fe49  1  0.62488600  0.87465064  0.37244649  1
  Fe  Fe50  1  0.00259090  0.50004694  -0.00142999  1
  Fe  Fe51  1  -0.00068583  0.50079506  0.74639314  1
  Fe  Fe52  1  0.25352745  0.00098282  0.50068845  1
  Fe  Fe53  1  0.12647214  0.87707420  0.37362244  1
  Fe  Fe54  1  0.87543680  0.37008184  0.62385348  1
  Fe  Fe55  1  -0.00099081  0.24759580  0.25079926  1
  Fe  Fe56  1  0.87697610  0.87730916  0.12168503  1
  Fe  Fe57  1  0.62153545  0.12259484  0.87793137  1
  Fe  Fe58  1  0.37617867  0.87275526  0.62717418  1
  Fe  Fe59  1  0.37533470  0.12481393  0.12819687  1
  Fe  Fe60  1  0.75143674  0.24839551  0.24836400  1
  Fe  Fe61  1  0.24930490  0.74847298  0.50284399  1
  Fe  Fe62  1  0.12311132  0.62463637  0.37856947  1
  Fe  Fe63  1  0.50058184  0.24975426  0.49831550  1
  Fe  Fe64  1  0.87478611  0.37516232  0.12373953  1
  Fe  Fe65  1  0.12877165  0.12625170  0.87366083  1
  Fe  Fe66  1  0.12374901  0.37567321  0.37761284  1
  Fe  Fe67  1  0.75004894  0.50151014  0.50029387  1
  Fe  Fe68  1  0.12670121  0.62474249  0.87309746  1
  Fe  Fe69  1  0.37459634  0.62319263  0.37779238  1
  Fe  Fe70  1  0.75119483  0.74993625  0.75266719  1
  Fe  Fe71  1  -0.00015863  0.24606027  0.74732051  1
  Fe  Fe72  1  0.87470839  0.37426430  0.37638907  1
  Fe  Fe73  1  0.75303820  0.75007878  0.25086714  1
  Fe  Fe74  1  0.62710395  0.62464431  0.37341488  1
  Fe  Fe75  1  0.37324938  0.37592544  0.37554732  1
  Fe  Fe76  1  0.49908179  0.00056914  0.50018894  1
  Fe  Fe77  1  0.87394253  0.12365567  0.37648775  1
  Fe  Fe78  1  0.87646561  0.37540851  0.87451323  1
  Fe  Fe79  1  0.12532097  0.12303370  0.12813846  1
  Fe  Fe80  1  0.87376780  0.12252874  0.12075282  1
  Fe  Fe81  1  0.12611167  0.37511775  0.87077945  1
  Fe  Fe82  1  0.50118291  0.50005239  0.24876341  1
  Fe  Fe83  1  0.62124311  0.87395355  0.62997536  1
  Fe  Fe84  1  0.74859132  0.49913871  -0.00097032  1
  Fe  Fe85  1  0.25054234  0.75082690  -0.00279498  1
  Fe  Fe86  1  0.12712960  0.12301180  0.37292411  1
  Fe  Fe87  1  0.12476620  0.62671136  0.12555031  1
  Fe  Fe88  1  0.75018705  0.75403543  -0.00608512  1
  Fe  Fe89  1  0.62416469  0.37561619  0.62589424  1
  Co  Co90  1  0.37615955  0.87714863  0.87482249  1
  Co  Co91  1  0.37246676  0.61896962  0.88101239  1
  Co  Co92  1  0.00190009  0.24604374  0.50122140  1
  Co  Co93  1  0.87663068  0.87861661  0.87504725  1
  Co  Co94  1  0.12484769  0.37369990  0.62566736  1
  Co  Co95  1  0.24928664  0.50155703  0.50330350  1
  Co  Co96  1  0.62280119  0.86847694  0.12643780  1
  Co  Co97  1  0.12150570  0.62685679  0.62295170  1
  Co  Co98  1  0.25213404  -0.00325303  0.24875307  1
  Co  Co99  1  0.12870115  0.12349392  0.62671768  1
  Co  Co100  1  0.62626799  0.62378362  0.87373080  1
  Co  Co101  1  0.37416625  0.12503883  0.37266012  1
  Co  Co102  1  0.50198739  -0.00059993  0.24842248  1
  Co  Co103  1  -0.00220520  -0.00079159  0.25091369  1
  Co  Co104  1  0.87205030  0.12464496  0.62503428  1
  Co  Co105  1  0.49551102  0.00401496  0.74910227  1
  Co  Co106  1  0.50284893  0.49913341  0.49725834  1
  Co  Co107  1  0.24933170  0.25278108  0.24951269  1
  Co  Co108  1  0.87516188  0.62757497  0.37929798  1
  Co  Co109  1  0.37649743  0.12768013  0.62230488  1
  Co  Co110  1  0.38001235  0.62536530  0.62056613  1
  Co  Co111  1  0.87591372  0.62341619  0.87569340  1
  Co  Co112  1  0.49754413  0.50009544  0.75098074  1
  Co  Co113  1  -0.00223627  0.49730447  0.50151994  1
  Co  Co114  1  0.24370182  0.49799401  0.00195951  1
  Co  Co115  1  0.00434863  0.00106066  -0.00206792  1
  Co  Co116  1  0.74439479  0.75026194  0.50172953  1
  Co  Co117  1  0.75114820  0.50104688  0.24925161  1
  Co  Co118  1  0.50551073  0.49986064  0.00226193  1
  Co  Co119  1  0.75025352  0.25168071  -0.00261322  1
  Co  Co120  1  0.74355218  -0.00472474  0.00114539  1
  Co  Co121  1  0.25378332  0.74551862  0.74998396  1
  Co  Co122  1  0.37482179  0.37822155  0.12451793  1
  Co  Co123  1  0.00339560  0.75599944  0.49910486  1
  Co  Co124  1  0.62418069  0.12928100  0.12316200  1
  Co  Co125  1  0.37614043  0.12482102  0.87960299  1
  Co  Co126  1  0.62007859  0.87646170  0.87059005  1
  Co  Co127  1  0.50193973  -0.00203525  0.00469975  1
