# generated using pymatgen
data_Fe45Co19
_symmetry_space_group_name_H-M   'P 1'
_cell_length_a   11.41502448
_cell_length_b   11.41509867
_cell_length_c   11.41507289
_cell_angle_alpha   89.99841152
_cell_angle_beta   90.00297898
_cell_angle_gamma   90.00587336
_symmetry_Int_Tables_number   1
_chemical_formula_structural   Fe45Co19
_chemical_formula_sum   'Fe90 Co38'
_cell_volume   1487.42543324
_cell_formula_units_Z   2
loop_
 _symmetry_equiv_pos_site_id
 _symmetry_equiv_pos_as_xyz
  1  'x, y, z'
loop_
 _atom_site_type_symbol
 _atom_site_label
 _atom_site_symmetry_multiplicity
 _atom_site_fract_x
 _atom_site_fract_y
 _atom_site_fract_z
 _atom_site_occupancy
  Fe  Fe0  1  0.74782393  -0.00177557  0.00074273  1
  Fe  Fe1  1  0.12155230  0.37533771  0.37696902  1
  Fe  Fe2  1  0.62656106  0.87604181  0.37708940  1
  Fe  Fe3  1  0.12336198  0.12475873  0.37434665  1
  Fe  Fe4  1  0.37717823  0.37944982  0.87682316  1
  Fe  Fe5  1  0.12058561  0.37554958  0.62833375  1
  Fe  Fe6  1  0.49999599  0.25090359  0.24978748  1
  Fe  Fe7  1  0.37616175  0.37557116  0.37777128  1
  Fe  Fe8  1  0.12515690  0.12207373  0.87135320  1
  Fe  Fe9  1  -0.00032563  -0.00158079  0.24804439  1
  Fe  Fe10  1  -0.00525178  0.25173047  0.25231705  1
  Fe  Fe11  1  0.25116817  0.49874604  0.25006798  1
  Fe  Fe12  1  0.87587234  0.37704716  0.87701117  1
  Fe  Fe13  1  0.63001274  0.12376687  0.37321503  1
  Fe  Fe14  1  0.75289771  0.49667138  0.24813844  1
  Fe  Fe15  1  0.00064150  0.00016152  -0.00105541  1
  Fe  Fe16  1  0.62353050  0.37474225  0.12436553  1
  Fe  Fe17  1  0.00044604  0.74915924  0.49911445  1
  Fe  Fe18  1  0.24782497  0.74859812  0.50037316  1
  Fe  Fe19  1  0.37515549  0.62502571  0.62595167  1
  Fe  Fe20  1  0.87556094  0.12717021  0.62816256  1
  Fe  Fe21  1  0.37563727  0.37438932  0.12103123  1
  Fe  Fe22  1  0.12244765  0.62361580  0.63084071  1
  Fe  Fe23  1  0.62422669  0.62359134  0.37373050  1
  Fe  Fe24  1  0.24963902  -0.00080247  0.24944556  1
  Fe  Fe25  1  0.12485643  0.87628804  0.62969071  1
  Fe  Fe26  1  0.87156760  0.87063224  0.62556873  1
  Fe  Fe27  1  0.24707593  0.25049101  0.50122351  1
  Fe  Fe28  1  -0.00062005  0.00109003  0.50224001  1
  Fe  Fe29  1  0.87368928  0.12400930  0.87384158  1
  Fe  Fe30  1  0.62569671  0.12804332  0.62751381  1
  Fe  Fe31  1  0.12392625  0.37427311  0.12231280  1
  Fe  Fe32  1  0.49996429  0.50227393  0.50121731  1
  Fe  Fe33  1  0.50202156  0.00150200  0.50197262  1
  Fe  Fe34  1  0.00214726  0.25020568  -0.00381460  1
  Fe  Fe35  1  0.50026390  0.74608968  -0.00250380  1
  Fe  Fe36  1  0.74801431  0.25135765  -0.00160595  1
  Fe  Fe37  1  0.50091547  0.74887884  0.75145952  1
  Fe  Fe38  1  0.37569133  0.12821440  0.62526962  1
  Fe  Fe39  1  0.37512968  0.62321014  0.12525307  1
  Fe  Fe40  1  -0.00059699  0.75175781  0.25017470  1
  Fe  Fe41  1  0.37655556  0.12658183  0.87723993  1
  Fe  Fe42  1  0.25051922  0.74959123  0.75261636  1
  Fe  Fe43  1  0.87339396  0.87917663  0.37609274  1
  Fe  Fe44  1  0.37559843  0.87521484  0.12282260  1
  Fe  Fe45  1  0.75148353  0.75142349  0.25069353  1
  Fe  Fe46  1  0.25050206  0.00150518  0.00038267  1
  Fe  Fe47  1  0.62814864  0.62837639  0.62536662  1
  Fe  Fe48  1  0.75284137  0.50283133  0.50150733  1
  Fe  Fe49  1  0.87273400  0.12688490  0.12605690  1
  Fe  Fe50  1  0.49995997  0.00033854  0.24839427  1
  Fe  Fe51  1  0.37461560  0.12634748  0.37556151  1
  Fe  Fe52  1  0.75071552  -0.00262645  0.75040912  1
  Fe  Fe53  1  0.62452984  0.62431485  0.12764512  1
  Fe  Fe54  1  0.50242261  0.25405812  0.75290825  1
  Fe  Fe55  1  0.62523552  0.12469837  0.87385893  1
  Fe  Fe56  1  0.62519625  0.62040174  0.87237082  1
  Fe  Fe57  1  0.24913451  0.25267992  0.75290025  1
  Fe  Fe58  1  0.75368456  0.49969155  0.74710589  1
  Fe  Fe59  1  0.12473252  0.12496474  0.62937233  1
  Fe  Fe60  1  0.62469035  0.12668592  0.12485309  1
  Fe  Fe61  1  0.00370401  0.74597686  -0.00463308  1
  Fe  Fe62  1  0.12513892  0.62433951  0.37231884  1
  Fe  Fe63  1  0.24754010  0.50073376  0.50241853  1
  Fe  Fe64  1  0.49924139  -0.00076945  0.75009301  1
  Fe  Fe65  1  0.24830410  0.00066926  0.50184789  1
  Fe  Fe66  1  0.25075615  0.25129015  0.24884117  1
  Fe  Fe67  1  0.37517612  0.87419289  0.62435548  1
  Fe  Fe68  1  0.74774301  0.75010768  -0.00361225  1
  Fe  Fe69  1  0.37556088  0.87490499  0.87623350  1
  Fe  Fe70  1  0.62605182  0.37602016  0.37612931  1
  Fe  Fe71  1  0.24717558  0.74619377  -0.00298927  1
  Fe  Fe72  1  0.12577400  0.12743679  0.12568161  1
  Fe  Fe73  1  0.12519514  0.87315581  0.12328525  1
  Fe  Fe74  1  0.37455414  0.87428405  0.37841350  1
  Fe  Fe75  1  0.24584567  0.50270330  -0.00202827  1
  Fe  Fe76  1  0.62247771  0.87321353  0.12314738  1
  Fe  Fe77  1  0.75311301  0.24755768  0.49814144  1
  Fe  Fe78  1  0.87632130  0.62292530  0.37519862  1
  Fe  Fe79  1  0.49798213  0.74836253  0.25251100  1
  Fe  Fe80  1  0.87596934  0.62548495  0.12240539  1
  Fe  Fe81  1  0.74910787  0.49925992  0.00255758  1
  Fe  Fe82  1  0.87547477  0.87281770  0.12070856  1
  Fe  Fe83  1  0.37673557  0.37359355  0.62369032  1
  Fe  Fe84  1  0.62580284  0.37318461  0.62435116  1
  Fe  Fe85  1  -0.00214849  0.49768373  0.24705011  1
  Fe  Fe86  1  0.87884205  0.37317757  0.62177728  1
  Fe  Fe87  1  0.25034477  0.75089233  0.25108601  1
  Fe  Fe88  1  -0.00438032  0.74981034  0.75568700  1
  Fe  Fe89  1  0.62759039  0.87086457  0.62497322  1
  Co  Co90  1  0.50055524  0.74820347  0.49966960  1
  Co  Co91  1  0.00341894  0.50266315  0.00036641  1
  Co  Co92  1  0.50213968  0.50184007  0.00106863  1
  Co  Co93  1  0.12589488  0.87761856  0.87340218  1
  Co  Co94  1  0.62333541  0.87636923  0.87433888  1
  Co  Co95  1  0.24763877  0.25043595  -0.00322098  1
  Co  Co96  1  0.87470190  0.62955272  0.62438648  1
  Co  Co97  1  0.37307025  0.62379911  0.37640138  1
  Co  Co98  1  0.75150347  0.25309449  0.75082459  1
  Co  Co99  1  0.75172678  0.25467144  0.25029086  1
  Co  Co100  1  -0.00417186  -0.00207350  0.74929097  1
  Co  Co101  1  0.87240538  0.62128822  0.87884106  1
  Co  Co102  1  0.25261878  0.49721591  0.74857288  1
  Co  Co103  1  -0.00702411  0.50105543  0.74980690  1
  Co  Co104  1  0.00181060  0.50405741  0.50212573  1
  Co  Co105  1  0.74945783  -0.00398733  0.24401671  1
  Co  Co106  1  0.50246894  0.25158610  -0.00158958  1
  Co  Co107  1  0.87201317  0.12070187  0.37166046  1
  Co  Co108  1  0.49987770  0.00118341  0.00019214  1
  Co  Co109  1  0.87668218  0.37359406  0.11962204  1
  Co  Co110  1  0.12455091  0.87546095  0.37585077  1
  Co  Co111  1  0.75145910  0.74917105  0.75607717  1
  Co  Co112  1  0.25435241  0.00081138  0.75057733  1
  Co  Co113  1  0.37609838  0.62218342  0.87265574  1
  Co  Co114  1  0.87427542  0.87620137  0.87795015  1
  Co  Co115  1  0.49853980  0.49865286  0.24982407  1
  Co  Co116  1  -0.00062928  0.24553735  0.49915693  1
  Co  Co117  1  0.75112870  0.74831500  0.49497720  1
  Co  Co118  1  0.50283722  0.24859830  0.49830601  1
  Co  Co119  1  0.00030857  0.25039450  0.75339889  1
  Co  Co120  1  0.12285338  0.37984246  0.87251270  1
  Co  Co121  1  0.50161790  0.49957785  0.74579282  1
  Co  Co122  1  0.75017941  0.00136856  0.50534377  1
  Co  Co123  1  0.12453949  0.62529743  0.12916735  1
  Co  Co124  1  0.12511992  0.62123465  0.86835222  1
  Co  Co125  1  0.62655196  0.37918431  0.87381245  1
  Co  Co126  1  0.37475823  0.12682810  0.12473219  1
  Co  Co127  1  0.87604218  0.37700236  0.37986202  1
