# generated using pymatgen
data_Fe45Co19
_symmetry_space_group_name_H-M   'P 1'
_cell_length_a   11.41559074
_cell_length_b   11.41519439
_cell_length_c   11.41598494
_cell_angle_alpha   90.00076463
_cell_angle_beta   89.99575325
_cell_angle_gamma   90.00025390
_symmetry_Int_Tables_number   1
_chemical_formula_structural   Fe45Co19
_chemical_formula_sum   'Fe90 Co38'
_cell_volume   1487.63054836
_cell_formula_units_Z   2
loop_
 _symmetry_equiv_pos_site_id
 _symmetry_equiv_pos_as_xyz
  1  'x, y, z'
loop_
 _atom_site_type_symbol
 _atom_site_label
 _atom_site_symmetry_multiplicity
 _atom_site_fract_x
 _atom_site_fract_y
 _atom_site_fract_z
 _atom_site_occupancy
  Fe  Fe0  1  0.25153071  0.50172575  0.74971415  1
  Fe  Fe1  1  0.50305695  0.00221181  0.49765190  1
  Fe  Fe2  1  -0.00018796  0.49929924  0.75062213  1
  Fe  Fe3  1  0.12317264  0.62286316  0.37341830  1
  Fe  Fe4  1  0.12307451  0.12416215  0.37485185  1
  Fe  Fe5  1  0.24773029  0.24781826  0.50111530  1
  Fe  Fe6  1  0.87643336  0.12666977  0.87268222  1
  Fe  Fe7  1  0.50013496  0.74849126  0.50021207  1
  Fe  Fe8  1  0.25080253  0.00255068  0.00117064  1
  Fe  Fe9  1  0.12368696  0.37586333  0.12212978  1
  Fe  Fe10  1  0.87397444  0.87150023  0.37210144  1
  Fe  Fe11  1  0.12341275  0.62194239  0.12561284  1
  Fe  Fe12  1  0.49915366  0.00100825  0.75017695  1
  Fe  Fe13  1  0.62717682  0.87329000  0.87421797  1
  Fe  Fe14  1  0.37140307  0.87571172  0.62130069  1
  Fe  Fe15  1  0.12497717  0.62704545  0.62510114  1
  Fe  Fe16  1  0.25124381  0.00175833  0.24990905  1
  Fe  Fe17  1  0.50211205  0.74936360  0.24981309  1
  Fe  Fe18  1  -0.00160544  0.25547385  0.25137138  1
  Fe  Fe19  1  0.00255443  0.75654638  0.75182514  1
  Fe  Fe20  1  0.25009946  0.75186669  0.74812554  1
  Fe  Fe21  1  0.50022219  0.25417888  0.25118919  1
  Fe  Fe22  1  0.87456721  0.12730750  0.37389368  1
  Fe  Fe23  1  0.12373924  0.12310929  0.87449142  1
  Fe  Fe24  1  0.50313071  0.24844405  0.50096187  1
  Fe  Fe25  1  0.75117061  -0.00098258  0.75084412  1
  Fe  Fe26  1  0.49961583  0.50060108  0.50004427  1
  Fe  Fe27  1  0.12610279  0.62631620  0.87599569  1
  Fe  Fe28  1  0.62594014  0.87553868  0.62476822  1
  Fe  Fe29  1  0.87907664  0.37379138  0.62294667  1
  Fe  Fe30  1  0.37388245  0.12811213  0.87481914  1
  Fe  Fe31  1  0.49655024  0.49752259  -0.00528207  1
  Fe  Fe32  1  0.37582354  0.12448380  0.62553397  1
  Fe  Fe33  1  0.37364413  0.62438563  0.37587998  1
  Fe  Fe34  1  0.49876172  0.25300260  -0.00218757  1
  Fe  Fe35  1  0.62534289  0.12668497  0.87361201  1
  Fe  Fe36  1  0.37691677  0.12694124  0.37391713  1
  Fe  Fe37  1  0.75129042  0.49959711  0.74959641  1
  Fe  Fe38  1  0.74971907  0.74905986  0.49959303  1
  Fe  Fe39  1  0.37636455  0.37549315  0.62657765  1
  Fe  Fe40  1  0.37355135  0.87418988  0.87608612  1
  Fe  Fe41  1  0.50001298  0.49710072  0.25218861  1
  Fe  Fe42  1  0.12451705  0.37486108  0.87541305  1
  Fe  Fe43  1  0.37521417  0.87550330  0.12635366  1
  Fe  Fe44  1  0.12215290  0.37572723  0.62194441  1
  Fe  Fe45  1  0.24780478  0.75006406  0.25118285  1
  Fe  Fe46  1  0.75197511  0.50056820  0.50033838  1
  Fe  Fe47  1  0.24957012  0.50095687  0.49999540  1
  Fe  Fe48  1  0.12464928  0.87607980  0.12489314  1
  Fe  Fe49  1  0.74873178  0.24948789  0.50045481  1
  Fe  Fe50  1  0.12047493  0.11625577  0.62550720  1
  Fe  Fe51  1  0.49838998  0.74751554  0.74830780  1
  Fe  Fe52  1  0.87745940  0.62765356  0.62630461  1
  Fe  Fe53  1  0.62298082  0.37632166  0.62699558  1
  Fe  Fe54  1  0.24649372  0.24750348  0.74804177  1
  Fe  Fe55  1  0.74934497  0.25150032  0.74891198  1
  Fe  Fe56  1  0.37442016  0.87514628  0.37554812  1
  Fe  Fe57  1  0.75228848  0.49983366  -0.00150989  1
  Fe  Fe58  1  0.87623910  0.62332758  0.37144287  1
  Fe  Fe59  1  0.00348021  0.75235931  0.49810589  1
  Fe  Fe60  1  0.62468272  0.12674789  0.12794361  1
  Fe  Fe61  1  0.25048031  0.74918740  0.00281302  1
  Fe  Fe62  1  -0.00266209  -0.00107113  -0.00226604  1
  Fe  Fe63  1  0.62519478  0.62526170  0.87392395  1
  Fe  Fe64  1  0.62524206  0.87548674  0.12668717  1
  Fe  Fe65  1  0.75234338  0.25651287  0.24997253  1
  Fe  Fe66  1  0.74940184  0.74660059  0.00426707  1
  Fe  Fe67  1  0.62457500  0.62417516  0.62634713  1
  Fe  Fe68  1  0.12239616  0.12587904  0.12498542  1
  Fe  Fe69  1  0.25312562  0.49815574  -0.00130287  1
  Fe  Fe70  1  0.24985583  0.49581317  0.25143140  1
  Fe  Fe71  1  0.37635942  0.12760061  0.12542230  1
  Fe  Fe72  1  0.74778320  -0.00012116  0.25071524  1
  Fe  Fe73  1  0.87761728  0.12372816  0.62684455  1
  Fe  Fe74  1  0.74917732  0.00065874  0.49790083  1
  Fe  Fe75  1  -0.00078716  -0.00136286  0.25107316  1
  Fe  Fe76  1  0.87503902  0.87447273  0.62524992  1
  Fe  Fe77  1  0.87771386  0.62074383  0.12962967  1
  Fe  Fe78  1  0.37613273  0.62308851  0.12543690  1
  Fe  Fe79  1  0.62738235  0.62430394  0.37346571  1
  Fe  Fe80  1  0.50047523  0.74949661  0.00121831  1
  Fe  Fe81  1  -0.00032539  0.74991048  0.00055903  1
  Fe  Fe82  1  0.75022542  0.00278844  0.00074934  1
  Fe  Fe83  1  0.87434553  0.87520195  0.12518992  1
  Fe  Fe84  1  0.24889248  0.25326185  0.25049229  1
  Fe  Fe85  1  0.50064670  0.00061359  0.00053318  1
  Fe  Fe86  1  -0.00235559  0.25101517  -0.00039789  1
  Fe  Fe87  1  0.75286238  0.25068053  0.00133976  1
  Fe  Fe88  1  0.62528401  0.37782658  0.12300523  1
  Fe  Fe89  1  0.87555400  0.62713595  0.87268289  1
  Co  Co90  1  0.62707372  0.37473281  0.87426201  1
  Co  Co91  1  0.25133794  0.00373722  0.49635158  1
  Co  Co92  1  0.50175317  0.24888679  0.74971606  1
  Co  Co93  1  0.37427093  0.37349877  0.37936129  1
  Co  Co94  1  0.37301486  0.62749705  0.87565340  1
  Co  Co95  1  0.62530632  0.87329850  0.37511538  1
  Co  Co96  1  0.86924796  0.87180650  0.87788351  1
  Co  Co97  1  0.87575833  0.12489447  0.12776522  1
  Co  Co98  1  0.37334177  0.62450687  0.62296943  1
  Co  Co99  1  0.00126995  0.24570415  0.50088281  1
  Co  Co100  1  0.50007850  -0.00035292  0.25047993  1
  Co  Co101  1  0.12898648  0.87514363  0.87794915  1
  Co  Co102  1  0.74784036  0.74740284  0.24687651  1
  Co  Co103  1  0.37196536  0.37099328  0.86939437  1
  Co  Co104  1  0.62558073  0.37529650  0.37789342  1
  Co  Co105  1  0.87581365  0.37362701  0.87334816  1
  Co  Co106  1  0.00241166  0.75097035  0.24945121  1
  Co  Co107  1  0.62212336  0.61950153  0.12503546  1
  Co  Co108  1  -0.00219494  -0.00635710  0.75405061  1
  Co  Co109  1  0.25186470  0.00093524  0.75172884  1
  Co  Co110  1  0.12769341  0.87934351  0.62196913  1
  Co  Co111  1  -0.00411881  -0.00148498  0.49700609  1
  Co  Co112  1  -0.00144861  0.50143980  -0.00366405  1
  Co  Co113  1  0.00115643  0.49445032  0.25190228  1
  Co  Co114  1  0.12660963  0.87844280  0.37556439  1
  Co  Co115  1  0.74897395  0.74897252  0.74787746  1
  Co  Co116  1  0.37455307  0.37487416  0.12515437  1
  Co  Co117  1  -0.00036054  0.50421257  0.50146216  1
  Co  Co118  1  0.00269846  0.25102104  0.74871804  1
  Co  Co119  1  0.12376283  0.37495537  0.38063112  1
  Co  Co120  1  0.87704406  0.37874804  0.12253204  1
  Co  Co121  1  0.87718666  0.37589869  0.38116716  1
  Co  Co122  1  0.62692394  0.12298992  0.62655780  1
  Co  Co123  1  0.24899560  0.24986678  0.00052044  1
  Co  Co124  1  0.62649137  0.12717397  0.37177661  1
  Co  Co125  1  0.24640665  0.74826827  0.49787004  1
  Co  Co126  1  0.49833030  0.50217424  0.75277147  1
  Co  Co127  1  0.75004872  0.49643065  0.25127767  1
