# generated using pymatgen
data_Fe45Co19
_symmetry_space_group_name_H-M   'P 1'
_cell_length_a   11.41513919
_cell_length_b   11.41536207
_cell_length_c   11.41564150
_cell_angle_alpha   90.00464650
_cell_angle_beta   89.98846876
_cell_angle_gamma   89.98981962
_symmetry_Int_Tables_number   1
_chemical_formula_structural   Fe45Co19
_chemical_formula_sum   'Fe90 Co38'
_cell_volume   1487.54874901
_cell_formula_units_Z   2
loop_
 _symmetry_equiv_pos_site_id
 _symmetry_equiv_pos_as_xyz
  1  'x, y, z'
loop_
 _atom_site_type_symbol
 _atom_site_label
 _atom_site_symmetry_multiplicity
 _atom_site_fract_x
 _atom_site_fract_y
 _atom_site_fract_z
 _atom_site_occupancy
  Fe  Fe0  1  0.00021278  0.50455024  0.50423793  1
  Fe  Fe1  1  0.87736179  0.62377809  0.87568183  1
  Fe  Fe2  1  0.12536778  0.12819800  0.12536214  1
  Fe  Fe3  1  0.00363463  0.74826361  0.74868115  1
  Fe  Fe4  1  -0.00185297  0.74909699  0.24726699  1
  Fe  Fe5  1  0.62451801  0.62592578  0.37689356  1
  Fe  Fe6  1  0.00005207  0.49999391  0.24796767  1
  Fe  Fe7  1  0.62459843  0.12528885  0.12578931  1
  Fe  Fe8  1  0.74941624  0.75123733  0.75418507  1
  Fe  Fe9  1  0.74922158  0.25112615  0.49882755  1
  Fe  Fe10  1  0.87393550  0.12406379  0.12485106  1
  Fe  Fe11  1  0.74767382  0.50125377  0.25006402  1
  Fe  Fe12  1  0.62631409  0.62700151  0.62494229  1
  Fe  Fe13  1  0.37773593  0.87934069  0.87593317  1
  Fe  Fe14  1  0.00142418  0.25009351  0.74877119  1
  Fe  Fe15  1  0.87497256  0.87437023  0.37345026  1
  Fe  Fe16  1  0.00744310  0.50323835  0.74628843  1
  Fe  Fe17  1  0.62490836  0.62752885  0.12102098  1
  Fe  Fe18  1  0.24938750  0.50123275  0.50054598  1
  Fe  Fe19  1  0.74559777  -0.00102307  0.25265245  1
  Fe  Fe20  1  0.49702416  0.24631945  0.75007232  1
  Fe  Fe21  1  0.12405567  0.87361317  0.37660884  1
  Fe  Fe22  1  0.87722834  0.12400503  0.87509979  1
  Fe  Fe23  1  0.25093177  0.00059799  0.00179436  1
  Fe  Fe24  1  0.36989854  0.62831425  0.62662932  1
  Fe  Fe25  1  0.87515883  0.12292269  0.37572841  1
  Fe  Fe26  1  0.00202150  -0.00060178  0.74856906  1
  Fe  Fe27  1  0.25225342  0.49683005  0.00054450  1
  Fe  Fe28  1  0.12673694  0.87557071  0.12606681  1
  Fe  Fe29  1  0.37684314  0.62236807  0.37322983  1
  Fe  Fe30  1  0.49792553  0.75057171  0.24855491  1
  Fe  Fe31  1  0.50144515  0.25160255  0.50030407  1
  Fe  Fe32  1  0.75355995  0.74851593  0.50040961  1
  Fe  Fe33  1  0.49778421  0.49892910  0.00074072  1
  Fe  Fe34  1  0.75256958  0.74880713  0.24680132  1
  Fe  Fe35  1  0.87458352  0.37739289  0.62676705  1
  Fe  Fe36  1  0.12838199  0.37410045  0.87255375  1
  Fe  Fe37  1  0.74867872  0.50064941  0.75077845  1
  Fe  Fe38  1  0.25019229  -0.00109002  0.74842586  1
  Fe  Fe39  1  0.13065805  0.86912129  0.62075110  1
  Fe  Fe40  1  0.12378618  0.87543841  0.87791004  1
  Fe  Fe41  1  0.62290841  0.37427481  0.12569145  1
  Fe  Fe42  1  0.37469865  0.12135974  0.62180586  1
  Fe  Fe43  1  0.75110290  0.49736670  -0.00126173  1
  Fe  Fe44  1  0.37618321  0.87904007  0.37507736  1
  Fe  Fe45  1  0.49819317  0.75391796  0.74768352  1
  Fe  Fe46  1  0.37458961  0.62471113  0.12567790  1
  Fe  Fe47  1  0.62589184  0.37501055  0.62591011  1
  Fe  Fe48  1  0.12251634  0.62710939  0.37684813  1
  Fe  Fe49  1  -0.00004959  0.25148773  0.24980441  1
  Fe  Fe50  1  -0.00120968  0.49541407  0.00118198  1
  Fe  Fe51  1  0.87367751  0.37858370  0.37573648  1
  Fe  Fe52  1  0.62870367  0.12118787  0.62545131  1
  Fe  Fe53  1  0.25251340  0.75083149  -0.00056397  1
  Fe  Fe54  1  0.00119332  0.00054356  0.24820611  1
  Fe  Fe55  1  0.74927971  0.25048892  0.25253628  1
  Fe  Fe56  1  0.87852341  0.87660687  0.87649080  1
  Fe  Fe57  1  0.50010290  0.24978847  0.25284681  1
  Fe  Fe58  1  0.25459198  0.25247675  0.00004168  1
  Fe  Fe59  1  -0.00276124  0.75181831  0.00395777  1
  Fe  Fe60  1  0.62201963  0.12172939  0.87393908  1
  Fe  Fe61  1  0.37015349  0.37466882  0.62817024  1
  Fe  Fe62  1  0.12663194  0.12511862  0.87563514  1
  Fe  Fe63  1  0.62286068  0.62702481  0.87704438  1
  Fe  Fe64  1  0.50026487  0.49929832  0.50163201  1
  Fe  Fe65  1  0.62057679  0.87632530  0.87658199  1
  Fe  Fe66  1  0.62347137  0.87286771  0.12224489  1
  Fe  Fe67  1  0.87179897  0.87570985  0.62638992  1
  Fe  Fe68  1  0.87224064  0.12149410  0.62470095  1
  Fe  Fe69  1  0.24986672  0.24654181  0.49580140  1
  Fe  Fe70  1  0.00029705  -0.00226618  0.50101896  1
  Fe  Fe71  1  0.49836357  0.75163404  0.50221468  1
  Fe  Fe72  1  0.75113768  0.25232543  -0.00219845  1
  Fe  Fe73  1  0.62167683  0.37429371  0.87305548  1
  Fe  Fe74  1  -0.00163839  0.25209226  0.00029512  1
  Fe  Fe75  1  -0.00118080  0.25019235  0.50059753  1
  Fe  Fe76  1  0.49676176  0.24949959  -0.00230964  1
  Fe  Fe77  1  0.37441697  0.62343497  0.87312347  1
  Fe  Fe78  1  0.12498683  0.62452955  0.12256410  1
  Fe  Fe79  1  0.50586895  -0.00389509  0.50045434  1
  Fe  Fe80  1  0.25028163  0.74938994  0.25169202  1
  Fe  Fe81  1  0.12473035  0.37431308  0.37554722  1
  Fe  Fe82  1  0.49893522  0.50060099  0.74800124  1
  Fe  Fe83  1  0.75029385  -0.00115448  -0.00159086  1
  Fe  Fe84  1  0.37621467  0.12425341  0.12829442  1
  Fe  Fe85  1  0.24912298  0.00388047  0.25396067  1
  Fe  Fe86  1  0.37622545  0.37575751  0.37242443  1
  Fe  Fe87  1  0.12592082  0.12562122  0.62324618  1
  Fe  Fe88  1  0.24859977  0.49867818  0.24870275  1
  Fe  Fe89  1  0.75061110  0.24900381  0.75135421  1
  Co  Co90  1  0.12758204  0.37212808  0.62311953  1
  Co  Co91  1  0.13104507  0.63346754  0.62036373  1
  Co  Co92  1  0.24402275  0.50409548  0.74833382  1
  Co  Co93  1  0.37432054  0.12095886  0.87422028  1
  Co  Co94  1  0.36984106  0.87506085  0.62144972  1
  Co  Co95  1  0.24667141  0.00293901  0.49672952  1
  Co  Co96  1  0.87502488  0.62420526  0.37318272  1
  Co  Co97  1  0.75113282  -0.00109752  0.75524601  1
  Co  Co98  1  0.87666884  0.37615600  0.86988303  1
  Co  Co99  1  0.25008598  0.75186424  0.75631254  1
  Co  Co100  1  0.25066926  0.24796355  0.25380192  1
  Co  Co101  1  0.38139580  0.12215449  0.37658615  1
  Co  Co102  1  0.25132251  0.24609165  0.74886456  1
  Co  Co103  1  0.87254885  0.62535919  0.62906202  1
  Co  Co104  1  0.87485222  0.62242238  0.12244966  1
  Co  Co105  1  0.49861884  -0.00179159  0.74503177  1
  Co  Co106  1  0.50418035  -0.00267546  0.25009319  1
  Co  Co107  1  0.62581807  0.86802426  0.37509970  1
  Co  Co108  1  -0.00480124  0.74938720  0.50122945  1
  Co  Co109  1  0.87382802  0.87922673  0.12589516  1
  Co  Co110  1  0.50319024  0.50275302  0.24878770  1
  Co  Co111  1  0.62295883  0.12643989  0.37643577  1
  Co  Co112  1  0.75333573  0.75244946  -0.00195265  1
  Co  Co113  1  0.12637920  0.37295152  0.12575160  1
  Co  Co114  1  0.49502294  0.74979425  0.00068162  1
  Co  Co115  1  0.25497721  0.74873009  0.49203643  1
  Co  Co116  1  0.00117465  0.00154487  0.00206768  1
  Co  Co117  1  0.74847813  -0.00161303  0.49512558  1
  Co  Co118  1  0.37753350  0.37420630  0.12965202  1
  Co  Co119  1  0.49920713  0.00190143  0.00424645  1
  Co  Co120  1  0.87315169  0.37432429  0.12748663  1
  Co  Co121  1  0.12371114  0.62545722  0.88090680  1
  Co  Co122  1  0.63026486  0.87489246  0.62604234  1
  Co  Co123  1  0.37427130  0.37653149  0.86933200  1
  Co  Co124  1  0.74891776  0.50097019  0.50083422  1
  Co  Co125  1  0.37307348  0.87653843  0.12772790  1
  Co  Co126  1  0.11982795  0.12596916  0.37519955  1
  Co  Co127  1  0.62389466  0.37669937  0.37522061  1
