# generated using pymatgen
data_Fe45Co19
_symmetry_space_group_name_H-M   'P 1'
_cell_length_a   11.41541379
_cell_length_b   11.41560143
_cell_length_c   11.41561286
_cell_angle_alpha   89.99508968
_cell_angle_beta   89.99931427
_cell_angle_gamma   89.99753020
_symmetry_Int_Tables_number   1
_chemical_formula_structural   Fe45Co19
_chemical_formula_sum   'Fe90 Co38'
_cell_volume   1487.61204387
_cell_formula_units_Z   2
loop_
 _symmetry_equiv_pos_site_id
 _symmetry_equiv_pos_as_xyz
  1  'x, y, z'
loop_
 _atom_site_type_symbol
 _atom_site_label
 _atom_site_symmetry_multiplicity
 _atom_site_fract_x
 _atom_site_fract_y
 _atom_site_fract_z
 _atom_site_occupancy
  Fe  Fe0  1  0.50098613  0.49746592  0.49631243  1
  Fe  Fe1  1  0.00235993  0.24712665  0.74466199  1
  Fe  Fe2  1  0.37530639  0.62663201  0.37820618  1
  Fe  Fe3  1  0.12600528  0.62720704  0.37639564  1
  Fe  Fe4  1  0.87616715  0.12638554  0.87467114  1
  Fe  Fe5  1  0.00130742  -0.00222343  0.49925376  1
  Fe  Fe6  1  0.37569265  0.87441639  0.87094606  1
  Fe  Fe7  1  0.12498993  0.87202474  0.87170493  1
  Fe  Fe8  1  -0.00103744  0.25059719  0.00178146  1
  Fe  Fe9  1  0.49881974  0.74728947  0.24931307  1
  Fe  Fe10  1  0.49800674  0.25344260  0.49987984  1
  Fe  Fe11  1  0.74976526  0.74679398  0.24958329  1
  Fe  Fe12  1  0.62271051  0.87118453  0.37388744  1
  Fe  Fe13  1  0.87403990  0.37666509  0.62434083  1
  Fe  Fe14  1  -0.00103240  0.75228518  0.50239089  1
  Fe  Fe15  1  0.87367093  0.87518936  0.37432378  1
  Fe  Fe16  1  0.62825025  0.37522868  0.36926946  1
  Fe  Fe17  1  -0.00043150  0.49973893  0.25093891  1
  Fe  Fe18  1  0.62493866  0.87605012  0.12548081  1
  Fe  Fe19  1  0.87451735  0.37344414  0.87388564  1
  Fe  Fe20  1  0.74749174  0.49991725  0.49787698  1
  Fe  Fe21  1  0.24837103  0.49694117  0.49965227  1
  Fe  Fe22  1  0.12581030  0.13094599  0.37893568  1
  Fe  Fe23  1  0.12547325  0.62872655  0.87658919  1
  Fe  Fe24  1  0.25097849  0.74815041  0.24705832  1
  Fe  Fe25  1  0.62481979  0.87240829  0.87161835  1
  Fe  Fe26  1  0.25581711  0.75344775  0.50571691  1
  Fe  Fe27  1  0.37680686  0.12577422  0.37338750  1
  Fe  Fe28  1  0.74721746  0.00013296  0.49782449  1
  Fe  Fe29  1  0.12550149  0.37113779  0.87384391  1
  Fe  Fe30  1  0.75074739  0.75041413  0.50160117  1
  Fe  Fe31  1  0.86812968  0.37305129  0.12836902  1
  Fe  Fe32  1  0.87624023  0.12312123  0.62191543  1
  Fe  Fe33  1  0.62425474  0.12538202  0.12448014  1
  Fe  Fe34  1  0.24805082  0.00457027  0.75205502  1
  Fe  Fe35  1  0.25083509  0.24752449  0.00546970  1
  Fe  Fe36  1  0.00335550  0.49431981  0.49719471  1
  Fe  Fe37  1  0.62766198  0.37398064  0.87565844  1
  Fe  Fe38  1  0.74896494  0.00197104  0.74918996  1
  Fe  Fe39  1  0.87535006  0.12399690  0.12648559  1
  Fe  Fe40  1  0.50047711  0.50128037  0.75398545  1
  Fe  Fe41  1  0.25389684  -0.00198374  0.49915819  1
  Fe  Fe42  1  0.62544953  0.37486913  0.62565091  1
  Fe  Fe43  1  0.37050691  0.37307234  0.37231056  1
  Fe  Fe44  1  0.12845874  0.87189596  0.37480295  1
  Fe  Fe45  1  0.62107236  0.62537730  0.62224737  1
  Fe  Fe46  1  0.37185793  0.62561824  0.87862370  1
  Fe  Fe47  1  0.49991264  0.25014984  0.74974444  1
  Fe  Fe48  1  0.75031018  0.00040327  -0.00148032  1
  Fe  Fe49  1  0.74724346  0.00409346  0.25403077  1
  Fe  Fe50  1  0.00012276  0.74986710  0.24986093  1
  Fe  Fe51  1  0.62373133  0.61932382  0.12349087  1
  Fe  Fe52  1  0.12611497  0.87587411  0.12522919  1
  Fe  Fe53  1  0.12460092  0.62432549  0.62429387  1
  Fe  Fe54  1  0.62133792  0.87322617  0.62838560  1
  Fe  Fe55  1  0.62889524  0.62631744  0.87747347  1
  Fe  Fe56  1  0.37527891  0.87846272  0.12733121  1
  Fe  Fe57  1  -0.00124262  0.50295352  0.75151195  1
  Fe  Fe58  1  0.24905607  0.24726652  0.74606784  1
  Fe  Fe59  1  0.24805383  0.00441444  0.24980222  1
  Fe  Fe60  1  0.75176980  0.24834962  0.49550290  1
  Fe  Fe61  1  0.49997169  0.75054760  -0.00049505  1
  Fe  Fe62  1  0.50040281  0.25394594  0.00272880  1
  Fe  Fe63  1  0.12403170  0.87591136  0.62885463  1
  Fe  Fe64  1  0.37247443  0.37313472  0.87662709  1
  Fe  Fe65  1  0.00004120  0.75276209  0.00054992  1
  Fe  Fe66  1  0.12599938  0.62518391  0.12234158  1
  Fe  Fe67  1  0.62253833  0.12614795  0.62222849  1
  Fe  Fe68  1  0.24924502  0.50201844  0.75136683  1
  Fe  Fe69  1  0.37715597  0.12319093  0.62529173  1
  Fe  Fe70  1  0.49833510  -0.00489874  0.49859417  1
  Fe  Fe71  1  0.24961476  0.50120658  0.25043028  1
  Fe  Fe72  1  0.49931005  0.25315955  0.24629502  1
  Fe  Fe73  1  0.37503616  0.62008530  0.12030278  1
  Fe  Fe74  1  0.62401053  0.12729138  0.87630832  1
  Fe  Fe75  1  0.75168449  0.50204923  0.75058550  1
  Fe  Fe76  1  0.24974816  0.00268149  -0.00022742  1
  Fe  Fe77  1  0.87473795  0.87330670  0.87262368  1
  Fe  Fe78  1  0.37534512  0.37866172  0.62730725  1
  Fe  Fe79  1  0.00070279  -0.00026036  -0.00204744  1
  Fe  Fe80  1  0.87368331  0.87684778  0.12715311  1
  Fe  Fe81  1  0.12701820  0.37410111  0.12839990  1
  Fe  Fe82  1  0.74963418  0.24831277  0.74894116  1
  Fe  Fe83  1  0.87411158  0.62571763  0.12092155  1
  Fe  Fe84  1  0.87613021  0.62430420  0.37772649  1
  Fe  Fe85  1  0.49963492  -0.00037217  -0.00273776  1
  Fe  Fe86  1  0.75504183  0.74669155  0.74618849  1
  Fe  Fe87  1  0.00011851  0.49728330  -0.00001072  1
  Fe  Fe88  1  -0.00218977  0.25074345  0.25380081  1
  Fe  Fe89  1  0.00307753  -0.00083319  0.25287596  1
  Co  Co90  1  0.61756756  0.12669673  0.37716959  1
  Co  Co91  1  0.37805715  0.61900871  0.62183173  1
  Co  Co92  1  0.50308686  0.00475723  0.75252772  1
  Co  Co93  1  0.87454988  0.62635598  0.88055297  1
  Co  Co94  1  0.00136427  0.00234164  0.75158320  1
  Co  Co95  1  0.75198837  0.50586084  0.25049858  1
  Co  Co96  1  0.12927050  0.37078167  0.37173125  1
  Co  Co97  1  0.24534703  0.49723537  -0.00140474  1
  Co  Co98  1  0.49712845  0.74372123  0.75062463  1
  Co  Co99  1  0.74850960  0.75276048  0.00245693  1
  Co  Co100  1  0.12033846  0.12539925  0.12444699  1
  Co  Co101  1  0.12424584  0.12879041  0.87787421  1
  Co  Co102  1  0.87628273  0.62014107  0.61932953  1
  Co  Co103  1  0.25268397  0.24622923  0.24511935  1
  Co  Co104  1  0.74930274  0.24940221  -0.00001455  1
  Co  Co105  1  0.25238000  0.25150549  0.50457666  1
  Co  Co106  1  0.37378653  0.87419595  0.36806178  1
  Co  Co107  1  0.49468686  0.75477103  0.50130202  1
  Co  Co108  1  0.62254665  0.62748053  0.37688377  1
  Co  Co109  1  0.88002449  0.12263618  0.37712576  1
  Co  Co110  1  0.87570375  0.87943564  0.62530775  1
  Co  Co111  1  0.50163472  0.49723238  -0.00410729  1
  Co  Co112  1  0.87199306  0.37752442  0.37438919  1
  Co  Co113  1  0.12501130  0.12241436  0.61972975  1
  Co  Co114  1  0.12611738  0.37690526  0.62747856  1
  Co  Co115  1  0.37787441  0.87945295  0.63387635  1
  Co  Co116  1  0.50334535  -0.00067198  0.25162517  1
  Co  Co117  1  0.75127429  0.49670269  -0.00081794  1
  Co  Co118  1  0.37358647  0.38021801  0.12339051  1
  Co  Co119  1  -0.00375877  0.74671423  0.74728759  1
  Co  Co120  1  0.37537165  0.12826879  0.87623278  1
  Co  Co121  1  0.49702604  0.49975961  0.25320975  1
  Co  Co122  1  0.25122528  0.75387394  0.00181418  1
  Co  Co123  1  -0.00028190  0.25508869  0.50145680  1
  Co  Co124  1  0.74945745  0.24348807  0.25401526  1
  Co  Co125  1  0.37960024  0.12140055  0.12557210  1
  Co  Co126  1  0.62888744  0.37794525  0.12849905  1
  Co  Co127  1  0.25232210  0.74723824  0.74566348  1
