# generated using pymatgen
data_Fe45Co19
_symmetry_space_group_name_H-M   'P 1'
_cell_length_a   11.41508519
_cell_length_b   11.41559439
_cell_length_c   11.41620147
_cell_angle_alpha   90.00563818
_cell_angle_beta   90.00800976
_cell_angle_gamma   90.00581650
_symmetry_Int_Tables_number   1
_chemical_formula_structural   Fe45Co19
_chemical_formula_sum   'Fe90 Co38'
_cell_volume   1487.64498449
_cell_formula_units_Z   2
loop_
 _symmetry_equiv_pos_site_id
 _symmetry_equiv_pos_as_xyz
  1  'x, y, z'
loop_
 _atom_site_type_symbol
 _atom_site_label
 _atom_site_symmetry_multiplicity
 _atom_site_fract_x
 _atom_site_fract_y
 _atom_site_fract_z
 _atom_site_occupancy
  Fe  Fe0  1  0.25186781  0.75065962  0.25078909  1
  Fe  Fe1  1  0.75302377  0.75006233  0.00394848  1
  Fe  Fe2  1  0.75003086  0.49944422  -0.00184776  1
  Fe  Fe3  1  0.24854531  0.74889536  -0.00033587  1
  Fe  Fe4  1  0.00177441  0.00063561  0.75183886  1
  Fe  Fe5  1  0.24767504  -0.00165733  -0.00327009  1
  Fe  Fe6  1  0.12823305  0.12636498  0.62417757  1
  Fe  Fe7  1  0.62357821  0.87314938  0.12608376  1
  Fe  Fe8  1  0.74974229  0.49870868  0.25193019  1
  Fe  Fe9  1  0.62155990  0.37454959  0.87687509  1
  Fe  Fe10  1  0.00129932  0.49983671  0.49834616  1
  Fe  Fe11  1  0.00215638  -0.00033833  -0.00230427  1
  Fe  Fe12  1  0.00246307  0.74703342  0.74685874  1
  Fe  Fe13  1  0.49828320  -0.00183517  0.25118982  1
  Fe  Fe14  1  0.86995703  0.12171002  0.62563953  1
  Fe  Fe15  1  0.74959614  0.50090676  0.49976494  1
  Fe  Fe16  1  0.87483915  0.12606881  0.37507025  1
  Fe  Fe17  1  0.74810349  0.24756438  0.50013337  1
  Fe  Fe18  1  0.74978334  0.25152289  0.24856787  1
  Fe  Fe19  1  0.49934460  0.50276112  0.74995083  1
  Fe  Fe20  1  0.37423462  0.12690710  0.37546101  1
  Fe  Fe21  1  0.62477452  0.37624633  0.62550325  1
  Fe  Fe22  1  0.62698533  0.62486429  0.12705869  1
  Fe  Fe23  1  0.25028023  0.25180937  -0.00106997  1
  Fe  Fe24  1  0.37557858  0.62660253  0.37656332  1
  Fe  Fe25  1  0.37374705  0.12263343  0.62615899  1
  Fe  Fe26  1  0.87530335  0.12320501  0.12353814  1
  Fe  Fe27  1  0.87515814  0.12713345  0.87588774  1
  Fe  Fe28  1  0.37476619  0.37670331  0.62515612  1
  Fe  Fe29  1  -0.00021866  0.24910789  0.74841567  1
  Fe  Fe30  1  0.00178521  0.25190096  0.00048616  1
  Fe  Fe31  1  0.00147120  0.00189058  0.49966748  1
  Fe  Fe32  1  0.62412359  0.12544500  0.12453192  1
  Fe  Fe33  1  0.49837352  0.74698627  0.00168681  1
  Fe  Fe34  1  0.37626158  0.37677580  0.87608822  1
  Fe  Fe35  1  0.37465012  0.87588137  0.12453417  1
  Fe  Fe36  1  0.50191536  -0.00120825  -0.00378648  1
  Fe  Fe37  1  0.87686555  0.37244640  0.37609109  1
  Fe  Fe38  1  0.25002321  -0.00106889  0.25307127  1
  Fe  Fe39  1  0.50213265  0.00133634  0.49891246  1
  Fe  Fe40  1  0.87692927  0.87175334  0.87515802  1
  Fe  Fe41  1  0.87605754  0.37806930  0.12475229  1
  Fe  Fe42  1  0.12495906  0.87444205  0.12442194  1
  Fe  Fe43  1  0.62220257  0.37324765  0.37468636  1
  Fe  Fe44  1  0.24720675  -0.00072623  0.75239758  1
  Fe  Fe45  1  0.87381142  0.87889574  0.62427998  1
  Fe  Fe46  1  0.00212715  0.00037809  0.25109939  1
  Fe  Fe47  1  0.74916644  0.25079272  0.75097167  1
  Fe  Fe48  1  0.50054593  0.50097431  0.50077036  1
  Fe  Fe49  1  0.37227655  0.62407064  0.87359509  1
  Fe  Fe50  1  0.62334161  0.87220511  0.37281242  1
  Fe  Fe51  1  0.12798418  0.37771878  0.12810990  1
  Fe  Fe52  1  0.74884222  0.25204634  0.00055535  1
  Fe  Fe53  1  0.12744113  0.12529361  0.12430996  1
  Fe  Fe54  1  0.00005532  0.24938193  0.24845419  1
  Fe  Fe55  1  0.37039115  0.62144795  0.12541995  1
  Fe  Fe56  1  0.12740209  0.13065811  0.37715460  1
  Fe  Fe57  1  0.37479280  0.12516812  0.87520670  1
  Fe  Fe58  1  0.37362760  0.12329730  0.12362893  1
  Fe  Fe59  1  0.37480263  0.87320820  0.87383278  1
  Fe  Fe60  1  0.62575526  0.62723231  0.87382769  1
  Fe  Fe61  1  0.87518942  0.87485304  0.37516781  1
  Fe  Fe62  1  0.00165501  0.50240343  -0.00238009  1
  Fe  Fe63  1  0.49836109  0.25115587  0.24667855  1
  Fe  Fe64  1  0.00088977  0.74937421  0.50368271  1
  Fe  Fe65  1  0.50116284  0.75022445  0.50370754  1
  Fe  Fe66  1  0.37463603  0.87845027  0.62443056  1
  Fe  Fe67  1  0.75130757  0.50041304  0.75085297  1
  Fe  Fe68  1  0.12555587  0.87329116  0.37668205  1
  Fe  Fe69  1  0.12575032  0.37522214  0.87166650  1
  Fe  Fe70  1  0.00381509  0.50197294  0.25331085  1
  Fe  Fe71  1  0.24721747  0.74872400  0.74645053  1
  Fe  Fe72  1  0.87437969  0.37549124  0.62415160  1
  Fe  Fe73  1  0.50019943  0.75016635  0.74624981  1
  Fe  Fe74  1  0.24949070  0.75065264  0.50261274  1
  Fe  Fe75  1  0.74872154  0.75053026  0.50241995  1
  Fe  Fe76  1  0.74990044  -0.00128159  0.25121945  1
  Fe  Fe77  1  -0.00038072  0.74618333  0.00299550  1
  Fe  Fe78  1  0.74794144  -0.00176344  -0.00358913  1
  Fe  Fe79  1  0.62477313  0.62754362  0.37355415  1
  Fe  Fe80  1  0.24910643  0.49754956  0.49582594  1
  Fe  Fe81  1  0.49966461  0.50120469  0.24909584  1
  Fe  Fe82  1  0.87501133  0.62652007  0.37555574  1
  Fe  Fe83  1  0.50128437  0.24781498  0.50248638  1
  Fe  Fe84  1  0.12603980  0.37490423  0.62464193  1
  Fe  Fe85  1  0.74953784  0.75134873  0.74609742  1
  Fe  Fe86  1  0.37402568  0.37882792  0.12437402  1
  Fe  Fe87  1  -0.00184105  0.50282823  0.75069510  1
  Fe  Fe88  1  -0.00253912  0.74916856  0.24671033  1
  Fe  Fe89  1  0.49974687  0.24808356  0.74930088  1
  Co  Co90  1  0.62543486  0.62284443  0.62564507  1
  Co  Co91  1  0.87641996  0.37379671  0.87543695  1
  Co  Co92  1  0.87660084  0.87965419  0.12426458  1
  Co  Co93  1  0.12526899  0.87772248  0.62431909  1
  Co  Co94  1  -0.00229008  0.24825474  0.50371414  1
  Co  Co95  1  0.24795795  0.49896907  -0.00285542  1
  Co  Co96  1  0.87391091  0.62754780  0.87411332  1
  Co  Co97  1  0.87497147  0.61907740  0.12623616  1
  Co  Co98  1  0.25154736  0.49971616  0.74921654  1
  Co  Co99  1  0.12333648  0.87093653  0.87508634  1
  Co  Co100  1  0.25257405  0.25134178  0.24924144  1
  Co  Co101  1  0.75404682  0.75089476  0.24792990  1
  Co  Co102  1  0.87450015  0.62370227  0.62393926  1
  Co  Co103  1  0.62288640  0.12733228  0.37145765  1
  Co  Co104  1  0.12533385  0.62996774  0.37608323  1
  Co  Co105  1  0.37589917  0.87371439  0.37763188  1
  Co  Co106  1  0.62506555  0.88064218  0.62500186  1
  Co  Co107  1  0.49619283  0.74873564  0.24737013  1
  Co  Co108  1  0.37944719  0.37416195  0.37451385  1
  Co  Co109  1  0.25164638  0.25093967  0.75034901  1
  Co  Co110  1  0.12314874  0.36868180  0.37587104  1
  Co  Co111  1  0.12789448  0.62391036  0.12629615  1
  Co  Co112  1  0.50050187  0.50438281  0.00004582  1
  Co  Co113  1  0.62386715  0.86866376  0.87582830  1
  Co  Co114  1  0.74761641  0.00026377  0.49489155  1
  Co  Co115  1  0.50074542  -0.00120444  0.75406924  1
  Co  Co116  1  0.24863212  0.49943826  0.25712819  1
  Co  Co117  1  0.12657202  0.62521972  0.87351352  1
  Co  Co118  1  0.24906751  0.00042956  0.49787837  1
  Co  Co119  1  0.12631621  0.62082333  0.62371483  1
  Co  Co120  1  0.49809142  0.24937270  0.00124386  1
  Co  Co121  1  0.25340622  0.25312225  0.50117196  1
  Co  Co122  1  0.12523610  0.12805268  0.87539084  1
  Co  Co123  1  0.37333950  0.62338440  0.62297628  1
  Co  Co124  1  0.74910466  -0.00288476  0.75676251  1
  Co  Co125  1  0.62369039  0.37601886  0.12406357  1
  Co  Co126  1  0.62420319  0.12837968  0.87443509  1
  Co  Co127  1  0.62742621  0.12093889  0.62856848  1
