# generated using pymatgen
data_Fe45Co19
_symmetry_space_group_name_H-M   'P 1'
_cell_length_a   11.41493313
_cell_length_b   11.41484215
_cell_length_c   11.41534797
_cell_angle_alpha   89.99682841
_cell_angle_beta   89.99731539
_cell_angle_gamma   90.00079632
_symmetry_Int_Tables_number   1
_chemical_formula_structural   Fe45Co19
_chemical_formula_sum   'Fe90 Co38'
_cell_volume   1487.41595252
_cell_formula_units_Z   2
loop_
 _symmetry_equiv_pos_site_id
 _symmetry_equiv_pos_as_xyz
  1  'x, y, z'
loop_
 _atom_site_type_symbol
 _atom_site_label
 _atom_site_symmetry_multiplicity
 _atom_site_fract_x
 _atom_site_fract_y
 _atom_site_fract_z
 _atom_site_occupancy
  Fe  Fe0  1  0.49823696  0.74920303  0.25461069  1
  Fe  Fe1  1  0.74719624  0.50396289  0.25273156  1
  Fe  Fe2  1  0.50111603  0.50269276  0.49883061  1
  Fe  Fe3  1  0.75134680  0.75076982  0.74832016  1
  Fe  Fe4  1  -0.00597372  0.75289471  0.50094913  1
  Fe  Fe5  1  0.37372406  0.87528135  0.12862709  1
  Fe  Fe6  1  0.62318347  0.12775735  0.12156144  1
  Fe  Fe7  1  0.24557920  -0.00138202  0.25442768  1
  Fe  Fe8  1  0.62421852  0.87405491  0.87604613  1
  Fe  Fe9  1  0.24909976  0.50213048  0.74945643  1
  Fe  Fe10  1  0.87826154  0.12024606  0.37213247  1
  Fe  Fe11  1  0.00599194  -0.00207173  0.74847435  1
  Fe  Fe12  1  -0.00262177  0.75213779  -0.00015543  1
  Fe  Fe13  1  0.25417577  0.24798569  -0.00107941  1
  Fe  Fe14  1  0.50133277  0.49921945  0.00241135  1
  Fe  Fe15  1  0.50283009  0.50061594  0.74755331  1
  Fe  Fe16  1  0.62619690  0.62720766  0.12585560  1
  Fe  Fe17  1  0.87460582  0.87843813  0.87308110  1
  Fe  Fe18  1  0.74881391  0.00081333  0.49995089  1
  Fe  Fe19  1  0.12780737  0.87169793  0.12486706  1
  Fe  Fe20  1  0.12033761  0.12742296  0.37636542  1
  Fe  Fe21  1  -0.00397327  0.24807166  -0.00091260  1
  Fe  Fe22  1  -0.00409987  0.75372720  0.25151611  1
  Fe  Fe23  1  0.25256564  0.74814094  0.75220371  1
  Fe  Fe24  1  0.37741892  0.12143135  0.37620281  1
  Fe  Fe25  1  0.37507541  0.87639554  0.87478255  1
  Fe  Fe26  1  0.12258777  0.62761091  0.37488388  1
  Fe  Fe27  1  0.24684192  0.00254678  0.74658572  1
  Fe  Fe28  1  0.61936969  0.12457413  0.87594321  1
  Fe  Fe29  1  0.62133492  0.12546353  0.62548791  1
  Fe  Fe30  1  0.12566769  0.37227948  0.12238149  1
  Fe  Fe31  1  0.12487515  0.62798336  0.87686150  1
  Fe  Fe32  1  0.25074108  0.50279963  -0.00045752  1
  Fe  Fe33  1  0.50225912  0.25138794  0.25052223  1
  Fe  Fe34  1  0.62347820  0.62738688  0.87499061  1
  Fe  Fe35  1  0.38016988  0.12312853  0.87218356  1
  Fe  Fe36  1  0.00176586  -0.00053272  -0.00057660  1
  Fe  Fe37  1  0.00113892  0.49789161  0.24866089  1
  Fe  Fe38  1  0.24983910  -0.00049065  -0.00069576  1
  Fe  Fe39  1  0.74825212  0.00140052  -0.00042151  1
  Fe  Fe40  1  0.12419302  0.37159576  0.62423347  1
  Fe  Fe41  1  0.25196615  0.24694252  0.50090673  1
  Fe  Fe42  1  0.37614780  0.12328690  0.12712478  1
  Fe  Fe43  1  0.62656705  0.37391825  0.87961885  1
  Fe  Fe44  1  0.37524582  0.37619050  0.62482741  1
  Fe  Fe45  1  0.62709884  0.87264938  0.12596517  1
  Fe  Fe46  1  0.50428136  0.49968471  0.25173903  1
  Fe  Fe47  1  0.12513753  0.62890678  0.12535614  1
  Fe  Fe48  1  0.62737800  0.62758965  0.62111930  1
  Fe  Fe49  1  0.37565980  0.37640756  0.37471854  1
  Fe  Fe50  1  0.87362652  0.37600094  0.37433617  1
  Fe  Fe51  1  0.87131941  0.87821216  0.12860508  1
  Fe  Fe52  1  0.12403703  0.12712327  0.12516021  1
  Fe  Fe53  1  0.62803786  0.37539036  0.62090149  1
  Fe  Fe54  1  0.50168061  -0.00347796  0.50225912  1
  Fe  Fe55  1  0.37490471  0.37557406  0.12746882  1
  Fe  Fe56  1  -0.00117953  0.75220809  0.74788492  1
  Fe  Fe57  1  0.12593043  0.37288045  0.87620292  1
  Fe  Fe58  1  0.00165632  0.50077141  0.74902183  1
  Fe  Fe59  1  0.75238244  0.24739516  0.49881260  1
  Fe  Fe60  1  0.75270113  0.74836510  0.00082474  1
  Fe  Fe61  1  0.12291366  0.37201404  0.37682704  1
  Fe  Fe62  1  0.49914185  0.25068115  0.50014248  1
  Fe  Fe63  1  0.49883492  0.75156160  0.74568767  1
  Fe  Fe64  1  -0.00168199  0.50071919  0.00060008  1
  Fe  Fe65  1  0.24866312  0.50051466  0.49973702  1
  Fe  Fe66  1  0.50515031  -0.00027065  0.24955492  1
  Fe  Fe67  1  0.25546016  0.75143094  0.49373839  1
  Fe  Fe68  1  0.37608579  0.37661842  0.87358926  1
  Fe  Fe69  1  0.87099949  0.37681897  0.87544881  1
  Fe  Fe70  1  0.37229800  0.87713563  0.62252923  1
  Fe  Fe71  1  0.49673453  0.75138211  0.00097840  1
  Fe  Fe72  1  0.12596692  0.62899319  0.62276019  1
  Fe  Fe73  1  0.62726854  0.87201782  0.37620320  1
  Fe  Fe74  1  0.74522195  -0.00054034  0.74942190  1
  Fe  Fe75  1  0.00309756  -0.00442417  0.50146655  1
  Fe  Fe76  1  0.87677612  0.12210499  0.62719054  1
  Fe  Fe77  1  0.75703027  0.74969804  0.49874645  1
  Fe  Fe78  1  0.87534269  0.12233594  0.12817075  1
  Fe  Fe79  1  0.87216949  0.37749223  0.62636557  1
  Fe  Fe80  1  -0.00094732  0.24919322  0.75079312  1
  Fe  Fe81  1  -0.00155501  0.50011762  0.50203778  1
  Fe  Fe82  1  0.74807688  0.24677582  0.25265677  1
  Fe  Fe83  1  0.37347501  0.62558529  0.12735219  1
  Fe  Fe84  1  0.74847960  0.24840136  0.75131044  1
  Fe  Fe85  1  0.86973977  0.37571983  0.12416232  1
  Fe  Fe86  1  0.24939996  0.24933185  0.25241646  1
  Fe  Fe87  1  0.87433595  0.62381528  0.87299599  1
  Fe  Fe88  1  0.25139065  0.24713102  0.74754710  1
  Fe  Fe89  1  0.24641111  0.50042672  0.25109461  1
  Co  Co90  1  0.25264339  0.75075834  0.25445208  1
  Co  Co91  1  0.75208350  0.50239420  0.49755589  1
  Co  Co92  1  0.87656543  0.12001063  0.87138449  1
  Co  Co93  1  0.37489706  0.62010100  0.37344055  1
  Co  Co94  1  0.87376027  0.62223272  0.62760422  1
  Co  Co95  1  0.49685952  0.25166360  0.00120557  1
  Co  Co96  1  0.37390599  0.62376566  0.62393452  1
  Co  Co97  1  0.37830739  0.88130121  0.37351631  1
  Co  Co98  1  0.49462742  0.75041314  0.49928985  1
  Co  Co99  1  -0.00159329  0.25268851  0.24858709  1
  Co  Co100  1  0.12507183  0.12607962  0.87588610  1
  Co  Co101  1  0.62779069  0.87110205  0.62037835  1
  Co  Co102  1  0.62195548  0.12531315  0.37836267  1
  Co  Co103  1  0.12930852  0.86973222  0.62337763  1
  Co  Co104  1  0.00532960  -0.00317414  0.24858191  1
  Co  Co105  1  0.74580245  0.50048125  0.75087791  1
  Co  Co106  1  0.74306285  0.00311684  0.24996231  1
  Co  Co107  1  0.62953079  0.37334994  0.12436798  1
  Co  Co108  1  0.12161416  0.12812732  0.62184586  1
  Co  Co109  1  0.49966536  -0.00310346  0.00207083  1
  Co  Co110  1  0.87153264  0.88104828  0.37150781  1
  Co  Co111  1  0.75290784  0.74800580  0.25150200  1
  Co  Co112  1  0.75211177  0.24440424  -0.00220847  1
  Co  Co113  1  0.74924928  0.50564305  -0.00011423  1
  Co  Co114  1  0.12656326  0.87388251  0.87480560  1
  Co  Co115  1  0.50140244  0.25374397  0.74908644  1
  Co  Co116  1  0.25377043  0.74956921  -0.00095367  1
  Co  Co117  1  0.24670985  0.00185237  0.49880686  1
  Co  Co118  1  -0.00577124  0.25144255  0.50033727  1
  Co  Co119  1  0.62610586  0.37416330  0.37713923  1
  Co  Co120  1  0.38002216  0.12256813  0.62486055  1
  Co  Co121  1  0.37880933  0.62348026  0.87447341  1
  Co  Co122  1  0.62563313  0.62965715  0.37864412  1
  Co  Co123  1  0.87619931  0.62427260  0.12696707  1
  Co  Co124  1  0.87351690  0.87929315  0.62752223  1
  Co  Co125  1  0.87830378  0.62309696  0.37327308  1
  Co  Co126  1  0.12348716  0.87097523  0.37678293  1
  Co  Co127  1  0.50243796  -0.00612451  0.74711327  1
