# generated using pymatgen
data_Fe45Co19
_symmetry_space_group_name_H-M   'P 1'
_cell_length_a   11.41637208
_cell_length_b   11.41558914
_cell_length_c   11.41555390
_cell_angle_alpha   90.00685692
_cell_angle_beta   89.99424203
_cell_angle_gamma   90.00081262
_symmetry_Int_Tables_number   1
_chemical_formula_structural   Fe45Co19
_chemical_formula_sum   'Fe90 Co38'
_cell_volume   1487.72762859
_cell_formula_units_Z   2
loop_
 _symmetry_equiv_pos_site_id
 _symmetry_equiv_pos_as_xyz
  1  'x, y, z'
loop_
 _atom_site_type_symbol
 _atom_site_label
 _atom_site_symmetry_multiplicity
 _atom_site_fract_x
 _atom_site_fract_y
 _atom_site_fract_z
 _atom_site_occupancy
  Fe  Fe0  1  0.12756351  0.37450129  0.12417548  1
  Fe  Fe1  1  0.25213036  0.49924417  0.75044512  1
  Fe  Fe2  1  0.63062443  0.12661436  0.87711442  1
  Fe  Fe3  1  0.37669778  0.37263239  0.62355245  1
  Fe  Fe4  1  0.62776885  0.12459927  0.62279740  1
  Fe  Fe5  1  0.62660113  0.62340467  0.62564046  1
  Fe  Fe6  1  -0.00150311  -0.00050069  0.24717416  1
  Fe  Fe7  1  0.75022979  0.50023760  0.00377751  1
  Fe  Fe8  1  0.87528472  0.86973766  0.87887862  1
  Fe  Fe9  1  0.75253966  0.24993845  0.49475125  1
  Fe  Fe10  1  0.12217205  0.87478047  0.87493780  1
  Fe  Fe11  1  0.37503182  0.12642274  0.87496399  1
  Fe  Fe12  1  0.00083055  0.74792869  0.24672882  1
  Fe  Fe13  1  0.24901790  0.24929105  0.74981523  1
  Fe  Fe14  1  0.62002019  0.37430100  0.12843942  1
  Fe  Fe15  1  0.74977343  0.75092400  0.49751492  1
  Fe  Fe16  1  0.12215919  0.37481221  0.62580427  1
  Fe  Fe17  1  0.50620709  0.74956787  0.00184103  1
  Fe  Fe18  1  -0.00112336  0.50266325  0.24766453  1
  Fe  Fe19  1  0.50082490  0.00085582  0.74900383  1
  Fe  Fe20  1  -0.00207289  0.50248852  0.00353298  1
  Fe  Fe21  1  0.50167294  0.75187089  0.50088353  1
  Fe  Fe22  1  0.49882477  0.49918444  0.00196011  1
  Fe  Fe23  1  0.12530909  0.87644092  0.12398969  1
  Fe  Fe24  1  -0.00117779  0.50148878  0.49892819  1
  Fe  Fe25  1  0.11922638  0.12315979  0.62424872  1
  Fe  Fe26  1  0.50087758  0.75190314  0.74942440  1
  Fe  Fe27  1  0.24650214  0.25027099  0.49856541  1
  Fe  Fe28  1  0.12351637  0.62435798  0.62592067  1
  Fe  Fe29  1  0.75160894  0.49778627  0.49680637  1
  Fe  Fe30  1  0.75236029  0.49885637  0.74872740  1
  Fe  Fe31  1  0.24973536  -0.00242945  0.50070303  1
  Fe  Fe32  1  0.87406202  0.12880745  0.12364363  1
  Fe  Fe33  1  0.62609167  0.62208361  0.37186656  1
  Fe  Fe34  1  0.62744607  0.87771388  0.62605851  1
  Fe  Fe35  1  0.75367166  0.00038732  0.49831296  1
  Fe  Fe36  1  0.25236808  0.49855810  0.00099154  1
  Fe  Fe37  1  0.74835186  0.25321856  0.25363362  1
  Fe  Fe38  1  0.49418566  0.49847799  0.25061865  1
  Fe  Fe39  1  0.50113915  0.24534284  0.49260512  1
  Fe  Fe40  1  0.37630678  0.37195103  0.87605549  1
  Fe  Fe41  1  0.50262051  0.74974321  0.24887928  1
  Fe  Fe42  1  0.25168348  0.75048286  0.24786910  1
  Fe  Fe43  1  0.62696918  0.12608583  0.12627583  1
  Fe  Fe44  1  0.12384420  0.37837566  0.37538445  1
  Fe  Fe45  1  0.12728336  0.62498697  0.37258610  1
  Fe  Fe46  1  0.49815223  0.50099733  0.49858158  1
  Fe  Fe47  1  0.25552723  0.49849285  0.24861758  1
  Fe  Fe48  1  0.12225555  0.12565362  0.87857173  1
  Fe  Fe49  1  -0.00427893  0.24674769  0.75116675  1
  Fe  Fe50  1  0.37709031  0.62588154  0.87589338  1
  Fe  Fe51  1  0.87568727  0.87418464  0.37273081  1
  Fe  Fe52  1  -0.00338316  0.00104749  0.00099096  1
  Fe  Fe53  1  0.62552336  0.62161297  0.87281500  1
  Fe  Fe54  1  0.87642557  0.37238002  0.62193011  1
  Fe  Fe55  1  0.00322507  0.24967376  0.25106089  1
  Fe  Fe56  1  0.49751591  0.00466015  0.25094484  1
  Fe  Fe57  1  0.87133448  0.86834772  0.12202027  1
  Fe  Fe58  1  0.50306247  0.24977020  0.75069050  1
  Fe  Fe59  1  0.87230324  0.62467101  0.37092210  1
  Fe  Fe60  1  0.25048301  0.75084090  0.50124237  1
  Fe  Fe61  1  0.87789238  0.87696225  0.62563868  1
  Fe  Fe62  1  -0.00449431  0.50296756  0.74987808  1
  Fe  Fe63  1  0.37166265  0.13365866  0.12850790  1
  Fe  Fe64  1  0.87379656  0.37236138  0.87689658  1
  Fe  Fe65  1  0.24845671  0.74919265  0.00152345  1
  Fe  Fe66  1  0.12225704  0.62463741  0.87575610  1
  Fe  Fe67  1  0.25180505  0.50033161  0.49989839  1
  Fe  Fe68  1  0.37650326  0.62590056  0.62644171  1
  Fe  Fe69  1  0.12277246  0.37455285  0.87434936  1
  Fe  Fe70  1  0.25082873  0.00295379  0.00279891  1
  Fe  Fe71  1  0.75322917  0.74734795  0.75016197  1
  Fe  Fe72  1  0.75676504  0.00461752  0.75173464  1
  Fe  Fe73  1  0.12478378  0.87522248  0.37260264  1
  Fe  Fe74  1  0.37591004  0.12420741  0.62333533  1
  Fe  Fe75  1  0.12041957  0.87673825  0.62800402  1
  Fe  Fe76  1  0.50091603  0.00439919  0.00135595  1
  Fe  Fe77  1  0.37780764  0.87480487  0.12358063  1
  Fe  Fe78  1  0.62730016  0.87860243  0.87526295  1
  Fe  Fe79  1  -0.00090126  0.74918448  0.49969640  1
  Fe  Fe80  1  0.75249468  -0.00155538  0.24802251  1
  Fe  Fe81  1  0.62393251  0.88000412  0.37373081  1
  Fe  Fe82  1  0.24957642  0.75041144  0.75014385  1
  Fe  Fe83  1  0.62633464  0.37398670  0.87418929  1
  Fe  Fe84  1  0.24907858  0.00079467  0.74987804  1
  Fe  Fe85  1  0.37549625  0.87610830  0.87627323  1
  Fe  Fe86  1  0.37609984  0.87637658  0.37524932  1
  Fe  Fe87  1  0.12551641  0.12062701  0.37217044  1
  Fe  Fe88  1  0.87623069  0.37339681  0.12708143  1
  Fe  Fe89  1  0.62438655  0.37366149  0.62243475  1
  Co  Co90  1  0.75178382  0.49458215  0.24900675  1
  Co  Co91  1  0.87305057  0.62407962  0.62128556  1
  Co  Co92  1  0.87891777  0.37541683  0.37368581  1
  Co  Co93  1  0.87569803  0.12499219  0.37179764  1
  Co  Co94  1  0.37529440  0.87624708  0.62654956  1
  Co  Co95  1  0.62999161  0.12014421  0.37391167  1
  Co  Co96  1  -0.00261029  0.74719055  0.74846329  1
  Co  Co97  1  0.62305937  0.37826616  0.37491847  1
  Co  Co98  1  0.49956101  0.49717393  0.74910869  1
  Co  Co99  1  0.74103914  0.74800413  0.00110952  1
  Co  Co100  1  0.37455815  0.62773821  0.37475331  1
  Co  Co101  1  0.24507579  0.25312236  0.25367354  1
  Co  Co102  1  0.87134950  0.13086454  0.88257194  1
  Co  Co103  1  0.87443148  0.62693261  0.88081030  1
  Co  Co104  1  0.12523395  0.12534807  0.12508877  1
  Co  Co105  1  0.36900356  0.12419195  0.37444674  1
  Co  Co106  1  0.75136675  -0.00139928  0.00136839  1
  Co  Co107  1  0.87775276  0.12542610  0.62043899  1
  Co  Co108  1  0.49962781  0.00040897  0.50010487  1
  Co  Co109  1  0.50267731  0.24811515  -0.00153025  1
  Co  Co110  1  0.86919341  0.62859952  0.12641069  1
  Co  Co111  1  0.75154486  0.24979229  0.74721381  1
  Co  Co112  1  0.24750943  0.25047884  -0.00212260  1
  Co  Co113  1  0.74462683  0.75295312  0.25036355  1
  Co  Co114  1  0.50268304  0.24755494  0.25674834  1
  Co  Co115  1  -0.00470833  0.00366975  0.75592644  1
  Co  Co116  1  0.37597306  0.36736990  0.12487264  1
  Co  Co117  1  0.74719899  0.25529898  0.00453147  1
  Co  Co118  1  0.37596677  0.62716111  0.12307917  1
  Co  Co119  1  0.37453861  0.37187664  0.37629372  1
  Co  Co120  1  0.12859597  0.62258404  0.12656362  1
  Co  Co121  1  0.62631323  0.62072459  0.13032316  1
  Co  Co122  1  -0.00033658  -0.00154361  0.49570442  1
  Co  Co123  1  0.62346581  0.88024113  0.12572012  1
  Co  Co124  1  0.00148744  0.25220256  0.00223745  1
  Co  Co125  1  0.25105037  -0.00243453  0.24668535  1
  Co  Co126  1  0.00345974  0.74676289  0.00449451  1
  Co  Co127  1  0.00153623  0.24889516  0.49512228  1
