# generated using pymatgen
data_Fe45Co19
_symmetry_space_group_name_H-M   'P 1'
_cell_length_a   11.41526336
_cell_length_b   11.41531758
_cell_length_c   11.41490092
_cell_angle_alpha   90.00640143
_cell_angle_beta   90.01289498
_cell_angle_gamma   90.00123928
_symmetry_Int_Tables_number   1
_chemical_formula_structural   Fe45Co19
_chemical_formula_sum   'Fe90 Co38'
_cell_volume   1487.46263908
_cell_formula_units_Z   2
loop_
 _symmetry_equiv_pos_site_id
 _symmetry_equiv_pos_as_xyz
  1  'x, y, z'
loop_
 _atom_site_type_symbol
 _atom_site_label
 _atom_site_symmetry_multiplicity
 _atom_site_fract_x
 _atom_site_fract_y
 _atom_site_fract_z
 _atom_site_occupancy
  Fe  Fe0  1  0.62458390  0.87430519  0.62494484  1
  Fe  Fe1  1  0.37579962  0.62261816  0.87482800  1
  Fe  Fe2  1  0.87372203  0.12955198  0.37833551  1
  Fe  Fe3  1  0.24693810  0.00196923  0.24489463  1
  Fe  Fe4  1  0.37249393  0.12243138  0.37339762  1
  Fe  Fe5  1  0.49849543  0.74938723  0.75004817  1
  Fe  Fe6  1  0.12306533  0.37478823  0.12585586  1
  Fe  Fe7  1  0.62194758  0.37455317  0.12450150  1
  Fe  Fe8  1  0.50174610  0.00042516  0.25000235  1
  Fe  Fe9  1  0.75108980  0.25175217  0.00180807  1
  Fe  Fe10  1  0.37558381  0.62279764  0.62619930  1
  Fe  Fe11  1  0.24968429  0.24961930  0.24733192  1
  Fe  Fe12  1  0.24968541  0.74916856  -0.00030818  1
  Fe  Fe13  1  0.87421846  0.12559878  0.87431729  1
  Fe  Fe14  1  0.87580878  0.37698201  0.87368497  1
  Fe  Fe15  1  0.75053474  0.75114764  0.24959234  1
  Fe  Fe16  1  0.37403381  0.37674980  0.87599174  1
  Fe  Fe17  1  0.37176114  0.87857831  0.87372160  1
  Fe  Fe18  1  0.37783962  0.37523440  0.12382617  1
  Fe  Fe19  1  0.12789945  0.87526247  0.87425019  1
  Fe  Fe20  1  0.87753595  0.12755069  0.12490868  1
  Fe  Fe21  1  0.24967550  0.25087785  0.75052369  1
  Fe  Fe22  1  0.00089753  0.25213986  -0.00211405  1
  Fe  Fe23  1  0.50085780  0.75121765  0.00074438  1
  Fe  Fe24  1  0.87916252  0.62456925  0.62424340  1
  Fe  Fe25  1  0.12411245  0.12521131  0.62252863  1
  Fe  Fe26  1  0.37199084  0.62272570  0.37232740  1
  Fe  Fe27  1  0.00218087  0.25137553  0.75080304  1
  Fe  Fe28  1  0.87417564  0.62344029  0.12639826  1
  Fe  Fe29  1  0.62581272  0.62326628  0.37511708  1
  Fe  Fe30  1  0.49596994  0.74975998  0.49766463  1
  Fe  Fe31  1  0.87538046  0.87435164  0.12549404  1
  Fe  Fe32  1  -0.00049370  0.49937812  0.25833467  1
  Fe  Fe33  1  0.49961463  0.74935179  0.25173748  1
  Fe  Fe34  1  0.12683260  0.87328297  0.37668884  1
  Fe  Fe35  1  0.12341942  0.62451304  0.87229528  1
  Fe  Fe36  1  0.24848468  0.50159170  0.49934619  1
  Fe  Fe37  1  0.62203938  0.12632288  0.62489237  1
  Fe  Fe38  1  0.75087455  0.00162206  0.50160937  1
  Fe  Fe39  1  0.25090081  0.25015620  0.49928400  1
  Fe  Fe40  1  0.37384614  0.87573494  0.62746832  1
  Fe  Fe41  1  0.37336429  0.12224810  0.87837351  1
  Fe  Fe42  1  0.62613165  0.62537048  0.12566884  1
  Fe  Fe43  1  0.75038952  0.25199112  0.74628932  1
  Fe  Fe44  1  0.62575424  0.87477438  0.87429654  1
  Fe  Fe45  1  0.00134886  -0.00011939  0.00041283  1
  Fe  Fe46  1  0.87843742  0.12533952  0.62371037  1
  Fe  Fe47  1  -0.00179116  0.74736998  -0.00151643  1
  Fe  Fe48  1  0.37683363  0.87653255  0.12554515  1
  Fe  Fe49  1  0.75202740  0.75020151  0.50024966  1
  Fe  Fe50  1  0.12413555  0.37632447  0.62269073  1
  Fe  Fe51  1  0.37448984  0.12425237  0.62585888  1
  Fe  Fe52  1  0.75346225  0.74846056  0.74984743  1
  Fe  Fe53  1  0.74865691  -0.00092162  0.00243149  1
  Fe  Fe54  1  0.75041171  0.00253491  0.24943077  1
  Fe  Fe55  1  0.74992128  0.00082454  0.74779883  1
  Fe  Fe56  1  -0.00111068  0.74700117  0.25466406  1
  Fe  Fe57  1  0.62716871  0.12959443  0.37763381  1
  Fe  Fe58  1  0.00086429  0.00207655  0.25308836  1
  Fe  Fe59  1  0.12254163  0.87284080  0.12502095  1
  Fe  Fe60  1  0.87395888  0.87562927  0.37653259  1
  Fe  Fe61  1  0.24842658  0.49981267  0.74957736  1
  Fe  Fe62  1  0.75026957  0.49881910  0.74692030  1
  Fe  Fe63  1  0.50042351  0.25097999  0.25265425  1
  Fe  Fe64  1  0.62423081  0.12551470  0.87479433  1
  Fe  Fe65  1  0.12450404  0.87052419  0.62380536  1
  Fe  Fe66  1  0.62482226  0.87492418  0.37566752  1
  Fe  Fe67  1  0.87360756  0.87492626  0.87539410  1
  Fe  Fe68  1  0.00150129  -0.00195894  0.74860682  1
  Fe  Fe69  1  0.12232451  0.62775134  0.62358510  1
  Fe  Fe70  1  0.00026835  0.50025103  -0.00092055  1
  Fe  Fe71  1  0.12742947  0.12492724  0.87764717  1
  Fe  Fe72  1  0.12538125  0.62404384  0.12893223  1
  Fe  Fe73  1  0.75072136  0.49785649  0.49930115  1
  Fe  Fe74  1  0.61835814  0.37508360  0.62082194  1
  Fe  Fe75  1  0.75008177  0.49345873  0.25232703  1
  Fe  Fe76  1  0.62270366  0.12611884  0.12355808  1
  Fe  Fe77  1  0.49912322  0.00004009  0.49990873  1
  Fe  Fe78  1  0.62387139  0.37593681  0.87464070  1
  Fe  Fe79  1  0.25126348  0.75122250  0.25004977  1
  Fe  Fe80  1  0.37529990  0.37736288  0.37604694  1
  Fe  Fe81  1  0.24913525  -0.00187215  0.50077537  1
  Fe  Fe82  1  0.37511413  0.62347502  0.12596556  1
  Fe  Fe83  1  0.75088100  0.49927240  0.00122273  1
  Fe  Fe84  1  0.24866573  0.49965728  0.00182968  1
  Fe  Fe85  1  0.62274895  0.62491627  0.62401319  1
  Fe  Fe86  1  0.62571678  0.62383575  0.87483139  1
  Fe  Fe87  1  0.00133473  0.25058789  0.25491922  1
  Fe  Fe88  1  0.49699558  0.25139631  0.74966602  1
  Fe  Fe89  1  0.88095254  0.37551141  0.62089941  1
  Co  Co90  1  -0.00219107  0.75144458  0.75170580  1
  Co  Co91  1  0.25047241  0.49707721  0.24780329  1
  Co  Co92  1  0.50066592  0.49901786  0.74974667  1
  Co  Co93  1  0.37373254  0.87858702  0.37262388  1
  Co  Co94  1  0.12111254  0.12845252  0.12417852  1
  Co  Co95  1  0.49464891  0.24832487  0.49908261  1
  Co  Co96  1  0.24859145  0.00053727  0.00583645  1
  Co  Co97  1  0.00147688  0.50281397  0.49256967  1
  Co  Co98  1  0.00425923  0.24999363  0.49719449  1
  Co  Co99  1  0.87432798  0.62143044  0.87419670  1
  Co  Co100  1  0.87958577  0.37524973  0.12566584  1
  Co  Co101  1  0.50009373  0.00074262  0.74989287  1
  Co  Co102  1  0.37381776  0.37731233  0.62428927  1
  Co  Co103  1  -0.00183623  0.74779211  0.49558183  1
  Co  Co104  1  0.62558808  0.87408411  0.12766149  1
  Co  Co105  1  0.75108779  0.74967218  0.00028641  1
  Co  Co106  1  0.50184563  0.49955737  0.25122838  1
  Co  Co107  1  0.87488896  0.87479931  0.62392089  1
  Co  Co108  1  0.13119169  0.62764038  0.37380408  1
  Co  Co109  1  0.62511976  0.37211482  0.37921475  1
  Co  Co110  1  0.12862869  0.37500926  0.37537287  1
  Co  Co111  1  0.25062501  0.74765632  0.75037055  1
  Co  Co112  1  0.49991498  0.25051992  -0.00268795  1
  Co  Co113  1  0.87226488  0.36960260  0.37853832  1
  Co  Co114  1  0.50119264  -0.00264484  0.00004550  1
  Co  Co115  1  0.12839767  0.12389404  0.37577094  1
  Co  Co116  1  0.24991040  0.25064775  0.00287166  1
  Co  Co117  1  0.37844849  0.12554588  0.12417003  1
  Co  Co118  1  0.86978796  0.62425834  0.37419596  1
  Co  Co119  1  0.74978982  0.25049968  0.50604948  1
  Co  Co120  1  0.50076825  0.50130321  0.00081452  1
  Co  Co121  1  0.74929956  0.25202103  0.24629432  1
  Co  Co122  1  0.00140222  0.49872015  0.74960537  1
  Co  Co123  1  0.00087316  -0.00115012  0.49886655  1
  Co  Co124  1  0.25444985  0.74988525  0.49981761  1
  Co  Co125  1  0.49850228  0.50218378  0.49720409  1
  Co  Co126  1  0.24733230  0.00173261  0.74779113  1
  Co  Co127  1  0.12657703  0.37560886  0.87543696  1
