# generated using pymatgen
data_Fe45Co19
_symmetry_space_group_name_H-M   'P 1'
_cell_length_a   11.41512715
_cell_length_b   11.41417682
_cell_length_c   11.41559806
_cell_angle_alpha   89.99554853
_cell_angle_beta   89.99597399
_cell_angle_gamma   89.99740029
_symmetry_Int_Tables_number   1
_chemical_formula_structural   Fe45Co19
_chemical_formula_sum   'Fe90 Co38'
_cell_volume   1487.38711636
_cell_formula_units_Z   2
loop_
 _symmetry_equiv_pos_site_id
 _symmetry_equiv_pos_as_xyz
  1  'x, y, z'
loop_
 _atom_site_type_symbol
 _atom_site_label
 _atom_site_symmetry_multiplicity
 _atom_site_fract_x
 _atom_site_fract_y
 _atom_site_fract_z
 _atom_site_occupancy
  Fe  Fe0  1  0.75087352  0.74691129  0.49959480  1
  Fe  Fe1  1  -0.00030590  0.74815669  0.49776803  1
  Fe  Fe2  1  0.62421531  0.12507831  0.62413247  1
  Fe  Fe3  1  0.00109304  -0.00013488  -0.00195606  1
  Fe  Fe4  1  0.62079984  0.62880241  0.62583974  1
  Fe  Fe5  1  0.37043756  0.37713435  0.12163945  1
  Fe  Fe6  1  0.12701183  0.62339036  0.37483082  1
  Fe  Fe7  1  0.24965768  0.75094321  0.25146108  1
  Fe  Fe8  1  0.49991876  0.25095906  0.49727303  1
  Fe  Fe9  1  0.75178826  0.74797805  0.00152434  1
  Fe  Fe10  1  -0.00102560  0.75090381  0.75013106  1
  Fe  Fe11  1  0.75056076  0.24943481  -0.00153506  1
  Fe  Fe12  1  0.49703569  0.25197286  -0.00158529  1
  Fe  Fe13  1  0.24843089  0.00169848  0.00118687  1
  Fe  Fe14  1  0.12256757  0.62593226  0.87641583  1
  Fe  Fe15  1  0.12815968  0.87697665  0.87208995  1
  Fe  Fe16  1  0.87272279  0.87703273  0.37433555  1
  Fe  Fe17  1  0.00079743  0.25142377  0.75250952  1
  Fe  Fe18  1  0.87589101  0.37304031  0.12528195  1
  Fe  Fe19  1  0.25373638  0.74709864  0.75033133  1
  Fe  Fe20  1  0.62201100  0.62566656  0.87538202  1
  Fe  Fe21  1  0.00300167  0.49986223  0.00332433  1
  Fe  Fe22  1  0.74835253  0.50099833  0.74686833  1
  Fe  Fe23  1  0.87731499  0.87236206  0.12642688  1
  Fe  Fe24  1  0.25170121  0.74733280  -0.00211474  1
  Fe  Fe25  1  0.00096228  0.25209738  0.25207508  1
  Fe  Fe26  1  0.87402228  0.87368014  0.62396694  1
  Fe  Fe27  1  0.87380475  0.37847996  0.87671273  1
  Fe  Fe28  1  0.87288058  0.12261345  0.37384741  1
  Fe  Fe29  1  0.74783876  0.25249183  0.25438692  1
  Fe  Fe30  1  0.25113491  0.25011260  0.24850800  1
  Fe  Fe31  1  0.50253364  -0.00317575  -0.00254664  1
  Fe  Fe32  1  0.62546455  0.37367772  0.62299304  1
  Fe  Fe33  1  0.37119403  0.37863303  0.62825572  1
  Fe  Fe34  1  0.87288242  0.61880349  0.37414272  1
  Fe  Fe35  1  0.62890705  0.87600964  0.37429782  1
  Fe  Fe36  1  0.49872785  0.75016368  0.49686855  1
  Fe  Fe37  1  0.74704746  -0.00073329  0.74885436  1
  Fe  Fe38  1  0.12352610  0.12502085  0.62808232  1
  Fe  Fe39  1  0.00024180  0.25127571  0.49809311  1
  Fe  Fe40  1  0.12308493  0.86952382  0.12573828  1
  Fe  Fe41  1  0.00269005  -0.00151378  0.25057940  1
  Fe  Fe42  1  0.87483207  0.12369102  0.87428750  1
  Fe  Fe43  1  0.74976618  0.74882412  0.74951863  1
  Fe  Fe44  1  0.87615861  0.62342085  0.87475250  1
  Fe  Fe45  1  0.00277217  0.49810631  0.74863942  1
  Fe  Fe46  1  0.49940040  0.25288041  0.75170716  1
  Fe  Fe47  1  0.62627647  0.62049651  0.37262790  1
  Fe  Fe48  1  0.87263396  0.87542397  0.87525667  1
  Fe  Fe49  1  0.74887295  0.50209686  0.00336179  1
  Fe  Fe50  1  0.12806030  0.12273838  0.37458224  1
  Fe  Fe51  1  0.87594652  0.12673767  0.12640899  1
  Fe  Fe52  1  0.50141079  -0.00052852  0.49876813  1
  Fe  Fe53  1  0.25027225  0.24983454  0.75271132  1
  Fe  Fe54  1  0.00013288  -0.00015400  0.50077640  1
  Fe  Fe55  1  0.74983030  0.25141300  0.75143599  1
  Fe  Fe56  1  0.50169619  -0.00093961  0.25098977  1
  Fe  Fe57  1  0.37125473  0.87779399  0.37354771  1
  Fe  Fe58  1  0.37615057  0.12189346  0.87421975  1
  Fe  Fe59  1  0.37788420  0.12466940  0.62608634  1
  Fe  Fe60  1  0.12550001  0.87481702  0.62586645  1
  Fe  Fe61  1  0.37443466  0.12373017  0.37296149  1
  Fe  Fe62  1  0.62321433  0.12751735  0.12643841  1
  Fe  Fe63  1  0.87994594  0.62822119  0.12614873  1
  Fe  Fe64  1  0.25018989  0.00101498  0.50327638  1
  Fe  Fe65  1  0.37985801  0.61872756  0.87303994  1
  Fe  Fe66  1  0.12825661  0.37264182  0.88118948  1
  Fe  Fe67  1  0.74793580  0.00117604  0.00220237  1
  Fe  Fe68  1  0.37453516  0.37624694  0.37382804  1
  Fe  Fe69  1  0.50297666  -0.00542242  0.75237941  1
  Fe  Fe70  1  0.49855626  0.49877520  0.24730135  1
  Fe  Fe71  1  0.00397597  0.49900124  0.24707293  1
  Fe  Fe72  1  0.62393130  0.87046290  0.12564753  1
  Fe  Fe73  1  0.37459590  0.62593609  0.12573803  1
  Fe  Fe74  1  0.37560265  0.87376351  0.12513839  1
  Fe  Fe75  1  0.37327147  0.62268354  0.37419695  1
  Fe  Fe76  1  0.25043908  0.25054208  0.50149002  1
  Fe  Fe77  1  0.74895164  0.25185730  0.49497323  1
  Fe  Fe78  1  0.37674432  0.12359443  0.12648818  1
  Fe  Fe79  1  0.12361649  0.12930494  0.12273346  1
  Fe  Fe80  1  0.12621898  0.37701526  0.37611322  1
  Fe  Fe81  1  0.62443908  0.37335181  0.12539218  1
  Fe  Fe82  1  0.87474007  0.12657040  0.62503905  1
  Fe  Fe83  1  0.25156895  0.74916202  0.50031078  1
  Fe  Fe84  1  0.62184360  0.62857976  0.12682880  1
  Fe  Fe85  1  0.87677254  0.37658634  0.62246046  1
  Fe  Fe86  1  0.37631149  0.87338790  0.62583184  1
  Fe  Fe87  1  0.12663004  0.62281780  0.62375841  1
  Fe  Fe88  1  0.62414055  0.37660468  0.87660731  1
  Fe  Fe89  1  0.49808175  0.49986071  0.50278751  1
  Co  Co90  1  0.62352194  0.38069613  0.37443603  1
  Co  Co91  1  0.24766856  0.49974763  0.24723506  1
  Co  Co92  1  0.74847163  0.50040491  0.50499871  1
  Co  Co93  1  0.12598665  0.37512246  0.62324755  1
  Co  Co94  1  0.49867452  0.75075557  0.25416316  1
  Co  Co95  1  0.62445309  0.12397804  0.37394439  1
  Co  Co96  1  0.25216971  0.00192374  0.74734737  1
  Co  Co97  1  0.12337711  0.63108053  0.12624963  1
  Co  Co98  1  0.49771045  0.75363944  0.75340276  1
  Co  Co99  1  0.87546487  0.38060982  0.37536813  1
  Co  Co100  1  0.74983217  0.00155020  0.50244104  1
  Co  Co101  1  0.24722286  -0.00039727  0.24570854  1
  Co  Co102  1  0.74898095  -0.00024989  0.24598268  1
  Co  Co103  1  -0.00320517  0.24918915  -0.00296917  1
  Co  Co104  1  0.25180414  0.49909373  0.50028799  1
  Co  Co105  1  0.62865720  0.87041885  0.87813758  1
  Co  Co106  1  0.12457491  0.12417278  0.87381912  1
  Co  Co107  1  0.24707279  0.50527131  0.00064998  1
  Co  Co108  1  0.37094052  0.87713235  0.87593213  1
  Co  Co109  1  -0.00043275  0.74994017  0.25705955  1
  Co  Co110  1  0.75160075  0.74838262  0.25026262  1
  Co  Co111  1  0.37578440  0.62427203  0.62678381  1
  Co  Co112  1  0.24583328  0.50081343  0.75290851  1
  Co  Co113  1  0.87724601  0.62427000  0.62655713  1
  Co  Co114  1  0.12759301  0.37055795  0.12098222  1
  Co  Co115  1  0.50343018  0.49772275  0.74657700  1
  Co  Co116  1  0.49834398  0.25214686  0.25030770  1
  Co  Co117  1  0.49671885  0.75032994  -0.00274703  1
  Co  Co118  1  0.62400269  0.12708004  0.87482528  1
  Co  Co119  1  0.25545263  0.24575292  -0.00195017  1
  Co  Co120  1  -0.00231828  -0.00118859  0.74962392  1
  Co  Co121  1  0.74987040  0.49938497  0.24421461  1
  Co  Co122  1  0.50137820  0.49947859  0.00375111  1
  Co  Co123  1  0.37464182  0.38012451  0.87528490  1
  Co  Co124  1  0.12759996  0.87600266  0.37682150  1
  Co  Co125  1  0.62467197  0.87228620  0.62288115  1
  Co  Co126  1  -0.00044199  0.75227120  -0.00498570  1
  Co  Co127  1  0.00132389  0.50118969  0.50152873  1
