# generated using pymatgen
data_Fe45Co19
_symmetry_space_group_name_H-M   'P 1'
_cell_length_a   11.41520510
_cell_length_b   11.41681620
_cell_length_c   11.41634252
_cell_angle_alpha   90.00361037
_cell_angle_beta   90.00797398
_cell_angle_gamma   90.00419287
_symmetry_Int_Tables_number   1
_chemical_formula_structural   Fe45Co19
_chemical_formula_sum   'Fe90 Co38'
_cell_volume   1487.83822555
_cell_formula_units_Z   2
loop_
 _symmetry_equiv_pos_site_id
 _symmetry_equiv_pos_as_xyz
  1  'x, y, z'
loop_
 _atom_site_type_symbol
 _atom_site_label
 _atom_site_symmetry_multiplicity
 _atom_site_fract_x
 _atom_site_fract_y
 _atom_site_fract_z
 _atom_site_occupancy
  Fe  Fe0  1  0.87513461  0.12270524  0.12344390  1
  Fe  Fe1  1  0.74513592  0.00340986  0.74846198  1
  Fe  Fe2  1  0.74484422  0.00095346  0.24762528  1
  Fe  Fe3  1  0.37322812  0.37667365  0.87197840  1
  Fe  Fe4  1  0.24963050  0.24718156  0.74935474  1
  Fe  Fe5  1  0.25087101  0.24993256  0.50128966  1
  Fe  Fe6  1  0.74598167  -0.00120109  0.00278182  1
  Fe  Fe7  1  0.25157725  0.00175461  0.24976897  1
  Fe  Fe8  1  0.50153099  0.75186970  -0.00001258  1
  Fe  Fe9  1  0.87377476  0.37507566  0.37343339  1
  Fe  Fe10  1  0.62718615  0.37795395  0.62671962  1
  Fe  Fe11  1  0.00137876  -0.00680388  -0.00293281  1
  Fe  Fe12  1  0.50113213  -0.00625899  0.49933875  1
  Fe  Fe13  1  0.37200239  0.37626853  0.12732281  1
  Fe  Fe14  1  -0.00127945  0.75103127  0.25011365  1
  Fe  Fe15  1  0.25054133  -0.00362610  0.50372004  1
  Fe  Fe16  1  0.87874949  0.62441109  0.62203986  1
  Fe  Fe17  1  0.12515134  0.12371713  0.37642981  1
  Fe  Fe18  1  0.87387661  0.12308211  0.37643269  1
  Fe  Fe19  1  -0.00031661  0.25174538  0.49982010  1
  Fe  Fe20  1  0.37847480  0.87703885  0.12747687  1
  Fe  Fe21  1  0.25185662  0.24921574  0.00001248  1
  Fe  Fe22  1  0.62652500  0.62895447  0.37496519  1
  Fe  Fe23  1  -0.00017563  0.24791855  0.25040204  1
  Fe  Fe24  1  0.87076600  0.87298245  0.87310953  1
  Fe  Fe25  1  0.50029480  0.50246675  0.25077636  1
  Fe  Fe26  1  0.11928839  0.62836230  0.62166277  1
  Fe  Fe27  1  0.49907743  0.25400231  0.50047448  1
  Fe  Fe28  1  0.87516055  0.12513798  0.62507666  1
  Fe  Fe29  1  0.37796892  0.12385181  0.87557282  1
  Fe  Fe30  1  0.12902004  0.37473617  0.37271722  1
  Fe  Fe31  1  0.12338318  0.12159776  0.87338941  1
  Fe  Fe32  1  0.87450639  0.87573003  0.12609163  1
  Fe  Fe33  1  0.12429099  0.12292039  0.12299356  1
  Fe  Fe34  1  0.87561636  0.37769940  0.12749648  1
  Fe  Fe35  1  0.24688345  0.50562727  0.75025689  1
  Fe  Fe36  1  0.37949413  0.12385601  0.62493429  1
  Fe  Fe37  1  0.62481302  0.12610033  0.37802036  1
  Fe  Fe38  1  0.50008871  0.49848664  -0.00107203  1
  Fe  Fe39  1  0.74661973  0.74233716  0.74717748  1
  Fe  Fe40  1  0.00234921  0.50224717  0.25257517  1
  Fe  Fe41  1  0.37868867  0.87302820  0.63127703  1
  Fe  Fe42  1  0.24837877  0.75453847  -0.00007756  1
  Fe  Fe43  1  0.87482335  0.12478735  0.87507607  1
  Fe  Fe44  1  0.37623531  0.12322564  0.37747507  1
  Fe  Fe45  1  0.87324308  0.37626894  0.87036655  1
  Fe  Fe46  1  0.12756957  0.87406078  0.37417238  1
  Fe  Fe47  1  0.24962559  -0.00376691  -0.00227259  1
  Fe  Fe48  1  0.37526606  0.62645065  0.87571385  1
  Fe  Fe49  1  0.49970343  0.24850856  0.24927269  1
  Fe  Fe50  1  0.37902971  0.62529768  0.62551669  1
  Fe  Fe51  1  0.62619595  0.37528844  0.12482276  1
  Fe  Fe52  1  0.62716773  0.37474673  0.37398443  1
  Fe  Fe53  1  0.75073836  0.25086052  0.50233620  1
  Fe  Fe54  1  -0.00038508  -0.00507670  0.50196097  1
  Fe  Fe55  1  0.50458350  0.50457774  0.75251814  1
  Fe  Fe56  1  0.62900977  0.37552578  0.87500140  1
  Fe  Fe57  1  0.24872975  0.50197462  0.49968469  1
  Fe  Fe58  1  -0.00160882  0.25167637  -0.00085412  1
  Fe  Fe59  1  0.37580975  0.87352996  0.86918816  1
  Fe  Fe60  1  0.62596257  0.86923699  0.37266475  1
  Fe  Fe61  1  0.25098546  0.74803722  0.24840175  1
  Fe  Fe62  1  0.75088050  0.50132768  0.49963384  1
  Fe  Fe63  1  0.75009568  0.74815255  0.00696291  1
  Fe  Fe64  1  0.49991307  0.49952380  0.49733158  1
  Fe  Fe65  1  0.25113243  0.75213207  0.50248582  1
  Fe  Fe66  1  0.50316391  0.24983764  0.74982207  1
  Fe  Fe67  1  0.12235583  0.12240083  0.62689874  1
  Fe  Fe68  1  0.87478102  0.37695552  0.62885353  1
  Fe  Fe69  1  0.00025689  -0.00069616  0.25082800  1
  Fe  Fe70  1  0.74756122  -0.00307670  0.50161058  1
  Fe  Fe71  1  0.12744080  0.37475201  0.12694025  1
  Fe  Fe72  1  0.12136360  0.62930543  0.87798740  1
  Fe  Fe73  1  0.12381265  0.37654041  0.62647633  1
  Fe  Fe74  1  0.12529401  0.37495387  0.87294398  1
  Fe  Fe75  1  0.75212229  0.50153443  0.00248951  1
  Fe  Fe76  1  0.87430301  0.62679681  0.37513291  1
  Fe  Fe77  1  0.87204714  0.87317417  0.62724354  1
  Fe  Fe78  1  0.37473125  0.37824691  0.62762489  1
  Fe  Fe79  1  0.12125496  0.62695876  0.12204779  1
  Fe  Fe80  1  0.37399696  0.62669330  0.37602507  1
  Fe  Fe81  1  0.87779621  0.62593120  0.87901006  1
  Fe  Fe82  1  0.87164976  0.87472813  0.37326166  1
  Fe  Fe83  1  0.74939484  0.24717172  0.24727614  1
  Fe  Fe84  1  0.38049399  0.12185850  0.12247136  1
  Fe  Fe85  1  0.37647397  0.62450910  0.12229632  1
  Fe  Fe86  1  0.37069373  0.37600073  0.37207536  1
  Fe  Fe87  1  0.62417299  0.12868049  0.88092946  1
  Fe  Fe88  1  0.62634104  0.87124737  0.87343725  1
  Fe  Fe89  1  0.24850146  0.50023028  -0.00038250  1
  Co  Co90  1  0.25253251  0.00206114  0.74933094  1
  Co  Co91  1  0.50510678  0.00122067  0.75208075  1
  Co  Co92  1  0.24893258  0.50661575  0.24884331  1
  Co  Co93  1  0.50484714  0.74513456  0.75185027  1
  Co  Co94  1  0.12516739  0.87379580  0.62983152  1
  Co  Co95  1  0.37240422  0.87434001  0.37235945  1
  Co  Co96  1  0.49688601  0.25555040  -0.00016947  1
  Co  Co97  1  0.12493298  0.62885286  0.37744339  1
  Co  Co98  1  0.25221958  0.24383638  0.24883682  1
  Co  Co99  1  -0.00154616  0.75571625  0.49837897  1
  Co  Co100  1  0.62377955  0.87149573  0.62723218  1
  Co  Co101  1  0.74836007  0.24618913  0.74896939  1
  Co  Co102  1  -0.00289951  0.75083149  0.75129490  1
  Co  Co103  1  0.24912002  0.74512062  0.74873512  1
  Co  Co104  1  -0.00025670  0.75784087  -0.00034300  1
  Co  Co105  1  0.00099911  0.50301330  0.75156665  1
  Co  Co106  1  0.62172728  0.62509509  0.61841026  1
  Co  Co107  1  0.75186190  0.74845837  0.24494877  1
  Co  Co108  1  0.62620430  0.62517832  0.88189610  1
  Co  Co109  1  0.74958605  0.50259035  0.24997607  1
  Co  Co110  1  0.62197478  0.87299990  0.12733526  1
  Co  Co111  1  0.12723416  0.87453284  0.86781698  1
  Co  Co112  1  0.49781723  0.75279407  0.49888139  1
  Co  Co113  1  -0.00033513  0.49761562  0.49685438  1
  Co  Co114  1  0.87970346  0.62408406  0.12399635  1
  Co  Co115  1  0.62256160  0.12484043  0.61978942  1
  Co  Co116  1  -0.00043825  0.24953511  0.75072225  1
  Co  Co117  1  0.49733921  0.74835130  0.24988644  1
  Co  Co118  1  0.75456469  0.25188082  0.00205492  1
  Co  Co119  1  -0.00472141  -0.00336552  0.75031848  1
  Co  Co120  1  0.12537743  0.87540883  0.12850563  1
  Co  Co121  1  0.50197291  -0.00588118  -0.00386719  1
  Co  Co122  1  0.00006215  0.49628055  -0.00106902  1
  Co  Co123  1  0.50354103  0.00020375  0.25324768  1
  Co  Co124  1  0.75144327  0.74985220  0.50169475  1
  Co  Co125  1  0.62161031  0.12603019  0.12012427  1
  Co  Co126  1  0.62281136  0.62467501  0.12540954  1
  Co  Co127  1  0.74930515  0.50743182  0.74964316  1
