# generated using pymatgen
data_Fe45Co19
_symmetry_space_group_name_H-M   'P 1'
_cell_length_a   11.41689538
_cell_length_b   11.41504508
_cell_length_c   11.41420605
_cell_angle_alpha   90.00827614
_cell_angle_beta   90.00124871
_cell_angle_gamma   90.00585125
_symmetry_Int_Tables_number   1
_chemical_formula_structural   Fe45Co19
_chemical_formula_sum   'Fe90 Co38'
_cell_volume   1487.54925103
_cell_formula_units_Z   2
loop_
 _symmetry_equiv_pos_site_id
 _symmetry_equiv_pos_as_xyz
  1  'x, y, z'
loop_
 _atom_site_type_symbol
 _atom_site_label
 _atom_site_symmetry_multiplicity
 _atom_site_fract_x
 _atom_site_fract_y
 _atom_site_fract_z
 _atom_site_occupancy
  Fe  Fe0  1  0.12602682  0.37461166  0.87642295  1
  Fe  Fe1  1  0.62700228  0.37241901  0.87549517  1
  Fe  Fe2  1  0.00080728  0.50079506  0.25043106  1
  Fe  Fe3  1  0.50160289  0.50036406  0.00123109  1
  Fe  Fe4  1  0.37359069  0.62479948  0.87777783  1
  Fe  Fe5  1  0.74888884  0.75227639  0.75369023  1
  Fe  Fe6  1  0.24876107  0.00121849  0.75053928  1
  Fe  Fe7  1  0.00079843  0.49830004  0.49863396  1
  Fe  Fe8  1  0.62575585  0.12320022  0.12241447  1
  Fe  Fe9  1  0.37411407  0.37606287  0.87657259  1
  Fe  Fe10  1  0.25084511  0.75479301  0.00148442  1
  Fe  Fe11  1  0.50035885  0.00053336  0.75017806  1
  Fe  Fe12  1  0.37722226  0.37455187  0.12617334  1
  Fe  Fe13  1  0.62511583  0.37222432  0.62342631  1
  Fe  Fe14  1  0.25023865  0.25026252  0.49769388  1
  Fe  Fe15  1  0.50046508  0.75261337  0.49965666  1
  Fe  Fe16  1  0.50166188  0.49954536  0.49974473  1
  Fe  Fe17  1  0.00017970  -0.00524872  0.00172331  1
  Fe  Fe18  1  0.62613586  0.62571686  0.62307324  1
  Fe  Fe19  1  0.87242225  0.87151014  0.12609696  1
  Fe  Fe20  1  0.12386987  0.12262909  0.87996052  1
  Fe  Fe21  1  0.87451724  0.88017261  0.62868310  1
  Fe  Fe22  1  -0.00081505  0.75229667  0.49962118  1
  Fe  Fe23  1  0.37477057  0.12246889  0.37061496  1
  Fe  Fe24  1  0.00131912  0.00017468  0.49805451  1
  Fe  Fe25  1  0.12515119  0.87626877  0.62559332  1
  Fe  Fe26  1  0.75180874  0.25071899  0.24524471  1
  Fe  Fe27  1  0.62727374  0.87902743  0.62595213  1
  Fe  Fe28  1  0.37794668  0.62722501  0.37340382  1
  Fe  Fe29  1  0.75253745  -0.00413846  -0.00548781  1
  Fe  Fe30  1  0.87484447  0.37387498  0.37500286  1
  Fe  Fe31  1  0.00304616  0.75003846  0.75336482  1
  Fe  Fe32  1  0.12378329  0.12936910  0.37006257  1
  Fe  Fe33  1  0.37477761  0.87677504  0.36649987  1
  Fe  Fe34  1  0.74985106  0.50055992  0.74962382  1
  Fe  Fe35  1  0.24936427  0.50085355  0.75100001  1
  Fe  Fe36  1  0.87442978  0.62571926  0.62495192  1
  Fe  Fe37  1  0.37497361  0.62512100  0.62430961  1
  Fe  Fe38  1  0.12510122  0.62775845  0.12319628  1
  Fe  Fe39  1  0.75036951  0.75238119  0.49819951  1
  Fe  Fe40  1  0.00087873  0.50033000  -0.00027422  1
  Fe  Fe41  1  0.37586502  0.12465385  0.62318271  1
  Fe  Fe42  1  0.87237683  0.37255364  0.87634474  1
  Fe  Fe43  1  0.87101031  0.62671302  0.12348523  1
  Fe  Fe44  1  0.87502487  0.37368845  0.62419003  1
  Fe  Fe45  1  0.62682366  0.12546816  0.37738367  1
  Fe  Fe46  1  0.25108485  0.24775397  0.75205856  1
  Fe  Fe47  1  -0.00152835  0.74788081  0.24940006  1
  Fe  Fe48  1  0.74776681  -0.00271063  0.25130590  1
  Fe  Fe49  1  0.50354009  0.50288750  0.24798151  1
  Fe  Fe50  1  0.37484580  0.12168873  0.87853907  1
  Fe  Fe51  1  0.50067008  0.49995051  0.75098328  1
  Fe  Fe52  1  0.37562667  0.62729585  0.12478212  1
  Fe  Fe53  1  0.25044070  -0.00221778  0.00813875  1
  Fe  Fe54  1  0.49907216  0.75113075  0.75229731  1
  Fe  Fe55  1  0.87464521  0.87563810  0.37339072  1
  Fe  Fe56  1  0.24853599  0.50213185  0.25023959  1
  Fe  Fe57  1  0.87437265  0.12570923  0.37660266  1
  Fe  Fe58  1  0.74745890  0.50097268  0.24902192  1
  Fe  Fe59  1  0.75114760  0.24238721  0.74849895  1
  Fe  Fe60  1  0.62409564  0.62770618  0.87865375  1
  Fe  Fe61  1  0.62617839  0.37388178  0.37547056  1
  Fe  Fe62  1  0.62427800  0.12363464  0.87792110  1
  Fe  Fe63  1  0.74802071  0.49773379  0.00114768  1
  Fe  Fe64  1  -0.00113055  0.24601054  0.75014737  1
  Fe  Fe65  1  0.50805816  0.75121488  0.24677526  1
  Fe  Fe66  1  -0.00332074  0.25189074  0.00262978  1
  Fe  Fe67  1  0.49967105  -0.00047143  0.49739984  1
  Fe  Fe68  1  0.25040781  0.75088877  0.49635046  1
  Fe  Fe69  1  0.50103645  0.24768580  0.24985488  1
  Fe  Fe70  1  0.25173899  0.24881294  0.00411182  1
  Fe  Fe71  1  0.50030680  0.25077781  0.00102898  1
  Fe  Fe72  1  0.12564087  0.87413092  0.36934081  1
  Fe  Fe73  1  0.87517618  0.62621864  0.87720612  1
  Fe  Fe74  1  0.00046872  0.00113687  0.24801016  1
  Fe  Fe75  1  0.12480493  0.37407410  0.62502512  1
  Fe  Fe76  1  0.87393580  0.12319681  0.12251079  1
  Fe  Fe77  1  0.49693056  -0.00694128  0.00431521  1
  Fe  Fe78  1  0.37362337  0.87616906  0.62559256  1
  Fe  Fe79  1  0.24896594  0.75075454  0.75172601  1
  Fe  Fe80  1  0.12419955  0.62562572  0.62366802  1
  Fe  Fe81  1  0.24909241  -0.00083035  0.49613816  1
  Fe  Fe82  1  0.37511427  0.37475027  0.62452815  1
  Fe  Fe83  1  0.87322556  0.62449702  0.37579247  1
  Fe  Fe84  1  0.37410287  0.37510988  0.37273189  1
  Fe  Fe85  1  0.24768424  0.50116173  0.49651383  1
  Fe  Fe86  1  0.12386452  0.37233138  0.12839332  1
  Fe  Fe87  1  0.49917739  0.24819777  0.75025783  1
  Fe  Fe88  1  -0.00007538  0.50081729  0.75272115  1
  Fe  Fe89  1  0.12408401  0.12495771  0.62340465  1
  Co  Co90  1  0.62579661  0.62481517  0.37766250  1
  Co  Co91  1  0.24617684  0.00475300  0.24425343  1
  Co  Co92  1  0.11986760  0.12801430  0.12427853  1
  Co  Co93  1  0.87494714  0.37883761  0.12424835  1
  Co  Co94  1  0.75229058  0.75379082  -0.00406420  1
  Co  Co95  1  0.37312707  0.87748018  0.87303224  1
  Co  Co96  1  0.75086027  -0.00114536  0.49801606  1
  Co  Co97  1  0.49590907  0.75471164  0.00168814  1
  Co  Co98  1  0.12572435  0.87828698  0.87590018  1
  Co  Co99  1  0.12177488  0.62667224  0.37625591  1
  Co  Co100  1  0.75049646  0.00432374  0.75447658  1
  Co  Co101  1  0.49813595  0.24947784  0.49761779  1
  Co  Co102  1  0.62894007  0.62844573  0.12060989  1
  Co  Co103  1  0.87607662  0.11969673  0.62173781  1
  Co  Co104  1  0.24947510  0.49819545  0.00427178  1
  Co  Co105  1  0.00016127  0.00340073  0.75060178  1
  Co  Co106  1  0.63023704  0.87459117  0.12188377  1
  Co  Co107  1  0.37362704  0.87439421  0.13473348  1
  Co  Co108  1  0.62326279  0.12265507  0.62169003  1
  Co  Co109  1  0.62460380  0.87560362  0.37649261  1
  Co  Co110  1  0.25297267  0.24721975  0.24602130  1
  Co  Co111  1  0.62308888  0.37393548  0.12593428  1
  Co  Co112  1  0.75051255  0.49928205  0.50071086  1
  Co  Co113  1  0.00013773  0.75124022  -0.00042902  1
  Co  Co114  1  0.12747248  0.62496491  0.87763784  1
  Co  Co115  1  0.12451496  0.37089737  0.37042963  1
  Co  Co116  1  0.50619240  -0.00023445  0.24878216  1
  Co  Co117  1  -0.00026278  0.24950896  0.49991891  1
  Co  Co118  1  0.75007893  0.25053013  0.00308463  1
  Co  Co119  1  0.74754031  0.75074136  0.25333695  1
  Co  Co120  1  0.24818117  0.74610908  0.25126472  1
  Co  Co121  1  0.87879429  0.87442043  0.87097049  1
  Co  Co122  1  0.12384360  0.87193596  0.12962772  1
  Co  Co123  1  0.37995125  0.12373204  0.12598035  1
  Co  Co124  1  -0.00690432  0.24921246  0.24718366  1
  Co  Co125  1  0.87790494  0.12589037  0.87931362  1
  Co  Co126  1  0.62262237  0.87568284  0.87544827  1
  Co  Co127  1  0.75193865  0.24905572  0.50216545  1
