# generated using pymatgen
data_Fe45Co19
_symmetry_space_group_name_H-M   'P 1'
_cell_length_a   11.41414940
_cell_length_b   11.41513218
_cell_length_c   11.41466854
_cell_angle_alpha   89.99723766
_cell_angle_beta   90.00096956
_cell_angle_gamma   89.99502420
_symmetry_Int_Tables_number   1
_chemical_formula_structural   Fe45Co19
_chemical_formula_sum   'Fe90 Co38'
_cell_volume   1487.26309011
_cell_formula_units_Z   2
loop_
 _symmetry_equiv_pos_site_id
 _symmetry_equiv_pos_as_xyz
  1  'x, y, z'
loop_
 _atom_site_type_symbol
 _atom_site_label
 _atom_site_symmetry_multiplicity
 _atom_site_fract_x
 _atom_site_fract_y
 _atom_site_fract_z
 _atom_site_occupancy
  Fe  Fe0  1  0.87375764  0.62297142  0.37605702  1
  Fe  Fe1  1  0.49765095  0.75059819  0.75121181  1
  Fe  Fe2  1  -0.00085085  0.24911223  0.24951434  1
  Fe  Fe3  1  0.75296391  -0.00053431  0.24675725  1
  Fe  Fe4  1  0.75217983  0.74989348  0.50242867  1
  Fe  Fe5  1  0.62394895  0.62906327  0.87517578  1
  Fe  Fe6  1  0.00304273  0.49994689  -0.00256924  1
  Fe  Fe7  1  0.87090787  0.37774502  0.62783472  1
  Fe  Fe8  1  0.74950458  0.24966465  0.49931643  1
  Fe  Fe9  1  -0.00062002  0.25150065  -0.00101127  1
  Fe  Fe10  1  -0.00099821  0.74863646  0.50077594  1
  Fe  Fe11  1  0.12189802  0.87644693  0.62538007  1
  Fe  Fe12  1  0.62434205  0.37240997  0.12779161  1
  Fe  Fe13  1  0.37564992  0.37493316  0.37608690  1
  Fe  Fe14  1  0.62637861  0.37458814  0.37165449  1
  Fe  Fe15  1  0.00048131  0.50074731  0.24958330  1
  Fe  Fe16  1  0.87448107  0.12444463  0.37443188  1
  Fe  Fe17  1  0.00229149  0.00174452  0.50168846  1
  Fe  Fe18  1  0.74859968  0.49881308  -0.00004085  1
  Fe  Fe19  1  0.62784456  0.62583144  0.62720452  1
  Fe  Fe20  1  0.25023782  0.75037924  -0.00102779  1
  Fe  Fe21  1  0.87443987  0.37461807  0.12460352  1
  Fe  Fe22  1  0.75007288  0.75356059  -0.00063647  1
  Fe  Fe23  1  0.37380071  0.37805880  0.87720843  1
  Fe  Fe24  1  0.49920948  0.50005976  0.24941893  1
  Fe  Fe25  1  0.87666234  0.87578740  0.37558827  1
  Fe  Fe26  1  0.12655127  0.12383318  0.12480462  1
  Fe  Fe27  1  0.49796508  0.24653685  0.00010603  1
  Fe  Fe28  1  0.50123224  -0.00055460  0.74971589  1
  Fe  Fe29  1  0.37172681  0.62693304  0.62593986  1
  Fe  Fe30  1  0.50299327  0.24692919  0.49764390  1
  Fe  Fe31  1  0.75052367  0.75109862  0.24977580  1
  Fe  Fe32  1  0.50003989  0.00199901  0.24820745  1
  Fe  Fe33  1  0.37725880  0.37439783  0.62354722  1
  Fe  Fe34  1  0.49879210  0.50199018  0.75185940  1
  Fe  Fe35  1  0.87469423  0.12274411  0.62633691  1
  Fe  Fe36  1  -0.00243234  0.25015952  0.75050699  1
  Fe  Fe37  1  0.62419347  0.62608738  0.12363448  1
  Fe  Fe38  1  0.37176308  0.87964298  0.12444709  1
  Fe  Fe39  1  0.00120910  0.49840075  0.75145074  1
  Fe  Fe40  1  0.37486623  0.12097810  0.37639234  1
  Fe  Fe41  1  0.12776438  0.62618518  0.12814819  1
  Fe  Fe42  1  0.75036029  -0.00324053  0.75172493  1
  Fe  Fe43  1  0.87423596  0.62539860  0.87463265  1
  Fe  Fe44  1  0.62574125  0.12555960  0.62638400  1
  Fe  Fe45  1  0.50155359  0.50289385  0.49988739  1
  Fe  Fe46  1  0.62663990  0.12255474  0.87761106  1
  Fe  Fe47  1  0.12557918  0.37572224  0.37406156  1
  Fe  Fe48  1  0.24882678  0.49972468  0.50033126  1
  Fe  Fe49  1  0.12982871  0.62633838  0.87060226  1
  Fe  Fe50  1  0.12744534  0.62684065  0.62626548  1
  Fe  Fe51  1  0.24843301  0.24747191  0.50083948  1
  Fe  Fe52  1  0.37413884  0.12424095  0.62490500  1
  Fe  Fe53  1  0.62720500  0.37281931  0.87398097  1
  Fe  Fe54  1  0.62432990  0.87269423  0.62454578  1
  Fe  Fe55  1  0.62525567  0.37554378  0.62687579  1
  Fe  Fe56  1  0.12514661  0.12390370  0.37515877  1
  Fe  Fe57  1  0.49914439  0.24831553  0.75207144  1
  Fe  Fe58  1  0.87557617  0.87356530  0.87688404  1
  Fe  Fe59  1  0.12366607  0.87450732  0.87449143  1
  Fe  Fe60  1  0.87549185  0.62747086  0.12319578  1
  Fe  Fe61  1  0.24860949  0.75543861  0.49486380  1
  Fe  Fe62  1  0.37288019  0.62639202  0.37386829  1
  Fe  Fe63  1  0.25154672  0.24688892  -0.00146739  1
  Fe  Fe64  1  0.62509030  0.87606804  0.12266657  1
  Fe  Fe65  1  0.49742000  0.75190496  0.00012387  1
  Fe  Fe66  1  -0.00162509  0.00065633  0.24678295  1
  Fe  Fe67  1  0.62726498  0.12623901  0.12465394  1
  Fe  Fe68  1  0.12483162  0.87413983  0.12565258  1
  Fe  Fe69  1  0.62157181  0.87498816  0.37636400  1
  Fe  Fe70  1  0.37735390  0.87585086  0.62079057  1
  Fe  Fe71  1  0.49751962  0.75123083  0.24905856  1
  Fe  Fe72  1  0.00068480  0.50022632  0.50072844  1
  Fe  Fe73  1  0.25152246  0.25047785  0.75084220  1
  Fe  Fe74  1  0.87273562  0.12547403  0.87779704  1
  Fe  Fe75  1  0.62617972  0.62540479  0.37364788  1
  Fe  Fe76  1  0.25219579  0.24880829  0.24998256  1
  Fe  Fe77  1  0.12722294  0.37502171  0.12450119  1
  Fe  Fe78  1  0.24837877  -0.00072350  0.74915329  1
  Fe  Fe79  1  0.12558904  0.37292262  0.62667379  1
  Fe  Fe80  1  0.37369215  0.62260537  0.12288859  1
  Fe  Fe81  1  0.87280756  0.37640810  0.37330341  1
  Fe  Fe82  1  0.12449749  0.12551230  0.87308712  1
  Fe  Fe83  1  -0.00125983  -0.00111196  0.00107483  1
  Fe  Fe84  1  0.00105788  0.74883484  0.25225122  1
  Fe  Fe85  1  0.37632358  0.87870293  0.87695581  1
  Fe  Fe86  1  0.74792192  -0.00018478  0.49952757  1
  Fe  Fe87  1  -0.00107596  0.24978765  0.50169142  1
  Fe  Fe88  1  -0.00357273  0.75062936  0.74784653  1
  Fe  Fe89  1  0.37490594  0.37639056  0.12293014  1
  Co  Co90  1  0.87647716  0.87857899  0.62355234  1
  Co  Co91  1  0.25173803  0.75393600  0.25232683  1
  Co  Co92  1  0.75294905  0.75282075  0.74918359  1
  Co  Co93  1  0.24883087  -0.00232394  0.25308716  1
  Co  Co94  1  0.12605616  0.62373242  0.37445613  1
  Co  Co95  1  0.75038678  0.24730777  0.74944816  1
  Co  Co96  1  -0.00146547  0.00000807  0.75265088  1
  Co  Co97  1  0.87410320  0.62084439  0.62614495  1
  Co  Co98  1  0.75280269  0.24838888  0.25035923  1
  Co  Co99  1  0.24664519  0.00049721  -0.00264751  1
  Co  Co100  1  0.74959915  0.25187607  0.00158304  1
  Co  Co101  1  0.87295703  0.37454752  0.87487384  1
  Co  Co102  1  0.75331414  -0.00324071  0.00267967  1
  Co  Co103  1  0.37378803  0.62395212  0.87615384  1
  Co  Co104  1  0.62646586  0.12383597  0.37157983  1
  Co  Co105  1  0.25231636  0.75578948  0.75041497  1
  Co  Co106  1  0.00366592  0.74781663  -0.00210063  1
  Co  Co107  1  0.11975615  0.87762316  0.37391028  1
  Co  Co108  1  0.12686180  0.37252012  0.87480155  1
  Co  Co109  1  0.50262629  0.00339543  0.50186410  1
  Co  Co110  1  0.75035708  0.50196638  0.24677473  1
  Co  Co111  1  0.24565939  0.50230216  -0.00096483  1
  Co  Co112  1  0.37512370  0.12145198  0.87326925  1
  Co  Co113  1  0.74799096  0.50146035  0.75407016  1
  Co  Co114  1  0.87832462  0.86949963  0.12461793  1
  Co  Co115  1  0.62324789  0.87491888  0.87644715  1
  Co  Co116  1  0.50042088  0.00220656  0.00136428  1
  Co  Co117  1  0.24753305  -0.00197810  0.50092879  1
  Co  Co118  1  0.37198036  0.12180566  0.12475649  1
  Co  Co119  1  0.38105852  0.87825093  0.37695526  1
  Co  Co120  1  0.49629466  0.24767800  0.24999456  1
  Co  Co121  1  0.50384776  0.49933470  -0.00121744  1
  Co  Co122  1  0.74802524  0.49939589  0.49978796  1
  Co  Co123  1  0.50034844  0.74615136  0.49989077  1
  Co  Co124  1  0.25118752  0.49832326  0.25006640  1
  Co  Co125  1  0.87518552  0.12743833  0.12286000  1
  Co  Co126  1  0.25132859  0.49678173  0.74860613  1
  Co  Co127  1  0.12432376  0.12541450  0.62783670  1
