# generated using pymatgen
data_Fe45Co19
_symmetry_space_group_name_H-M   'P 1'
_cell_length_a   11.41545356
_cell_length_b   11.41416073
_cell_length_c   11.41504681
_cell_angle_alpha   89.99271043
_cell_angle_beta   89.99660658
_cell_angle_gamma   90.00435186
_symmetry_Int_Tables_number   1
_chemical_formula_structural   Fe45Co19
_chemical_formula_sum   'Fe90 Co38'
_cell_volume   1487.35571495
_cell_formula_units_Z   2
loop_
 _symmetry_equiv_pos_site_id
 _symmetry_equiv_pos_as_xyz
  1  'x, y, z'
loop_
 _atom_site_type_symbol
 _atom_site_label
 _atom_site_symmetry_multiplicity
 _atom_site_fract_x
 _atom_site_fract_y
 _atom_site_fract_z
 _atom_site_occupancy
  Fe  Fe0  1  0.49931713  0.00022300  0.25145270  1
  Fe  Fe1  1  -0.00161900  -0.00240207  0.49990642  1
  Fe  Fe2  1  0.12464500  0.37643088  0.12537668  1
  Fe  Fe3  1  0.00191768  0.24946127  0.25070628  1
  Fe  Fe4  1  0.12469105  0.87162959  0.37566796  1
  Fe  Fe5  1  0.24767988  -0.00030406  0.75074581  1
  Fe  Fe6  1  0.87440141  0.62581908  0.62652572  1
  Fe  Fe7  1  0.74890896  0.00420758  0.74541263  1
  Fe  Fe8  1  0.62365874  0.37573777  0.12384428  1
  Fe  Fe9  1  0.87646365  0.37615871  0.12742059  1
  Fe  Fe10  1  0.50341067  0.74822996  0.74646224  1
  Fe  Fe11  1  0.24971971  0.75084741  0.24890603  1
  Fe  Fe12  1  0.24749367  0.74724311  0.74899096  1
  Fe  Fe13  1  0.87406647  0.62314227  0.37358056  1
  Fe  Fe14  1  0.00009957  0.25100347  0.50070882  1
  Fe  Fe15  1  0.49616981  0.25297819  0.49973319  1
  Fe  Fe16  1  0.00556945  0.50375918  0.75009469  1
  Fe  Fe17  1  0.12367616  0.62576235  0.12487570  1
  Fe  Fe18  1  0.00015750  -0.00080591  -0.00146983  1
  Fe  Fe19  1  -0.00030144  0.49992970  0.50002393  1
  Fe  Fe20  1  0.62126365  0.87278999  0.37951093  1
  Fe  Fe21  1  0.25459157  -0.00410737  0.49918748  1
  Fe  Fe22  1  0.00115268  -0.00065268  0.75032778  1
  Fe  Fe23  1  0.50181918  0.25106029  0.75090134  1
  Fe  Fe24  1  0.12801497  0.12579135  0.37724720  1
  Fe  Fe25  1  0.74806223  -0.00004250  0.25370870  1
  Fe  Fe26  1  0.37505044  0.87783695  0.12681529  1
  Fe  Fe27  1  0.12579016  0.37528757  0.87453492  1
  Fe  Fe28  1  0.37624989  0.62307885  0.12590716  1
  Fe  Fe29  1  0.50148850  -0.00015725  0.75077856  1
  Fe  Fe30  1  0.37309158  0.12202039  0.12290274  1
  Fe  Fe31  1  0.62390590  0.12441176  0.12454753  1
  Fe  Fe32  1  0.75095282  0.25073761  -0.00039862  1
  Fe  Fe33  1  0.00114563  0.74733523  0.74939857  1
  Fe  Fe34  1  0.62767768  0.87300213  0.87554287  1
  Fe  Fe35  1  0.00354272  -0.00008884  0.24998089  1
  Fe  Fe36  1  0.75130822  0.50135465  -0.00001350  1
  Fe  Fe37  1  0.37388329  0.12598286  0.37503547  1
  Fe  Fe38  1  0.24683436  0.25014818  0.74783726  1
  Fe  Fe39  1  0.37458864  0.62471661  0.87277418  1
  Fe  Fe40  1  0.75093304  0.00025327  -0.00049164  1
  Fe  Fe41  1  0.62295478  0.12448229  0.37992628  1
  Fe  Fe42  1  0.87520491  0.87516603  0.12838245  1
  Fe  Fe43  1  0.62554388  0.87588554  0.12397886  1
  Fe  Fe44  1  0.25160907  0.25099527  0.24715034  1
  Fe  Fe45  1  0.75191475  0.24737322  0.50420987  1
  Fe  Fe46  1  0.62586177  0.12623234  0.87546294  1
  Fe  Fe47  1  0.12836333  0.37339087  0.37718311  1
  Fe  Fe48  1  0.62516238  0.87790006  0.62047014  1
  Fe  Fe49  1  0.37366215  0.62372568  0.62667854  1
  Fe  Fe50  1  0.37204477  0.12400862  0.87668670  1
  Fe  Fe51  1  0.49857930  0.25228713  0.25076404  1
  Fe  Fe52  1  -0.00091212  0.50281794  -0.00230579  1
  Fe  Fe53  1  0.62432322  0.62448355  0.12608052  1
  Fe  Fe54  1  0.37369634  0.37849735  0.62673130  1
  Fe  Fe55  1  0.12358999  0.12429417  0.62342261  1
  Fe  Fe56  1  0.74698165  0.49987947  0.74997567  1
  Fe  Fe57  1  0.12600497  0.87078082  0.62227225  1
  Fe  Fe58  1  0.37492050  0.37803872  0.87272624  1
  Fe  Fe59  1  0.87533351  0.12380946  0.37542200  1
  Fe  Fe60  1  0.87704909  0.37350069  0.62891481  1
  Fe  Fe61  1  0.62588167  0.62276014  0.61805430  1
  Fe  Fe62  1  0.25140815  0.75177149  0.00107203  1
  Fe  Fe63  1  0.74878054  0.25051102  0.25031976  1
  Fe  Fe64  1  0.12839841  0.12317006  0.12121629  1
  Fe  Fe65  1  -0.00351594  0.74834082  -0.00039568  1
  Fe  Fe66  1  0.87614235  0.62352316  0.12932666  1
  Fe  Fe67  1  0.49984841  0.75158007  0.00109027  1
  Fe  Fe68  1  0.87101438  0.87126862  0.87252379  1
  Fe  Fe69  1  0.25040770  0.49961950  -0.00032027  1
  Fe  Fe70  1  0.37948398  0.62920018  0.37532441  1
  Fe  Fe71  1  0.62369561  0.37600320  0.62416290  1
  Fe  Fe72  1  0.49786759  0.25060486  -0.00040651  1
  Fe  Fe73  1  0.50076625  0.50073671  -0.00280979  1
  Fe  Fe74  1  0.24992658  0.50083959  0.25187160  1
  Fe  Fe75  1  0.37594729  0.87358819  0.87212315  1
  Fe  Fe76  1  0.87555236  0.12680549  0.87063016  1
  Fe  Fe77  1  0.37677561  0.12351910  0.62549001  1
  Fe  Fe78  1  0.87414509  0.37449831  0.87137597  1
  Fe  Fe79  1  0.62783487  0.62740216  0.87590556  1
  Fe  Fe80  1  0.00079022  0.24891603  -0.00187984  1
  Fe  Fe81  1  0.12377398  0.62861301  0.37835958  1
  Fe  Fe82  1  0.87405320  0.37546657  0.37308609  1
  Fe  Fe83  1  0.50097603  0.49876673  0.25386270  1
  Fe  Fe84  1  0.12434142  0.87250681  0.87625227  1
  Fe  Fe85  1  0.25130501  0.50139727  0.50005770  1
  Fe  Fe86  1  0.87450732  0.12482557  0.12687013  1
  Fe  Fe87  1  0.87266853  0.87426155  0.62390380  1
  Fe  Fe88  1  0.62704811  0.37761465  0.37845373  1
  Fe  Fe89  1  0.74791458  0.74895282  0.25351780  1
  Co  Co90  1  0.00549667  0.24955827  0.75027592  1
  Co  Co91  1  0.37758219  0.87106142  0.37092538  1
  Co  Co92  1  0.50380893  0.50226471  0.75024912  1
  Co  Co93  1  0.62197388  0.62537836  0.37967582  1
  Co  Co94  1  0.50016487  -0.00115257  -0.00216300  1
  Co  Co95  1  0.37726261  0.37862330  0.12573197  1
  Co  Co96  1  0.12681118  0.62686921  0.87811069  1
  Co  Co97  1  0.49294367  -0.00324465  0.49936644  1
  Co  Co98  1  0.49650977  0.75207652  0.50576275  1
  Co  Co99  1  0.12526005  0.37613080  0.62208554  1
  Co  Co100  1  0.75183000  0.74872180  0.00388281  1
  Co  Co101  1  0.25545021  0.75203171  0.50027484  1
  Co  Co102  1  0.87576139  0.87768875  0.37350810  1
  Co  Co103  1  0.74725475  0.50018186  0.25017225  1
  Co  Co104  1  0.37140063  0.37415760  0.37517492  1
  Co  Co105  1  0.00329762  0.49881483  0.25320279  1
  Co  Co106  1  0.74677838  0.24821318  0.74661068  1
  Co  Co107  1  0.12539895  0.62781509  0.61984801  1
  Co  Co108  1  0.37379094  0.87485152  0.63097747  1
  Co  Co109  1  0.12685870  0.12459404  0.87649117  1
  Co  Co110  1  0.25207460  0.24886538  0.50415467  1
  Co  Co111  1  -0.00057526  0.74978175  0.25162948  1
  Co  Co112  1  0.62618628  0.37481737  0.87572839  1
  Co  Co113  1  0.75418125  0.49937693  0.50122397  1
  Co  Co114  1  0.12327417  0.87314001  0.12445099  1
  Co  Co115  1  0.24870364  -0.00184841  0.25221760  1
  Co  Co116  1  0.75188088  0.00226306  0.50061495  1
  Co  Co117  1  0.74610847  0.74919391  0.74464724  1
  Co  Co118  1  0.49551357  0.49895571  0.49892609  1
  Co  Co119  1  0.24514019  0.50154090  0.74899121  1
  Co  Co120  1  0.87159924  0.62609724  0.87083156  1
  Co  Co121  1  0.50191001  0.75011162  0.24672967  1
  Co  Co122  1  0.87991989  0.12573103  0.62607581  1
  Co  Co123  1  -0.00553091  0.74953709  0.49973393  1
  Co  Co124  1  0.61919594  0.12435119  0.62070325  1
  Co  Co125  1  0.25183427  0.25376198  0.00028316  1
  Co  Co126  1  0.24931392  -0.00467608  -0.00234833  1
  Co  Co127  1  0.75253374  0.74994011  0.49707075  1
