# generated using pymatgen
data_Fe45Co19
_symmetry_space_group_name_H-M   'P 1'
_cell_length_a   11.41539581
_cell_length_b   11.41413724
_cell_length_c   11.41452660
_cell_angle_alpha   90.00822638
_cell_angle_beta   90.00630883
_cell_angle_gamma   89.99746557
_symmetry_Int_Tables_number   1
_chemical_formula_structural   Fe45Co19
_chemical_formula_sum   'Fe90 Co38'
_cell_volume   1487.27734172
_cell_formula_units_Z   2
loop_
 _symmetry_equiv_pos_site_id
 _symmetry_equiv_pos_as_xyz
  1  'x, y, z'
loop_
 _atom_site_type_symbol
 _atom_site_label
 _atom_site_symmetry_multiplicity
 _atom_site_fract_x
 _atom_site_fract_y
 _atom_site_fract_z
 _atom_site_occupancy
  Fe  Fe0  1  0.25174280  0.49947126  0.00021260  1
  Fe  Fe1  1  0.25082609  0.00113137  0.74882586  1
  Fe  Fe2  1  -0.00168289  -0.00426833  0.49955596  1
  Fe  Fe3  1  0.74784774  0.24821819  0.25017247  1
  Fe  Fe4  1  0.74986830  0.75154234  0.00009169  1
  Fe  Fe5  1  0.50086161  0.50120514  0.49959595  1
  Fe  Fe6  1  0.12530696  0.12406991  0.37711131  1
  Fe  Fe7  1  0.12553325  0.37333116  0.87594356  1
  Fe  Fe8  1  0.75081911  0.24722108  0.75038696  1
  Fe  Fe9  1  0.25415257  -0.00323870  0.00413091  1
  Fe  Fe10  1  0.62643545  0.12265132  0.37643815  1
  Fe  Fe11  1  0.12492244  0.62608228  0.87886120  1
  Fe  Fe12  1  0.87800797  0.62915162  0.12336412  1
  Fe  Fe13  1  0.49857018  0.49839758  -0.00153972  1
  Fe  Fe14  1  0.50058403  -0.00029935  0.25133337  1
  Fe  Fe15  1  0.62485531  0.37804151  0.62692636  1
  Fe  Fe16  1  0.62341644  0.62414758  0.87464381  1
  Fe  Fe17  1  0.62713353  0.87544326  0.12873624  1
  Fe  Fe18  1  0.87261031  0.87079582  0.36717240  1
  Fe  Fe19  1  0.24985693  0.74701454  0.74979728  1
  Fe  Fe20  1  0.87502404  0.37314091  0.12506390  1
  Fe  Fe21  1  0.50273057  0.75065541  0.49987264  1
  Fe  Fe22  1  0.87576824  0.12521730  0.87772503  1
  Fe  Fe23  1  0.37210553  0.87162613  0.37053487  1
  Fe  Fe24  1  0.62222243  0.12046248  0.87566709  1
  Fe  Fe25  1  0.00047188  0.50209664  0.24985249  1
  Fe  Fe26  1  0.75280071  -0.00540499  0.49918441  1
  Fe  Fe27  1  0.24865139  0.24699290  0.74965567  1
  Fe  Fe28  1  0.74896209  0.25193881  0.49970859  1
  Fe  Fe29  1  0.75054450  0.74857200  0.74867001  1
  Fe  Fe30  1  -0.00198975  0.49705581  -0.00272771  1
  Fe  Fe31  1  0.12463858  0.37680817  0.62603286  1
  Fe  Fe32  1  0.00144678  0.24832996  0.24901753  1
  Fe  Fe33  1  0.49846653  0.75500594  -0.00123249  1
  Fe  Fe34  1  0.37446184  0.37755496  0.37459644  1
  Fe  Fe35  1  0.37702625  0.12107492  0.87625118  1
  Fe  Fe36  1  0.24973018  0.24823016  0.25041701  1
  Fe  Fe37  1  0.24954273  -0.00138971  0.49899497  1
  Fe  Fe38  1  0.37357072  0.12547926  0.37707737  1
  Fe  Fe39  1  0.25064396  0.50461299  0.74975501  1
  Fe  Fe40  1  0.00155979  0.25093845  0.50143626  1
  Fe  Fe41  1  0.49979850  0.25091629  -0.00071131  1
  Fe  Fe42  1  0.75153574  0.49992781  -0.00027371  1
  Fe  Fe43  1  0.87933343  0.62896229  0.37702769  1
  Fe  Fe44  1  0.62356118  0.87824765  0.87156797  1
  Fe  Fe45  1  0.50191800  0.25160095  0.25322821  1
  Fe  Fe46  1  0.12544177  0.37559028  0.37379215  1
  Fe  Fe47  1  0.62362642  0.62450959  0.12244861  1
  Fe  Fe48  1  0.62523556  0.62396151  0.37671041  1
  Fe  Fe49  1  0.12580420  0.37496591  0.12387134  1
  Fe  Fe50  1  0.37250537  0.12594261  0.62186155  1
  Fe  Fe51  1  0.37374643  0.37417454  0.87367644  1
  Fe  Fe52  1  0.37289463  0.87264630  0.62517172  1
  Fe  Fe53  1  -0.00333454  -0.00471702  0.00556594  1
  Fe  Fe54  1  0.87524956  0.12538060  0.37522187  1
  Fe  Fe55  1  0.25004383  0.75419351  0.00369647  1
  Fe  Fe56  1  0.75038523  -0.00072209  0.00412587  1
  Fe  Fe57  1  0.37451672  0.37536588  0.12747984  1
  Fe  Fe58  1  0.37822470  0.12537523  0.12515222  1
  Fe  Fe59  1  0.50274157  0.74814086  0.25172008  1
  Fe  Fe60  1  0.12382744  0.12401137  0.12325630  1
  Fe  Fe61  1  0.12594550  0.87650176  0.87585051  1
  Fe  Fe62  1  0.00026667  0.24741781  0.74994918  1
  Fe  Fe63  1  0.12757288  0.87575577  0.36728621  1
  Fe  Fe64  1  0.49895985  -0.00310000  0.50028308  1
  Fe  Fe65  1  0.37461424  0.37667947  0.62424979  1
  Fe  Fe66  1  0.87678897  0.62615906  0.87694112  1
  Fe  Fe67  1  0.00168735  0.75013400  0.75154302  1
  Fe  Fe68  1  0.24754966  0.50340831  0.49863575  1
  Fe  Fe69  1  0.62591662  0.37702578  0.87311061  1
  Fe  Fe70  1  0.12475215  0.87510169  0.62657611  1
  Fe  Fe71  1  0.50005136  0.24832757  0.74857810  1
  Fe  Fe72  1  0.87464288  0.37468295  0.37383004  1
  Fe  Fe73  1  0.88135946  0.62865863  0.62168306  1
  Fe  Fe74  1  0.62765664  0.12176489  0.62413014  1
  Fe  Fe75  1  0.75295456  0.50267886  0.74908658  1
  Fe  Fe76  1  0.87661998  0.37491610  0.62673867  1
  Fe  Fe77  1  0.49731555  0.74813393  0.75015007  1
  Fe  Fe78  1  0.37674692  0.62644621  0.12462352  1
  Fe  Fe79  1  -0.00219507  0.00141323  0.74752611  1
  Fe  Fe80  1  0.75220078  0.50217447  0.50074719  1
  Fe  Fe81  1  0.62507310  0.37576200  0.12657760  1
  Fe  Fe82  1  0.87414473  0.87496847  0.87411608  1
  Fe  Fe83  1  0.62741013  0.87523594  0.62721041  1
  Fe  Fe84  1  0.24658377  0.74727275  0.49831091  1
  Fe  Fe85  1  0.12492385  0.12318629  0.87874171  1
  Fe  Fe86  1  0.74987651  0.24904386  0.00078070  1
  Fe  Fe87  1  0.24838556  0.50677496  0.25098306  1
  Fe  Fe88  1  0.75076146  0.50328068  0.24951291  1
  Fe  Fe89  1  0.50158374  0.25187890  0.49920010  1
  Co  Co90  1  0.37423111  0.87611065  0.87219496  1
  Co  Co91  1  0.12185389  0.62285533  0.11867439  1
  Co  Co92  1  0.12563211  0.87703606  0.12924585  1
  Co  Co93  1  0.87458668  0.12424408  0.62156805  1
  Co  Co94  1  0.49863181  -0.00533847  0.00358537  1
  Co  Co95  1  0.37720629  0.62695838  0.37539217  1
  Co  Co96  1  0.62374385  0.62426128  0.62599415  1
  Co  Co97  1  0.25165243  0.24837896  0.00067370  1
  Co  Co98  1  0.00540863  0.74795370  0.24713309  1
  Co  Co99  1  0.24511174  0.74170934  0.24812799  1
  Co  Co100  1  -0.00007009  0.49611539  0.49853331  1
  Co  Co101  1  0.12463035  0.12302157  0.62126463  1
  Co  Co102  1  0.24865226  0.25291884  0.49927462  1
  Co  Co103  1  0.50106053  0.50141489  0.24991480  1
  Co  Co104  1  -0.00004010  0.75493843  0.00045417  1
  Co  Co105  1  0.49614470  0.50236566  0.75192395  1
  Co  Co106  1  0.37434182  0.87229204  0.13296141  1
  Co  Co107  1  0.62707147  0.37875755  0.37415044  1
  Co  Co108  1  0.00272312  0.75840093  0.49775991  1
  Co  Co109  1  0.12048859  0.62529907  0.62267707  1
  Co  Co110  1  0.37495050  0.62565734  0.62188931  1
  Co  Co111  1  0.87238336  0.87038578  0.13094124  1
  Co  Co112  1  0.87575173  0.12720875  0.12552663  1
  Co  Co113  1  0.87482985  0.87230166  0.62724729  1
  Co  Co114  1  0.75050739  0.00324173  0.24789528  1
  Co  Co115  1  0.74880146  0.75056640  0.50023279  1
  Co  Co116  1  0.75332714  0.00126776  0.75057091  1
  Co  Co117  1  0.62203667  0.12527436  0.12513161  1
  Co  Co118  1  0.49714365  0.00007105  0.74523119  1
  Co  Co119  1  -0.00189793  0.00140070  0.24936165  1
  Co  Co120  1  0.11924761  0.62540796  0.37864395  1
  Co  Co121  1  -0.00015253  0.25182308  0.00007141  1
  Co  Co122  1  0.25151516  0.00466462  0.24843245  1
  Co  Co123  1  0.37404830  0.62751292  0.87914336  1
  Co  Co124  1  0.87356020  0.37324230  0.87374482  1
  Co  Co125  1  0.62690058  0.87557814  0.37249921  1
  Co  Co126  1  0.00008091  0.50134259  0.75299319  1
  Co  Co127  1  0.74665211  0.74409266  0.25008405  1
