# generated using pymatgen
data_Fe45Co19
_symmetry_space_group_name_H-M   'P 1'
_cell_length_a   11.41404301
_cell_length_b   11.41477782
_cell_length_c   11.41477534
_cell_angle_alpha   90.00294322
_cell_angle_beta   90.00485328
_cell_angle_gamma   90.00252636
_symmetry_Int_Tables_number   1
_chemical_formula_structural   Fe45Co19
_chemical_formula_sum   'Fe90 Co38'
_cell_volume   1487.21697148
_cell_formula_units_Z   2
loop_
 _symmetry_equiv_pos_site_id
 _symmetry_equiv_pos_as_xyz
  1  'x, y, z'
loop_
 _atom_site_type_symbol
 _atom_site_label
 _atom_site_symmetry_multiplicity
 _atom_site_fract_x
 _atom_site_fract_y
 _atom_site_fract_z
 _atom_site_occupancy
  Fe  Fe0  1  0.37597433  0.87360796  0.87713634  1
  Fe  Fe1  1  0.87351194  0.37852878  0.62105988  1
  Fe  Fe2  1  0.12344401  0.12479103  0.62804175  1
  Fe  Fe3  1  0.50244791  -0.00034253  0.24782997  1
  Fe  Fe4  1  0.00254386  0.50274655  0.49858266  1
  Fe  Fe5  1  0.37491690  0.12350739  0.12504275  1
  Fe  Fe6  1  0.24669615  0.50064374  0.25241115  1
  Fe  Fe7  1  0.49990313  0.24979730  0.00263070  1
  Fe  Fe8  1  0.75093498  0.74834172  0.49830058  1
  Fe  Fe9  1  0.37297152  0.37465417  0.37520816  1
  Fe  Fe10  1  0.37341712  0.87424464  0.12547755  1
  Fe  Fe11  1  0.75343258  0.24823148  0.24814032  1
  Fe  Fe12  1  0.62713530  0.62499869  0.62512736  1
  Fe  Fe13  1  0.87560204  0.62096398  0.87131688  1
  Fe  Fe14  1  0.88108375  0.12724704  0.87425417  1
  Fe  Fe15  1  0.24607726  0.24912655  -0.00041150  1
  Fe  Fe16  1  -0.00144033  0.25010279  0.24953289  1
  Fe  Fe17  1  0.62308695  0.62527145  0.37237763  1
  Fe  Fe18  1  0.12334031  0.12304927  0.12436797  1
  Fe  Fe19  1  0.75374808  0.25341726  0.75047429  1
  Fe  Fe20  1  0.24835675  0.25046199  0.75223300  1
  Fe  Fe21  1  0.37455736  0.12599496  0.62630060  1
  Fe  Fe22  1  0.62553656  0.12560216  0.62640695  1
  Fe  Fe23  1  0.24847786  0.74810238  0.00195466  1
  Fe  Fe24  1  0.75104900  0.74834516  0.74973167  1
  Fe  Fe25  1  0.37345153  0.37523211  0.12459492  1
  Fe  Fe26  1  0.00191913  0.75618142  0.24807619  1
  Fe  Fe27  1  0.49917905  0.25110488  0.49959329  1
  Fe  Fe28  1  0.75022715  0.00209563  -0.00033917  1
  Fe  Fe29  1  0.24799671  0.50344424  0.49574551  1
  Fe  Fe30  1  0.75269485  0.74563148  0.00219827  1
  Fe  Fe31  1  0.50011140  -0.00013457  0.49925507  1
  Fe  Fe32  1  0.75429993  0.50175096  0.00285005  1
  Fe  Fe33  1  -0.00151860  0.74709693  0.00039405  1
  Fe  Fe34  1  0.62537194  0.12764367  0.37373954  1
  Fe  Fe35  1  0.37494399  0.87458826  0.62481163  1
  Fe  Fe36  1  0.25001629  -0.00086176  0.49840267  1
  Fe  Fe37  1  0.75364228  0.50029341  0.25006981  1
  Fe  Fe38  1  0.24883761  0.25108102  0.24917131  1
  Fe  Fe39  1  0.49938516  0.49984846  0.49880639  1
  Fe  Fe40  1  0.62661107  0.37304248  0.37431366  1
  Fe  Fe41  1  0.37434338  0.37589902  0.87708352  1
  Fe  Fe42  1  0.37517416  0.12479604  0.87712304  1
  Fe  Fe43  1  0.25007179  0.75076087  0.75067180  1
  Fe  Fe44  1  0.12090576  0.37755106  0.12603613  1
  Fe  Fe45  1  0.50016820  -0.00134059  0.75143739  1
  Fe  Fe46  1  0.62698120  0.37425724  0.12531367  1
  Fe  Fe47  1  0.11917158  0.37525157  0.87626821  1
  Fe  Fe48  1  0.62744825  0.87438670  0.12315741  1
  Fe  Fe49  1  0.62402609  0.12616377  0.87527729  1
  Fe  Fe50  1  0.49958465  0.50301975  0.00022001  1
  Fe  Fe51  1  0.75026757  0.00146305  0.49927703  1
  Fe  Fe52  1  0.87603458  0.87675729  0.37424147  1
  Fe  Fe53  1  0.87375783  0.87460553  0.62435698  1
  Fe  Fe54  1  0.87775472  0.62664326  0.37304772  1
  Fe  Fe55  1  -0.00038130  0.74906138  0.74786827  1
  Fe  Fe56  1  -0.00024702  0.74723743  0.50314778  1
  Fe  Fe57  1  0.62697303  0.37687136  0.87683041  1
  Fe  Fe58  1  0.50108332  0.74660974  0.00018645  1
  Fe  Fe59  1  0.24734772  0.50120169  0.00124434  1
  Fe  Fe60  1  0.37414667  0.62610644  0.12904815  1
  Fe  Fe61  1  0.87578851  0.87487244  0.87591196  1
  Fe  Fe62  1  0.75397187  0.24939537  0.00137822  1
  Fe  Fe63  1  0.12094724  0.62421184  0.12935836  1
  Fe  Fe64  1  0.12679861  0.37612330  0.62277284  1
  Fe  Fe65  1  0.62525273  0.87468051  0.37477808  1
  Fe  Fe66  1  0.49878695  0.25324500  0.74972177  1
  Fe  Fe67  1  0.12428680  0.87567120  0.87649482  1
  Fe  Fe68  1  0.24971297  0.24936408  0.49942131  1
  Fe  Fe69  1  0.62683845  0.37680671  0.62365457  1
  Fe  Fe70  1  0.24471542  -0.00518936  0.24999406  1
  Fe  Fe71  1  0.75195735  0.00220481  0.24904103  1
  Fe  Fe72  1  0.87587676  0.12555725  0.62428220  1
  Fe  Fe73  1  0.87563112  0.37199943  0.37850539  1
  Fe  Fe74  1  0.12230077  0.12565638  0.37474877  1
  Fe  Fe75  1  0.24842411  0.00000525  0.75335218  1
  Fe  Fe76  1  0.62532239  0.87336342  0.62600650  1
  Fe  Fe77  1  0.37226539  0.62442981  0.62576046  1
  Fe  Fe78  1  0.49948266  0.50200953  0.75214011  1
  Fe  Fe79  1  0.75018079  0.74924969  0.24836930  1
  Fe  Fe80  1  0.37438498  0.12406851  0.37236402  1
  Fe  Fe81  1  0.00074476  -0.00087684  0.00144086  1
  Fe  Fe82  1  0.50004467  0.49783144  0.24925899  1
  Fe  Fe83  1  0.62477952  0.87248002  0.87473913  1
  Fe  Fe84  1  0.12417696  0.62374371  0.87287842  1
  Fe  Fe85  1  0.12645986  0.87324117  0.62264710  1
  Fe  Fe86  1  0.75208923  -0.00001662  0.75110061  1
  Fe  Fe87  1  0.49673278  0.75011506  0.49743760  1
  Fe  Fe88  1  0.24927321  0.49894530  0.75187814  1
  Fe  Fe89  1  -0.00055037  0.00057665  0.50026923  1
  Co  Co90  1  0.50197450  0.75179666  0.24913246  1
  Co  Co91  1  0.87847461  0.37665753  0.87761449  1
  Co  Co92  1  0.37154265  0.62471599  0.87565459  1
  Co  Co93  1  0.87781509  0.37634934  0.12421726  1
  Co  Co94  1  0.12888030  0.62609599  0.62552060  1
  Co  Co95  1  0.24641506  0.75319640  0.25186183  1
  Co  Co96  1  0.12282453  0.87273044  0.38076869  1
  Co  Co97  1  0.00155107  0.25038609  0.50202356  1
  Co  Co98  1  -0.00146027  0.25481004  0.74612333  1
  Co  Co99  1  -0.00110395  0.50311264  0.00032548  1
  Co  Co100  1  0.49938393  0.74683358  0.75072100  1
  Co  Co101  1  0.00209390  -0.00303581  0.25049746  1
  Co  Co102  1  0.37240380  0.37663355  0.62419291  1
  Co  Co103  1  0.87943661  0.62487208  0.12988200  1
  Co  Co104  1  0.25419530  0.74868561  0.49607333  1
  Co  Co105  1  0.50111537  -0.00120986  0.00074372  1
  Co  Co106  1  0.87385580  0.87612597  0.12392457  1
  Co  Co107  1  0.12414521  0.87404367  0.12029151  1
  Co  Co108  1  0.62835964  0.62413964  0.87525749  1
  Co  Co109  1  0.87739236  0.12529906  0.37560728  1
  Co  Co110  1  -0.00059563  -0.00368252  0.74829851  1
  Co  Co111  1  0.00084333  0.25031787  0.00348228  1
  Co  Co112  1  0.87277754  0.62260830  0.62513496  1
  Co  Co113  1  0.37540615  0.87658915  0.37164888  1
  Co  Co114  1  0.24905035  0.00130725  -0.00113682  1
  Co  Co115  1  0.74989170  0.50319643  0.49528248  1
  Co  Co116  1  0.49821094  0.25141480  0.24963298  1
  Co  Co117  1  0.00056355  0.49934179  0.74623064  1
  Co  Co118  1  0.62518376  0.12685537  0.12471725  1
  Co  Co119  1  -0.00133783  0.49620338  0.25548493  1
  Co  Co120  1  0.62501802  0.62328715  0.12657146  1
  Co  Co121  1  0.74878255  0.24840789  0.50092664  1
  Co  Co122  1  0.75075522  0.49770673  0.75012343  1
  Co  Co123  1  0.12496484  0.37253546  0.37527964  1
  Co  Co124  1  0.11976753  0.12492413  0.87360053  1
  Co  Co125  1  0.12237413  0.62931277  0.37251038  1
  Co  Co126  1  0.37595030  0.62474044  0.37022510  1
  Co  Co127  1  0.87783459  0.12215287  0.12479852  1
