# generated using pymatgen
data_Fe45Co19
_symmetry_space_group_name_H-M   'P 1'
_cell_length_a   11.41462553
_cell_length_b   11.41417946
_cell_length_c   11.41408160
_cell_angle_alpha   90.00320336
_cell_angle_beta   89.99860661
_cell_angle_gamma   90.00230975
_symmetry_Int_Tables_number   1
_chemical_formula_structural   Fe45Co19
_chemical_formula_sum   'Fe90 Co38'
_cell_volume   1487.12452818
_cell_formula_units_Z   2
loop_
 _symmetry_equiv_pos_site_id
 _symmetry_equiv_pos_as_xyz
  1  'x, y, z'
loop_
 _atom_site_type_symbol
 _atom_site_label
 _atom_site_symmetry_multiplicity
 _atom_site_fract_x
 _atom_site_fract_y
 _atom_site_fract_z
 _atom_site_occupancy
  Fe  Fe0  1  -0.00055008  0.49742249  0.74851470  1
  Fe  Fe1  1  0.75002905  0.75082756  0.25192582  1
  Fe  Fe2  1  0.87399612  0.62363729  0.12399227  1
  Fe  Fe3  1  0.62767598  0.87442992  0.62408755  1
  Fe  Fe4  1  0.00263050  -0.00016472  0.00079055  1
  Fe  Fe5  1  0.38005567  0.12421964  0.87072684  1
  Fe  Fe6  1  0.00056687  -0.00289742  0.50273043  1
  Fe  Fe7  1  -0.00067981  0.49922760  0.50153027  1
  Fe  Fe8  1  0.37507434  0.37714434  0.87634067  1
  Fe  Fe9  1  0.49903370  0.75134166  0.24930060  1
  Fe  Fe10  1  0.25102303  0.24708795  0.50007375  1
  Fe  Fe11  1  0.25144648  -0.00255370  0.75069780  1
  Fe  Fe12  1  0.62615783  0.12418625  0.12573720  1
  Fe  Fe13  1  0.49947478  0.49857139  0.24996872  1
  Fe  Fe14  1  0.62184008  0.12993699  0.63205151  1
  Fe  Fe15  1  -0.00036700  0.49794981  0.25020877  1
  Fe  Fe16  1  0.12626979  0.87306874  0.87183454  1
  Fe  Fe17  1  0.37545209  0.62191877  0.12471157  1
  Fe  Fe18  1  0.25119352  0.74859683  0.25305350  1
  Fe  Fe19  1  0.24969357  0.50378418  0.49723813  1
  Fe  Fe20  1  0.74680625  0.00181469  0.49753617  1
  Fe  Fe21  1  0.24986176  0.49941914  0.25175297  1
  Fe  Fe22  1  0.87276014  0.37590311  0.12371501  1
  Fe  Fe23  1  0.61969200  0.12341391  0.37363017  1
  Fe  Fe24  1  0.75183518  0.74896280  0.74902767  1
  Fe  Fe25  1  0.87635195  0.62425315  0.87346399  1
  Fe  Fe26  1  0.74473111  0.50372320  -0.00246101  1
  Fe  Fe27  1  0.62427523  0.37590680  0.12291302  1
  Fe  Fe28  1  0.37570905  0.37567677  0.37790753  1
  Fe  Fe29  1  0.24983989  0.00248372  -0.00219076  1
  Fe  Fe30  1  0.62440515  0.87558949  0.87522335  1
  Fe  Fe31  1  0.37636781  0.62421338  0.87442672  1
  Fe  Fe32  1  0.37255363  0.87919314  0.62162875  1
  Fe  Fe33  1  0.37366449  0.87523632  0.12324284  1
  Fe  Fe34  1  0.62200271  0.62554610  0.37538247  1
  Fe  Fe35  1  0.12376750  0.37394408  0.37559611  1
  Fe  Fe36  1  0.25389370  0.24982676  0.74874324  1
  Fe  Fe37  1  0.87416815  0.87710142  0.12545542  1
  Fe  Fe38  1  0.50311970  0.49376975  0.74704908  1
  Fe  Fe39  1  0.62586305  0.37511429  0.38079330  1
  Fe  Fe40  1  0.12551140  0.62456852  0.12554453  1
  Fe  Fe41  1  0.49993738  0.25084246  -0.00074687  1
  Fe  Fe42  1  0.74818467  0.74766981  -0.00068975  1
  Fe  Fe43  1  0.12339522  0.87447428  0.37490176  1
  Fe  Fe44  1  0.12842198  0.13000598  0.12630695  1
  Fe  Fe45  1  0.87784190  0.62493741  0.37600447  1
  Fe  Fe46  1  0.87438451  0.37523723  0.87663943  1
  Fe  Fe47  1  0.24963220  0.74772893  -0.00253568  1
  Fe  Fe48  1  0.25056144  0.74894321  0.49861049  1
  Fe  Fe49  1  0.50241741  0.74640639  0.00002134  1
  Fe  Fe50  1  0.87387045  0.12322439  0.12581327  1
  Fe  Fe51  1  0.86875513  0.37168659  0.61864754  1
  Fe  Fe52  1  0.62423480  0.62421808  0.62544538  1
  Fe  Fe53  1  0.12409278  0.12824831  0.87250250  1
  Fe  Fe54  1  0.75095988  0.25059980  0.25407316  1
  Fe  Fe55  1  0.49659040  0.75351835  0.74922916  1
  Fe  Fe56  1  0.25075501  0.00176450  0.25211033  1
  Fe  Fe57  1  0.49925728  0.74997383  0.50045895  1
  Fe  Fe58  1  0.12800187  0.37409070  0.62495507  1
  Fe  Fe59  1  -0.00003149  0.75000053  0.24853322  1
  Fe  Fe60  1  0.75045287  0.49862605  0.25348362  1
  Fe  Fe61  1  0.87667301  0.12373567  0.87620786  1
  Fe  Fe62  1  0.12734703  0.87535457  0.12568693  1
  Fe  Fe63  1  0.50117712  0.00090288  0.00056495  1
  Fe  Fe64  1  0.00473029  0.49762458  -0.00086887  1
  Fe  Fe65  1  0.00152775  0.25181239  0.00105082  1
  Fe  Fe66  1  0.37913588  0.12209575  0.37817780  1
  Fe  Fe67  1  0.75014302  -0.00028996  0.25360576  1
  Fe  Fe68  1  -0.00245371  0.75280728  0.50398347  1
  Fe  Fe69  1  0.37576004  0.62237177  0.62461016  1
  Fe  Fe70  1  0.12645717  0.12296817  0.62575712  1
  Fe  Fe71  1  0.87381286  0.12411518  0.62269432  1
  Fe  Fe72  1  -0.00309596  0.25116207  0.25147596  1
  Fe  Fe73  1  0.24574929  0.49642119  -0.00050179  1
  Fe  Fe74  1  0.62606852  0.87576584  0.12572014  1
  Fe  Fe75  1  0.12504816  0.62741826  0.62605540  1
  Fe  Fe76  1  0.00002522  0.75042083  -0.00066008  1
  Fe  Fe77  1  -0.00137879  0.75235012  0.74727252  1
  Fe  Fe78  1  -0.00298852  0.25063930  0.74631755  1
  Fe  Fe79  1  0.74841772  0.24745509  -0.00231535  1
  Fe  Fe80  1  0.75246134  0.74944254  0.49917925  1
  Fe  Fe81  1  0.37254659  0.12873464  0.12572832  1
  Fe  Fe82  1  0.74868258  0.00322636  0.75256060  1
  Fe  Fe83  1  0.87460914  0.87731330  0.87400587  1
  Fe  Fe84  1  0.74949920  0.49836846  0.74893729  1
  Fe  Fe85  1  0.12145438  0.12471442  0.37534894  1
  Fe  Fe86  1  0.37892895  0.87909415  0.37676402  1
  Fe  Fe87  1  0.49772972  0.25227244  0.50702799  1
  Fe  Fe88  1  0.24743689  0.50204947  0.75207476  1
  Fe  Fe89  1  0.49889762  0.25186234  0.24926580  1
  Co  Co90  1  0.12127426  0.62650130  0.37598564  1
  Co  Co91  1  0.24784705  0.00103658  0.49763689  1
  Co  Co92  1  0.12434170  0.37085203  0.87053123  1
  Co  Co93  1  0.62320032  0.62629300  0.86828209  1
  Co  Co94  1  0.12782008  0.37022454  0.12866977  1
  Co  Co95  1  0.87394320  0.37363255  0.38056145  1
  Co  Co96  1  0.87909330  0.12331390  0.37649897  1
  Co  Co97  1  0.00234600  0.25007500  0.50278571  1
  Co  Co98  1  0.50124156  0.49808040  0.50289256  1
  Co  Co99  1  0.12304751  0.62751599  0.87231498  1
  Co  Co100  1  0.62198277  0.87521406  0.37535527  1
  Co  Co101  1  0.87104814  0.87976595  0.62582092  1
  Co  Co102  1  0.25289062  0.24902496  0.25687393  1
  Co  Co103  1  0.62578431  0.37144811  0.87512732  1
  Co  Co104  1  0.37559404  0.87490492  0.87841835  1
  Co  Co105  1  0.50495700  0.00093680  0.50537011  1
  Co  Co106  1  0.00038965  0.00069137  0.74935157  1
  Co  Co107  1  0.50022268  -0.00633619  0.74789844  1
  Co  Co108  1  0.49592101  0.25859757  0.74593401  1
  Co  Co109  1  0.12797893  0.87493611  0.62658511  1
  Co  Co110  1  0.74866210  0.00085066  -0.00176023  1
  Co  Co111  1  0.25418980  0.75037481  0.74821091  1
  Co  Co112  1  0.74702809  0.24219422  0.49507549  1
  Co  Co113  1  0.63259393  0.37200696  0.62189947  1
  Co  Co114  1  0.49836228  -0.00020062  0.24541340  1
  Co  Co115  1  0.87586108  0.62372034  0.62647944  1
  Co  Co116  1  0.75397654  0.24956241  0.75330121  1
  Co  Co117  1  0.37568368  0.12098792  0.62674792  1
  Co  Co118  1  0.00188369  0.00094412  0.24667524  1
  Co  Co119  1  0.74980390  0.50558004  0.49936355  1
  Co  Co120  1  0.61964655  0.12708875  0.87075497  1
  Co  Co121  1  0.37869841  0.62422385  0.37476398  1
  Co  Co122  1  0.36842326  0.37921898  0.62312402  1
  Co  Co123  1  0.37416385  0.37464825  0.12451119  1
  Co  Co124  1  0.87665429  0.87659322  0.37502937  1
  Co  Co125  1  0.25154219  0.25170489  -0.00437632  1
  Co  Co126  1  0.62498867  0.62424655  0.12961089  1
  Co  Co127  1  0.50359908  0.50174367  -0.00110641  1
