# generated using pymatgen
data_Fe45Co19
_symmetry_space_group_name_H-M   'P 1'
_cell_length_a   11.41442261
_cell_length_b   11.41520258
_cell_length_c   11.41522707
_cell_angle_alpha   90.00539280
_cell_angle_beta   90.00378191
_cell_angle_gamma   89.99720304
_symmetry_Int_Tables_number   1
_chemical_formula_structural   Fe45Co19
_chemical_formula_sum   'Fe90 Co38'
_cell_volume   1487.38063305
_cell_formula_units_Z   2
loop_
 _symmetry_equiv_pos_site_id
 _symmetry_equiv_pos_as_xyz
  1  'x, y, z'
loop_
 _atom_site_type_symbol
 _atom_site_label
 _atom_site_symmetry_multiplicity
 _atom_site_fract_x
 _atom_site_fract_y
 _atom_site_fract_z
 _atom_site_occupancy
  Fe  Fe0  1  0.49835386  0.24942931  0.74841375  1
  Fe  Fe1  1  0.12518936  0.12496015  0.37493523  1
  Fe  Fe2  1  0.62255489  0.62354688  0.62517625  1
  Fe  Fe3  1  0.12881528  0.87492702  0.87392906  1
  Fe  Fe4  1  0.87440882  0.12345740  0.37739721  1
  Fe  Fe5  1  0.00093255  0.74872572  0.24914735  1
  Fe  Fe6  1  0.74619800  0.24529262  -0.00153316  1
  Fe  Fe7  1  0.75031072  0.00164186  0.75108723  1
  Fe  Fe8  1  0.74910343  0.24687707  0.25141630  1
  Fe  Fe9  1  0.87483409  0.37315285  0.87579596  1
  Fe  Fe10  1  0.62339864  0.37676189  0.12560423  1
  Fe  Fe11  1  0.74998912  0.24899412  0.75003737  1
  Fe  Fe12  1  -0.00208597  0.49899566  0.75180989  1
  Fe  Fe13  1  0.25299377  0.50105125  0.74786319  1
  Fe  Fe14  1  0.25026299  0.75019040  0.00175727  1
  Fe  Fe15  1  0.49638268  -0.00029235  0.49847645  1
  Fe  Fe16  1  0.12275545  0.37615644  0.37411359  1
  Fe  Fe17  1  0.87632015  0.37559084  0.37521637  1
  Fe  Fe18  1  0.62460726  0.62270729  0.37222404  1
  Fe  Fe19  1  0.75083866  0.50135400  0.50153858  1
  Fe  Fe20  1  0.37538169  0.12887745  0.12499979  1
  Fe  Fe21  1  0.25120271  0.25139455  0.74469133  1
  Fe  Fe22  1  0.62486376  0.87649053  0.87622858  1
  Fe  Fe23  1  0.74962242  0.50080087  -0.00153290  1
  Fe  Fe24  1  0.37441941  0.62676717  0.87673226  1
  Fe  Fe25  1  0.25055761  0.49782606  0.00220291  1
  Fe  Fe26  1  0.87657693  0.62471295  0.12196163  1
  Fe  Fe27  1  0.74739788  0.75128789  0.49929509  1
  Fe  Fe28  1  0.12559489  0.62374167  0.62530673  1
  Fe  Fe29  1  0.25092205  0.74966603  0.24824063  1
  Fe  Fe30  1  0.37276140  0.12740099  0.87567750  1
  Fe  Fe31  1  0.24918111  0.50033734  0.24786860  1
  Fe  Fe32  1  0.87335035  0.87537768  0.37500134  1
  Fe  Fe33  1  0.87533756  0.62512024  0.37442696  1
  Fe  Fe34  1  0.24674944  0.24987354  0.24833366  1
  Fe  Fe35  1  0.37753111  0.37428650  0.12638361  1
  Fe  Fe36  1  0.87528427  0.37533191  0.62470064  1
  Fe  Fe37  1  0.12651696  0.87462559  0.37472122  1
  Fe  Fe38  1  0.87749276  0.12430844  0.62743980  1
  Fe  Fe39  1  0.12450737  0.62338243  0.37545574  1
  Fe  Fe40  1  0.50355692  0.74871988  0.00254901  1
  Fe  Fe41  1  0.49559430  0.75132784  0.74978074  1
  Fe  Fe42  1  0.25220494  0.74996422  0.50129190  1
  Fe  Fe43  1  0.00068182  0.74963592  -0.00102432  1
  Fe  Fe44  1  0.00260720  0.25120738  0.50184326  1
  Fe  Fe45  1  0.74759074  0.24777913  0.50010010  1
  Fe  Fe46  1  0.87422959  0.87431855  0.62562528  1
  Fe  Fe47  1  0.74956459  0.74914008  0.75159312  1
  Fe  Fe48  1  0.12596662  0.62484890  0.87597802  1
  Fe  Fe49  1  0.00546192  0.24625356  -0.00330835  1
  Fe  Fe50  1  0.12132030  0.37411640  0.12629443  1
  Fe  Fe51  1  0.37195791  0.13067016  0.38036704  1
  Fe  Fe52  1  0.12531049  0.87661428  0.12616823  1
  Fe  Fe53  1  0.37606291  0.62562177  0.37356582  1
  Fe  Fe54  1  0.25504409  -0.00249467  0.74868457  1
  Fe  Fe55  1  0.62493638  0.37459938  0.87383843  1
  Fe  Fe56  1  0.49836926  0.50003369  0.75161582  1
  Fe  Fe57  1  -0.00061959  0.74944806  0.50057642  1
  Fe  Fe58  1  0.24978066  0.00341132  0.00071403  1
  Fe  Fe59  1  0.50120094  0.25031463  -0.00108246  1
  Fe  Fe60  1  0.87751515  0.37247381  0.12378830  1
  Fe  Fe61  1  0.49770464  0.49469196  0.49544676  1
  Fe  Fe62  1  0.12404623  0.12330215  0.62846573  1
  Fe  Fe63  1  0.74734887  0.75030151  0.24657037  1
  Fe  Fe64  1  0.87387235  0.87739076  0.12152719  1
  Fe  Fe65  1  0.62238488  0.12408551  0.62363288  1
  Fe  Fe66  1  0.62555442  0.88117954  0.37121856  1
  Fe  Fe67  1  0.25204630  0.49609768  0.50168575  1
  Fe  Fe68  1  0.62399921  0.87643725  0.62580994  1
  Fe  Fe69  1  0.62409857  0.37595901  0.62478733  1
  Fe  Fe70  1  0.12715646  0.37387819  0.87379728  1
  Fe  Fe71  1  0.87221428  0.87624678  0.87755629  1
  Fe  Fe72  1  0.62456493  0.88077882  0.12686766  1
  Fe  Fe73  1  0.37728536  0.87529931  0.12522622  1
  Fe  Fe74  1  0.49553057  -0.00031637  0.75060862  1
  Fe  Fe75  1  0.50097614  0.00408306  -0.00054255  1
  Fe  Fe76  1  0.50391691  0.25082579  0.25626829  1
  Fe  Fe77  1  0.50060508  0.75185929  0.49787700  1
  Fe  Fe78  1  0.75172033  0.49936609  0.24812634  1
  Fe  Fe79  1  0.25307621  0.00044543  0.25140944  1
  Fe  Fe80  1  0.12769228  0.87436284  0.62558609  1
  Fe  Fe81  1  0.62645710  0.62450815  0.87510505  1
  Fe  Fe82  1  -0.00131693  0.00098830  0.25013210  1
  Fe  Fe83  1  0.87430244  0.62509982  0.62692188  1
  Fe  Fe84  1  0.37355814  0.37326899  0.87509055  1
  Fe  Fe85  1  0.00052400  -0.00185913  0.50162112  1
  Fe  Fe86  1  0.87613049  0.12509002  0.12193264  1
  Fe  Fe87  1  0.37936517  0.62312485  0.12610092  1
  Fe  Fe88  1  0.00068246  0.75089971  0.75131449  1
  Fe  Fe89  1  0.00408432  0.00374476  -0.00398130  1
  Co  Co90  1  0.87575175  0.12521549  0.87401596  1
  Co  Co91  1  0.37782931  0.62428673  0.62258578  1
  Co  Co92  1  0.49899673  0.49878671  -0.00358174  1
  Co  Co93  1  0.37833414  0.37393366  0.62429021  1
  Co  Co94  1  0.50245322  0.75100928  0.24958349  1
  Co  Co95  1  0.24402932  0.25314194  0.50555490  1
  Co  Co96  1  0.12498943  0.12334826  0.12780483  1
  Co  Co97  1  0.25330765  0.74958179  0.74911231  1
  Co  Co98  1  0.75397180  0.00309966  0.24773046  1
  Co  Co99  1  -0.00139922  0.24779256  0.25101503  1
  Co  Co100  1  0.62288046  0.12491121  0.12899378  1
  Co  Co101  1  0.37398414  0.87249112  0.37519572  1
  Co  Co102  1  0.00136240  0.49821594  -0.00084277  1
  Co  Co103  1  0.74625358  0.00501116  -0.00138476  1
  Co  Co104  1  0.37606127  0.12721470  0.62074072  1
  Co  Co105  1  0.62279104  0.12558715  0.87120154  1
  Co  Co106  1  0.36895167  0.37023996  0.37365940  1
  Co  Co107  1  0.62656511  0.11948147  0.37660999  1
  Co  Co108  1  0.12425906  0.62581164  0.12295543  1
  Co  Co109  1  0.87519837  0.62526876  0.87564702  1
  Co  Co110  1  0.24901439  0.00056143  0.49970044  1
  Co  Co111  1  0.12938216  0.12586230  0.86893238  1
  Co  Co112  1  -0.00015643  0.25252187  0.75072866  1
  Co  Co113  1  0.50384302  0.25319838  0.49607262  1
  Co  Co114  1  0.49342051  0.00374997  0.25225411  1
  Co  Co115  1  -0.00175604  0.50052398  0.50034990  1
  Co  Co116  1  -0.00050671  -0.00328477  0.75182231  1
  Co  Co117  1  0.12262158  0.37865448  0.62669569  1
  Co  Co118  1  0.37565772  0.87437087  0.87944676  1
  Co  Co119  1  0.62259235  0.61913154  0.12619586  1
  Co  Co120  1  0.49894158  0.49598005  0.25468259  1
  Co  Co121  1  0.74994613  0.49947166  0.75086496  1
  Co  Co122  1  -0.00028591  0.50157427  0.24866504  1
  Co  Co123  1  0.63139770  0.37698105  0.37527492  1
  Co  Co124  1  0.75163570  -0.00083646  0.50338969  1
  Co  Co125  1  0.74687484  0.74871379  0.00237470  1
  Co  Co126  1  0.24727945  0.25048719  0.00212886  1
  Co  Co127  1  0.37419299  0.87363463  0.62186985  1
