# generated using pymatgen
data_Fe45Co19
_symmetry_space_group_name_H-M   'P 1'
_cell_length_a   11.41430786
_cell_length_b   11.41289698
_cell_length_c   11.41348741
_cell_angle_alpha   89.99634238
_cell_angle_beta   89.99271528
_cell_angle_gamma   89.99656703
_symmetry_Int_Tables_number   1
_chemical_formula_structural   Fe45Co19
_chemical_formula_sum   'Fe90 Co38'
_cell_volume   1486.83863597
_cell_formula_units_Z   2
loop_
 _symmetry_equiv_pos_site_id
 _symmetry_equiv_pos_as_xyz
  1  'x, y, z'
loop_
 _atom_site_type_symbol
 _atom_site_label
 _atom_site_symmetry_multiplicity
 _atom_site_fract_x
 _atom_site_fract_y
 _atom_site_fract_z
 _atom_site_occupancy
  Fe  Fe0  1  0.37516069  0.87299587  0.13125868  1
  Fe  Fe1  1  0.49940455  0.74956558  0.74877815  1
  Fe  Fe2  1  0.00612307  0.24701039  0.75205770  1
  Fe  Fe3  1  0.87914068  0.62042593  0.87815616  1
  Fe  Fe4  1  0.50250124  0.74902727  0.49913181  1
  Fe  Fe5  1  0.87678875  0.87475198  0.62405914  1
  Fe  Fe6  1  0.24868168  -0.00256944  0.49689688  1
  Fe  Fe7  1  0.74917768  0.25144045  -0.00111451  1
  Fe  Fe8  1  0.50074002  0.50143295  0.50154046  1
  Fe  Fe9  1  0.87628748  0.12557246  0.87511460  1
  Fe  Fe10  1  0.49820195  0.50195314  0.74882427  1
  Fe  Fe11  1  -0.00013884  -0.00013274  0.49864262  1
  Fe  Fe12  1  0.62599716  0.12467515  0.62648209  1
  Fe  Fe13  1  0.62700163  0.62496283  0.62626591  1
  Fe  Fe14  1  0.87776918  0.37469554  0.37236860  1
  Fe  Fe15  1  0.24945638  0.25366868  0.49407620  1
  Fe  Fe16  1  0.87870493  0.87624814  0.87720886  1
  Fe  Fe17  1  0.00448197  0.24930246  0.00007177  1
  Fe  Fe18  1  0.74981865  0.25028467  0.49963538  1
  Fe  Fe19  1  0.62676413  0.62554416  0.12271112  1
  Fe  Fe20  1  0.74926108  -0.00065968  0.49887689  1
  Fe  Fe21  1  0.37704376  0.62591136  0.37557054  1
  Fe  Fe22  1  0.12627816  0.37480416  0.62297454  1
  Fe  Fe23  1  0.25058921  0.49898946  0.49716085  1
  Fe  Fe24  1  0.12225956  0.87568112  0.62411872  1
  Fe  Fe25  1  0.62092063  0.87421451  0.87594390  1
  Fe  Fe26  1  0.74945470  0.25034994  0.24836067  1
  Fe  Fe27  1  0.00413969  0.74545684  0.00202937  1
  Fe  Fe28  1  0.75156527  0.49881824  0.75369210  1
  Fe  Fe29  1  0.37625936  0.87448751  0.62281313  1
  Fe  Fe30  1  0.37434643  0.12345932  0.37284810  1
  Fe  Fe31  1  0.12644756  0.87260589  0.12931357  1
  Fe  Fe32  1  0.62261942  0.37456460  0.37398734  1
  Fe  Fe33  1  0.74871562  0.49949942  0.24855615  1
  Fe  Fe34  1  0.62433857  0.12380885  0.12518753  1
  Fe  Fe35  1  0.62490790  0.12318710  0.87525514  1
  Fe  Fe36  1  0.75084223  0.49759542  0.49988689  1
  Fe  Fe37  1  0.13224607  0.12619113  0.12649264  1
  Fe  Fe38  1  0.62317755  0.87531659  0.12433379  1
  Fe  Fe39  1  0.87376950  0.62625946  0.37515477  1
  Fe  Fe40  1  0.87629331  0.37258199  0.62918344  1
  Fe  Fe41  1  0.00311208  0.00121053  0.00164141  1
  Fe  Fe42  1  0.12377169  0.62459744  0.37428195  1
  Fe  Fe43  1  0.50080750  0.00178109  0.49968612  1
  Fe  Fe44  1  0.12601600  0.87796806  0.87388253  1
  Fe  Fe45  1  0.87449961  0.37656995  0.12155273  1
  Fe  Fe46  1  -0.00061266  0.74837166  0.25052670  1
  Fe  Fe47  1  0.87417683  0.62673791  0.62502035  1
  Fe  Fe48  1  0.25133620  0.49782783  0.25302182  1
  Fe  Fe49  1  0.12378962  0.38109679  0.87686249  1
  Fe  Fe50  1  -0.00111595  0.50145759  0.50157573  1
  Fe  Fe51  1  0.37185040  0.62671238  0.12649838  1
  Fe  Fe52  1  0.37454256  0.37330816  0.12485086  1
  Fe  Fe53  1  0.24905673  0.75194143  0.49616943  1
  Fe  Fe54  1  0.87368725  0.12442312  0.37182255  1
  Fe  Fe55  1  0.62183184  0.87825270  0.37179345  1
  Fe  Fe56  1  0.49617189  0.00089187  0.75000560  1
  Fe  Fe57  1  0.62432716  0.37507267  0.87517217  1
  Fe  Fe58  1  0.12413411  0.12670712  0.37201204  1
  Fe  Fe59  1  0.37508796  0.62705396  0.87637816  1
  Fe  Fe60  1  0.49770854  0.24800133  -0.00039611  1
  Fe  Fe61  1  -0.00015212  0.24995550  0.49879753  1
  Fe  Fe62  1  0.25134714  0.50121828  0.74976784  1
  Fe  Fe63  1  0.36575348  0.12276444  0.87670913  1
  Fe  Fe64  1  0.87534410  0.87342678  0.12424435  1
  Fe  Fe65  1  0.87427599  0.12441513  0.12426720  1
  Fe  Fe66  1  0.50021420  0.24871941  0.49912063  1
  Fe  Fe67  1  0.50136847  0.50229860  0.24892049  1
  Fe  Fe68  1  0.87543640  0.12535062  0.62717900  1
  Fe  Fe69  1  0.50006004  0.50132012  0.00101579  1
  Fe  Fe70  1  0.62386298  0.37337188  0.62694108  1
  Fe  Fe71  1  0.00039297  0.74883465  0.75050352  1
  Fe  Fe72  1  -0.00080575  -0.00040370  0.24928734  1
  Fe  Fe73  1  0.37381658  0.37378055  0.62431329  1
  Fe  Fe74  1  0.36942086  0.12745217  0.62492684  1
  Fe  Fe75  1  -0.00069841  0.50266363  0.24621830  1
  Fe  Fe76  1  0.49392096  -0.00059257  0.00200137  1
  Fe  Fe77  1  0.12781998  0.37566832  0.12743505  1
  Fe  Fe78  1  0.74946374  0.74828950  -0.00225593  1
  Fe  Fe79  1  0.12625965  0.62549011  0.62541046  1
  Fe  Fe80  1  0.75006052  -0.00070558  0.00035452  1
  Fe  Fe81  1  0.74884093  0.75174885  0.25096946  1
  Fe  Fe82  1  0.25082646  0.75106561  0.74969517  1
  Fe  Fe83  1  0.49763605  0.24758028  0.75123308  1
  Fe  Fe84  1  0.49857186  0.24729159  0.24976333  1
  Fe  Fe85  1  0.24998226  0.75078410  -0.00042939  1
  Fe  Fe86  1  0.74829365  0.75236621  0.49871502  1
  Fe  Fe87  1  0.75006440  0.75066612  0.75283503  1
  Fe  Fe88  1  0.75080632  -0.00178800  0.75097901  1
  Fe  Fe89  1  0.37345286  0.37488309  0.87561443  1
  Co  Co90  1  0.37456400  0.87430301  0.87315103  1
  Co  Co91  1  0.49720389  0.75009662  0.00302813  1
  Co  Co92  1  0.87608031  0.87432842  0.37495885  1
  Co  Co93  1  0.24969627  -0.00212920  0.74559164  1
  Co  Co94  1  0.00289775  0.50309536  0.00630722  1
  Co  Co95  1  0.00079168  0.50039073  0.74653860  1
  Co  Co96  1  0.38121706  0.37710968  0.37497155  1
  Co  Co97  1  0.24573813  0.25176536  0.75190002  1
  Co  Co98  1  0.74806696  0.49934189  -0.00191798  1
  Co  Co99  1  0.36909507  0.12820801  0.12442044  1
  Co  Co100  1  0.50202087  0.74725124  0.25023063  1
  Co  Co101  1  0.87940685  0.37475853  0.87669002  1
  Co  Co102  1  0.62657686  0.12516064  0.37318882  1
  Co  Co103  1  0.25062965  0.75122831  0.25565247  1
  Co  Co104  1  0.25186141  -0.00635980  0.00469727  1
  Co  Co105  1  0.75077462  -0.00200841  0.24831153  1
  Co  Co106  1  0.62265990  0.37365040  0.12479023  1
  Co  Co107  1  0.25228208  0.25363582  0.25450702  1
  Co  Co108  1  0.62363620  0.87565495  0.62674028  1
  Co  Co109  1  0.11936748  0.37626373  0.37311018  1
  Co  Co110  1  0.25103094  0.50133069  0.00070578  1
  Co  Co111  1  0.00084574  0.00245264  0.74988866  1
  Co  Co112  1  0.62626357  0.62323523  0.37587507  1
  Co  Co113  1  0.12761156  0.12542940  0.62104278  1
  Co  Co114  1  0.49787670  0.00348316  0.24748580  1
  Co  Co115  1  0.87149365  0.62630815  0.12402603  1
  Co  Co116  1  0.25027199  -0.00154305  0.25200019  1
  Co  Co117  1  0.24788274  0.25346642  -0.00166413  1
  Co  Co118  1  0.37967499  0.87467225  0.37428717  1
  Co  Co119  1  0.37422955  0.62654866  0.62230983  1
  Co  Co120  1  -0.00067740  0.24950499  0.24629859  1
  Co  Co121  1  0.74935180  0.24984801  0.75159979  1
  Co  Co122  1  0.13114158  0.62634680  0.12813263  1
  Co  Co123  1  0.62158700  0.62586781  0.87557128  1
  Co  Co124  1  0.12182220  0.87486840  0.37335156  1
  Co  Co125  1  0.00076418  0.74837448  0.49953452  1
  Co  Co126  1  0.12587507  0.62323885  0.87427230  1
  Co  Co127  1  0.13103260  0.11894382  0.87761698  1
