# generated using pymatgen
data_Fe45Co19
_symmetry_space_group_name_H-M   'P 1'
_cell_length_a   11.41580042
_cell_length_b   11.41538487
_cell_length_c   11.41562428
_cell_angle_alpha   89.99400865
_cell_angle_beta   90.00580927
_cell_angle_gamma   90.00562901
_symmetry_Int_Tables_number   1
_chemical_formula_structural   Fe45Co19
_chemical_formula_sum   'Fe90 Co38'
_cell_volume   1487.63567690
_cell_formula_units_Z   2
loop_
 _symmetry_equiv_pos_site_id
 _symmetry_equiv_pos_as_xyz
  1  'x, y, z'
loop_
 _atom_site_type_symbol
 _atom_site_label
 _atom_site_symmetry_multiplicity
 _atom_site_fract_x
 _atom_site_fract_y
 _atom_site_fract_z
 _atom_site_occupancy
  Fe  Fe0  1  -0.00087480  -0.00686185  0.49888235  1
  Fe  Fe1  1  -0.00083721  -0.00041950  0.25115020  1
  Fe  Fe2  1  0.25529709  0.75382865  -0.00548982  1
  Fe  Fe3  1  0.12928211  0.37526533  0.12749078  1
  Fe  Fe4  1  0.62810269  0.37766054  0.12493038  1
  Fe  Fe5  1  0.87389517  0.37470684  0.37292277  1
  Fe  Fe6  1  0.74733774  0.74366347  0.24801578  1
  Fe  Fe7  1  0.87981843  0.87309446  0.86911791  1
  Fe  Fe8  1  0.62306847  0.12565181  0.87686587  1
  Fe  Fe9  1  0.62635770  0.37305464  0.87273111  1
  Fe  Fe10  1  -0.00114989  0.25243951  0.00250050  1
  Fe  Fe11  1  0.75235929  0.74840031  -0.00021431  1
  Fe  Fe12  1  0.37486728  0.12545426  0.37881515  1
  Fe  Fe13  1  0.12816123  0.12226855  0.61987368  1
  Fe  Fe14  1  0.37467503  0.12358932  0.12241870  1
  Fe  Fe15  1  0.12869317  0.37408264  0.37165944  1
  Fe  Fe16  1  0.50050352  0.24844289  0.24725856  1
  Fe  Fe17  1  0.74824726  0.00563144  0.25323424  1
  Fe  Fe18  1  0.75243510  -0.00030530  -0.00122330  1
  Fe  Fe19  1  0.50173375  0.50258781  0.24940555  1
  Fe  Fe20  1  0.12307038  0.12488053  0.87981084  1
  Fe  Fe21  1  0.25098813  0.49789331  0.49748151  1
  Fe  Fe22  1  0.25013728  0.74736823  0.24998718  1
  Fe  Fe23  1  0.74879203  0.50133846  0.49897704  1
  Fe  Fe24  1  0.62426810  0.87361450  0.87394346  1
  Fe  Fe25  1  0.37308853  0.37386728  0.86913155  1
  Fe  Fe26  1  0.62171622  0.62709552  0.87536115  1
  Fe  Fe27  1  0.00029064  0.49718753  0.00111257  1
  Fe  Fe28  1  0.12159448  0.87334605  0.87289996  1
  Fe  Fe29  1  0.87472406  0.37543451  0.62702367  1
  Fe  Fe30  1  0.00064760  0.74958679  0.24718610  1
  Fe  Fe31  1  0.24416954  0.50637693  0.75482983  1
  Fe  Fe32  1  0.62347585  0.12642978  0.62271904  1
  Fe  Fe33  1  0.12845114  0.87604253  0.12371968  1
  Fe  Fe34  1  0.00199935  0.50202115  0.24966348  1
  Fe  Fe35  1  0.62465490  0.87609704  0.12456291  1
  Fe  Fe36  1  0.00222917  0.25279115  0.50033702  1
  Fe  Fe37  1  0.50203218  0.00051843  0.74863902  1
  Fe  Fe38  1  0.49816524  -0.00317363  0.50216711  1
  Fe  Fe39  1  0.87661610  0.37476929  0.87300496  1
  Fe  Fe40  1  0.00323402  0.24776680  0.74842764  1
  Fe  Fe41  1  0.62550485  0.87400181  0.37400403  1
  Fe  Fe42  1  0.74848772  0.24462676  0.25098571  1
  Fe  Fe43  1  0.25152979  0.25180274  -0.00012205  1
  Fe  Fe44  1  0.49987248  0.75100659  0.50350311  1
  Fe  Fe45  1  0.25121410  0.00128815  0.25147319  1
  Fe  Fe46  1  0.87794737  0.12558495  0.87698094  1
  Fe  Fe47  1  0.00107666  0.75549076  0.50308619  1
  Fe  Fe48  1  0.49597676  0.75365733  -0.00212369  1
  Fe  Fe49  1  0.37571693  0.62446915  0.12219905  1
  Fe  Fe50  1  0.00062533  0.49807870  0.49981478  1
  Fe  Fe51  1  0.37586957  0.62629431  0.37681389  1
  Fe  Fe52  1  0.00013533  0.24859401  0.24931086  1
  Fe  Fe53  1  0.49873077  0.49622690  -0.00053433  1
  Fe  Fe54  1  0.87708033  0.62664914  0.37477373  1
  Fe  Fe55  1  0.12632627  0.62656818  0.11981833  1
  Fe  Fe56  1  0.50323485  0.49957944  0.74699264  1
  Fe  Fe57  1  0.24728203  0.00286699  0.75248590  1
  Fe  Fe58  1  0.87068726  0.37856877  0.12757516  1
  Fe  Fe59  1  0.75066651  -0.00029169  0.49770422  1
  Fe  Fe60  1  0.87260188  0.87664815  0.12818797  1
  Fe  Fe61  1  0.12485242  0.12227729  0.12177704  1
  Fe  Fe62  1  0.49371886  0.25401145  0.50690832  1
  Fe  Fe63  1  0.50144346  0.74798511  0.24839304  1
  Fe  Fe64  1  0.49938727  0.49813108  0.50384570  1
  Fe  Fe65  1  0.37269842  0.62503655  0.62711977  1
  Fe  Fe66  1  0.75078738  0.24928185  0.00104861  1
  Fe  Fe67  1  0.37237630  0.37498215  0.36920713  1
  Fe  Fe68  1  0.12403550  0.62685595  0.37782845  1
  Fe  Fe69  1  0.74992202  0.24747284  0.74930750  1
  Fe  Fe70  1  0.49878871  0.25271714  0.00072620  1
  Fe  Fe71  1  0.74937393  0.50318160  0.75140181  1
  Fe  Fe72  1  0.37499825  0.87326747  0.37256322  1
  Fe  Fe73  1  0.75104611  0.00118380  0.75070511  1
  Fe  Fe74  1  0.62430514  0.37413121  0.37656222  1
  Fe  Fe75  1  0.25103994  0.49838386  -0.00166681  1
  Fe  Fe76  1  0.75038517  0.75003599  0.50024059  1
  Fe  Fe77  1  0.75117207  0.24897975  0.49920612  1
  Fe  Fe78  1  0.00379181  0.50345722  0.75019633  1
  Fe  Fe79  1  0.12641397  0.12449088  0.37823058  1
  Fe  Fe80  1  0.24767848  0.75432062  0.50133399  1
  Fe  Fe81  1  0.88085064  0.62711664  0.87643144  1
  Fe  Fe82  1  0.49677669  -0.00326425  -0.00030460  1
  Fe  Fe83  1  0.50037284  0.00100078  0.25012360  1
  Fe  Fe84  1  0.37089934  0.87457233  0.63091908  1
  Fe  Fe85  1  0.12824353  0.37637551  0.62723155  1
  Fe  Fe86  1  0.87700095  0.12335843  0.62236431  1
  Fe  Fe87  1  0.87499995  0.62604500  0.62498655  1
  Fe  Fe88  1  0.62832421  0.87170690  0.62821251  1
  Fe  Fe89  1  0.37687387  0.12588344  0.87314922  1
  Co  Co90  1  0.36795490  0.37880831  0.63325377  1
  Co  Co91  1  0.24996516  0.24441380  0.24907855  1
  Co  Co92  1  0.37234832  0.12217229  0.62620476  1
  Co  Co93  1  0.49854696  0.75005803  0.74955722  1
  Co  Co94  1  0.25206349  -0.00325441  -0.00282154  1
  Co  Co95  1  0.25194309  -0.00533056  0.49794515  1
  Co  Co96  1  0.87902699  0.12528402  0.37714324  1
  Co  Co97  1  0.87374034  0.87486368  0.62896293  1
  Co  Co98  1  0.12736988  0.87754732  0.63039459  1
  Co  Co99  1  0.87229056  0.87284897  0.37167213  1
  Co  Co100  1  0.12455692  0.37356507  0.87424644  1
  Co  Co101  1  0.50082731  0.25033035  0.74625643  1
  Co  Co102  1  0.00465861  0.74589319  0.74417231  1
  Co  Co103  1  0.37385704  0.87512520  0.12869374  1
  Co  Co104  1  0.61909477  0.12703268  0.38025140  1
  Co  Co105  1  0.12766045  0.62369429  0.61952164  1
  Co  Co106  1  0.37825472  0.62159213  0.87345347  1
  Co  Co107  1  0.75073682  0.50264829  -0.00514214  1
  Co  Co108  1  0.62214241  0.62376843  0.11874873  1
  Co  Co109  1  0.24902176  0.50648871  0.25011925  1
  Co  Co110  1  0.62948915  0.37435183  0.62465900  1
  Co  Co111  1  -0.00222466  -0.00374496  0.00030716  1
  Co  Co112  1  0.24739241  0.74535291  0.75362847  1
  Co  Co113  1  0.37518183  0.87769334  0.86742932  1
  Co  Co114  1  -0.00374324  0.75454142  0.00451870  1
  Co  Co115  1  0.74683434  0.50489212  0.25371176  1
  Co  Co116  1  0.62170732  0.62573425  0.37943024  1
  Co  Co117  1  0.12590319  0.87429247  0.37167572  1
  Co  Co118  1  0.24637817  0.24533760  0.75000378  1
  Co  Co119  1  0.87587531  0.12378569  0.12420828  1
  Co  Co120  1  0.25287356  0.25343568  0.50070913  1
  Co  Co121  1  0.87509050  0.62113826  0.12422028  1
  Co  Co122  1  0.12058685  0.62916101  0.88333401  1
  Co  Co123  1  0.37260502  0.37625034  0.12878696  1
  Co  Co124  1  0.62568882  0.62709213  0.62540188  1
  Co  Co125  1  0.62364460  0.12331566  0.12096089  1
  Co  Co126  1  0.75074622  0.74780833  0.75348470  1
  Co  Co127  1  0.00046806  0.00383442  0.74950820  1
