# generated using pymatgen
data_Fe45Co19
_symmetry_space_group_name_H-M   'P 1'
_cell_length_a   11.42241716
_cell_length_b   11.42247006
_cell_length_c   11.42296178
_cell_angle_alpha   89.99774818
_cell_angle_beta   90.00112078
_cell_angle_gamma   90.00003158
_symmetry_Int_Tables_number   1
_chemical_formula_structural   Fe45Co19
_chemical_formula_sum   'Fe90 Co38'
_cell_volume   1490.37915862
_cell_formula_units_Z   2
loop_
 _symmetry_equiv_pos_site_id
 _symmetry_equiv_pos_as_xyz
  1  'x, y, z'
loop_
 _atom_site_type_symbol
 _atom_site_label
 _atom_site_symmetry_multiplicity
 _atom_site_fract_x
 _atom_site_fract_y
 _atom_site_fract_z
 _atom_site_occupancy
  Fe  Fe0  1  0.87227821  0.37427743  0.87622531  1
  Fe  Fe1  1  0.87473385  0.87468446  0.62381154  1
  Fe  Fe2  1  -0.00125596  0.49771579  0.74846389  1
  Fe  Fe3  1  0.12586461  0.12484668  0.87821839  1
  Fe  Fe4  1  0.12101270  0.37453125  0.12581011  1
  Fe  Fe5  1  0.37531453  0.87647032  0.62457163  1
  Fe  Fe6  1  -0.00016006  0.74878279  0.00271498  1
  Fe  Fe7  1  0.74766355  -0.00124839  0.24884787  1
  Fe  Fe8  1  0.37437848  0.12541433  0.87600234  1
  Fe  Fe9  1  0.37637488  0.37445414  0.62466684  1
  Fe  Fe10  1  0.75007660  0.74926907  0.00201839  1
  Fe  Fe11  1  0.12231455  0.37155667  0.37637315  1
  Fe  Fe12  1  0.24854700  0.49890494  0.00098319  1
  Fe  Fe13  1  0.24862403  0.25070211  0.74951180  1
  Fe  Fe14  1  0.12452639  0.62400484  0.87511016  1
  Fe  Fe15  1  0.50076011  0.25027686  0.24616799  1
  Fe  Fe16  1  0.37584866  0.62431415  0.87562258  1
  Fe  Fe17  1  -0.00524700  0.24259948  0.49573739  1
  Fe  Fe18  1  0.50209459  0.74954934  0.74799085  1
  Fe  Fe19  1  0.87581224  0.62462282  0.37326060  1
  Fe  Fe20  1  0.37677181  0.62499218  0.37350923  1
  Fe  Fe21  1  0.87328847  0.12624332  0.87136216  1
  Fe  Fe22  1  0.25254303  0.25075605  0.00342229  1
  Fe  Fe23  1  0.37601761  0.37496076  0.87501146  1
  Fe  Fe24  1  0.24732921  0.00219461  0.24948961  1
  Fe  Fe25  1  0.62693205  0.87483574  0.62289518  1
  Fe  Fe26  1  0.87638066  0.62298230  0.12806288  1
  Fe  Fe27  1  0.24745570  0.75042144  0.24784099  1
  Fe  Fe28  1  0.87617789  0.87695646  0.12565476  1
  Fe  Fe29  1  0.62565397  0.62409669  0.37572419  1
  Fe  Fe30  1  0.37660488  0.87579112  0.87457842  1
  Fe  Fe31  1  0.62789147  0.12765231  0.37209406  1
  Fe  Fe32  1  0.12422439  0.12681013  0.62376413  1
  Fe  Fe33  1  -0.00091646  0.50040759  0.00052839  1
  Fe  Fe34  1  0.50160899  0.49671652  0.25081409  1
  Fe  Fe35  1  0.24873429  0.00137037  0.75028250  1
  Fe  Fe36  1  0.75087653  0.75121251  0.25098613  1
  Fe  Fe37  1  0.50343692  0.25162375  0.75228634  1
  Fe  Fe38  1  0.24947216  0.00198463  0.49911538  1
  Fe  Fe39  1  -0.00246908  0.50079510  0.49979187  1
  Fe  Fe40  1  0.12291002  0.87611851  0.62269110  1
  Fe  Fe41  1  0.87353039  0.12556559  0.12985639  1
  Fe  Fe42  1  0.37574650  0.62277834  0.62325816  1
  Fe  Fe43  1  0.87433402  0.62533926  0.87432187  1
  Fe  Fe44  1  0.24865246  0.49808069  0.74954408  1
  Fe  Fe45  1  0.62589454  0.62336839  0.87533588  1
  Fe  Fe46  1  0.74911070  0.00017156  0.75079907  1
  Fe  Fe47  1  0.50227991  0.00208823  0.75014055  1
  Fe  Fe48  1  -0.00296526  0.24809362  0.00056900  1
  Fe  Fe49  1  0.37490528  0.62202259  0.12660944  1
  Fe  Fe50  1  0.50001343  0.00119404  0.49738703  1
  Fe  Fe51  1  0.62409143  0.87670410  0.12605529  1
  Fe  Fe52  1  0.37342733  0.12790101  0.37371100  1
  Fe  Fe53  1  0.37749846  0.87813985  0.12785571  1
  Fe  Fe54  1  0.62885952  0.37230890  0.12012097  1
  Fe  Fe55  1  0.62630033  0.62466545  0.62122138  1
  Fe  Fe56  1  0.75301252  0.49489321  0.25026534  1
  Fe  Fe57  1  0.24854319  0.74940675  0.74943457  1
  Fe  Fe58  1  0.62682488  0.12634472  0.62358283  1
  Fe  Fe59  1  0.12398030  0.37379277  0.87646762  1
  Fe  Fe60  1  0.00117619  0.74861358  0.74802155  1
  Fe  Fe61  1  0.24839639  0.74938876  0.49971839  1
  Fe  Fe62  1  0.25044262  0.49723597  0.49763349  1
  Fe  Fe63  1  0.50002012  0.25085295  0.49814266  1
  Fe  Fe64  1  0.24969701  0.75119280  0.00242347  1
  Fe  Fe65  1  0.12185996  0.62598369  0.37374586  1
  Fe  Fe66  1  0.50108207  0.49786620  0.00035225  1
  Fe  Fe67  1  0.50064101  0.74944677  0.00343183  1
  Fe  Fe68  1  0.00005724  0.00190269  0.74948851  1
  Fe  Fe69  1  0.74908507  0.49759833  0.74945737  1
  Fe  Fe70  1  0.75223970  0.00258183  0.49930083  1
  Fe  Fe71  1  0.12165141  0.87952514  0.12333260  1
  Fe  Fe72  1  0.12217413  0.37246222  0.62245251  1
  Fe  Fe73  1  0.62342535  0.87433597  0.37447427  1
  Fe  Fe74  1  0.87473774  0.87401412  0.87522881  1
  Fe  Fe75  1  0.12086963  0.87664380  0.37600231  1
  Fe  Fe76  1  0.12303531  0.87662436  0.87673841  1
  Fe  Fe77  1  0.87892323  0.87763148  0.37453336  1
  Fe  Fe78  1  0.24761591  0.24976630  0.24813297  1
  Fe  Fe79  1  0.62719854  0.12809869  0.87955472  1
  Fe  Fe80  1  0.62688956  0.62308642  0.12752567  1
  Fe  Fe81  1  0.87406756  0.36960223  0.62361040  1
  Fe  Fe82  1  0.62580868  0.87559894  0.87742935  1
  Fe  Fe83  1  0.62615337  0.37465635  0.62202294  1
  Fe  Fe84  1  0.24728854  0.49802849  0.25140147  1
  Fe  Fe85  1  0.50034647  0.00366626  0.00263654  1
  Fe  Fe86  1  0.37599762  0.12640879  0.62455133  1
  Fe  Fe87  1  0.62754935  0.37403851  0.37705253  1
  Fe  Fe88  1  0.87261941  0.62731627  0.62437161  1
  Fe  Fe89  1  0.37594115  0.87428297  0.37340377  1
  Co  Co90  1  0.75519011  0.24750888  0.00213141  1
  Co  Co91  1  0.49670723  0.24993367  0.00229844  1
  Co  Co92  1  0.00011788  0.75141251  0.24794817  1
  Co  Co93  1  0.62811895  0.37410463  0.88047733  1
  Co  Co94  1  0.50279985  0.49877684  0.75003066  1
  Co  Co95  1  0.00142105  0.25038999  0.75218636  1
  Co  Co96  1  0.75224544  0.00109222  0.00065340  1
  Co  Co97  1  0.87242127  0.12721145  0.62967488  1
  Co  Co98  1  0.74629360  0.25196294  0.75069719  1
  Co  Co99  1  -0.00086703  0.24802933  0.25223011  1
  Co  Co100  1  0.62827391  0.12672904  0.12559642  1
  Co  Co101  1  0.75237395  0.50218080  0.00127623  1
  Co  Co102  1  0.50103504  0.74829684  0.24939523  1
  Co  Co103  1  0.12731280  0.12587679  0.37542421  1
  Co  Co104  1  0.12567628  0.62164159  0.62402062  1
  Co  Co105  1  0.12407366  0.62228318  0.12583239  1
  Co  Co106  1  -0.00510786  0.00379462  -0.00057520  1
  Co  Co107  1  0.25195267  -0.00117037  0.00065586  1
  Co  Co108  1  0.87811116  0.37544130  0.12420524  1
  Co  Co109  1  0.25094032  0.25127095  0.50105840  1
  Co  Co110  1  0.75218807  0.25584852  0.24984571  1
  Co  Co111  1  0.12416555  0.12544033  0.12152873  1
  Co  Co112  1  0.87605961  0.37419578  0.37689793  1
  Co  Co113  1  0.74828715  0.75015897  0.75118753  1
  Co  Co114  1  -0.00041749  0.74829269  0.50030234  1
  Co  Co115  1  0.75132660  0.75113815  0.49550770  1
  Co  Co116  1  0.37487698  0.37178623  0.37216498  1
  Co  Co117  1  0.86942506  0.12251884  0.36828788  1
  Co  Co118  1  0.75206204  0.24744860  0.49796530  1
  Co  Co119  1  0.75270535  0.49913252  0.49963013  1
  Co  Co120  1  -0.00294350  0.00593450  0.50031220  1
  Co  Co121  1  0.37412506  0.37782719  0.12654539  1
  Co  Co122  1  0.50132052  0.00360960  0.25288134  1
  Co  Co123  1  -0.00004119  0.49723794  0.25222725  1
  Co  Co124  1  0.50013053  0.75062345  0.49965554  1
  Co  Co125  1  0.37427031  0.12300900  0.12733730  1
  Co  Co126  1  0.49914526  0.49793751  0.49732838  1
  Co  Co127  1  0.00270711  0.00513188  0.25045488  1
