# generated using pymatgen
data_Fe45Co19
_symmetry_space_group_name_H-M   'P 1'
_cell_length_a   11.41577270
_cell_length_b   11.41605322
_cell_length_c   11.41457891
_cell_angle_alpha   90.01066094
_cell_angle_beta   89.99497413
_cell_angle_gamma   90.00064179
_symmetry_Int_Tables_number   1
_chemical_formula_structural   Fe45Co19
_chemical_formula_sum   'Fe90 Co38'
_cell_volume   1487.58291930
_cell_formula_units_Z   2
loop_
 _symmetry_equiv_pos_site_id
 _symmetry_equiv_pos_as_xyz
  1  'x, y, z'
loop_
 _atom_site_type_symbol
 _atom_site_label
 _atom_site_symmetry_multiplicity
 _atom_site_fract_x
 _atom_site_fract_y
 _atom_site_fract_z
 _atom_site_occupancy
  Fe  Fe0  1  0.12155899  0.87392775  0.12572906  1
  Fe  Fe1  1  0.74979315  0.75054576  0.74978755  1
  Fe  Fe2  1  0.37265647  0.37373978  0.12431167  1
  Fe  Fe3  1  0.50320698  0.25080997  0.00438108  1
  Fe  Fe4  1  0.37355846  0.87700193  0.12608917  1
  Fe  Fe5  1  0.87629419  0.87396694  0.37378405  1
  Fe  Fe6  1  0.87211698  0.37565386  0.12328903  1
  Fe  Fe7  1  0.25035096  0.75097246  0.00129201  1
  Fe  Fe8  1  0.37671977  0.12431643  0.12661655  1
  Fe  Fe9  1  0.12429349  0.62619619  0.87588551  1
  Fe  Fe10  1  0.37746937  0.12555370  0.87545515  1
  Fe  Fe11  1  0.12068267  0.12507562  0.87090080  1
  Fe  Fe12  1  0.24604489  0.00206584  -0.00175421  1
  Fe  Fe13  1  0.12933731  0.87844707  0.62450674  1
  Fe  Fe14  1  0.87758631  0.12286760  0.12616913  1
  Fe  Fe15  1  0.62609825  0.12359211  0.62621007  1
  Fe  Fe16  1  0.74807272  0.24908891  0.24634801  1
  Fe  Fe17  1  0.00288222  0.50064060  0.25001218  1
  Fe  Fe18  1  0.75164057  0.00145157  0.00009042  1
  Fe  Fe19  1  0.87342614  0.37334461  0.37482558  1
  Fe  Fe20  1  0.37457565  0.37500870  0.37499747  1
  Fe  Fe21  1  0.87558036  0.62642642  0.37634071  1
  Fe  Fe22  1  0.24929178  0.24559702  0.50159308  1
  Fe  Fe23  1  -0.00086132  0.75025819  0.00100086  1
  Fe  Fe24  1  0.37537244  0.62338572  0.62525156  1
  Fe  Fe25  1  0.74913703  0.50204139  0.25029362  1
  Fe  Fe26  1  0.37649973  0.12568345  0.37306622  1
  Fe  Fe27  1  0.37225180  0.88020686  0.62551281  1
  Fe  Fe28  1  0.12164688  0.12525121  0.12878128  1
  Fe  Fe29  1  0.75069739  0.24956282  0.75024798  1
  Fe  Fe30  1  0.62294120  0.12544578  0.37144742  1
  Fe  Fe31  1  -0.00211365  0.74902894  0.50182705  1
  Fe  Fe32  1  0.62905261  0.37745654  0.88156055  1
  Fe  Fe33  1  0.62449120  0.87352110  0.37642006  1
  Fe  Fe34  1  0.37531863  0.87352569  0.37525445  1
  Fe  Fe35  1  0.62622259  0.87653631  0.62352909  1
  Fe  Fe36  1  0.75148141  -0.00068446  0.25007933  1
  Fe  Fe37  1  0.50129727  0.25042512  0.74948700  1
  Fe  Fe38  1  0.87693026  0.62614493  0.12644123  1
  Fe  Fe39  1  0.25267463  0.74758143  0.49757004  1
  Fe  Fe40  1  0.24944904  0.50068809  0.75205651  1
  Fe  Fe41  1  -0.00142078  0.24961913  -0.00022186  1
  Fe  Fe42  1  0.62856270  0.62628549  0.62241874  1
  Fe  Fe43  1  0.24894435  0.25110101  0.25009775  1
  Fe  Fe44  1  0.50296576  0.49916301  0.75175171  1
  Fe  Fe45  1  0.12346868  0.87291381  0.37513757  1
  Fe  Fe46  1  0.49966299  0.75185075  0.24843243  1
  Fe  Fe47  1  0.87327819  0.87862602  0.62432208  1
  Fe  Fe48  1  0.87328318  0.37649437  0.87483407  1
  Fe  Fe49  1  0.37509033  0.37485160  0.62515603  1
  Fe  Fe50  1  0.25034689  0.50178204  0.49759596  1
  Fe  Fe51  1  0.12392227  0.37320853  0.37627850  1
  Fe  Fe52  1  0.37819989  0.62656078  0.87599044  1
  Fe  Fe53  1  0.62406561  0.87383897  0.87592517  1
  Fe  Fe54  1  0.37478939  0.87547484  0.87482936  1
  Fe  Fe55  1  0.12643901  0.37479699  0.62605026  1
  Fe  Fe56  1  0.49903634  0.00012404  0.49975530  1
  Fe  Fe57  1  0.50042577  0.50090897  0.49917426  1
  Fe  Fe58  1  0.87163947  0.37677396  0.62554419  1
  Fe  Fe59  1  0.24770444  -0.00053027  0.25300996  1
  Fe  Fe60  1  0.87775612  0.12736907  0.37302653  1
  Fe  Fe61  1  -0.00013025  0.50045273  -0.00084540  1
  Fe  Fe62  1  0.50082246  0.75083964  0.74841679  1
  Fe  Fe63  1  0.25072965  0.50030701  -0.00070795  1
  Fe  Fe64  1  0.87693973  0.87682523  0.87619373  1
  Fe  Fe65  1  0.75103695  0.00264161  0.49801506  1
  Fe  Fe66  1  0.87594419  0.62351031  0.86975027  1
  Fe  Fe67  1  0.50081016  0.49693753  0.24887810  1
  Fe  Fe68  1  0.25096109  0.24684514  0.74907214  1
  Fe  Fe69  1  0.62698694  0.37318335  0.37516356  1
  Fe  Fe70  1  0.37417313  0.37215759  0.87604034  1
  Fe  Fe71  1  0.12566665  0.37471488  0.12291914  1
  Fe  Fe72  1  0.00227343  0.00349152  0.49963020  1
  Fe  Fe73  1  0.00094601  0.75235257  0.74767222  1
  Fe  Fe74  1  0.62525276  0.12426286  0.87496642  1
  Fe  Fe75  1  0.62250656  0.62352004  0.12078718  1
  Fe  Fe76  1  -0.00185016  0.50079872  0.50140276  1
  Fe  Fe77  1  0.62676029  0.87666259  0.12403960  1
  Fe  Fe78  1  0.50074704  -0.00111226  0.00022024  1
  Fe  Fe79  1  0.75063238  0.75064504  0.24984622  1
  Fe  Fe80  1  0.37314341  0.62420558  0.12780475  1
  Fe  Fe81  1  0.12469353  0.62459420  0.62465922  1
  Fe  Fe82  1  0.75084230  0.74824842  -0.00057725  1
  Fe  Fe83  1  0.49997494  0.24854111  0.50038580  1
  Fe  Fe84  1  0.62409316  0.62810688  0.37800342  1
  Fe  Fe85  1  -0.00087669  0.24735973  0.50436342  1
  Fe  Fe86  1  0.24969302  0.75049367  0.75111876  1
  Fe  Fe87  1  0.62737415  0.37448151  0.62196918  1
  Fe  Fe88  1  0.87773260  0.12272571  0.87066844  1
  Fe  Fe89  1  0.12535500  0.37317518  0.87465492  1
  Co  Co90  1  0.24621189  0.49884088  0.25114291  1
  Co  Co91  1  0.24832668  0.75030166  0.25124949  1
  Co  Co92  1  0.62335906  0.12166025  0.12673323  1
  Co  Co93  1  0.12198689  0.12843864  0.37152913  1
  Co  Co94  1  0.49794906  0.75266463  0.00246142  1
  Co  Co95  1  0.49937188  -0.00342106  0.25074884  1
  Co  Co96  1  0.24982629  0.00193479  0.75560890  1
  Co  Co97  1  0.37661868  0.62466663  0.37174475  1
  Co  Co98  1  0.12364619  0.62602147  0.37646120  1
  Co  Co99  1  0.12548117  0.12254312  0.62826858  1
  Co  Co100  1  0.87356951  0.62357334  0.62726966  1
  Co  Co101  1  -0.00089857  0.25436884  0.24764460  1
  Co  Co102  1  0.50136926  0.25357019  0.24715358  1
  Co  Co103  1  0.75083650  0.24687075  0.49965980  1
  Co  Co104  1  0.12437954  0.87341512  0.87614836  1
  Co  Co105  1  0.87568666  0.87506385  0.12420410  1
  Co  Co106  1  -0.00155648  0.25307586  0.74712880  1
  Co  Co107  1  0.49558343  0.49709775  -0.00005557  1
  Co  Co108  1  0.75326386  0.75155104  0.50011187  1
  Co  Co109  1  0.24830345  0.00362651  0.49463270  1
  Co  Co110  1  0.75388400  0.50584899  -0.00030303  1
  Co  Co111  1  0.00194458  -0.00517915  0.74819744  1
  Co  Co112  1  0.00208450  0.49881612  0.74932666  1
  Co  Co113  1  0.62238907  0.62546948  0.87802951  1
  Co  Co114  1  0.63021823  0.37768824  0.12084564  1
  Co  Co115  1  -0.00017144  0.74878298  0.25008585  1
  Co  Co116  1  0.87413022  0.12230438  0.62833373  1
  Co  Co117  1  0.49659746  0.75100133  0.50244953  1
  Co  Co118  1  0.74948956  -0.00169977  0.75182138  1
  Co  Co119  1  0.75237930  0.24442967  0.00106669  1
  Co  Co120  1  0.50013210  -0.00073468  0.75078506  1
  Co  Co121  1  0.37496861  0.12224418  0.62551681  1
  Co  Co122  1  0.24762988  0.24572309  0.00032412  1
  Co  Co123  1  0.12559191  0.62579854  0.12350465  1
  Co  Co124  1  0.74615724  0.50033870  0.74995547  1
  Co  Co125  1  0.00164714  0.00073956  0.00050527  1
  Co  Co126  1  0.75099530  0.50041254  0.49816291  1
  Co  Co127  1  -0.00050448  -0.00237969  0.25123845  1
