# generated using pymatgen
data_Fe45Co19
_symmetry_space_group_name_H-M   'P 1'
_cell_length_a   11.41378839
_cell_length_b   11.41472872
_cell_length_c   11.41450984
_cell_angle_alpha   90.00140325
_cell_angle_beta   90.00790740
_cell_angle_gamma   89.99505950
_symmetry_Int_Tables_number   1
_chemical_formula_structural   Fe45Co19
_chemical_formula_sum   'Fe90 Co38'
_cell_volume   1487.14279816
_cell_formula_units_Z   2
loop_
 _symmetry_equiv_pos_site_id
 _symmetry_equiv_pos_as_xyz
  1  'x, y, z'
loop_
 _atom_site_type_symbol
 _atom_site_label
 _atom_site_symmetry_multiplicity
 _atom_site_fract_x
 _atom_site_fract_y
 _atom_site_fract_z
 _atom_site_occupancy
  Fe  Fe0  1  0.75383323  0.74564137  0.74916842  1
  Fe  Fe1  1  0.50118861  0.25222864  -0.00040970  1
  Fe  Fe2  1  0.87481307  0.37775292  0.62562836  1
  Fe  Fe3  1  0.87364836  0.87506116  0.12505503  1
  Fe  Fe4  1  0.62541889  0.12201334  0.62257236  1
  Fe  Fe5  1  0.25011885  0.50069397  0.75058843  1
  Fe  Fe6  1  0.12550183  0.61984678  0.12579284  1
  Fe  Fe7  1  0.00036880  0.25469616  0.24558024  1
  Fe  Fe8  1  0.00092136  0.74950301  0.50079899  1
  Fe  Fe9  1  0.25283039  0.49890070  -0.00078517  1
  Fe  Fe10  1  0.87540328  0.62253136  0.12281926  1
  Fe  Fe11  1  0.00067899  0.00006319  0.25025655  1
  Fe  Fe12  1  0.61843093  0.62281996  0.12247856  1
  Fe  Fe13  1  0.25206936  0.74825107  0.24611243  1
  Fe  Fe14  1  0.12643282  0.87623921  0.12643988  1
  Fe  Fe15  1  0.12387898  0.87303461  0.87204318  1
  Fe  Fe16  1  0.12361087  0.62357233  0.62811636  1
  Fe  Fe17  1  0.37379248  0.87402743  0.37516574  1
  Fe  Fe18  1  0.49835120  0.74774404  0.24847247  1
  Fe  Fe19  1  0.37418319  0.87316221  0.87397380  1
  Fe  Fe20  1  0.62690115  0.37359050  0.87153654  1
  Fe  Fe21  1  0.37488053  0.37352885  0.87404307  1
  Fe  Fe22  1  0.62542060  0.87713782  0.62390435  1
  Fe  Fe23  1  0.12733968  0.12584576  0.12574211  1
  Fe  Fe24  1  0.87632227  0.87723719  0.62566777  1
  Fe  Fe25  1  0.49505069  0.00186244  0.24995612  1
  Fe  Fe26  1  0.24770269  0.25499529  0.50048142  1
  Fe  Fe27  1  0.50156842  0.25026209  0.50174632  1
  Fe  Fe28  1  0.25002052  0.25238183  0.00147621  1
  Fe  Fe29  1  0.87451823  0.62406452  0.37725569  1
  Fe  Fe30  1  0.87533194  0.12750134  0.87646279  1
  Fe  Fe31  1  0.25696546  0.49748269  0.25112488  1
  Fe  Fe32  1  0.74982399  0.00203260  0.75229657  1
  Fe  Fe33  1  0.74721261  0.50221185  0.25188046  1
  Fe  Fe34  1  0.87568871  0.87402145  0.37407169  1
  Fe  Fe35  1  0.74658023  0.74950218  0.00101101  1
  Fe  Fe36  1  0.25454662  0.25290698  0.24896028  1
  Fe  Fe37  1  0.12104172  0.62496136  0.87429665  1
  Fe  Fe38  1  0.87598275  0.87421790  0.87579719  1
  Fe  Fe39  1  0.62516862  0.12345414  0.12353970  1
  Fe  Fe40  1  0.62674845  0.62251796  0.62368453  1
  Fe  Fe41  1  0.00141450  0.00087821  0.49995872  1
  Fe  Fe42  1  -0.00005960  0.00150416  0.00002782  1
  Fe  Fe43  1  0.50126150  0.49966756  0.75217621  1
  Fe  Fe44  1  0.62478523  0.12328807  0.37779827  1
  Fe  Fe45  1  0.74867904  0.74726446  0.24867052  1
  Fe  Fe46  1  0.12648358  0.12741803  0.37245419  1
  Fe  Fe47  1  0.74856960  0.25271530  0.49982742  1
  Fe  Fe48  1  0.87444223  0.37534697  0.37165050  1
  Fe  Fe49  1  0.87321461  0.12725964  0.12460354  1
  Fe  Fe50  1  -0.00005163  0.25088708  0.74948304  1
  Fe  Fe51  1  0.00184540  0.25303800  0.50023638  1
  Fe  Fe52  1  0.12677123  0.87337692  0.37367359  1
  Fe  Fe53  1  -0.00203369  0.49302230  0.00070535  1
  Fe  Fe54  1  0.49779982  0.24915744  0.25013442  1
  Fe  Fe55  1  0.62278899  0.37576354  0.37454756  1
  Fe  Fe56  1  0.00397931  0.49724609  0.49873058  1
  Fe  Fe57  1  0.74898284  0.25121678  0.00059981  1
  Fe  Fe58  1  0.25063663  -0.00046657  0.00099252  1
  Fe  Fe59  1  0.12566805  0.87341711  0.62900570  1
  Fe  Fe60  1  0.12454685  0.12774615  0.87498759  1
  Fe  Fe61  1  0.37654343  0.12594934  0.87684300  1
  Fe  Fe62  1  0.74731704  0.24931303  0.74746515  1
  Fe  Fe63  1  0.75013959  0.00102231  0.25065454  1
  Fe  Fe64  1  0.49979402  0.00083755  0.74951676  1
  Fe  Fe65  1  0.12737298  0.62289825  0.37332108  1
  Fe  Fe66  1  0.37453747  0.37794350  0.62358875  1
  Fe  Fe67  1  0.24973427  -0.00016764  0.49897617  1
  Fe  Fe68  1  0.12605041  0.12671435  0.62664895  1
  Fe  Fe69  1  0.62606084  0.87386752  0.87481284  1
  Fe  Fe70  1  0.12412058  0.37308065  0.87252716  1
  Fe  Fe71  1  0.00017719  0.74708028  0.24904845  1
  Fe  Fe72  1  0.62396934  0.87498998  0.37464013  1
  Fe  Fe73  1  0.75032172  0.75034050  0.50054170  1
  Fe  Fe74  1  0.49740547  0.74926389  0.50268897  1
  Fe  Fe75  1  0.25041987  0.00140203  0.75108727  1
  Fe  Fe76  1  0.37875565  0.62625901  0.87641953  1
  Fe  Fe77  1  0.62267296  0.37719612  0.12737728  1
  Fe  Fe78  1  0.37409597  0.12435894  0.62276837  1
  Fe  Fe79  1  0.87514947  0.12748921  0.37445100  1
  Fe  Fe80  1  0.50009418  0.24992597  0.74784097  1
  Fe  Fe81  1  0.87448097  0.12399443  0.62399130  1
  Fe  Fe82  1  0.49905630  0.50286304  0.49651399  1
  Fe  Fe83  1  0.75306581  0.50314342  0.75221595  1
  Fe  Fe84  1  0.00201151  0.75007568  0.00207319  1
  Fe  Fe85  1  0.74767726  0.49957270  -0.00252842  1
  Fe  Fe86  1  0.50075091  -0.00287614  0.00104944  1
  Fe  Fe87  1  0.25116232  0.74793246  0.00081474  1
  Fe  Fe88  1  0.25282812  0.74687518  0.50463981  1
  Fe  Fe89  1  0.49896650  0.74916340  0.74794181  1
  Co  Co90  1  0.37298442  0.12723896  0.37818031  1
  Co  Co91  1  0.50110278  0.49648457  -0.00505083  1
  Co  Co92  1  0.25277020  0.00045524  0.25054713  1
  Co  Co93  1  0.49800641  0.50123697  0.25449727  1
  Co  Co94  1  0.25198717  0.74648149  0.75088891  1
  Co  Co95  1  0.37229131  0.62705401  0.37572191  1
  Co  Co96  1  0.62467211  0.37969096  0.62543542  1
  Co  Co97  1  0.74876627  0.49705277  0.49666308  1
  Co  Co98  1  0.37377277  0.87407369  0.12455663  1
  Co  Co99  1  0.62333565  0.12597669  0.87614158  1
  Co  Co100  1  0.00059996  0.00161011  0.75069111  1
  Co  Co101  1  0.12832405  0.37826926  0.12681492  1
  Co  Co102  1  0.12580931  0.37588288  0.37039967  1
  Co  Co103  1  0.86942631  0.37572383  0.12737200  1
  Co  Co104  1  0.37329333  0.87666039  0.62668785  1
  Co  Co105  1  0.62315950  0.62674955  0.87454404  1
  Co  Co106  1  0.75175008  -0.00059193  0.49739019  1
  Co  Co107  1  0.37895343  0.62220445  0.12137131  1
  Co  Co108  1  0.49759460  -0.00166621  0.49923325  1
  Co  Co109  1  0.37892376  0.37686109  0.12345401  1
  Co  Co110  1  0.12541682  0.37557761  0.62973695  1
  Co  Co111  1  0.62499297  0.87652377  0.12757142  1
  Co  Co112  1  0.24751727  0.49929108  0.50047140  1
  Co  Co113  1  0.87737038  0.62611962  0.88040322  1
  Co  Co114  1  0.87572450  0.62128649  0.61991817  1
  Co  Co115  1  0.37697507  0.37340145  0.37899819  1
  Co  Co116  1  -0.00283284  0.50023185  0.75217981  1
  Co  Co117  1  0.87307001  0.37185821  0.87340984  1
  Co  Co118  1  -0.00264892  0.49998448  0.24958233  1
  Co  Co119  1  0.62461802  0.62753690  0.37751269  1
  Co  Co120  1  0.37466556  0.12632144  0.12199717  1
  Co  Co121  1  0.75008926  0.00031470  -0.00090624  1
  Co  Co122  1  0.00053811  0.25354146  0.00336011  1
  Co  Co123  1  -0.00394529  0.74765473  0.74916990  1
  Co  Co124  1  0.25352937  0.24991015  0.74962681  1
  Co  Co125  1  0.37619923  0.62009714  0.62656022  1
  Co  Co126  1  0.50059167  0.75333136  0.00035136  1
  Co  Co127  1  0.74585740  0.24981237  0.25151986  1
