# generated using pymatgen
data_Fe45Co19
_symmetry_space_group_name_H-M   'P 1'
_cell_length_a   11.41540007
_cell_length_b   11.41547132
_cell_length_c   11.41575840
_cell_angle_alpha   89.99801179
_cell_angle_beta   89.99665700
_cell_angle_gamma   90.00226007
_symmetry_Int_Tables_number   1
_chemical_formula_structural   Fe45Co19
_chemical_formula_sum   'Fe90 Co38'
_cell_volume   1487.61226860
_cell_formula_units_Z   2
loop_
 _symmetry_equiv_pos_site_id
 _symmetry_equiv_pos_as_xyz
  1  'x, y, z'
loop_
 _atom_site_type_symbol
 _atom_site_label
 _atom_site_symmetry_multiplicity
 _atom_site_fract_x
 _atom_site_fract_y
 _atom_site_fract_z
 _atom_site_occupancy
  Fe  Fe0  1  0.37538712  0.12299367  0.12563763  1
  Fe  Fe1  1  0.25296037  0.00164745  0.75114170  1
  Fe  Fe2  1  0.49770859  0.49825512  0.24823413  1
  Fe  Fe3  1  0.12702753  0.37457319  0.12675497  1
  Fe  Fe4  1  0.62214553  0.87727267  0.12380052  1
  Fe  Fe5  1  0.87357219  0.62273658  0.12332406  1
  Fe  Fe6  1  0.00128394  0.24805682  0.50070822  1
  Fe  Fe7  1  0.00339172  0.49867980  0.00021108  1
  Fe  Fe8  1  0.12940598  0.62411379  0.12915477  1
  Fe  Fe9  1  0.87459324  0.87754777  0.12394863  1
  Fe  Fe10  1  0.49933423  0.25122911  0.24750167  1
  Fe  Fe11  1  0.12281608  0.37281556  0.37320014  1
  Fe  Fe12  1  0.25188476  0.25074680  0.24981654  1
  Fe  Fe13  1  0.37878065  0.37905924  0.62604655  1
  Fe  Fe14  1  0.74888009  0.00071331  -0.00333918  1
  Fe  Fe15  1  0.49419952  0.75203329  0.24663504  1
  Fe  Fe16  1  0.74487111  0.24838256  0.50349419  1
  Fe  Fe17  1  0.87640542  0.62685912  0.37467512  1
  Fe  Fe18  1  0.12755802  0.87464623  0.12790731  1
  Fe  Fe19  1  0.12703606  0.62628491  0.87416367  1
  Fe  Fe20  1  0.12518224  0.87478231  0.87294036  1
  Fe  Fe21  1  0.37603731  0.13256292  0.87173423  1
  Fe  Fe22  1  0.62324161  0.62006009  0.62676857  1
  Fe  Fe23  1  0.00177972  0.00192741  -0.00061156  1
  Fe  Fe24  1  0.62639598  0.88043108  0.62776907  1
  Fe  Fe25  1  0.12545997  0.62845418  0.37094121  1
  Fe  Fe26  1  0.25525730  -0.00443034  0.25307197  1
  Fe  Fe27  1  0.87428668  0.12720560  0.37541981  1
  Fe  Fe28  1  0.87658562  0.37227309  0.87500908  1
  Fe  Fe29  1  0.87546208  0.37454912  0.12515817  1
  Fe  Fe30  1  0.74580444  0.49747464  -0.00261755  1
  Fe  Fe31  1  0.00375130  0.74971301  0.50366917  1
  Fe  Fe32  1  0.49988976  0.00266675  -0.00343065  1
  Fe  Fe33  1  0.87361088  0.62644444  0.87662432  1
  Fe  Fe34  1  0.49902861  0.74833839  0.74993493  1
  Fe  Fe35  1  0.87018558  0.12329281  0.62631790  1
  Fe  Fe36  1  0.12433824  0.37691716  0.62493095  1
  Fe  Fe37  1  0.62246948  0.62517479  0.37250286  1
  Fe  Fe38  1  0.24988804  0.74977532  0.74743013  1
  Fe  Fe39  1  0.50435222  0.00412678  0.50077335  1
  Fe  Fe40  1  0.87693944  0.87141277  0.87739337  1
  Fe  Fe41  1  0.37003740  0.62024825  0.12060519  1
  Fe  Fe42  1  0.37484086  0.62619040  0.37563448  1
  Fe  Fe43  1  0.75034827  0.75107783  0.24833543  1
  Fe  Fe44  1  0.87468225  0.12554218  0.12470007  1
  Fe  Fe45  1  0.74730434  0.74998153  0.50062485  1
  Fe  Fe46  1  0.87472525  0.62310366  0.62523585  1
  Fe  Fe47  1  0.25008465  0.00245873  -0.00210021  1
  Fe  Fe48  1  0.00082364  0.00172285  0.25255358  1
  Fe  Fe49  1  0.25160026  0.49814129  0.75313890  1
  Fe  Fe50  1  0.25033308  0.49939214  0.49666163  1
  Fe  Fe51  1  0.12590441  0.12584560  0.12753968  1
  Fe  Fe52  1  0.74988744  0.25159356  0.25094967  1
  Fe  Fe53  1  0.12721671  0.12425943  0.62606928  1
  Fe  Fe54  1  0.62333591  0.37469523  0.37589262  1
  Fe  Fe55  1  0.62571568  0.62258239  0.12422314  1
  Fe  Fe56  1  0.74740874  0.49743077  0.75243400  1
  Fe  Fe57  1  -0.00144736  0.00186778  0.75043806  1
  Fe  Fe58  1  0.50149917  0.74851640  0.50278594  1
  Fe  Fe59  1  0.49838746  0.25385776  0.00403687  1
  Fe  Fe60  1  0.37521193  0.62168465  0.62561311  1
  Fe  Fe61  1  0.62149464  0.87483485  0.37320764  1
  Fe  Fe62  1  0.00170689  0.74857011  0.74691946  1
  Fe  Fe63  1  0.37779025  0.37313886  0.37563941  1
  Fe  Fe64  1  0.00053813  0.49916329  0.75125906  1
  Fe  Fe65  1  0.75149585  0.49809996  0.25262676  1
  Fe  Fe66  1  0.37370399  0.87197719  0.87774802  1
  Fe  Fe67  1  0.74765601  0.00035961  0.25201199  1
  Fe  Fe68  1  0.37625038  0.12521939  0.37679537  1
  Fe  Fe69  1  0.74893011  0.25064660  -0.00058357  1
  Fe  Fe70  1  0.87555311  0.12957403  0.87401578  1
  Fe  Fe71  1  0.62411807  0.87271801  0.87536622  1
  Fe  Fe72  1  0.00250952  0.74896943  0.00332531  1
  Fe  Fe73  1  0.25120326  0.25087414  0.50259070  1
  Fe  Fe74  1  0.49921384  0.74584750  0.00013149  1
  Fe  Fe75  1  0.37493444  0.87767190  0.62322992  1
  Fe  Fe76  1  0.87496793  0.37595140  0.62327435  1
  Fe  Fe77  1  0.74896352  0.50094999  0.49698999  1
  Fe  Fe78  1  0.50342509  0.24647131  0.50670039  1
  Fe  Fe79  1  0.00074342  0.50119958  0.49731089  1
  Fe  Fe80  1  0.24794530  0.75110300  0.50112767  1
  Fe  Fe81  1  0.87423565  0.87714478  0.62376590  1
  Fe  Fe82  1  0.62371520  0.12887126  0.86938439  1
  Fe  Fe83  1  0.12684468  0.36851294  0.87436053  1
  Fe  Fe84  1  0.74919375  0.75012712  0.74921629  1
  Fe  Fe85  1  0.87634490  0.87338987  0.37562595  1
  Fe  Fe86  1  0.12563161  0.13001107  0.87301241  1
  Fe  Fe87  1  0.00231256  0.00083249  0.49815558  1
  Fe  Fe88  1  0.62436056  0.12508566  0.12647808  1
  Fe  Fe89  1  0.24743705  -0.00125945  0.49729993  1
  Co  Co90  1  0.74755572  0.00032977  0.49504844  1
  Co  Co91  1  0.62304863  0.12725017  0.37154505  1
  Co  Co92  1  0.24768626  0.49693447  -0.00434439  1
  Co  Co93  1  0.12305412  0.87112848  0.37207106  1
  Co  Co94  1  -0.00061665  0.24993003  0.74595883  1
  Co  Co95  1  0.00124861  0.24987491  0.00252978  1
  Co  Co96  1  0.50082076  0.49917816  -0.00264888  1
  Co  Co97  1  0.74819147  0.25491741  0.74728466  1
  Co  Co98  1  0.25220161  0.25131549  0.74443479  1
  Co  Co99  1  0.74960442  0.75194845  0.00293258  1
  Co  Co100  1  -0.00294210  0.74850141  0.24557426  1
  Co  Co101  1  0.37180359  0.62613050  0.87680887  1
  Co  Co102  1  0.25100559  0.24847023  0.00342388  1
  Co  Co103  1  0.12672652  0.62023400  0.62544120  1
  Co  Co104  1  0.75375408  -0.00300872  0.75702085  1
  Co  Co105  1  0.62916514  0.11780474  0.63343913  1
  Co  Co106  1  -0.00102049  0.49896268  0.25035348  1
  Co  Co107  1  0.25792280  0.75426954  0.25018948  1
  Co  Co108  1  0.49751746  -0.00087347  0.25012962  1
  Co  Co109  1  0.49941232  0.50166712  0.75823700  1
  Co  Co110  1  0.12546504  0.87904144  0.62729423  1
  Co  Co111  1  0.62212839  0.38196127  0.62328719  1
  Co  Co112  1  0.62016315  0.36999277  0.87487176  1
  Co  Co113  1  0.87484819  0.37204729  0.37784881  1
  Co  Co114  1  0.37943012  0.87617742  0.38179816  1
  Co  Co115  1  0.50102186  0.25148623  0.74169381  1
  Co  Co116  1  0.37549735  0.37000521  0.87538873  1
  Co  Co117  1  0.62752686  0.62692360  0.87637401  1
  Co  Co118  1  0.25115661  0.49812659  0.25458496  1
  Co  Co119  1  0.62614545  0.37566439  0.12562184  1
  Co  Co120  1  0.37612091  0.87781654  0.11756609  1
  Co  Co121  1  0.49863789  0.50166600  0.49668931  1
  Co  Co122  1  0.24682883  0.75069389  0.00132722  1
  Co  Co123  1  0.37386905  0.12142147  0.62375574  1
  Co  Co124  1  0.37187255  0.37864733  0.12291484  1
  Co  Co125  1  0.49539082  -0.00134193  0.75315511  1
  Co  Co126  1  -0.00074377  0.25005166  0.24965588  1
  Co  Co127  1  0.12819245  0.12660588  0.37363807  1
