# generated using pymatgen
data_Fe45Co19
_symmetry_space_group_name_H-M   'P 1'
_cell_length_a   11.41577490
_cell_length_b   11.41583299
_cell_length_c   11.41507674
_cell_angle_alpha   89.99937799
_cell_angle_beta   90.00481761
_cell_angle_gamma   90.00640953
_symmetry_Int_Tables_number   1
_chemical_formula_structural   Fe45Co19
_chemical_formula_sum   'Fe90 Co38'
_cell_volume   1487.61940440
_cell_formula_units_Z   2
loop_
 _symmetry_equiv_pos_site_id
 _symmetry_equiv_pos_as_xyz
  1  'x, y, z'
loop_
 _atom_site_type_symbol
 _atom_site_label
 _atom_site_symmetry_multiplicity
 _atom_site_fract_x
 _atom_site_fract_y
 _atom_site_fract_z
 _atom_site_occupancy
  Fe  Fe0  1  0.87566111  0.62709573  0.12701661  1
  Fe  Fe1  1  0.49757610  0.49430674  0.24510897  1
  Fe  Fe2  1  0.62606499  0.87613075  0.37320233  1
  Fe  Fe3  1  0.37462120  0.87406570  0.87601013  1
  Fe  Fe4  1  0.87520876  0.87348808  0.87692972  1
  Fe  Fe5  1  0.50068933  0.75116509  0.24933699  1
  Fe  Fe6  1  0.24941090  0.00153649  0.00215290  1
  Fe  Fe7  1  0.74798900  0.74878267  0.49802727  1
  Fe  Fe8  1  0.37382083  0.62440188  0.62446160  1
  Fe  Fe9  1  0.12394302  0.12214298  0.37380527  1
  Fe  Fe10  1  0.37469058  0.12825091  0.62652684  1
  Fe  Fe11  1  0.24828725  0.74865323  0.75034340  1
  Fe  Fe12  1  -0.00269453  -0.00103439  0.00346040  1
  Fe  Fe13  1  0.87416160  0.62240899  0.61985229  1
  Fe  Fe14  1  0.37300556  0.62441881  0.37207280  1
  Fe  Fe15  1  -0.00209674  0.50236103  0.25354291  1
  Fe  Fe16  1  0.50093707  0.74879573  0.00089061  1
  Fe  Fe17  1  0.50146090  0.00281236  -0.00013681  1
  Fe  Fe18  1  0.87505814  0.87144306  0.37006830  1
  Fe  Fe19  1  0.62556922  0.87498586  0.87369679  1
  Fe  Fe20  1  0.37174809  0.87580154  0.37137059  1
  Fe  Fe21  1  0.24877072  0.25007335  0.49961599  1
  Fe  Fe22  1  0.37397694  0.37372944  0.37385463  1
  Fe  Fe23  1  0.87712144  0.62360533  0.87598212  1
  Fe  Fe24  1  0.75258537  0.49910164  0.00028623  1
  Fe  Fe25  1  0.62395093  0.62403553  0.87495742  1
  Fe  Fe26  1  0.49801953  0.49830967  0.50025615  1
  Fe  Fe27  1  0.75251283  0.50081648  0.25351085  1
  Fe  Fe28  1  0.37481987  0.87393804  0.62612861  1
  Fe  Fe29  1  0.37685712  0.12594335  0.37267679  1
  Fe  Fe30  1  0.62323478  0.12614594  0.37435307  1
  Fe  Fe31  1  0.75165267  0.25133302  0.74976898  1
  Fe  Fe32  1  0.62414239  0.62539432  0.62450411  1
  Fe  Fe33  1  0.37347389  0.37325368  0.87649555  1
  Fe  Fe34  1  0.62538883  0.37372650  0.62221347  1
  Fe  Fe35  1  0.00069788  0.25325560  0.74943589  1
  Fe  Fe36  1  0.24825918  0.24828820  0.00003788  1
  Fe  Fe37  1  -0.00303260  0.24863729  0.25369992  1
  Fe  Fe38  1  0.12284714  0.87734684  0.13131773  1
  Fe  Fe39  1  0.62306277  0.62294919  0.37423302  1
  Fe  Fe40  1  0.24758543  0.74757812  0.00466260  1
  Fe  Fe41  1  -0.00066051  0.49979341  0.74874306  1
  Fe  Fe42  1  0.00477763  0.75062355  0.49663224  1
  Fe  Fe43  1  0.37315517  0.37302761  0.62676173  1
  Fe  Fe44  1  0.12418559  0.37696504  0.12611254  1
  Fe  Fe45  1  0.12267312  0.12410073  0.87557066  1
  Fe  Fe46  1  0.37531810  0.62520354  0.87643582  1
  Fe  Fe47  1  0.37593622  0.87629686  0.12626748  1
  Fe  Fe48  1  0.62430583  0.12734042  0.62331094  1
  Fe  Fe49  1  0.87463964  0.37422792  0.12611030  1
  Fe  Fe50  1  0.62312162  0.62128547  0.12523757  1
  Fe  Fe51  1  0.00100473  -0.00311877  0.49734167  1
  Fe  Fe52  1  0.74916373  0.74892918  0.00112128  1
  Fe  Fe53  1  0.12150024  0.12560385  0.12619552  1
  Fe  Fe54  1  0.75134357  0.74870519  0.75024079  1
  Fe  Fe55  1  0.62531377  0.12932499  0.12567552  1
  Fe  Fe56  1  0.24999789  0.50340859  0.00325598  1
  Fe  Fe57  1  0.24894998  0.00065633  0.75092204  1
  Fe  Fe58  1  0.24940234  0.25003516  0.24956132  1
  Fe  Fe59  1  0.75335878  0.25022714  0.25352523  1
  Fe  Fe60  1  0.37703762  0.12707327  0.12738098  1
  Fe  Fe61  1  0.12438601  0.87467994  0.87478241  1
  Fe  Fe62  1  0.24884123  -0.00215502  0.49980355  1
  Fe  Fe63  1  0.75139118  0.49801981  0.74846533  1
  Fe  Fe64  1  0.49946932  0.49862288  0.75150872  1
  Fe  Fe65  1  0.12438327  0.12399925  0.62484636  1
  Fe  Fe66  1  0.62452099  0.37466158  0.37503247  1
  Fe  Fe67  1  0.75200396  0.00128526  0.00190887  1
  Fe  Fe68  1  0.00236879  0.74801846  0.00277954  1
  Fe  Fe69  1  0.87633885  0.87288775  0.62387016  1
  Fe  Fe70  1  0.12489354  0.37616351  0.37454397  1
  Fe  Fe71  1  0.75124620  0.00078149  0.74980789  1
  Fe  Fe72  1  0.87494575  0.12727714  0.87689195  1
  Fe  Fe73  1  0.12524607  0.37964794  0.87644808  1
  Fe  Fe74  1  0.12581639  0.37693026  0.62323716  1
  Fe  Fe75  1  0.75090663  -0.00041611  0.49984619  1
  Fe  Fe76  1  0.49931072  0.00008528  0.49925167  1
  Fe  Fe77  1  -0.00122225  0.25374788  -0.00117040  1
  Fe  Fe78  1  0.49808199  0.75022184  0.49845528  1
  Fe  Fe79  1  0.37646697  0.12803822  0.87374854  1
  Fe  Fe80  1  0.62418128  0.87306985  0.62582297  1
  Fe  Fe81  1  0.13115732  0.62454405  0.37364204  1
  Fe  Fe82  1  -0.00180106  -0.00037468  0.75010157  1
  Fe  Fe83  1  0.62512602  0.37331739  0.87890127  1
  Fe  Fe84  1  0.00100481  0.74783434  0.74975807  1
  Fe  Fe85  1  0.75451617  0.00192754  0.24762817  1
  Fe  Fe86  1  0.62617764  0.87539106  0.12574322  1
  Fe  Fe87  1  0.50130520  0.00091196  0.75042098  1
  Fe  Fe88  1  0.12854876  0.62343259  0.62291243  1
  Fe  Fe89  1  0.87606163  0.12828869  0.62105267  1
  Co  Co90  1  0.87347657  0.62759210  0.37794895  1
  Co  Co91  1  0.37097591  0.37326427  0.12170155  1
  Co  Co92  1  0.62589784  0.12631232  0.87539155  1
  Co  Co93  1  0.87623994  0.37552800  0.61910601  1
  Co  Co94  1  -0.00246329  0.49988323  0.00253925  1
  Co  Co95  1  0.24977114  0.74879946  0.24514155  1
  Co  Co96  1  0.49881899  0.25083212  0.49908353  1
  Co  Co97  1  0.00318499  0.74590558  0.25205237  1
  Co  Co98  1  -0.00522791  0.00318848  0.24917728  1
  Co  Co99  1  0.12386820  0.62032553  0.12768145  1
  Co  Co100  1  0.75163378  0.25103736  -0.00118534  1
  Co  Co101  1  0.00346754  0.24980995  0.49879003  1
  Co  Co102  1  0.74911697  0.25118218  0.49693233  1
  Co  Co103  1  0.12441246  0.87552340  0.62735776  1
  Co  Co104  1  0.00263866  0.50272978  0.49695826  1
  Co  Co105  1  0.50013667  0.25112856  0.00260106  1
  Co  Co106  1  0.87541532  0.12471152  0.37982398  1
  Co  Co107  1  0.25174960  0.49740139  0.49852417  1
  Co  Co108  1  0.87555356  0.37617533  0.87456883  1
  Co  Co109  1  0.87636881  0.12989076  0.12230171  1
  Co  Co110  1  0.49959566  0.74897957  0.75049417  1
  Co  Co111  1  0.25144882  0.49777483  0.24842340  1
  Co  Co112  1  0.63013923  0.37474174  0.12481147  1
  Co  Co113  1  0.24970958  0.75272937  0.49957881  1
  Co  Co114  1  0.74745064  0.49999693  0.49798373  1
  Co  Co115  1  0.49966897  0.25446100  0.24769523  1
  Co  Co116  1  0.25060855  0.50093711  0.75143831  1
  Co  Co117  1  0.25033850  0.00331404  0.24776680  1
  Co  Co118  1  0.87665934  0.37595781  0.38074305  1
  Co  Co119  1  0.50153648  -0.00047999  0.24958264  1
  Co  Co120  1  0.12702259  0.87702839  0.36910828  1
  Co  Co121  1  0.24556344  0.25025158  0.75129356  1
  Co  Co122  1  0.50185387  0.25172291  0.75087489  1
  Co  Co123  1  0.37792081  0.62405864  0.12738046  1
  Co  Co124  1  0.49882225  0.49764449  0.00058851  1
  Co  Co125  1  0.12394194  0.62285238  0.87625363  1
  Co  Co126  1  0.87535604  0.86973878  0.12760375  1
  Co  Co127  1  0.74608964  0.74704472  0.24970831  1
