# generated using pymatgen
data_Fe45Co19
_symmetry_space_group_name_H-M   'P 1'
_cell_length_a   11.41474748
_cell_length_b   11.41565300
_cell_length_c   11.41567895
_cell_angle_alpha   90.00612493
_cell_angle_beta   89.99649721
_cell_angle_gamma   90.00691677
_symmetry_Int_Tables_number   1
_chemical_formula_structural   Fe45Co19
_chemical_formula_sum   'Fe90 Co38'
_cell_volume   1487.54052969
_cell_formula_units_Z   2
loop_
 _symmetry_equiv_pos_site_id
 _symmetry_equiv_pos_as_xyz
  1  'x, y, z'
loop_
 _atom_site_type_symbol
 _atom_site_label
 _atom_site_symmetry_multiplicity
 _atom_site_fract_x
 _atom_site_fract_y
 _atom_site_fract_z
 _atom_site_occupancy
  Fe  Fe0  1  0.12407413  0.37373083  0.62382974  1
  Fe  Fe1  1  0.37583963  0.62481619  0.37555858  1
  Fe  Fe2  1  0.00073837  0.49999985  0.24731155  1
  Fe  Fe3  1  0.75224271  0.49964789  0.74780930  1
  Fe  Fe4  1  0.62473881  0.87755248  0.37395876  1
  Fe  Fe5  1  0.00222341  0.74736556  0.75153901  1
  Fe  Fe6  1  0.37473751  0.12634853  0.87606591  1
  Fe  Fe7  1  0.75262448  0.00113684  0.75164112  1
  Fe  Fe8  1  0.25077135  0.24879508  0.25014800  1
  Fe  Fe9  1  0.24700172  0.74953350  -0.00056365  1
  Fe  Fe10  1  -0.00420791  0.50062377  0.50258228  1
  Fe  Fe11  1  0.25004159  0.00050852  0.75205792  1
  Fe  Fe12  1  0.74897788  0.49959085  0.00173413  1
  Fe  Fe13  1  0.50176134  0.00226102  0.50235821  1
  Fe  Fe14  1  0.50290859  0.75337505  -0.00457329  1
  Fe  Fe15  1  0.24994336  0.49881716  0.75043687  1
  Fe  Fe16  1  0.62420313  0.62699443  0.12345876  1
  Fe  Fe17  1  0.00089038  0.75058691  0.49890861  1
  Fe  Fe18  1  0.00320843  0.50181472  0.00287370  1
  Fe  Fe19  1  0.25126394  -0.00187498  0.00077443  1
  Fe  Fe20  1  0.37461300  0.62662754  0.62455974  1
  Fe  Fe21  1  0.87330824  0.37543322  0.37463353  1
  Fe  Fe22  1  0.49821930  -0.00312398  -0.00136388  1
  Fe  Fe23  1  0.62256253  0.87743346  0.62927552  1
  Fe  Fe24  1  0.74942070  0.75179875  0.49956884  1
  Fe  Fe25  1  -0.00229812  0.50059906  0.74742991  1
  Fe  Fe26  1  -0.00095496  0.00196558  0.75115963  1
  Fe  Fe27  1  0.37691435  0.87536468  0.62875017  1
  Fe  Fe28  1  0.87711543  0.87720820  0.37473200  1
  Fe  Fe29  1  0.12279632  0.12214157  0.37358529  1
  Fe  Fe30  1  0.50156405  0.75111929  0.24965143  1
  Fe  Fe31  1  0.62336248  0.37597704  0.87601516  1
  Fe  Fe32  1  0.25132318  0.49777393  0.49930705  1
  Fe  Fe33  1  0.87440596  0.62627816  0.12496188  1
  Fe  Fe34  1  0.74689395  0.49943145  0.24932074  1
  Fe  Fe35  1  0.87548103  0.87305904  0.62709321  1
  Fe  Fe36  1  0.75278890  -0.00142663  0.24646255  1
  Fe  Fe37  1  0.87521039  0.12428800  0.37206901  1
  Fe  Fe38  1  0.87303635  0.62433792  0.37529223  1
  Fe  Fe39  1  0.75161355  0.00072974  0.50175262  1
  Fe  Fe40  1  0.74865101  0.75338736  -0.00255972  1
  Fe  Fe41  1  0.74880534  0.75123448  0.24974946  1
  Fe  Fe42  1  0.50289820  0.24713374  0.75058457  1
  Fe  Fe43  1  -0.00306269  0.25175892  0.24495678  1
  Fe  Fe44  1  0.12141827  0.12555835  0.12225180  1
  Fe  Fe45  1  0.62453197  0.62337015  0.37760233  1
  Fe  Fe46  1  0.12233865  0.12537398  0.87930977  1
  Fe  Fe47  1  0.37591921  0.12640281  0.12375617  1
  Fe  Fe48  1  0.24837572  0.75327812  0.25157603  1
  Fe  Fe49  1  0.62637486  0.12466995  0.37373982  1
  Fe  Fe50  1  0.62616259  0.12425352  0.12379047  1
  Fe  Fe51  1  0.87586429  0.37574369  0.87629578  1
  Fe  Fe52  1  0.62165194  0.37187666  0.12640383  1
  Fe  Fe53  1  0.12328574  0.37437078  0.37474790  1
  Fe  Fe54  1  0.62344352  0.37470438  0.37598933  1
  Fe  Fe55  1  0.12223286  0.87649331  0.12509620  1
  Fe  Fe56  1  0.25118724  0.49813403  0.24828512  1
  Fe  Fe57  1  0.24879125  0.75010296  0.75088545  1
  Fe  Fe58  1  0.62708531  0.12260349  0.87679768  1
  Fe  Fe59  1  0.25122496  0.49820290  0.00142173  1
  Fe  Fe60  1  0.74617503  0.74811339  0.75344803  1
  Fe  Fe61  1  0.12640001  0.62439175  0.62290530  1
  Fe  Fe62  1  0.49744359  0.49803082  0.00169308  1
  Fe  Fe63  1  0.12682389  0.62448661  0.37626002  1
  Fe  Fe64  1  0.37502893  0.62471291  0.87443752  1
  Fe  Fe65  1  0.87538249  0.62555113  0.87628201  1
  Fe  Fe66  1  0.49847501  -0.00024325  0.24709849  1
  Fe  Fe67  1  0.12413043  0.87608905  0.62324527  1
  Fe  Fe68  1  0.62896939  0.37187865  0.62134720  1
  Fe  Fe69  1  0.37469516  0.37132728  0.62413151  1
  Fe  Fe70  1  0.25222523  0.25399550  0.00002415  1
  Fe  Fe71  1  0.50094079  0.49993651  0.74828998  1
  Fe  Fe72  1  0.37543530  0.62712354  0.12547673  1
  Fe  Fe73  1  0.12283723  0.87640332  0.87625822  1
  Fe  Fe74  1  0.62628014  0.62415919  0.62294278  1
  Fe  Fe75  1  0.75651632  -0.00402807  -0.00029076  1
  Fe  Fe76  1  0.24882659  0.24989298  0.75181408  1
  Fe  Fe77  1  0.12578636  0.12622916  0.62421881  1
  Fe  Fe78  1  0.87199500  0.12969024  0.62717124  1
  Fe  Fe79  1  0.49964538  0.75079005  0.50062064  1
  Fe  Fe80  1  0.37409876  0.87713015  0.37408758  1
  Fe  Fe81  1  0.00138763  0.74966445  0.25099868  1
  Fe  Fe82  1  0.37920859  0.37356623  0.37415252  1
  Fe  Fe83  1  0.75264065  0.25045450  0.00118514  1
  Fe  Fe84  1  0.24749840  -0.00100373  0.49921388  1
  Fe  Fe85  1  0.37303726  0.12623058  0.62356151  1
  Fe  Fe86  1  -0.00126507  0.24834040  0.49973676  1
  Fe  Fe87  1  0.37463109  0.12418107  0.37633713  1
  Fe  Fe88  1  -0.00002009  0.25031742  0.75274286  1
  Fe  Fe89  1  0.12475379  0.37608009  0.87645356  1
  Co  Co90  1  0.49714989  0.00560740  0.75166993  1
  Co  Co91  1  0.75323810  0.49974690  0.50090460  1
  Co  Co92  1  -0.00377440  0.25252593  0.00131358  1
  Co  Co93  1  0.12331176  0.87897889  0.37534015  1
  Co  Co94  1  0.50287161  0.74688305  0.75282002  1
  Co  Co95  1  0.24853313  0.25052678  0.49699007  1
  Co  Co96  1  0.62522334  0.87652702  0.12527252  1
  Co  Co97  1  0.24985628  0.00112298  0.24708552  1
  Co  Co98  1  0.12718201  0.62441378  0.12829098  1
  Co  Co99  1  0.87536666  0.12715575  0.87500901  1
  Co  Co100  1  0.00255625  0.74768368  0.00025867  1
  Co  Co101  1  0.87321166  0.36904079  0.62498661  1
  Co  Co102  1  0.50189056  0.24732893  0.50061577  1
  Co  Co103  1  0.50072453  0.24991762  -0.00166763  1
  Co  Co104  1  0.25088928  0.75248317  0.49937866  1
  Co  Co105  1  0.74790288  0.25180864  0.75567735  1
  Co  Co106  1  0.37636478  0.37455783  0.87239642  1
  Co  Co107  1  0.50181118  0.50193962  0.24838871  1
  Co  Co108  1  0.75032455  0.25130796  0.24811977  1
  Co  Co109  1  0.12581331  0.62210676  0.87328946  1
  Co  Co110  1  0.50039945  0.24617534  0.25074094  1
  Co  Co111  1  0.37527103  0.87289393  0.12430773  1
  Co  Co112  1  -0.00074079  -0.00027645  0.24689577  1
  Co  Co113  1  0.62452279  0.88076026  0.87147728  1
  Co  Co114  1  -0.00559387  -0.00138397  -0.00083715  1
  Co  Co115  1  0.62502290  0.62003542  0.87651184  1
  Co  Co116  1  0.87391753  0.37855104  0.12459680  1
  Co  Co117  1  0.62924877  0.12530540  0.62656234  1
  Co  Co118  1  0.87345437  0.62932192  0.62507618  1
  Co  Co119  1  -0.00252045  0.00233494  0.50348854  1
  Co  Co120  1  0.37431313  0.87362081  0.87320449  1
  Co  Co121  1  0.87711339  0.87070025  0.12601193  1
  Co  Co122  1  0.49910924  0.49966211  0.50181400  1
  Co  Co123  1  0.87746387  0.87106310  0.87200194  1
  Co  Co124  1  0.37727788  0.37266725  0.12810934  1
  Co  Co125  1  0.75028834  0.24782551  0.49557868  1
  Co  Co126  1  0.12669559  0.37319492  0.12495046  1
  Co  Co127  1  0.87578643  0.12509902  0.12467772  1
