# generated using pymatgen
data_Fe45Co19
_symmetry_space_group_name_H-M   'P 1'
_cell_length_a   11.41440705
_cell_length_b   11.41618843
_cell_length_c   11.41592579
_cell_angle_alpha   90.00027021
_cell_angle_beta   89.99723630
_cell_angle_gamma   89.99804905
_symmetry_Int_Tables_number   1
_chemical_formula_structural   Fe45Co19
_chemical_formula_sum   'Fe90 Co38'
_cell_volume   1487.59811775
_cell_formula_units_Z   2
loop_
 _symmetry_equiv_pos_site_id
 _symmetry_equiv_pos_as_xyz
  1  'x, y, z'
loop_
 _atom_site_type_symbol
 _atom_site_label
 _atom_site_symmetry_multiplicity
 _atom_site_fract_x
 _atom_site_fract_y
 _atom_site_fract_z
 _atom_site_occupancy
  Fe  Fe0  1  -0.00203579  0.50021055  0.24724613  1
  Fe  Fe1  1  0.87107480  0.87826689  0.37336995  1
  Fe  Fe2  1  0.50099157  0.75078257  0.49794624  1
  Fe  Fe3  1  0.12429464  0.37157629  0.12304794  1
  Fe  Fe4  1  -0.00300672  0.75009163  0.49778356  1
  Fe  Fe5  1  0.12421871  0.12834077  0.12178911  1
  Fe  Fe6  1  -0.00138272  0.00006993  0.24850943  1
  Fe  Fe7  1  0.87203188  0.87399757  0.87637139  1
  Fe  Fe8  1  0.75179397  0.24857460  0.25397771  1
  Fe  Fe9  1  0.37862574  0.62230555  0.12407991  1
  Fe  Fe10  1  0.74866785  0.74797723  0.24937591  1
  Fe  Fe11  1  0.75381862  0.25118932  -0.00352710  1
  Fe  Fe12  1  0.87348114  0.12675249  0.62371187  1
  Fe  Fe13  1  0.50066392  -0.00189621  0.50219414  1
  Fe  Fe14  1  0.37905459  0.62076535  0.87662723  1
  Fe  Fe15  1  0.50290686  0.25333153  0.50202019  1
  Fe  Fe16  1  0.25090943  0.74849620  0.24815781  1
  Fe  Fe17  1  0.62426418  0.87484644  0.87636565  1
  Fe  Fe18  1  0.24994973  0.50153055  0.25049715  1
  Fe  Fe19  1  0.75032530  0.24990035  0.75187116  1
  Fe  Fe20  1  0.25227353  0.74825266  -0.00089721  1
  Fe  Fe21  1  0.24934438  0.24995869  0.49915687  1
  Fe  Fe22  1  0.37538082  0.37363777  0.37464261  1
  Fe  Fe23  1  0.12604643  0.12652075  0.87582408  1
  Fe  Fe24  1  0.12343347  0.37501362  0.37489347  1
  Fe  Fe25  1  0.62213894  0.12745343  0.12301841  1
  Fe  Fe26  1  0.75208767  0.50039730  0.24798567  1
  Fe  Fe27  1  0.37739028  0.87742316  0.12346654  1
  Fe  Fe28  1  0.62592701  0.37320027  0.12508447  1
  Fe  Fe29  1  -0.00325455  0.49831718  0.00208404  1
  Fe  Fe30  1  0.25120753  0.24879838  0.24887035  1
  Fe  Fe31  1  0.25268424  0.00389549  -0.00054779  1
  Fe  Fe32  1  0.12583910  0.87501494  0.37548663  1
  Fe  Fe33  1  0.74991779  0.50644945  0.75033932  1
  Fe  Fe34  1  0.62782933  0.37616352  0.37716445  1
  Fe  Fe35  1  -0.00072773  -0.00061996  0.75024250  1
  Fe  Fe36  1  0.87240092  0.37431886  0.62461685  1
  Fe  Fe37  1  0.25154517  0.75170253  0.50239600  1
  Fe  Fe38  1  0.25309629  0.25138203  0.75302487  1
  Fe  Fe39  1  0.50041397  0.75054353  0.24879745  1
  Fe  Fe40  1  0.75175642  0.50578066  0.50193493  1
  Fe  Fe41  1  0.12407370  0.12689703  0.62609545  1
  Fe  Fe42  1  0.50063670  0.49764454  0.25037139  1
  Fe  Fe43  1  0.12725970  0.87580936  0.12400934  1
  Fe  Fe44  1  -0.00328330  0.25082581  0.75347870  1
  Fe  Fe45  1  0.62562482  0.12714431  0.62512323  1
  Fe  Fe46  1  -0.00082918  -0.00071844  0.50226935  1
  Fe  Fe47  1  0.37693173  0.12688558  0.62732706  1
  Fe  Fe48  1  0.12451071  0.62375585  0.87703921  1
  Fe  Fe49  1  0.25204867  0.49649135  0.00135638  1
  Fe  Fe50  1  0.25064659  0.50047115  0.49910281  1
  Fe  Fe51  1  0.25074203  -0.00183489  0.50451133  1
  Fe  Fe52  1  0.50199610  0.00017413  0.74981274  1
  Fe  Fe53  1  0.62216730  0.12735318  0.87535867  1
  Fe  Fe54  1  0.74888826  0.50246861  -0.00041662  1
  Fe  Fe55  1  0.49244336  0.25269146  -0.00054508  1
  Fe  Fe56  1  0.62406740  0.37588690  0.87360207  1
  Fe  Fe57  1  0.12576918  0.37364243  0.62549344  1
  Fe  Fe58  1  0.62649537  0.12241419  0.37674563  1
  Fe  Fe59  1  0.87152766  0.87028996  0.62634402  1
  Fe  Fe60  1  0.74372605  0.74462214  -0.00153944  1
  Fe  Fe61  1  0.24949227  0.50135117  0.74956994  1
  Fe  Fe62  1  0.00011227  0.74927907  0.75307392  1
  Fe  Fe63  1  0.24958613  0.00103664  0.24995864  1
  Fe  Fe64  1  0.37669983  0.62573684  0.62392340  1
  Fe  Fe65  1  0.50320773  0.00034520  0.24782858  1
  Fe  Fe66  1  0.87169102  0.87373667  0.12320037  1
  Fe  Fe67  1  0.37483902  0.87579560  0.37475741  1
  Fe  Fe68  1  0.87579170  0.12646184  0.12264032  1
  Fe  Fe69  1  0.62387221  0.62422913  0.37459749  1
  Fe  Fe70  1  0.74880846  -0.00068114  0.74985523  1
  Fe  Fe71  1  0.00039615  0.74944279  0.24748168  1
  Fe  Fe72  1  0.00177759  0.74990516  0.00095927  1
  Fe  Fe73  1  0.37741589  0.12507995  0.37458756  1
  Fe  Fe74  1  0.12855798  0.87568256  0.87225624  1
  Fe  Fe75  1  0.50016359  0.74898688  0.75245680  1
  Fe  Fe76  1  0.12328071  0.12379411  0.37645764  1
  Fe  Fe77  1  0.62859923  0.87808777  0.37408629  1
  Fe  Fe78  1  -0.00005122  0.00024101  -0.00147146  1
  Fe  Fe79  1  0.37461451  0.87738620  0.87309099  1
  Fe  Fe80  1  0.12397679  0.62744139  0.62472571  1
  Fe  Fe81  1  -0.00154587  0.50008622  0.50119183  1
  Fe  Fe82  1  0.49998465  0.49813669  0.50149393  1
  Fe  Fe83  1  -0.00126931  0.50080421  0.74952053  1
  Fe  Fe84  1  -0.00377333  0.25021784  0.25290310  1
  Fe  Fe85  1  0.12469259  0.62640577  0.37447632  1
  Fe  Fe86  1  0.50143495  0.49570666  0.74479732  1
  Fe  Fe87  1  0.12452029  0.37341789  0.87717529  1
  Fe  Fe88  1  0.74694471  0.00129920  0.00127943  1
  Fe  Fe89  1  0.62712751  0.87032838  0.62540848  1
  Co  Co90  1  0.37574762  0.62521833  0.37519970  1
  Co  Co91  1  0.87329904  0.37337798  0.12439772  1
  Co  Co92  1  0.87738226  0.62561108  0.87783569  1
  Co  Co93  1  0.37764602  0.87360744  0.62817236  1
  Co  Co94  1  0.37142082  0.37406373  0.62402313  1
  Co  Co95  1  0.87633065  0.62396836  0.37201640  1
  Co  Co96  1  0.37690723  0.12285840  0.87064307  1
  Co  Co97  1  0.50326677  0.25099396  0.25212584  1
  Co  Co98  1  0.62293347  0.62793965  0.62449239  1
  Co  Co99  1  0.74940453  0.24903888  0.49714917  1
  Co  Co100  1  0.87278403  0.37926571  0.87312792  1
  Co  Co101  1  0.87368384  0.62680594  0.12317934  1
  Co  Co102  1  -0.00038477  0.25145271  0.49915297  1
  Co  Co103  1  0.24878814  0.00000509  0.74592317  1
  Co  Co104  1  0.87446056  0.12169514  0.37762652  1
  Co  Co105  1  0.25103452  0.74642164  0.75101740  1
  Co  Co106  1  0.50080849  0.75096299  -0.00013303  1
  Co  Co107  1  0.87440537  0.37723311  0.37765975  1
  Co  Co108  1  0.87322361  0.12082108  0.87472077  1
  Co  Co109  1  0.12302641  0.87188047  0.62668349  1
  Co  Co110  1  0.62538744  0.87453290  0.12477453  1
  Co  Co111  1  0.25671842  0.25064919  0.00003612  1
  Co  Co112  1  0.37538202  0.37627547  0.13026115  1
  Co  Co113  1  0.87543606  0.62896408  0.62658212  1
  Co  Co114  1  0.74779966  0.74601373  0.75472209  1
  Co  Co115  1  0.37683230  0.37844543  0.87205795  1
  Co  Co116  1  0.61847774  0.62109746  0.87446564  1
  Co  Co117  1  0.74988701  -0.00112351  0.50408015  1
  Co  Co118  1  0.63131993  0.37576890  0.62510225  1
  Co  Co119  1  0.12564654  0.62383455  0.12361020  1
  Co  Co120  1  -0.00443833  0.25080513  -0.00449618  1
  Co  Co121  1  0.50064888  0.00035058  -0.00067284  1
  Co  Co122  1  0.74934292  0.00430946  0.24508533  1
  Co  Co123  1  0.62199282  0.62334816  0.12649726  1
  Co  Co124  1  0.74926007  0.74736296  0.49639253  1
  Co  Co125  1  0.37759160  0.12347600  0.12828155  1
  Co  Co126  1  0.50072767  0.25416267  0.74815718  1
  Co  Co127  1  0.50204910  0.49513497  0.00322739  1
