# generated using pymatgen
data_Fe45Co19
_symmetry_space_group_name_H-M   'P 1'
_cell_length_a   11.41604984
_cell_length_b   11.41602418
_cell_length_c   11.41603298
_cell_angle_alpha   89.99195919
_cell_angle_beta   90.00017897
_cell_angle_gamma   90.00446226
_symmetry_Int_Tables_number   1
_chemical_formula_structural   Fe45Co19
_chemical_formula_sum   'Fe90 Co38'
_cell_volume   1487.80476580
_cell_formula_units_Z   2
loop_
 _symmetry_equiv_pos_site_id
 _symmetry_equiv_pos_as_xyz
  1  'x, y, z'
loop_
 _atom_site_type_symbol
 _atom_site_label
 _atom_site_symmetry_multiplicity
 _atom_site_fract_x
 _atom_site_fract_y
 _atom_site_fract_z
 _atom_site_occupancy
  Fe  Fe0  1  0.75209874  -0.00144261  0.49718346  1
  Fe  Fe1  1  0.12616193  0.62252544  0.12558101  1
  Fe  Fe2  1  0.12465396  0.12351443  0.62371604  1
  Fe  Fe3  1  0.87490095  0.37512291  0.87517852  1
  Fe  Fe4  1  0.49987864  0.75137648  0.00302211  1
  Fe  Fe5  1  0.00431030  0.00446239  0.25066304  1
  Fe  Fe6  1  0.62646682  0.37256559  0.37569046  1
  Fe  Fe7  1  0.50158164  0.24919728  0.24855269  1
  Fe  Fe8  1  0.12309937  0.37311839  0.12394689  1
  Fe  Fe9  1  0.75101283  -0.00211076  0.75401500  1
  Fe  Fe10  1  0.74934160  0.25117436  0.74857263  1
  Fe  Fe11  1  0.74994314  0.75075586  0.74997968  1
  Fe  Fe12  1  0.50099070  -0.00277290  0.25282432  1
  Fe  Fe13  1  0.49766422  0.75377675  0.49764269  1
  Fe  Fe14  1  0.62530870  0.87529401  0.12513115  1
  Fe  Fe15  1  0.12648336  0.88050707  0.12332292  1
  Fe  Fe16  1  0.00061346  0.49928969  0.75039409  1
  Fe  Fe17  1  0.74979250  0.49991191  0.00005558  1
  Fe  Fe18  1  0.37373522  0.37411850  0.12747745  1
  Fe  Fe19  1  0.74912988  0.50067116  0.25212270  1
  Fe  Fe20  1  0.12704320  0.37646214  0.62527806  1
  Fe  Fe21  1  0.37384561  0.12421359  0.37347105  1
  Fe  Fe22  1  0.49682222  0.49818880  0.49919030  1
  Fe  Fe23  1  0.25281416  0.24533766  0.00247775  1
  Fe  Fe24  1  0.37189251  0.87918971  0.12686523  1
  Fe  Fe25  1  0.87479250  0.12453996  0.62673832  1
  Fe  Fe26  1  0.25058894  0.24686449  0.74905108  1
  Fe  Fe27  1  -0.00258211  -0.00056779  0.75354617  1
  Fe  Fe28  1  0.37316826  0.87581676  0.62600557  1
  Fe  Fe29  1  0.25069351  0.50180666  0.25140500  1
  Fe  Fe30  1  0.25053422  0.74876432  0.25071431  1
  Fe  Fe31  1  0.87928041  0.12866853  0.12419378  1
  Fe  Fe32  1  0.12368219  0.62449136  0.87614472  1
  Fe  Fe33  1  0.25534043  0.50035510  0.49916637  1
  Fe  Fe34  1  0.00030648  0.75037480  0.74710112  1
  Fe  Fe35  1  0.24602550  0.24360374  0.24826174  1
  Fe  Fe36  1  0.25002997  0.49978349  -0.00041110  1
  Fe  Fe37  1  0.87717318  0.37311038  0.12587351  1
  Fe  Fe38  1  -0.00218299  -0.00148252  0.49959723  1
  Fe  Fe39  1  0.62108599  0.12309193  0.12143820  1
  Fe  Fe40  1  0.49831880  -0.00288826  0.75385922  1
  Fe  Fe41  1  0.62236992  0.12560632  0.87805276  1
  Fe  Fe42  1  0.62626559  0.37546242  0.62262343  1
  Fe  Fe43  1  0.62451227  0.62651348  0.62172527  1
  Fe  Fe44  1  -0.00008080  0.25075908  0.75007155  1
  Fe  Fe45  1  0.00081849  0.49958686  0.25158123  1
  Fe  Fe46  1  0.49939557  -0.00185991  0.49787033  1
  Fe  Fe47  1  0.24932691  0.75033183  0.00091097  1
  Fe  Fe48  1  0.12205669  0.87209006  0.37468293  1
  Fe  Fe49  1  0.25335968  0.24999763  0.50204902  1
  Fe  Fe50  1  0.75300102  -0.00109750  -0.00161409  1
  Fe  Fe51  1  0.50007705  0.25033979  0.74849354  1
  Fe  Fe52  1  0.24911666  0.74820446  0.74899073  1
  Fe  Fe53  1  0.50027562  0.75153235  0.75002190  1
  Fe  Fe54  1  0.87491560  0.12790662  0.37343788  1
  Fe  Fe55  1  0.74979909  0.00181566  0.25027842  1
  Fe  Fe56  1  0.62504751  0.62499335  0.87642375  1
  Fe  Fe57  1  -0.00197170  0.50057210  0.49710249  1
  Fe  Fe58  1  0.12438664  0.87625849  0.87707770  1
  Fe  Fe59  1  0.75004326  0.75072591  0.25112761  1
  Fe  Fe60  1  0.62262949  0.62804216  0.37371487  1
  Fe  Fe61  1  0.49917508  0.50231972  0.24915767  1
  Fe  Fe62  1  0.25244633  0.00135501  0.75360988  1
  Fe  Fe63  1  0.62656208  0.12621287  0.37564004  1
  Fe  Fe64  1  0.49886758  0.50063122  0.74855338  1
  Fe  Fe65  1  0.74934150  0.49982395  0.74834765  1
  Fe  Fe66  1  0.12291900  0.12373671  0.87902682  1
  Fe  Fe67  1  0.87740690  0.87568136  0.12802287  1
  Fe  Fe68  1  0.87471056  0.62379652  0.12663028  1
  Fe  Fe69  1  0.87668672  0.62633851  0.87644207  1
  Fe  Fe70  1  0.12376505  0.87663472  0.62516006  1
  Fe  Fe71  1  0.49990636  0.49961750  0.00125777  1
  Fe  Fe72  1  0.62555532  0.37650445  0.12541521  1
  Fe  Fe73  1  0.75032795  0.75042575  0.00086652  1
  Fe  Fe74  1  0.00084145  0.75044166  0.00353420  1
  Fe  Fe75  1  0.12596524  0.62220622  0.62282996  1
  Fe  Fe76  1  0.75466967  0.75291207  0.49673777  1
  Fe  Fe77  1  0.25030673  0.74914181  0.49973915  1
  Fe  Fe78  1  0.74823355  0.25161165  0.00058091  1
  Fe  Fe79  1  0.12766960  0.37409442  0.37596506  1
  Fe  Fe80  1  0.49762367  0.25010340  0.50073466  1
  Fe  Fe81  1  0.62415106  0.12231789  0.62483129  1
  Fe  Fe82  1  0.25042010  -0.00073761  0.49812465  1
  Fe  Fe83  1  0.37478134  0.62603452  0.87561566  1
  Fe  Fe84  1  0.37471637  0.37371543  0.87370037  1
  Fe  Fe85  1  0.87448720  0.62387667  0.62266690  1
  Fe  Fe86  1  0.62715716  0.87608518  0.62430805  1
  Fe  Fe87  1  0.12613215  0.37508284  0.87575604  1
  Fe  Fe88  1  0.87093198  0.37191546  0.37550468  1
  Fe  Fe89  1  -0.00153495  0.25106829  0.50107945  1
  Co  Co90  1  0.00376077  0.25012199  0.25284744  1
  Co  Co91  1  -0.00449267  -0.00169137  -0.00188585  1
  Co  Co92  1  0.74886706  0.50221245  0.49782635  1
  Co  Co93  1  0.37381003  0.37480753  0.62813348  1
  Co  Co94  1  0.62630244  0.62579759  0.12588713  1
  Co  Co95  1  0.74751593  0.24841804  0.24654122  1
  Co  Co96  1  0.12584139  0.62561290  0.37559194  1
  Co  Co97  1  0.37257842  0.87047567  0.87507513  1
  Co  Co98  1  0.12085686  0.12344611  0.11844515  1
  Co  Co99  1  0.37532616  0.12197942  0.62468193  1
  Co  Co100  1  0.49937279  0.25381546  0.00311034  1
  Co  Co101  1  0.87976619  0.87522665  0.36975306  1
  Co  Co102  1  0.37587657  0.62610186  0.62460006  1
  Co  Co103  1  0.37178374  0.87538295  0.37241640  1
  Co  Co104  1  0.25062604  0.50230566  0.75117434  1
  Co  Co105  1  0.62683144  0.87359280  0.37360544  1
  Co  Co106  1  0.24432017  0.00477642  0.25198644  1
  Co  Co107  1  0.37870578  0.12129359  0.12807294  1
  Co  Co108  1  0.87671033  0.62732099  0.37260175  1
  Co  Co109  1  0.38037790  0.12841959  0.87628230  1
  Co  Co110  1  0.87303397  0.12800805  0.87547889  1
  Co  Co111  1  0.49786621  0.75200311  0.24711761  1
  Co  Co112  1  0.12467738  0.12695217  0.38150608  1
  Co  Co113  1  -0.00001651  0.25186532  -0.00273612  1
  Co  Co114  1  0.25444392  0.00385123  -0.00253945  1
  Co  Co115  1  0.37410357  0.37252106  0.37005601  1
  Co  Co116  1  0.62651562  0.87362097  0.87691811  1
  Co  Co117  1  0.00068230  0.50047078  0.00088044  1
  Co  Co118  1  0.00358737  0.74734582  0.24612546  1
  Co  Co119  1  0.37374092  0.62454831  0.12414088  1
  Co  Co120  1  0.87424240  0.87660385  0.62676085  1
  Co  Co121  1  0.49694723  -0.00458986  -0.00303106  1
  Co  Co122  1  0.87612557  0.87047249  0.87503405  1
  Co  Co123  1  0.74926310  0.24738525  0.50321436  1
  Co  Co124  1  -0.00156546  0.74977341  0.50235454  1
  Co  Co125  1  0.87458174  0.37628809  0.62388404  1
  Co  Co126  1  0.62458880  0.37576673  0.87436451  1
  Co  Co127  1  0.37703629  0.62618672  0.37422242  1
