# generated using pymatgen
data_Fe45Co19
_symmetry_space_group_name_H-M   'P 1'
_cell_length_a   11.41532747
_cell_length_b   11.41537949
_cell_length_c   11.41519729
_cell_angle_alpha   89.99443828
_cell_angle_beta   89.98654245
_cell_angle_gamma   89.99189964
_symmetry_Int_Tables_number   1
_chemical_formula_structural   Fe45Co19
_chemical_formula_sum   'Fe90 Co38'
_cell_volume   1487.51766423
_cell_formula_units_Z   2
loop_
 _symmetry_equiv_pos_site_id
 _symmetry_equiv_pos_as_xyz
  1  'x, y, z'
loop_
 _atom_site_type_symbol
 _atom_site_label
 _atom_site_symmetry_multiplicity
 _atom_site_fract_x
 _atom_site_fract_y
 _atom_site_fract_z
 _atom_site_occupancy
  Fe  Fe0  1  -0.00156889  0.00089887  0.49830292  1
  Fe  Fe1  1  -0.00282933  -0.00187025  0.25031182  1
  Fe  Fe2  1  0.12381600  0.37518243  0.87548657  1
  Fe  Fe3  1  0.49851150  -0.00226713  0.00040464  1
  Fe  Fe4  1  0.12722544  0.37595890  0.62568794  1
  Fe  Fe5  1  0.50078521  0.75385464  0.00119418  1
  Fe  Fe6  1  0.50165041  0.75177496  0.25123767  1
  Fe  Fe7  1  0.00007335  0.74465073  0.74666819  1
  Fe  Fe8  1  0.24930012  0.24837133  0.75131896  1
  Fe  Fe9  1  0.00049513  0.49897715  0.49987247  1
  Fe  Fe10  1  0.24900914  0.74957944  0.49886347  1
  Fe  Fe11  1  0.37692349  0.37237933  0.87749728  1
  Fe  Fe12  1  0.12435255  0.12680636  0.62396369  1
  Fe  Fe13  1  0.74844965  0.74983916  0.49838626  1
  Fe  Fe14  1  0.50123612  0.00032851  0.49756012  1
  Fe  Fe15  1  0.87429169  0.62565609  0.37550827  1
  Fe  Fe16  1  0.75340403  0.00435161  0.25432574  1
  Fe  Fe17  1  0.12263446  0.12705005  0.37418949  1
  Fe  Fe18  1  0.62658068  0.36955623  0.37259580  1
  Fe  Fe19  1  0.24906138  0.00004624  0.49806791  1
  Fe  Fe20  1  0.25072042  -0.00347050  -0.00085631  1
  Fe  Fe21  1  0.24987429  0.74825794  0.75075795  1
  Fe  Fe22  1  0.37394746  0.37488241  0.62587176  1
  Fe  Fe23  1  0.74984204  0.74860639  0.74881527  1
  Fe  Fe24  1  0.50181819  0.75226370  0.49891164  1
  Fe  Fe25  1  0.12429715  0.87281275  0.87407103  1
  Fe  Fe26  1  0.50069873  0.49621223  0.49838506  1
  Fe  Fe27  1  0.62574627  0.62287759  0.62402486  1
  Fe  Fe28  1  0.37530626  0.62514698  0.12178885  1
  Fe  Fe29  1  0.00050080  0.74723138  0.50226310  1
  Fe  Fe30  1  0.37690005  0.12673482  0.87750645  1
  Fe  Fe31  1  0.12527555  0.87548005  0.62538562  1
  Fe  Fe32  1  -0.00069396  0.25107553  0.75026599  1
  Fe  Fe33  1  0.62657157  0.37519190  0.12490828  1
  Fe  Fe34  1  0.00093770  0.49870411  0.00095596  1
  Fe  Fe35  1  0.37250849  0.37712467  0.12711696  1
  Fe  Fe36  1  0.75193213  0.00013588  -0.00362242  1
  Fe  Fe37  1  0.12654011  0.37433104  0.36964606  1
  Fe  Fe38  1  0.87939667  0.12335573  0.12012573  1
  Fe  Fe39  1  0.12668713  0.87662661  0.12560016  1
  Fe  Fe40  1  0.62684381  0.37375393  0.62649130  1
  Fe  Fe41  1  0.37410275  0.12613015  0.62314914  1
  Fe  Fe42  1  0.37461545  0.62601500  0.87928853  1
  Fe  Fe43  1  0.87425271  0.37559423  0.87388331  1
  Fe  Fe44  1  0.87327600  0.36943813  0.37220549  1
  Fe  Fe45  1  0.87558214  0.87397118  0.87349794  1
  Fe  Fe46  1  0.50117487  0.24768745  0.74935165  1
  Fe  Fe47  1  0.87577138  0.62261270  0.87364159  1
  Fe  Fe48  1  0.49936395  0.24883962  0.24738685  1
  Fe  Fe49  1  -0.00076733  0.75164699  0.00281853  1
  Fe  Fe50  1  0.12053661  0.12546162  0.88020610  1
  Fe  Fe51  1  0.25058434  0.25194434  0.49700640  1
  Fe  Fe52  1  0.12734207  0.62213792  0.12314810  1
  Fe  Fe53  1  0.87234818  0.37604018  0.12516978  1
  Fe  Fe54  1  0.62681887  0.87717084  0.12863479  1
  Fe  Fe55  1  0.50012716  0.50040678  0.75209887  1
  Fe  Fe56  1  0.25057325  0.00141755  0.75169923  1
  Fe  Fe57  1  -0.00124632  0.75073631  0.24779439  1
  Fe  Fe58  1  0.37735745  0.12748032  0.37562337  1
  Fe  Fe59  1  0.37418471  0.12365228  0.12450826  1
  Fe  Fe60  1  0.75000394  0.49791556  0.49729829  1
  Fe  Fe61  1  0.87374110  0.87512432  0.62339321  1
  Fe  Fe62  1  0.37409998  0.87639585  0.62497667  1
  Fe  Fe63  1  0.87251045  0.37545163  0.62780380  1
  Fe  Fe64  1  0.74706745  0.50174815  0.00052478  1
  Fe  Fe65  1  0.62409614  0.12267844  0.12508083  1
  Fe  Fe66  1  0.25105564  0.74879619  0.25021042  1
  Fe  Fe67  1  0.74830386  0.74866869  0.25250318  1
  Fe  Fe68  1  0.00228845  0.24924346  0.24384706  1
  Fe  Fe69  1  0.62375288  0.87905649  0.87075424  1
  Fe  Fe70  1  0.25185319  0.00039001  0.25153951  1
  Fe  Fe71  1  -0.00140358  0.00076772  0.75038245  1
  Fe  Fe72  1  0.62670511  0.12425114  0.62639900  1
  Fe  Fe73  1  0.25012172  0.49945621  0.49508967  1
  Fe  Fe74  1  0.24915450  0.50159158  0.75392172  1
  Fe  Fe75  1  0.12368032  0.87358950  0.37468798  1
  Fe  Fe76  1  0.74905712  0.75078946  -0.00054835  1
  Fe  Fe77  1  0.62353788  0.37321050  0.87644906  1
  Fe  Fe78  1  0.37461834  0.62283444  0.62379769  1
  Fe  Fe79  1  0.49921696  0.75089871  0.74867816  1
  Fe  Fe80  1  0.50276813  0.50158416  0.24921085  1
  Fe  Fe81  1  0.87090137  0.62484364  0.12522954  1
  Fe  Fe82  1  0.87586970  0.12832007  0.62495327  1
  Fe  Fe83  1  0.74957469  0.24692492  -0.00138810  1
  Fe  Fe84  1  0.75244917  0.00438538  0.49508211  1
  Fe  Fe85  1  0.24610662  0.25185255  0.00525732  1
  Fe  Fe86  1  0.37758458  0.62504225  0.37590612  1
  Fe  Fe87  1  0.62694236  0.87887814  0.62615637  1
  Fe  Fe88  1  -0.00177430  0.50157086  0.25017911  1
  Fe  Fe89  1  0.62313164  0.62498750  0.87640056  1
  Co  Co90  1  0.37576809  0.87471661  0.87331541  1
  Co  Co91  1  0.12796554  0.37975535  0.13007589  1
  Co  Co92  1  0.24954642  0.24608932  0.24837913  1
  Co  Co93  1  0.87170544  0.62115448  0.62428809  1
  Co  Co94  1  0.87933159  0.13199867  0.37441480  1
  Co  Co95  1  0.50026978  0.25143133  0.50194881  1
  Co  Co96  1  0.12300744  0.62595347  0.37410455  1
  Co  Co97  1  0.00187740  0.25398985  0.50159485  1
  Co  Co98  1  0.74959693  0.24725036  0.75362899  1
  Co  Co99  1  0.24949496  0.75343073  0.00071471  1
  Co  Co100  1  0.00189256  0.25554425  0.00390238  1
  Co  Co101  1  0.12367585  0.62588002  0.87859824  1
  Co  Co102  1  0.37533189  0.87461012  0.12717438  1
  Co  Co103  1  0.75156730  0.24588760  0.24495120  1
  Co  Co104  1  0.74980004  0.24837812  0.50098724  1
  Co  Co105  1  0.00206989  0.50107066  0.74859939  1
  Co  Co106  1  0.49615487  0.00189342  0.74855877  1
  Co  Co107  1  0.74634347  0.50099913  0.75211360  1
  Co  Co108  1  0.37501581  0.87437495  0.37606437  1
  Co  Co109  1  0.25212363  0.50477898  0.25217241  1
  Co  Co110  1  0.62564750  0.62711716  0.12454663  1
  Co  Co111  1  0.75500014  0.00289379  0.75169822  1
  Co  Co112  1  0.50059626  0.24962878  0.00373014  1
  Co  Co113  1  0.12797552  0.62167786  0.62388741  1
  Co  Co114  1  0.62453124  0.62349778  0.37620976  1
  Co  Co115  1  0.88039391  0.12672733  0.87889719  1
  Co  Co116  1  0.49781713  0.00060841  0.25178302  1
  Co  Co117  1  0.62304356  0.12920602  0.37310803  1
  Co  Co118  1  -0.00130351  -0.00739878  0.00011210  1
  Co  Co119  1  0.12291536  0.11988433  0.12279176  1
  Co  Co120  1  0.24973019  0.49708202  -0.00136089  1
  Co  Co121  1  0.62155055  0.12282644  0.87522653  1
  Co  Co122  1  0.87526938  0.87203484  0.37573907  1
  Co  Co123  1  0.37656083  0.37380774  0.37118338  1
  Co  Co124  1  0.50072125  0.49944195  0.00157934  1
  Co  Co125  1  0.74865573  0.50044705  0.25116714  1
  Co  Co126  1  0.86960573  0.87507388  0.12645021  1
  Co  Co127  1  0.62668374  0.87816506  0.37291811  1
