# generated using pymatgen
data_Fe45Co19
_symmetry_space_group_name_H-M   'P 1'
_cell_length_a   11.41508827
_cell_length_b   11.41399697
_cell_length_c   11.41488195
_cell_angle_alpha   90.01339903
_cell_angle_beta   90.00384130
_cell_angle_gamma   89.99315058
_symmetry_Int_Tables_number   1
_chemical_formula_structural   Fe45Co19
_chemical_formula_sum   'Fe90 Co38'
_cell_volume   1487.26526516
_cell_formula_units_Z   2
loop_
 _symmetry_equiv_pos_site_id
 _symmetry_equiv_pos_as_xyz
  1  'x, y, z'
loop_
 _atom_site_type_symbol
 _atom_site_label
 _atom_site_symmetry_multiplicity
 _atom_site_fract_x
 _atom_site_fract_y
 _atom_site_fract_z
 _atom_site_occupancy
  Fe  Fe0  1  0.12655240  0.12713788  0.62251127  1
  Fe  Fe1  1  0.62703839  0.62539657  0.62490564  1
  Fe  Fe2  1  0.37525760  0.37444053  0.12704760  1
  Fe  Fe3  1  0.49900354  0.75427384  0.50477544  1
  Fe  Fe4  1  0.87615810  0.62718593  0.37243533  1
  Fe  Fe5  1  0.75247561  0.50081265  0.50140570  1
  Fe  Fe6  1  0.12661154  0.12222191  0.12407449  1
  Fe  Fe7  1  0.37325456  0.37204071  0.62428057  1
  Fe  Fe8  1  0.12521329  0.62539710  0.62431589  1
  Fe  Fe9  1  0.24464140  0.75314978  -0.00442474  1
  Fe  Fe10  1  0.37499349  0.87262617  0.87083741  1
  Fe  Fe11  1  0.49870731  0.50086099  0.50159101  1
  Fe  Fe12  1  0.37777549  0.37391690  0.87524145  1
  Fe  Fe13  1  0.12552217  0.37127075  0.62308573  1
  Fe  Fe14  1  0.12450425  0.12057568  0.37618397  1
  Fe  Fe15  1  0.87481742  0.86884082  0.12670743  1
  Fe  Fe16  1  0.74983349  0.00014562  0.49968464  1
  Fe  Fe17  1  0.38211524  0.12580294  0.87506900  1
  Fe  Fe18  1  0.62625614  0.37595825  0.62499691  1
  Fe  Fe19  1  0.00335570  0.74828496  0.75373444  1
  Fe  Fe20  1  -0.00188337  -0.00220101  0.00166003  1
  Fe  Fe21  1  0.87534967  0.12885988  0.62440370  1
  Fe  Fe22  1  0.62325145  0.12293157  0.12113869  1
  Fe  Fe23  1  0.62699298  0.87482506  0.12293283  1
  Fe  Fe24  1  0.12422894  0.37789232  0.87659249  1
  Fe  Fe25  1  0.87408601  0.12643119  0.12375143  1
  Fe  Fe26  1  0.62551759  0.37657995  0.12472093  1
  Fe  Fe27  1  0.49737157  0.50186200  0.00311814  1
  Fe  Fe28  1  0.62621077  0.62333983  0.87499238  1
  Fe  Fe29  1  0.12502951  0.37424423  0.12560221  1
  Fe  Fe30  1  0.37209303  0.87541031  0.12576650  1
  Fe  Fe31  1  0.62105573  0.87900349  0.37691358  1
  Fe  Fe32  1  -0.00181860  0.00188098  0.74857138  1
  Fe  Fe33  1  0.38048517  0.12007137  0.37531208  1
  Fe  Fe34  1  -0.00031665  0.25129730  -0.00084755  1
  Fe  Fe35  1  0.25024706  0.50032247  0.74903661  1
  Fe  Fe36  1  0.25192531  0.50267398  0.24839777  1
  Fe  Fe37  1  0.50106621  0.75070921  0.24820842  1
  Fe  Fe38  1  0.75596551  0.50229661  0.00286547  1
  Fe  Fe39  1  0.37603890  0.37623404  0.37320393  1
  Fe  Fe40  1  0.37321147  0.62733393  0.87406818  1
  Fe  Fe41  1  0.75192013  0.50215737  0.24819978  1
  Fe  Fe42  1  0.62647115  0.62543575  0.12561104  1
  Fe  Fe43  1  0.00129754  0.24807774  0.25187415  1
  Fe  Fe44  1  0.87330026  0.12592484  0.37596019  1
  Fe  Fe45  1  0.25502979  -0.00314675  0.49955677  1
  Fe  Fe46  1  0.87391845  0.37272453  0.37418578  1
  Fe  Fe47  1  0.62258064  0.62390207  0.37512859  1
  Fe  Fe48  1  0.25023090  0.00207344  0.75164060  1
  Fe  Fe49  1  0.12416971  0.62271064  0.37552702  1
  Fe  Fe50  1  0.87493400  0.37472423  0.87429781  1
  Fe  Fe51  1  0.62551658  0.12398672  0.62495714  1
  Fe  Fe52  1  0.12212573  0.12297266  0.87707500  1
  Fe  Fe53  1  0.50208424  -0.00382576  0.74683873  1
  Fe  Fe54  1  0.74994284  0.00225477  0.75316184  1
  Fe  Fe55  1  0.74945951  -0.00023812  -0.00308042  1
  Fe  Fe56  1  0.00080069  0.75106809  0.49883686  1
  Fe  Fe57  1  0.87677149  0.87433021  0.37201504  1
  Fe  Fe58  1  0.24942028  0.24758105  0.25292420  1
  Fe  Fe59  1  -0.00173429  0.49867848  0.50081665  1
  Fe  Fe60  1  0.87548374  0.37147975  0.62562779  1
  Fe  Fe61  1  0.50142076  0.75108573  -0.00137103  1
  Fe  Fe62  1  0.50228430  0.24854500  0.24841763  1
  Fe  Fe63  1  0.12675243  0.87573881  0.62623096  1
  Fe  Fe64  1  0.49979454  0.50106999  0.74905985  1
  Fe  Fe65  1  0.37323365  0.62859033  0.62723391  1
  Fe  Fe66  1  0.74952555  0.74696535  0.75192707  1
  Fe  Fe67  1  0.25084144  0.49901683  0.49960554  1
  Fe  Fe68  1  0.74653303  0.24759876  0.25067652  1
  Fe  Fe69  1  0.87313906  0.87253266  0.62630267  1
  Fe  Fe70  1  0.62358273  0.37647956  0.87601259  1
  Fe  Fe71  1  0.25184815  0.24833879  -0.00129598  1
  Fe  Fe72  1  -0.00181164  0.50146725  0.74954218  1
  Fe  Fe73  1  0.25007765  0.75360869  0.49799009  1
  Fe  Fe74  1  0.50006121  0.24785549  0.50165670  1
  Fe  Fe75  1  0.37547732  0.12151517  0.12374709  1
  Fe  Fe76  1  0.24687509  0.75179201  0.25262663  1
  Fe  Fe77  1  0.74827053  0.24832636  0.75282193  1
  Fe  Fe78  1  -0.00318148  0.50006393  0.24538622  1
  Fe  Fe79  1  0.37677135  0.62687144  0.37368101  1
  Fe  Fe80  1  0.87450189  0.87352706  0.87527712  1
  Fe  Fe81  1  -0.00230814  -0.00067366  0.50111269  1
  Fe  Fe82  1  0.62434655  0.37602795  0.37523441  1
  Fe  Fe83  1  0.74927188  -0.00016087  0.25006905  1
  Fe  Fe84  1  0.74843743  0.24819161  -0.00304311  1
  Fe  Fe85  1  0.12547628  0.87946747  0.12693981  1
  Fe  Fe86  1  0.75014229  0.75016727  0.49756750  1
  Fe  Fe87  1  0.25283747  0.49947963  0.00150506  1
  Fe  Fe88  1  0.24990365  0.24900724  0.75216706  1
  Fe  Fe89  1  0.12281332  0.62456794  0.12069207  1
  Co  Co90  1  -0.00327521  0.00144004  0.24876126  1
  Co  Co91  1  0.25236548  0.00012972  -0.00399837  1
  Co  Co92  1  0.63133340  0.87425337  0.62581927  1
  Co  Co93  1  0.37261513  0.63091881  0.12391408  1
  Co  Co94  1  0.25085230  0.24936897  0.49514521  1
  Co  Co95  1  0.00176495  0.24907186  0.75134965  1
  Co  Co96  1  0.61881384  0.12461396  0.87635051  1
  Co  Co97  1  0.37053666  0.87203662  0.63126188  1
  Co  Co98  1  0.12297110  0.87970638  0.37580923  1
  Co  Co99  1  0.87742001  0.12470683  0.87651852  1
  Co  Co100  1  0.37324904  0.12585645  0.62625299  1
  Co  Co101  1  0.49831608  -0.00276095  0.50769079  1
  Co  Co102  1  0.12330678  0.88165385  0.87192570  1
  Co  Co103  1  0.74774872  0.74921331  -0.00176659  1
  Co  Co104  1  0.00548263  0.75062713  0.25099827  1
  Co  Co105  1  0.49907290  0.50188155  0.24727474  1
  Co  Co106  1  0.49978518  0.25210559  0.00369075  1
  Co  Co107  1  0.87573224  0.63434357  0.12536393  1
  Co  Co108  1  0.12535820  0.37884849  0.37234501  1
  Co  Co109  1  0.75169825  0.50062743  0.74883359  1
  Co  Co110  1  0.24333222  0.74773624  0.75344057  1
  Co  Co111  1  0.00468097  0.75329402  -0.00325080  1
  Co  Co112  1  0.87523340  0.62830762  0.62516690  1
  Co  Co113  1  0.87341906  0.36875685  0.12614002  1
  Co  Co114  1  0.62693813  0.87472415  0.87345915  1
  Co  Co115  1  0.74836363  0.24993580  0.50087434  1
  Co  Co116  1  0.25125909  -0.00032824  0.25278408  1
  Co  Co117  1  0.12448673  0.61787768  0.87858784  1
  Co  Co118  1  0.50229925  -0.00132138  0.24517418  1
  Co  Co119  1  0.74554940  0.75096461  0.25348106  1
  Co  Co120  1  0.37976617  0.87557306  0.37264600  1
  Co  Co121  1  0.62232300  0.12210697  0.37715468  1
  Co  Co122  1  -0.00637550  0.49840004  0.00363893  1
  Co  Co123  1  0.49906277  -0.00560922  -0.00072490  1
  Co  Co124  1  0.50417329  0.74921562  0.74868677  1
  Co  Co125  1  0.87632963  0.62653740  0.87769311  1
  Co  Co126  1  0.50149596  0.25217287  0.74687132  1
  Co  Co127  1  0.00167805  0.25073879  0.49684017  1
