# generated using pymatgen
data_Fe45Co19
_symmetry_space_group_name_H-M   'P 1'
_cell_length_a   11.41497878
_cell_length_b   11.41404543
_cell_length_c   11.41362738
_cell_angle_alpha   89.99377700
_cell_angle_beta   89.99474712
_cell_angle_gamma   90.00093181
_symmetry_Int_Tables_number   1
_chemical_formula_structural   Fe45Co19
_chemical_formula_sum   'Fe90 Co38'
_cell_volume   1487.09389638
_cell_formula_units_Z   2
loop_
 _symmetry_equiv_pos_site_id
 _symmetry_equiv_pos_as_xyz
  1  'x, y, z'
loop_
 _atom_site_type_symbol
 _atom_site_label
 _atom_site_symmetry_multiplicity
 _atom_site_fract_x
 _atom_site_fract_y
 _atom_site_fract_z
 _atom_site_occupancy
  Fe  Fe0  1  0.37621334  0.38087821  0.62229760  1
  Fe  Fe1  1  0.50142264  -0.00189085  0.75067088  1
  Fe  Fe2  1  0.12232629  0.62645112  0.37094524  1
  Fe  Fe3  1  0.25058789  0.24963582  0.75022124  1
  Fe  Fe4  1  0.12146161  0.62557451  0.12874357  1
  Fe  Fe5  1  0.12384460  0.12374960  0.12226964  1
  Fe  Fe6  1  0.87330021  0.12600804  0.12476917  1
  Fe  Fe7  1  0.25271858  0.25153569  0.49756399  1
  Fe  Fe8  1  0.50059494  0.74983552  0.24924150  1
  Fe  Fe9  1  0.12524313  0.12643203  0.62539262  1
  Fe  Fe10  1  0.24834421  0.00169066  0.75337475  1
  Fe  Fe11  1  0.24898327  0.24719635  0.00084480  1
  Fe  Fe12  1  0.62486740  0.37794565  0.87702029  1
  Fe  Fe13  1  -0.00096732  0.49701629  0.74917850  1
  Fe  Fe14  1  0.62834422  0.87206026  0.37656229  1
  Fe  Fe15  1  0.25142297  0.00136600  0.24966336  1
  Fe  Fe16  1  0.62490449  0.12505522  0.37582971  1
  Fe  Fe17  1  0.24935779  0.74829580  0.49799029  1
  Fe  Fe18  1  0.87695291  0.62291672  0.62609813  1
  Fe  Fe19  1  -0.00192230  0.75188564  0.00415912  1
  Fe  Fe20  1  0.50069495  0.25207035  0.50119948  1
  Fe  Fe21  1  0.62519309  0.37570916  0.37416330  1
  Fe  Fe22  1  0.87491931  0.12550634  0.62515472  1
  Fe  Fe23  1  0.37432059  0.37472100  0.87784180  1
  Fe  Fe24  1  0.00135371  0.49906146  0.49815286  1
  Fe  Fe25  1  0.50118888  0.75018315  0.75127263  1
  Fe  Fe26  1  0.87233722  0.37546202  0.37328337  1
  Fe  Fe27  1  0.74874888  0.00208159  0.25150255  1
  Fe  Fe28  1  -0.00160880  -0.00440949  0.24826633  1
  Fe  Fe29  1  0.12714341  0.37436888  0.37314761  1
  Fe  Fe30  1  0.62854834  0.87574436  0.62380005  1
  Fe  Fe31  1  0.37430566  0.87521570  0.37534814  1
  Fe  Fe32  1  -0.00055655  0.75139789  0.49787570  1
  Fe  Fe33  1  0.37715822  0.62750750  0.12257086  1
  Fe  Fe34  1  0.25011052  0.00077991  0.49899251  1
  Fe  Fe35  1  0.12310484  0.12452750  0.37448127  1
  Fe  Fe36  1  0.37235224  0.87312412  0.12260119  1
  Fe  Fe37  1  0.87567232  0.12683468  0.37286389  1
  Fe  Fe38  1  0.50269488  0.50014500  0.24798801  1
  Fe  Fe39  1  0.87579546  0.37416741  0.87524869  1
  Fe  Fe40  1  0.87603406  0.62342748  0.37063981  1
  Fe  Fe41  1  0.74919168  0.00208660  0.75097776  1
  Fe  Fe42  1  0.86969083  0.37691768  0.12719267  1
  Fe  Fe43  1  0.74782304  0.50164611  0.49834271  1
  Fe  Fe44  1  0.75036383  0.74558747  0.00132364  1
  Fe  Fe45  1  0.62803266  0.87489323  0.12332333  1
  Fe  Fe46  1  0.37722997  0.62201760  0.37688656  1
  Fe  Fe47  1  0.12406278  0.37243085  0.87551207  1
  Fe  Fe48  1  0.25077618  0.50098966  0.25106513  1
  Fe  Fe49  1  0.37171445  0.37162241  0.12680677  1
  Fe  Fe50  1  0.88081952  0.12825905  0.87728668  1
  Fe  Fe51  1  0.37649901  0.12589649  0.87711191  1
  Fe  Fe52  1  0.74890824  0.74639111  0.75149459  1
  Fe  Fe53  1  0.50050763  0.25352095  0.74915461  1
  Fe  Fe54  1  0.12561748  0.37523944  0.62498688  1
  Fe  Fe55  1  0.25180495  0.50197852  0.75074642  1
  Fe  Fe56  1  0.75106084  0.00267821  -0.00217248  1
  Fe  Fe57  1  0.50121060  0.00008995  0.24778174  1
  Fe  Fe58  1  0.37844351  0.62625509  0.87803398  1
  Fe  Fe59  1  0.74985666  0.25243258  0.74874389  1
  Fe  Fe60  1  0.37441020  0.87365307  0.62556925  1
  Fe  Fe61  1  0.50003877  -0.00003557  0.00152856  1
  Fe  Fe62  1  0.50162351  -0.00024034  0.49997635  1
  Fe  Fe63  1  0.37681437  0.12431591  0.62573842  1
  Fe  Fe64  1  0.62966818  0.37557057  0.12155929  1
  Fe  Fe65  1  0.75010544  0.74437675  0.24614819  1
  Fe  Fe66  1  0.12421934  0.87452926  0.87766982  1
  Fe  Fe67  1  0.37675928  0.12730222  0.37226985  1
  Fe  Fe68  1  -0.00098426  0.25178304  0.50108919  1
  Fe  Fe69  1  0.50348515  0.24831808  0.24543882  1
  Fe  Fe70  1  0.87066218  0.87338584  0.37568364  1
  Fe  Fe71  1  0.12456867  0.62484800  0.62555111  1
  Fe  Fe72  1  0.74841011  0.24935452  0.50192548  1
  Fe  Fe73  1  0.12528685  0.87399862  0.62474430  1
  Fe  Fe74  1  0.00145520  0.00051440  0.75157520  1
  Fe  Fe75  1  0.62287847  0.12694617  0.87591869  1
  Fe  Fe76  1  0.87813082  0.62437363  0.87567222  1
  Fe  Fe77  1  0.87235957  0.87449817  0.62538992  1
  Fe  Fe78  1  0.62267690  0.62065089  0.62661041  1
  Fe  Fe79  1  0.24986098  0.74798366  0.75184879  1
  Fe  Fe80  1  -0.00002551  0.49637713  0.00360200  1
  Fe  Fe81  1  0.87418462  0.87374709  0.87537736  1
  Fe  Fe82  1  -0.00131018  -0.00202781  0.49867707  1
  Fe  Fe83  1  0.37408147  0.87332494  0.87760768  1
  Fe  Fe84  1  0.62139699  0.62073128  0.87934582  1
  Fe  Fe85  1  0.00136309  0.25355728  0.24647598  1
  Fe  Fe86  1  0.24977586  0.50284900  0.00003666  1
  Fe  Fe87  1  0.12095456  0.62472880  0.87532774  1
  Fe  Fe88  1  0.12810671  0.87299518  0.12648906  1
  Fe  Fe89  1  0.50124001  0.74823416  0.50037823  1
  Co  Co90  1  0.13090854  0.37707349  0.12462934  1
  Co  Co91  1  0.49679562  0.49532877  0.00322648  1
  Co  Co92  1  0.37487717  0.12657230  0.12482820  1
  Co  Co93  1  0.37692489  0.37446426  0.37090287  1
  Co  Co94  1  0.75034347  0.00369099  0.49893127  1
  Co  Co95  1  0.37521915  0.62412728  0.62361225  1
  Co  Co96  1  0.50247820  0.50005111  0.49720015  1
  Co  Co97  1  0.75055217  0.24996300  -0.00238853  1
  Co  Co98  1  0.50082713  0.25112160  0.00220939  1
  Co  Co99  1  0.86863872  0.87607653  0.12398029  1
  Co  Co100  1  0.62819592  0.12334216  0.12194699  1
  Co  Co101  1  0.74783898  0.24876365  0.25040485  1
  Co  Co102  1  0.75099268  0.74444754  0.50219903  1
  Co  Co103  1  0.62475262  0.62735372  0.37369204  1
  Co  Co104  1  0.50253014  0.75393651  -0.00041841  1
  Co  Co105  1  0.49644533  0.49955886  0.75242697  1
  Co  Co106  1  0.12050837  0.12903660  0.87735731  1
  Co  Co107  1  0.12685619  0.87518165  0.37259705  1
  Co  Co108  1  0.00084033  0.49346533  0.24974456  1
  Co  Co109  1  0.62794390  0.87594929  0.87710091  1
  Co  Co110  1  0.75203188  0.50073443  0.75257571  1
  Co  Co111  1  -0.00073994  0.75191394  0.74967445  1
  Co  Co112  1  -0.00384199  0.75566534  0.24924472  1
  Co  Co113  1  0.74562505  0.50331697  0.24955694  1
  Co  Co114  1  0.24690721  0.24717586  0.25042602  1
  Co  Co115  1  0.62185978  0.62390196  0.12039231  1
  Co  Co116  1  0.25007812  0.00169834  -0.00148683  1
  Co  Co117  1  -0.00119260  0.25170775  0.74672246  1
  Co  Co118  1  0.87952621  0.62094103  0.12795517  1
  Co  Co119  1  0.62509849  0.37901371  0.62657878  1
  Co  Co120  1  0.24814912  0.49999433  0.49728206  1
  Co  Co121  1  0.25343876  0.74809064  0.25197086  1
  Co  Co122  1  0.62381027  0.12503111  0.62628155  1
  Co  Co123  1  0.75281018  0.50273260  -0.00024725  1
  Co  Co124  1  -0.00051419  0.25472251  0.00619282  1
  Co  Co125  1  0.87320176  0.37803242  0.62271197  1
  Co  Co126  1  0.24702710  0.74620299  -0.00068935  1
  Co  Co127  1  -0.00106804  -0.00322180  0.00161920  1
