# generated using pymatgen
data_Fe45Co19
_symmetry_space_group_name_H-M   'P 1'
_cell_length_a   11.41511092
_cell_length_b   11.41611270
_cell_length_c   11.41470731
_cell_angle_alpha   89.99325553
_cell_angle_beta   89.99486920
_cell_angle_gamma   89.99973568
_symmetry_Int_Tables_number   1
_chemical_formula_structural   Fe45Co19
_chemical_formula_sum   'Fe90 Co38'
_cell_volume   1487.52118180
_cell_formula_units_Z   2
loop_
 _symmetry_equiv_pos_site_id
 _symmetry_equiv_pos_as_xyz
  1  'x, y, z'
loop_
 _atom_site_type_symbol
 _atom_site_label
 _atom_site_symmetry_multiplicity
 _atom_site_fract_x
 _atom_site_fract_y
 _atom_site_fract_z
 _atom_site_occupancy
  Fe  Fe0  1  0.00225470  0.00433788  -0.00100336  1
  Fe  Fe1  1  0.50091165  0.00120227  0.49933362  1
  Fe  Fe2  1  0.62616508  0.62717202  0.87249680  1
  Fe  Fe3  1  0.25142142  0.50606403  -0.00516544  1
  Fe  Fe4  1  0.25049957  0.74765110  0.24960683  1
  Fe  Fe5  1  0.25141732  0.25280995  0.75194938  1
  Fe  Fe6  1  0.87460993  0.87760802  0.62144326  1
  Fe  Fe7  1  0.62584436  0.12616476  0.37137604  1
  Fe  Fe8  1  0.62353603  0.37533938  0.62586194  1
  Fe  Fe9  1  0.50108782  0.24965414  0.00177530  1
  Fe  Fe10  1  -0.00005823  0.00065903  0.75144893  1
  Fe  Fe11  1  0.49631609  0.49834993  0.75201766  1
  Fe  Fe12  1  0.12093397  0.62333901  0.37594174  1
  Fe  Fe13  1  0.37411986  0.12586041  0.62641709  1
  Fe  Fe14  1  0.75164978  0.49842258  0.49736601  1
  Fe  Fe15  1  0.49916154  -0.00114765  0.24890755  1
  Fe  Fe16  1  0.00194575  0.24872160  0.50084428  1
  Fe  Fe17  1  0.62730644  0.87361363  0.12486688  1
  Fe  Fe18  1  -0.00267495  0.25012613  0.75500048  1
  Fe  Fe19  1  0.62588022  0.12446960  0.87564458  1
  Fe  Fe20  1  0.87435877  0.87403653  0.12237591  1
  Fe  Fe21  1  0.50226847  0.74655376  0.49942546  1
  Fe  Fe22  1  0.74985124  0.25109622  0.49885739  1
  Fe  Fe23  1  0.12376008  0.37668766  0.87633994  1
  Fe  Fe24  1  0.37457358  0.87259371  0.87677970  1
  Fe  Fe25  1  0.50046951  0.50203891  -0.00132335  1
  Fe  Fe26  1  0.12487626  0.87497545  0.12504836  1
  Fe  Fe27  1  0.49990096  -0.00120502  0.75091073  1
  Fe  Fe28  1  0.12631724  0.12465799  0.62894073  1
  Fe  Fe29  1  0.62648432  0.37494587  0.12669240  1
  Fe  Fe30  1  0.75030181  0.00033607  0.24769493  1
  Fe  Fe31  1  0.62743664  0.62449519  0.12932822  1
  Fe  Fe32  1  0.24896310  0.25156709  0.49807900  1
  Fe  Fe33  1  0.24848181  -0.00018411  0.49930886  1
  Fe  Fe34  1  0.87592369  0.62368747  0.62234402  1
  Fe  Fe35  1  0.75147180  0.49919426  0.75168167  1
  Fe  Fe36  1  0.37265509  0.12630265  0.37246291  1
  Fe  Fe37  1  -0.00086683  0.25248052  0.24580876  1
  Fe  Fe38  1  0.75083077  0.74808440  0.49803840  1
  Fe  Fe39  1  0.62704877  0.87438279  0.62420731  1
  Fe  Fe40  1  0.12507731  0.37610284  0.62660476  1
  Fe  Fe41  1  0.37250402  0.37857055  0.12367279  1
  Fe  Fe42  1  0.24658772  0.24806852  0.00240957  1
  Fe  Fe43  1  0.37463767  0.87473464  0.62295426  1
  Fe  Fe44  1  0.50196901  0.00018752  0.00100713  1
  Fe  Fe45  1  0.37295358  0.87203034  0.12348334  1
  Fe  Fe46  1  0.62556378  0.12613561  0.62628316  1
  Fe  Fe47  1  0.00008319  0.49983426  0.75073870  1
  Fe  Fe48  1  0.37625322  0.37519873  0.62521116  1
  Fe  Fe49  1  0.37215493  0.12400182  0.12777432  1
  Fe  Fe50  1  0.37415754  0.62384230  0.62523078  1
  Fe  Fe51  1  0.50150837  0.75161146  0.74922933  1
  Fe  Fe52  1  0.24792238  0.00066996  0.00099185  1
  Fe  Fe53  1  0.50238866  0.74833056  0.00097139  1
  Fe  Fe54  1  0.12395643  0.87372123  0.37498072  1
  Fe  Fe55  1  0.75528517  0.49786532  0.25262457  1
  Fe  Fe56  1  0.49791891  0.25125899  0.24834976  1
  Fe  Fe57  1  0.25139248  0.49925535  0.49773867  1
  Fe  Fe58  1  0.24981171  0.74946947  0.75050878  1
  Fe  Fe59  1  0.87457831  0.37453206  0.11775639  1
  Fe  Fe60  1  0.12207025  0.37743882  0.37195589  1
  Fe  Fe61  1  0.50015194  0.25025251  0.50022950  1
  Fe  Fe62  1  0.62651325  0.87408707  0.37402501  1
  Fe  Fe63  1  0.74900184  -0.00169518  0.75082216  1
  Fe  Fe64  1  0.87459142  0.62314798  0.87719104  1
  Fe  Fe65  1  0.87485118  0.12375570  0.62435393  1
  Fe  Fe66  1  -0.00135163  0.00044130  0.24918949  1
  Fe  Fe67  1  0.87588511  0.87597594  0.37746238  1
  Fe  Fe68  1  0.37327549  0.12598075  0.87441652  1
  Fe  Fe69  1  0.49515059  0.50179533  0.25236689  1
  Fe  Fe70  1  0.12602983  0.62355910  0.12567398  1
  Fe  Fe71  1  0.49978128  0.74816486  0.25065007  1
  Fe  Fe72  1  0.12536663  0.62333597  0.62552406  1
  Fe  Fe73  1  -0.00219000  0.74823776  0.24964864  1
  Fe  Fe74  1  0.12545234  0.37871579  0.12424009  1
  Fe  Fe75  1  0.87291939  0.62462184  0.12319768  1
  Fe  Fe76  1  0.62343823  0.37473541  0.87431036  1
  Fe  Fe77  1  0.12458947  0.87572124  0.62479221  1
  Fe  Fe78  1  0.62329059  0.37596904  0.37433354  1
  Fe  Fe79  1  0.87449172  0.12588003  0.37589549  1
  Fe  Fe80  1  0.87173743  0.87514042  0.87773391  1
  Fe  Fe81  1  0.87251895  0.12818923  0.12058397  1
  Fe  Fe82  1  0.87625325  0.37429701  0.62469129  1
  Fe  Fe83  1  0.62562300  0.62289577  0.62508423  1
  Fe  Fe84  1  -0.00281016  0.75016459  0.74899071  1
  Fe  Fe85  1  0.37400840  0.87184121  0.37675818  1
  Fe  Fe86  1  0.12631592  0.12546755  0.36942092  1
  Fe  Fe87  1  0.12559066  0.87395063  0.87511795  1
  Fe  Fe88  1  0.00102112  0.74772720  -0.00037437  1
  Fe  Fe89  1  0.75209964  0.25182722  0.75393738  1
  Co  Co90  1  0.37489268  0.37221982  0.87900765  1
  Co  Co91  1  0.49932281  0.25011030  0.75091367  1
  Co  Co92  1  0.74744740  0.25232612  -0.00342703  1
  Co  Co93  1  0.24922471  0.25484992  0.24783482  1
  Co  Co94  1  0.37514768  0.62771374  0.37721543  1
  Co  Co95  1  0.25194872  -0.00278636  0.75007180  1
  Co  Co96  1  0.74552019  0.50053890  -0.00059882  1
  Co  Co97  1  0.00344569  0.24732121  -0.00147865  1
  Co  Co98  1  0.12734899  0.12505922  0.87149304  1
  Co  Co99  1  0.74831094  0.74777907  0.00055545  1
  Co  Co100  1  0.49830632  0.50004491  0.49945293  1
  Co  Co101  1  -0.00018715  0.75084830  0.50195511  1
  Co  Co102  1  -0.00407274  0.49978744  0.24648332  1
  Co  Co103  1  0.37602408  0.37329113  0.37436973  1
  Co  Co104  1  0.25083621  -0.00453369  0.25016181  1
  Co  Co105  1  0.62615560  0.62252403  0.37306434  1
  Co  Co106  1  0.00043296  0.49784613  0.50197879  1
  Co  Co107  1  0.37761791  0.62930936  0.87387355  1
  Co  Co108  1  0.74681091  -0.00017020  0.00228401  1
  Co  Co109  1  0.74712086  0.00147582  0.49900607  1
  Co  Co110  1  0.25212707  0.50235078  0.25250073  1
  Co  Co111  1  0.12273608  0.62638197  0.87200502  1
  Co  Co112  1  0.00434097  0.00239836  0.49946559  1
  Co  Co113  1  0.87861675  0.62431133  0.37680639  1
  Co  Co114  1  0.12539283  0.12329475  0.12962215  1
  Co  Co115  1  0.62682812  0.87308580  0.87563275  1
  Co  Co116  1  0.25217827  0.49944903  0.75346475  1
  Co  Co117  1  0.24768073  0.74744235  -0.00007255  1
  Co  Co118  1  0.75298269  0.74978419  0.74885163  1
  Co  Co119  1  0.75194191  0.25298588  0.25036461  1
  Co  Co120  1  0.24745619  0.74864190  0.50146051  1
  Co  Co121  1  0.37501564  0.62506024  0.12345258  1
  Co  Co122  1  0.87271667  0.12274475  0.87702378  1
  Co  Co123  1  0.87717066  0.37879970  0.87938915  1
  Co  Co124  1  0.75317170  0.75008942  0.25136062  1
  Co  Co125  1  0.87982198  0.37327929  0.37719456  1
  Co  Co126  1  0.62638670  0.12722563  0.12675958  1
  Co  Co127  1  0.00197323  0.50293058  0.00062567  1
