# generated using pymatgen
data_Fe45Co19
_symmetry_space_group_name_H-M   'P 1'
_cell_length_a   11.41564014
_cell_length_b   11.41556888
_cell_length_c   11.41548313
_cell_angle_alpha   90.00439514
_cell_angle_beta   90.00610206
_cell_angle_gamma   90.00527557
_symmetry_Int_Tables_number   1
_chemical_formula_structural   Fe45Co19
_chemical_formula_sum   'Fe90 Co38'
_cell_volume   1487.62038015
_cell_formula_units_Z   2
loop_
 _symmetry_equiv_pos_site_id
 _symmetry_equiv_pos_as_xyz
  1  'x, y, z'
loop_
 _atom_site_type_symbol
 _atom_site_label
 _atom_site_symmetry_multiplicity
 _atom_site_fract_x
 _atom_site_fract_y
 _atom_site_fract_z
 _atom_site_occupancy
  Fe  Fe0  1  0.62253714  0.62793965  0.12764464  1
  Fe  Fe1  1  0.37497876  0.87553907  0.62362110  1
  Fe  Fe2  1  0.00113714  0.74885980  0.49898164  1
  Fe  Fe3  1  0.12411515  0.62690332  0.12701954  1
  Fe  Fe4  1  0.37873479  0.62287798  0.87387119  1
  Fe  Fe5  1  0.49922009  0.25139514  0.25074264  1
  Fe  Fe6  1  0.37825862  0.87965702  0.37516478  1
  Fe  Fe7  1  0.87499482  0.88032956  0.87937591  1
  Fe  Fe8  1  0.74996592  -0.00101712  0.24599112  1
  Fe  Fe9  1  0.12445314  0.87641511  0.37340188  1
  Fe  Fe10  1  0.75349872  0.25287266  0.25053903  1
  Fe  Fe11  1  0.50122520  0.75142450  0.49911876  1
  Fe  Fe12  1  0.50178952  0.24777907  0.50153570  1
  Fe  Fe13  1  0.74991468  0.75227649  0.75384250  1
  Fe  Fe14  1  0.24982592  0.24835878  -0.00162779  1
  Fe  Fe15  1  0.12257104  0.12499149  0.13010660  1
  Fe  Fe16  1  0.25382861  0.74932800  0.25327167  1
  Fe  Fe17  1  0.87709228  0.12684300  0.12447650  1
  Fe  Fe18  1  0.12583411  0.37386755  0.12505580  1
  Fe  Fe19  1  0.50143768  0.49948372  0.50232204  1
  Fe  Fe20  1  -0.00253872  -0.00067400  0.50397550  1
  Fe  Fe21  1  0.87634294  0.62514218  0.87622800  1
  Fe  Fe22  1  0.87484122  0.12520934  0.37476485  1
  Fe  Fe23  1  0.37579602  0.12335649  0.12503290  1
  Fe  Fe24  1  -0.00027484  0.75244345  0.75285323  1
  Fe  Fe25  1  0.75086342  0.49719449  0.24781354  1
  Fe  Fe26  1  0.87272712  0.87522608  0.37721768  1
  Fe  Fe27  1  0.75102461  0.24720955  -0.00536939  1
  Fe  Fe28  1  0.00127623  0.24786086  -0.00134348  1
  Fe  Fe29  1  0.87352465  0.62684514  0.12242630  1
  Fe  Fe30  1  0.37612058  0.62746152  0.62414037  1
  Fe  Fe31  1  0.24838098  0.00135834  0.00204158  1
  Fe  Fe32  1  0.87362542  0.62801615  0.62679474  1
  Fe  Fe33  1  0.12506535  0.12433743  0.62727418  1
  Fe  Fe34  1  0.62505387  0.87788922  0.37511624  1
  Fe  Fe35  1  0.24988618  0.74732868  0.49567784  1
  Fe  Fe36  1  0.74586846  0.50214244  -0.00135583  1
  Fe  Fe37  1  0.87558132  0.37754966  0.87762577  1
  Fe  Fe38  1  0.37271181  0.37300761  0.62208064  1
  Fe  Fe39  1  0.62528617  0.88037944  0.87718248  1
  Fe  Fe40  1  0.25157520  0.75117687  0.75212939  1
  Fe  Fe41  1  0.12671813  0.37590049  0.37597399  1
  Fe  Fe42  1  0.00163860  0.50070688  0.50173751  1
  Fe  Fe43  1  0.62213537  0.62522110  0.37067401  1
  Fe  Fe44  1  0.25118844  0.24857396  0.25213476  1
  Fe  Fe45  1  0.49779748  0.24753153  -0.00626346  1
  Fe  Fe46  1  0.24903931  0.00173986  0.49943537  1
  Fe  Fe47  1  0.62416672  0.87177572  0.12232503  1
  Fe  Fe48  1  0.62473740  0.37263067  0.12249017  1
  Fe  Fe49  1  0.62785631  0.37129271  0.62975497  1
  Fe  Fe50  1  0.24998724  0.50212063  -0.00065567  1
  Fe  Fe51  1  -0.00048878  0.49906983  0.74872931  1
  Fe  Fe52  1  0.38009487  0.62544379  0.12672213  1
  Fe  Fe53  1  0.75089714  0.00190610  0.50449113  1
  Fe  Fe54  1  0.00026755  0.25017849  0.49892889  1
  Fe  Fe55  1  0.37626741  0.87821725  0.87813847  1
  Fe  Fe56  1  -0.00322405  0.49567020  0.24823717  1
  Fe  Fe57  1  0.25217807  0.50145188  0.25219902  1
  Fe  Fe58  1  0.37574424  0.37509248  0.12240761  1
  Fe  Fe59  1  0.74846311  0.50121135  0.50147025  1
  Fe  Fe60  1  0.12431493  0.12131758  0.87174183  1
  Fe  Fe61  1  -0.00346299  0.24856625  0.75245830  1
  Fe  Fe62  1  0.12684197  0.37623663  0.87511540  1
  Fe  Fe63  1  0.12693646  0.87417419  0.12685245  1
  Fe  Fe64  1  0.87384163  0.87321353  0.11992280  1
  Fe  Fe65  1  0.00280657  0.50174241  0.00059549  1
  Fe  Fe66  1  0.62026350  0.62427011  0.87127057  1
  Fe  Fe67  1  -0.00278300  0.75216982  0.24953389  1
  Fe  Fe68  1  0.25302085  0.24945612  0.75241683  1
  Fe  Fe69  1  0.12552490  0.87420134  0.62542256  1
  Fe  Fe70  1  0.37877120  0.12187840  0.37471235  1
  Fe  Fe71  1  0.62623279  0.87481591  0.62623863  1
  Fe  Fe72  1  0.62847184  0.12827046  0.63084401  1
  Fe  Fe73  1  0.12596578  0.62714666  0.62731972  1
  Fe  Fe74  1  0.12393187  0.87734176  0.87482159  1
  Fe  Fe75  1  0.74748981  0.74821212  0.49880238  1
  Fe  Fe76  1  0.49906311  0.00100584  0.74975940  1
  Fe  Fe77  1  0.12167330  0.12357114  0.37184232  1
  Fe  Fe78  1  0.37455390  0.37581305  0.37829392  1
  Fe  Fe79  1  0.62438790  0.62648972  0.62935004  1
  Fe  Fe80  1  0.62512199  0.12328389  0.37317237  1
  Fe  Fe81  1  0.25024248  0.74769763  -0.00120687  1
  Fe  Fe82  1  0.62607433  0.37447518  0.37535775  1
  Fe  Fe83  1  0.25176026  0.49963356  0.74928376  1
  Fe  Fe84  1  0.62172328  0.37507373  0.87119709  1
  Fe  Fe85  1  0.87487055  0.62416899  0.37385007  1
  Fe  Fe86  1  0.12803945  0.37318413  0.62420486  1
  Fe  Fe87  1  0.62366303  0.12810415  0.12413641  1
  Fe  Fe88  1  0.37380245  0.12405322  0.62609967  1
  Fe  Fe89  1  0.87159632  0.37234481  0.62374678  1
  Co  Co90  1  0.87333095  0.86918224  0.62330500  1
  Co  Co91  1  0.00276618  0.75058156  -0.00126924  1
  Co  Co92  1  0.75074066  0.75161099  0.25050580  1
  Co  Co93  1  0.49983261  0.74974058  -0.00122022  1
  Co  Co94  1  0.25148593  0.00135192  0.25061583  1
  Co  Co95  1  0.75145678  0.50032196  0.75074630  1
  Co  Co96  1  0.24853804  0.50477874  0.49958755  1
  Co  Co97  1  0.38097328  0.62320954  0.37494872  1
  Co  Co98  1  0.24943167  0.24447686  0.49777141  1
  Co  Co99  1  0.00360793  0.00066504  0.00375991  1
  Co  Co100  1  0.49796255  0.75547314  0.25093802  1
  Co  Co101  1  0.62625041  0.12138762  0.87239065  1
  Co  Co102  1  0.74782486  0.00238900  0.00494782  1
  Co  Co103  1  -0.00405355  -0.00136313  0.74504618  1
  Co  Co104  1  0.50056033  0.00151173  0.00265871  1
  Co  Co105  1  0.50281283  0.50056715  0.00112408  1
  Co  Co106  1  0.50211804  -0.00152117  0.24469866  1
  Co  Co107  1  0.12510922  0.62373840  0.87252185  1
  Co  Co108  1  0.37295035  0.12054639  0.87569517  1
  Co  Co109  1  0.75420507  -0.00093906  0.74637008  1
  Co  Co110  1  0.74685347  0.74813130  -0.00367101  1
  Co  Co111  1  -0.00270996  0.25520895  0.25080665  1
  Co  Co112  1  0.50267608  0.00253994  0.50436995  1
  Co  Co113  1  0.49723127  0.49703225  0.74583728  1
  Co  Co114  1  0.75503727  0.24922133  0.75695012  1
  Co  Co115  1  0.74754949  0.24866144  0.49808422  1
  Co  Co116  1  0.49554058  0.24827771  0.75205601  1
  Co  Co117  1  0.87367562  0.37414192  0.11780727  1
  Co  Co118  1  0.25052854  -0.00200247  0.74867510  1
  Co  Co119  1  0.87523825  0.11764000  0.87725182  1
  Co  Co120  1  0.37276452  0.87532016  0.12266003  1
  Co  Co121  1  -0.00403605  -0.00382528  0.24853357  1
  Co  Co122  1  0.37477606  0.37774194  0.87739311  1
  Co  Co123  1  0.50105978  0.49510175  0.24883903  1
  Co  Co124  1  0.87304791  0.13015363  0.62417478  1
  Co  Co125  1  0.87332817  0.37610754  0.37977108  1
  Co  Co126  1  0.12128612  0.62426990  0.37142680  1
  Co  Co127  1  0.49989242  0.75433559  0.75104308  1
