# generated using pymatgen
data_Fe45Co19
_symmetry_space_group_name_H-M   'P 1'
_cell_length_a   11.41429232
_cell_length_b   11.41477959
_cell_length_c   11.41401027
_cell_angle_alpha   90.00770419
_cell_angle_beta   90.00516894
_cell_angle_gamma   90.00132808
_symmetry_Int_Tables_number   1
_chemical_formula_structural   Fe45Co19
_chemical_formula_sum   'Fe90 Co38'
_cell_volume   1487.14999369
_cell_formula_units_Z   2
loop_
 _symmetry_equiv_pos_site_id
 _symmetry_equiv_pos_as_xyz
  1  'x, y, z'
loop_
 _atom_site_type_symbol
 _atom_site_label
 _atom_site_symmetry_multiplicity
 _atom_site_fract_x
 _atom_site_fract_y
 _atom_site_fract_z
 _atom_site_occupancy
  Fe  Fe0  1  0.75077134  0.25023666  0.24917529  1
  Fe  Fe1  1  0.75397219  0.24656445  0.00053071  1
  Fe  Fe2  1  0.49872605  0.75612708  0.75397017  1
  Fe  Fe3  1  0.62125555  0.62692554  0.62453302  1
  Fe  Fe4  1  0.49639077  0.74910636  0.49717647  1
  Fe  Fe5  1  0.87548455  0.62276258  0.12700696  1
  Fe  Fe6  1  0.12486249  0.62487743  0.12282939  1
  Fe  Fe7  1  0.75149726  0.24799729  0.49911835  1
  Fe  Fe8  1  0.74668568  0.75088643  0.25087849  1
  Fe  Fe9  1  0.74814909  0.50008467  0.74965154  1
  Fe  Fe10  1  0.25455320  0.74968497  0.49874095  1
  Fe  Fe11  1  0.00222684  0.75123038  0.74887313  1
  Fe  Fe12  1  0.49500791  0.49864360  0.49895215  1
  Fe  Fe13  1  0.37548340  0.62526575  0.87303529  1
  Fe  Fe14  1  0.00173163  -0.00149413  0.74799495  1
  Fe  Fe15  1  0.87472753  0.62684429  0.62362594  1
  Fe  Fe16  1  0.74940267  0.50118958  -0.00027980  1
  Fe  Fe17  1  0.74938880  0.50245196  0.49990493  1
  Fe  Fe18  1  0.49823334  0.24815559  0.74734842  1
  Fe  Fe19  1  0.00389252  0.49626172  0.25128654  1
  Fe  Fe20  1  0.12719780  0.87732988  0.37472897  1
  Fe  Fe21  1  0.12808606  0.37393647  0.62238389  1
  Fe  Fe22  1  0.00017517  -0.00046470  0.00351678  1
  Fe  Fe23  1  0.25503567  0.50171677  0.49846514  1
  Fe  Fe24  1  0.49887101  0.50050715  0.00276723  1
  Fe  Fe25  1  0.62344724  0.62693751  0.87777955  1
  Fe  Fe26  1  0.24969606  0.75160659  0.74908331  1
  Fe  Fe27  1  0.62302453  0.12527646  0.12413976  1
  Fe  Fe28  1  0.00209469  0.75227242  0.24940403  1
  Fe  Fe29  1  0.00231737  0.25011122  0.75009254  1
  Fe  Fe30  1  0.25447933  0.25012599  0.49791271  1
  Fe  Fe31  1  0.62636274  0.37377471  0.12232060  1
  Fe  Fe32  1  0.24898750  0.50043178  0.74990145  1
  Fe  Fe33  1  0.87491905  0.12495981  0.62729412  1
  Fe  Fe34  1  0.87307994  0.37433461  0.62483668  1
  Fe  Fe35  1  0.25163325  0.74656462  0.00029691  1
  Fe  Fe36  1  0.62186429  0.62459746  0.37307892  1
  Fe  Fe37  1  0.62296832  0.87297522  0.12121557  1
  Fe  Fe38  1  0.00330768  0.25457767  0.25189338  1
  Fe  Fe39  1  0.62348535  0.37218152  0.87618685  1
  Fe  Fe40  1  -0.00159581  0.24818486  0.00160249  1
  Fe  Fe41  1  0.25166983  0.24873905  0.00106734  1
  Fe  Fe42  1  0.75220003  0.74873261  0.00171494  1
  Fe  Fe43  1  0.87518320  0.87648822  0.87485124  1
  Fe  Fe44  1  0.37596962  0.12421392  0.12652786  1
  Fe  Fe45  1  0.75298223  -0.00184838  0.49828273  1
  Fe  Fe46  1  -0.00060385  0.49834758  0.49922094  1
  Fe  Fe47  1  0.37499488  0.12405501  0.87351271  1
  Fe  Fe48  1  0.25059937  -0.00152490  0.74796963  1
  Fe  Fe49  1  0.74806520  0.49898179  0.24960144  1
  Fe  Fe50  1  0.37483247  0.87453259  0.12513220  1
  Fe  Fe51  1  0.00074283  0.50084150  -0.00044073  1
  Fe  Fe52  1  0.87521717  0.87768905  0.12895694  1
  Fe  Fe53  1  0.25241002  -0.00032731  0.49972450  1
  Fe  Fe54  1  0.87581992  0.12130304  0.36871454  1
  Fe  Fe55  1  0.00200932  0.50018446  0.74944855  1
  Fe  Fe56  1  -0.00237039  0.75423292  0.50023927  1
  Fe  Fe57  1  0.62376359  0.37282435  0.62297752  1
  Fe  Fe58  1  0.62370915  0.87552266  0.62405032  1
  Fe  Fe59  1  0.12702242  0.12574347  0.62285337  1
  Fe  Fe60  1  -0.00205250  -0.00225843  0.49900293  1
  Fe  Fe61  1  0.12416089  0.12588601  0.12855685  1
  Fe  Fe62  1  0.37414252  0.37452400  0.87470806  1
  Fe  Fe63  1  0.87705400  0.62611255  0.87445801  1
  Fe  Fe64  1  0.12655791  0.62604202  0.62338395  1
  Fe  Fe65  1  0.37012673  0.37656395  0.12942007  1
  Fe  Fe66  1  0.87507336  0.62592022  0.37427951  1
  Fe  Fe67  1  0.62409938  0.12522994  0.37433055  1
  Fe  Fe68  1  0.62413971  0.87600777  0.37686122  1
  Fe  Fe69  1  0.87459394  0.37313256  0.87457778  1
  Fe  Fe70  1  0.37899886  0.62412797  0.13130609  1
  Fe  Fe71  1  0.25092520  0.75063128  0.25181900  1
  Fe  Fe72  1  0.62385450  0.37323987  0.37730576  1
  Fe  Fe73  1  0.49700606  0.00254150  0.50094200  1
  Fe  Fe74  1  0.49962888  0.49904354  0.74922683  1
  Fe  Fe75  1  -0.00106112  0.24991213  0.49696093  1
  Fe  Fe76  1  0.12585751  0.87354547  0.87870380  1
  Fe  Fe77  1  0.37438124  0.12522399  0.37183893  1
  Fe  Fe78  1  0.49977024  0.25172014  0.24978261  1
  Fe  Fe79  1  0.24880306  0.00104364  0.00332962  1
  Fe  Fe80  1  0.49944850  -0.00239796  -0.00363411  1
  Fe  Fe81  1  0.12760801  0.37565466  0.87857023  1
  Fe  Fe82  1  0.74851252  0.00108051  0.75144051  1
  Fe  Fe83  1  0.12490563  0.62532619  0.37703707  1
  Fe  Fe84  1  0.74898722  0.74962363  0.74918454  1
  Fe  Fe85  1  0.62267032  0.12676130  0.87580705  1
  Fe  Fe86  1  0.75157992  0.00341211  0.00134196  1
  Fe  Fe87  1  0.12521018  0.12377515  0.87507241  1
  Fe  Fe88  1  0.62399021  0.12479827  0.62466843  1
  Fe  Fe89  1  0.50031198  -0.00256872  0.25014920  1
  Co  Co90  1  0.37774722  0.62255742  0.36882937  1
  Co  Co91  1  0.00643511  -0.00334097  0.25007872  1
  Co  Co92  1  0.24388396  0.50220856  0.25156487  1
  Co  Co93  1  0.24860945  0.24996419  0.75221114  1
  Co  Co94  1  0.87717584  0.12358208  0.13182137  1
  Co  Co95  1  0.12906801  0.37507898  0.37844560  1
  Co  Co96  1  0.87310464  0.37621613  0.37502436  1
  Co  Co97  1  0.50152313  0.75457362  0.25150667  1
  Co  Co98  1  0.50439258  0.49569732  0.24829695  1
  Co  Co99  1  0.87417230  0.87543840  0.37022175  1
  Co  Co100  1  0.37480854  0.87706393  0.37464577  1
  Co  Co101  1  0.74910880  0.74980629  0.49820060  1
  Co  Co102  1  -0.00173379  0.75134169  0.00215585  1
  Co  Co103  1  0.25031619  0.00014489  0.24877094  1
  Co  Co104  1  0.37393599  0.37618563  0.36981446  1
  Co  Co105  1  0.87531893  0.37602269  0.12459344  1
  Co  Co106  1  0.62279157  0.62693209  0.12443798  1
  Co  Co107  1  0.36984483  0.87686289  0.87725400  1
  Co  Co108  1  0.49670455  0.74918457  -0.00173650  1
  Co  Co109  1  0.12445506  0.62679039  0.87583689  1
  Co  Co110  1  0.37719238  0.87519910  0.62402735  1
  Co  Co111  1  0.37419054  0.37397016  0.62655469  1
  Co  Co112  1  0.12722416  0.87526929  0.62239098  1
  Co  Co113  1  0.74393104  -0.00158801  0.24892041  1
  Co  Co114  1  0.37296486  0.12432212  0.62705069  1
  Co  Co115  1  0.25314910  0.50397361  0.00039053  1
  Co  Co116  1  0.24728706  0.24812647  0.25017081  1
  Co  Co117  1  0.74857172  0.24963423  0.75013278  1
  Co  Co118  1  0.49618400  0.24897672  0.49927168  1
  Co  Co119  1  0.62877693  0.87437577  0.87799877  1
  Co  Co120  1  0.37632913  0.62714578  0.62781128  1
  Co  Co121  1  0.87713421  0.12399907  0.87285919  1
  Co  Co122  1  0.49984456  -0.00138707  0.75244822  1
  Co  Co123  1  0.12570740  0.12335593  0.37615192  1
  Co  Co124  1  0.49576427  0.25144861  0.00182086  1
  Co  Co125  1  0.87205691  0.87443189  0.62672618  1
  Co  Co126  1  0.12885385  0.87279924  0.12418973  1
  Co  Co127  1  0.12779307  0.37550918  0.12101878  1
