# generated using pymatgen
data_Fe45Co19
_symmetry_space_group_name_H-M   'P 1'
_cell_length_a   11.41433047
_cell_length_b   11.41391891
_cell_length_c   11.41336130
_cell_angle_alpha   90.01183203
_cell_angle_beta   89.99647580
_cell_angle_gamma   89.99812944
_symmetry_Int_Tables_number   1
_chemical_formula_structural   Fe45Co19
_chemical_formula_sum   'Fe90 Co38'
_cell_volume   1486.95826888
_cell_formula_units_Z   2
loop_
 _symmetry_equiv_pos_site_id
 _symmetry_equiv_pos_as_xyz
  1  'x, y, z'
loop_
 _atom_site_type_symbol
 _atom_site_label
 _atom_site_symmetry_multiplicity
 _atom_site_fract_x
 _atom_site_fract_y
 _atom_site_fract_z
 _atom_site_occupancy
  Fe  Fe0  1  0.62509538  0.87201719  0.12546481  1
  Fe  Fe1  1  0.62596593  0.12406997  0.87408626  1
  Fe  Fe2  1  0.50224414  0.00110918  0.49998860  1
  Fe  Fe3  1  0.75230610  0.25283292  0.25254365  1
  Fe  Fe4  1  0.74923804  0.24851094  0.50088798  1
  Fe  Fe5  1  0.37616923  0.87395721  0.87394291  1
  Fe  Fe6  1  0.75325394  0.75346709  0.49717735  1
  Fe  Fe7  1  -0.00450258  0.24716789  0.00039609  1
  Fe  Fe8  1  0.25099259  0.74936562  -0.00014797  1
  Fe  Fe9  1  -0.00111218  0.50111057  0.74768285  1
  Fe  Fe10  1  0.25156603  0.75164257  0.50053097  1
  Fe  Fe11  1  0.12311855  0.37307136  0.12710744  1
  Fe  Fe12  1  0.62699243  0.37859888  0.87399067  1
  Fe  Fe13  1  0.87440669  0.37464604  0.62373864  1
  Fe  Fe14  1  0.50050793  0.24978507  0.24863213  1
  Fe  Fe15  1  0.12241599  0.87374485  0.37437562  1
  Fe  Fe16  1  0.12339705  0.37535793  0.62372324  1
  Fe  Fe17  1  0.12175089  0.37360423  0.87447585  1
  Fe  Fe18  1  0.49739838  0.74835168  0.50341249  1
  Fe  Fe19  1  0.37734494  0.37574362  0.37549095  1
  Fe  Fe20  1  0.12725727  0.87714713  0.62394133  1
  Fe  Fe21  1  0.75453275  -0.00027514  -0.00022148  1
  Fe  Fe22  1  0.24960947  0.49885945  -0.00010064  1
  Fe  Fe23  1  0.12371994  0.12597475  0.12552141  1
  Fe  Fe24  1  0.37443859  0.62314364  0.37766448  1
  Fe  Fe25  1  0.37462805  0.37725056  0.62163060  1
  Fe  Fe26  1  0.87051206  0.62523752  0.12823480  1
  Fe  Fe27  1  0.00047588  -0.00024332  0.75017812  1
  Fe  Fe28  1  0.62196016  0.87270576  0.37342044  1
  Fe  Fe29  1  0.25239889  0.25161685  0.00063129  1
  Fe  Fe30  1  0.37231070  0.12147197  0.62435883  1
  Fe  Fe31  1  -0.00324769  0.74876973  0.25101521  1
  Fe  Fe32  1  0.50276301  0.24836276  0.50366457  1
  Fe  Fe33  1  0.25036256  -0.00093593  0.25155370  1
  Fe  Fe34  1  0.50036983  0.25048526  0.00107217  1
  Fe  Fe35  1  0.74795364  0.74714663  -0.00675974  1
  Fe  Fe36  1  0.50099111  0.49997691  0.00148843  1
  Fe  Fe37  1  0.25131119  0.75037670  0.25120325  1
  Fe  Fe38  1  0.37746658  0.87582488  0.37514132  1
  Fe  Fe39  1  -0.00072571  0.74700978  -0.00016603  1
  Fe  Fe40  1  0.75070342  -0.00322721  0.74962465  1
  Fe  Fe41  1  -0.00179255  0.74886693  0.49992592  1
  Fe  Fe42  1  0.62468631  0.37493117  0.37882343  1
  Fe  Fe43  1  0.50171759  0.25032885  0.74738658  1
  Fe  Fe44  1  -0.00119931  -0.00113297  0.50201089  1
  Fe  Fe45  1  0.87341829  0.12206466  0.37528002  1
  Fe  Fe46  1  0.12310441  0.12687494  0.87479264  1
  Fe  Fe47  1  0.24802336  0.49883140  0.25183354  1
  Fe  Fe48  1  0.50396500  0.50256658  0.25250495  1
  Fe  Fe49  1  0.62605561  0.62566526  0.62610414  1
  Fe  Fe50  1  0.37689426  0.87429628  0.12557951  1
  Fe  Fe51  1  0.37690072  0.62529504  0.87220554  1
  Fe  Fe52  1  0.62842703  0.62638221  0.12747560  1
  Fe  Fe53  1  0.62653741  0.12360479  0.37392873  1
  Fe  Fe54  1  0.87776283  0.87140423  0.87283962  1
  Fe  Fe55  1  0.50078788  0.49975754  0.74608110  1
  Fe  Fe56  1  0.50267017  0.74817478  -0.00286904  1
  Fe  Fe57  1  0.24963532  0.49903002  0.75001419  1
  Fe  Fe58  1  0.37645344  0.37472181  0.87540926  1
  Fe  Fe59  1  0.62644898  0.37623976  0.12478625  1
  Fe  Fe60  1  -0.00197157  0.50182339  0.00109327  1
  Fe  Fe61  1  0.87301455  0.63048417  0.62945700  1
  Fe  Fe62  1  0.87252101  0.12243155  0.62526328  1
  Fe  Fe63  1  0.62875057  0.12472101  0.12619259  1
  Fe  Fe64  1  0.62616915  0.87451432  0.62494828  1
  Fe  Fe65  1  0.25156439  0.75089146  0.74751660  1
  Fe  Fe66  1  0.24854056  0.25080748  0.49752530  1
  Fe  Fe67  1  0.75138597  -0.00554889  0.24978112  1
  Fe  Fe68  1  0.87515809  0.37633104  0.87315921  1
  Fe  Fe69  1  0.74879053  0.25082664  0.74843428  1
  Fe  Fe70  1  0.25061108  0.24962424  0.74978425  1
  Fe  Fe71  1  0.12320174  0.87490873  0.12311914  1
  Fe  Fe72  1  0.11869658  0.37769135  0.37532948  1
  Fe  Fe73  1  0.87499868  0.37622018  0.12892886  1
  Fe  Fe74  1  0.12630797  0.62585733  0.12676069  1
  Fe  Fe75  1  0.37337697  0.12639926  0.12703536  1
  Fe  Fe76  1  0.37468841  0.62369135  0.12534378  1
  Fe  Fe77  1  0.75074057  0.50134506  0.49885710  1
  Fe  Fe78  1  0.75148588  0.25035334  -0.00102614  1
  Fe  Fe79  1  0.12358814  0.87402290  0.87664749  1
  Fe  Fe80  1  0.37538133  0.12476116  0.37457092  1
  Fe  Fe81  1  0.49988235  0.00218534  0.00165314  1
  Fe  Fe82  1  0.12789189  0.62377196  0.62227046  1
  Fe  Fe83  1  0.49944435  -0.00081306  0.74963386  1
  Fe  Fe84  1  -0.00377662  -0.00122426  0.24594766  1
  Fe  Fe85  1  0.12681187  0.12422335  0.62487524  1
  Fe  Fe86  1  0.12329740  0.12481360  0.37336732  1
  Fe  Fe87  1  0.25033063  0.00093201  -0.00220421  1
  Fe  Fe88  1  0.12439033  0.62494081  0.87408188  1
  Fe  Fe89  1  -0.00195120  0.24875367  0.50010761  1
  Co  Co90  1  0.49858520  0.74665535  0.24982169  1
  Co  Co91  1  0.50370015  0.50221264  0.49978072  1
  Co  Co92  1  0.87305756  0.12532597  0.87072047  1
  Co  Co93  1  0.24824532  0.49753122  0.49777457  1
  Co  Co94  1  0.74690569  0.49812567  0.25346312  1
  Co  Co95  1  -0.00336407  0.50424875  0.50366478  1
  Co  Co96  1  0.75287283  0.50097838  0.74900284  1
  Co  Co97  1  0.24903547  0.25177764  0.25259387  1
  Co  Co98  1  0.62354688  0.87999282  0.87660401  1
  Co  Co99  1  0.50233311  0.75106724  0.74926002  1
  Co  Co100  1  0.62679312  0.12173652  0.62719559  1
  Co  Co101  1  0.75274745  0.50145766  -0.00008209  1
  Co  Co102  1  0.87462571  0.87012853  0.12048987  1
  Co  Co103  1  0.62711925  0.37750248  0.62427719  1
  Co  Co104  1  -0.00163520  0.24953558  0.74737976  1
  Co  Co105  1  0.75290250  0.75432070  0.25401611  1
  Co  Co106  1  0.50127152  0.00063631  0.24887844  1
  Co  Co107  1  0.87702166  0.37748032  0.37683542  1
  Co  Co108  1  0.37738530  0.12653732  0.87445035  1
  Co  Co109  1  0.87424988  0.87334076  0.62765064  1
  Co  Co110  1  0.12470355  0.62622573  0.37682302  1
  Co  Co111  1  0.62314715  0.61810898  0.87223266  1
  Co  Co112  1  -0.00283237  0.24871921  0.25207867  1
  Co  Co113  1  0.62752713  0.62952674  0.37625320  1
  Co  Co114  1  0.74835812  -0.00339175  0.49909512  1
  Co  Co115  1  0.00022271  0.50366107  0.24897424  1
  Co  Co116  1  0.87247480  0.12616647  0.12787136  1
  Co  Co117  1  0.24872404  -0.00040092  0.49534727  1
  Co  Co118  1  -0.00321995  0.00239805  -0.00095073  1
  Co  Co119  1  0.24846982  0.00029832  0.75405101  1
  Co  Co120  1  0.37414833  0.62197487  0.62478372  1
  Co  Co121  1  0.87843178  0.87713807  0.37699269  1
  Co  Co122  1  0.37555499  0.37694010  0.12705334  1
  Co  Co123  1  0.87388563  0.62250423  0.37285393  1
  Co  Co124  1  0.00520929  0.74998091  0.74754303  1
  Co  Co125  1  0.74425334  0.75119031  0.75571032  1
  Co  Co126  1  0.37402885  0.87933340  0.62507427  1
  Co  Co127  1  0.87735392  0.62655710  0.87127057  1
