# generated using pymatgen
data_Fe45Co19
_symmetry_space_group_name_H-M   'P 1'
_cell_length_a   11.41448417
_cell_length_b   11.41618028
_cell_length_c   11.41458098
_cell_angle_alpha   89.99838215
_cell_angle_beta   90.00046362
_cell_angle_gamma   89.99885233
_symmetry_Int_Tables_number   1
_chemical_formula_structural   Fe45Co19
_chemical_formula_sum   'Fe90 Co38'
_cell_volume   1487.43186680
_cell_formula_units_Z   2
loop_
 _symmetry_equiv_pos_site_id
 _symmetry_equiv_pos_as_xyz
  1  'x, y, z'
loop_
 _atom_site_type_symbol
 _atom_site_label
 _atom_site_symmetry_multiplicity
 _atom_site_fract_x
 _atom_site_fract_y
 _atom_site_fract_z
 _atom_site_occupancy
  Fe  Fe0  1  0.25169427  0.25125248  0.49981163  1
  Fe  Fe1  1  0.37875011  0.37667883  0.12709216  1
  Fe  Fe2  1  0.12498163  0.37358501  0.62419276  1
  Fe  Fe3  1  0.62490129  0.12561509  0.12483992  1
  Fe  Fe4  1  0.62719686  0.62684810  0.62313675  1
  Fe  Fe5  1  0.50097329  -0.00147832  0.49977777  1
  Fe  Fe6  1  0.62442403  0.37664250  0.87519814  1
  Fe  Fe7  1  0.74631462  0.25142756  0.25162974  1
  Fe  Fe8  1  0.50285860  0.74709765  0.25211337  1
  Fe  Fe9  1  0.87335710  0.12606320  0.87380544  1
  Fe  Fe10  1  0.74811943  0.74982681  0.25145244  1
  Fe  Fe11  1  0.37689364  0.37654322  0.87123855  1
  Fe  Fe12  1  0.12591837  0.12551915  0.12420832  1
  Fe  Fe13  1  0.87738623  0.87485748  0.87290602  1
  Fe  Fe14  1  0.12273314  0.37582845  0.37579313  1
  Fe  Fe15  1  0.87244972  0.62501997  0.37547406  1
  Fe  Fe16  1  0.74993298  -0.00276663  0.00051452  1
  Fe  Fe17  1  0.62166294  0.87800329  0.87312980  1
  Fe  Fe18  1  0.50164921  0.24910875  0.74910286  1
  Fe  Fe19  1  0.37440172  0.12469134  0.12681216  1
  Fe  Fe20  1  0.50005529  0.25022231  0.50036835  1
  Fe  Fe21  1  0.37502075  0.12317731  0.87320500  1
  Fe  Fe22  1  0.87399747  0.37540347  0.37503602  1
  Fe  Fe23  1  0.00054890  0.74967056  -0.00119278  1
  Fe  Fe24  1  0.74943495  0.24947410  0.50011981  1
  Fe  Fe25  1  0.49943651  0.00018862  0.00132894  1
  Fe  Fe26  1  -0.00241336  0.50179855  0.75187766  1
  Fe  Fe27  1  0.50095297  0.74919000  0.49763749  1
  Fe  Fe28  1  0.87012023  0.62765855  0.12137513  1
  Fe  Fe29  1  0.00299332  0.74864542  0.75225408  1
  Fe  Fe30  1  0.75164314  0.50040222  0.75181879  1
  Fe  Fe31  1  0.25168252  -0.00327588  0.74971177  1
  Fe  Fe32  1  0.87414980  0.37285699  0.62723911  1
  Fe  Fe33  1  0.74985341  0.25076237  -0.00193617  1
  Fe  Fe34  1  0.12687009  0.12613906  0.62261390  1
  Fe  Fe35  1  0.49977773  0.50207630  0.50024504  1
  Fe  Fe36  1  0.37501445  0.12444158  0.37493787  1
  Fe  Fe37  1  0.87413861  0.12354649  0.37666877  1
  Fe  Fe38  1  0.37518501  0.87240981  0.62555261  1
  Fe  Fe39  1  0.12613340  0.62622541  0.62388367  1
  Fe  Fe40  1  -0.00031175  -0.00009093  0.00228670  1
  Fe  Fe41  1  0.50328790  0.25108915  0.25190320  1
  Fe  Fe42  1  0.37334473  0.87439278  0.37576370  1
  Fe  Fe43  1  0.37787082  0.37822133  0.37407971  1
  Fe  Fe44  1  0.50022711  0.74956304  -0.00015533  1
  Fe  Fe45  1  0.74842106  0.00018238  0.25228921  1
  Fe  Fe46  1  0.37306414  0.62485293  0.87332848  1
  Fe  Fe47  1  0.87593920  0.37238945  0.12417409  1
  Fe  Fe48  1  0.24887222  0.25080233  0.25110726  1
  Fe  Fe49  1  0.25033364  -0.00327253  -0.00005754  1
  Fe  Fe50  1  0.25091736  0.25150740  -0.00072927  1
  Fe  Fe51  1  0.12662680  0.87341233  0.62272480  1
  Fe  Fe52  1  -0.00227423  0.75041794  0.49713220  1
  Fe  Fe53  1  0.12592448  0.12428920  0.87486373  1
  Fe  Fe54  1  0.87392852  0.12543305  0.12526581  1
  Fe  Fe55  1  0.62447505  0.37673251  0.62487431  1
  Fe  Fe56  1  0.25158328  0.50122248  0.49968027  1
  Fe  Fe57  1  0.87866086  0.87458495  0.12994081  1
  Fe  Fe58  1  0.00047759  0.24898096  0.74925763  1
  Fe  Fe59  1  -0.00042543  -0.00102975  0.49835185  1
  Fe  Fe60  1  0.00074530  0.24756609  0.25128351  1
  Fe  Fe61  1  -0.00241000  0.49926243  0.50155950  1
  Fe  Fe62  1  0.37310185  0.87316443  0.12617611  1
  Fe  Fe63  1  0.37365530  0.62630333  0.62569932  1
  Fe  Fe64  1  0.12508927  0.62471125  0.12275329  1
  Fe  Fe65  1  0.62971639  0.62453643  0.87999098  1
  Fe  Fe66  1  0.62594060  0.12218296  0.62434385  1
  Fe  Fe67  1  0.37363139  0.12550159  0.62575390  1
  Fe  Fe68  1  0.00057522  0.00038873  0.74792765  1
  Fe  Fe69  1  0.50083793  -0.00072467  0.25093597  1
  Fe  Fe70  1  0.24848216  0.50136516  0.25156896  1
  Fe  Fe71  1  0.24862862  0.75203556  -0.00314675  1
  Fe  Fe72  1  0.25008589  0.49943404  0.74798540  1
  Fe  Fe73  1  0.12327184  0.37553793  0.87550424  1
  Fe  Fe74  1  0.74957016  0.75338254  0.74876042  1
  Fe  Fe75  1  0.24592148  0.74752146  0.25437063  1
  Fe  Fe76  1  0.37632829  0.62455071  0.12730320  1
  Fe  Fe77  1  -0.00526219  0.50192526  -0.00331924  1
  Fe  Fe78  1  0.12254409  0.37569706  0.12324102  1
  Fe  Fe79  1  0.24622729  -0.00059040  0.25226506  1
  Fe  Fe80  1  0.75136736  0.50111534  0.50165887  1
  Fe  Fe81  1  -0.00151259  0.50318559  0.24887525  1
  Fe  Fe82  1  0.49948063  0.24783934  -0.00158504  1
  Fe  Fe83  1  0.87406774  0.12485212  0.62408292  1
  Fe  Fe84  1  0.50086177  0.74836125  0.75125044  1
  Fe  Fe85  1  0.62359724  0.87463087  0.12680022  1
  Fe  Fe86  1  0.25248951  0.49879971  0.00065075  1
  Fe  Fe87  1  0.87459453  0.62817206  0.62663370  1
  Fe  Fe88  1  0.74963568  -0.00194320  0.74741216  1
  Fe  Fe89  1  0.74427135  0.49851017  0.24686390  1
  Co  Co90  1  0.62524341  0.37652961  0.37935531  1
  Co  Co91  1  0.12724455  0.62233269  0.87542591  1
  Co  Co92  1  0.74727351  0.24956437  0.74883530  1
  Co  Co93  1  0.62804207  0.62467950  0.37810187  1
  Co  Co94  1  0.37818711  0.87539530  0.87461058  1
  Co  Co95  1  0.50234380  0.50394124  0.74982521  1
  Co  Co96  1  0.62217922  0.87430254  0.62486669  1
  Co  Co97  1  0.24932209  0.75218293  0.75136006  1
  Co  Co98  1  0.87655546  0.87557414  0.37101559  1
  Co  Co99  1  0.62186276  0.37388445  0.12036356  1
  Co  Co100  1  0.37726358  0.37620762  0.62640925  1
  Co  Co101  1  0.12298519  0.87706257  0.87472741  1
  Co  Co102  1  0.12309232  0.87386034  0.37527532  1
  Co  Co103  1  0.87782731  0.87369719  0.62614511  1
  Co  Co104  1  0.37704125  0.62264118  0.37314735  1
  Co  Co105  1  0.62489137  0.12346483  0.37664982  1
  Co  Co106  1  0.87597805  0.37090746  0.87258496  1
  Co  Co107  1  0.49853186  0.00102433  0.74750166  1
  Co  Co108  1  0.75082458  -0.00422532  0.50132274  1
  Co  Co109  1  0.50653845  0.50200992  0.24902673  1
  Co  Co110  1  0.25093479  0.74806048  0.49730920  1
  Co  Co111  1  0.87073404  0.62967987  0.87543121  1
  Co  Co112  1  0.74953794  0.75878739  0.00012696  1
  Co  Co113  1  0.62623648  0.12209853  0.87461722  1
  Co  Co114  1  0.25082513  -0.00067241  0.49980016  1
  Co  Co115  1  0.75339559  0.49510594  -0.00022794  1
  Co  Co116  1  0.75247171  0.75437167  0.50045918  1
  Co  Co117  1  0.12534644  0.12688602  0.37860021  1
  Co  Co118  1  0.12377405  0.87314342  0.12650533  1
  Co  Co119  1  0.62743466  0.62605485  0.12016508  1
  Co  Co120  1  0.24970318  0.25073479  0.75015400  1
  Co  Co121  1  0.62595880  0.87499990  0.37581984  1
  Co  Co122  1  0.49853668  0.50307466  0.00008923  1
  Co  Co123  1  0.00096449  0.74499883  0.25057561  1
  Co  Co124  1  0.12211978  0.62248992  0.37805289  1
  Co  Co125  1  0.00003233  0.24769916  -0.00011807  1
  Co  Co126  1  -0.00217102  0.25110484  0.50043676  1
  Co  Co127  1  0.00326512  0.00401191  0.25099628  1
