# generated using pymatgen
data_Fe45Co19
_symmetry_space_group_name_H-M   'P 1'
_cell_length_a   11.41490410
_cell_length_b   11.41493279
_cell_length_c   11.41661444
_cell_angle_alpha   89.99978735
_cell_angle_beta   89.99238961
_cell_angle_gamma   90.00148251
_symmetry_Int_Tables_number   1
_chemical_formula_structural   Fe45Co19
_chemical_formula_sum   'Fe90 Co38'
_cell_volume   1487.58899250
_cell_formula_units_Z   2
loop_
 _symmetry_equiv_pos_site_id
 _symmetry_equiv_pos_as_xyz
  1  'x, y, z'
loop_
 _atom_site_type_symbol
 _atom_site_label
 _atom_site_symmetry_multiplicity
 _atom_site_fract_x
 _atom_site_fract_y
 _atom_site_fract_z
 _atom_site_occupancy
  Fe  Fe0  1  0.12698073  0.12600382  0.87493298  1
  Fe  Fe1  1  0.75159039  0.74972916  0.50126901  1
  Fe  Fe2  1  0.62456872  0.87717316  0.12239002  1
  Fe  Fe3  1  0.75201994  0.49932070  -0.00166025  1
  Fe  Fe4  1  0.74953958  0.25124418  0.24614549  1
  Fe  Fe5  1  -0.00098107  0.24962478  0.50132098  1
  Fe  Fe6  1  0.24862898  0.75284062  0.24725049  1
  Fe  Fe7  1  0.00144710  0.49886173  0.25205475  1
  Fe  Fe8  1  0.50001572  0.74909101  -0.00127035  1
  Fe  Fe9  1  0.00120889  0.75156074  0.25170331  1
  Fe  Fe10  1  0.37471726  0.62428330  0.12731211  1
  Fe  Fe11  1  0.62559907  0.37303272  0.87647322  1
  Fe  Fe12  1  0.62467613  0.12518279  0.62261839  1
  Fe  Fe13  1  0.00030398  0.49878407  0.49621675  1
  Fe  Fe14  1  0.24966529  -0.00094322  0.00081985  1
  Fe  Fe15  1  0.74887511  0.24881942  0.00466351  1
  Fe  Fe16  1  0.74818197  0.00113615  0.25065095  1
  Fe  Fe17  1  0.62139544  0.62290957  0.62584568  1
  Fe  Fe18  1  0.75026979  0.25269278  0.74529901  1
  Fe  Fe19  1  0.12801649  0.37570668  0.87579361  1
  Fe  Fe20  1  0.37527066  0.12656474  0.87280224  1
  Fe  Fe21  1  0.62512367  0.62619977  0.37546575  1
  Fe  Fe22  1  0.62470506  0.62218157  0.12392102  1
  Fe  Fe23  1  0.37550236  0.12234192  0.12556126  1
  Fe  Fe24  1  0.87742685  0.62245284  0.62527406  1
  Fe  Fe25  1  0.37441677  0.87421298  0.87254440  1
  Fe  Fe26  1  -0.00089797  0.24985308  0.74938522  1
  Fe  Fe27  1  0.49665595  0.49825373  -0.00159638  1
  Fe  Fe28  1  0.74742039  0.74697809  0.75056840  1
  Fe  Fe29  1  0.87533647  0.87577261  0.37573801  1
  Fe  Fe30  1  0.87508591  0.87552245  0.62544729  1
  Fe  Fe31  1  0.12738672  0.62794441  0.37716197  1
  Fe  Fe32  1  0.24950805  0.00079281  0.74783638  1
  Fe  Fe33  1  0.12459021  0.37778010  0.62462367  1
  Fe  Fe34  1  0.74916271  0.00150079  0.74997463  1
  Fe  Fe35  1  0.50119317  0.00203692  -0.00299436  1
  Fe  Fe36  1  0.37577290  0.37747884  0.62434853  1
  Fe  Fe37  1  0.50093321  0.75119941  0.24955364  1
  Fe  Fe38  1  0.62484363  0.37249030  0.37579092  1
  Fe  Fe39  1  0.75028736  0.49866302  0.75113089  1
  Fe  Fe40  1  0.50115346  0.00046557  0.25352694  1
  Fe  Fe41  1  0.00148277  0.50117990  0.75495471  1
  Fe  Fe42  1  0.12561637  0.62410702  0.12288638  1
  Fe  Fe43  1  0.00074584  0.00198876  0.49991874  1
  Fe  Fe44  1  0.24630452  -0.00055697  0.24877972  1
  Fe  Fe45  1  0.87475173  0.87674480  0.12355557  1
  Fe  Fe46  1  0.50008470  0.24992975  0.00169760  1
  Fe  Fe47  1  0.50005159  0.00207292  0.49910583  1
  Fe  Fe48  1  0.49726997  0.74924226  0.50147772  1
  Fe  Fe49  1  0.75091535  0.49816309  0.50008830  1
  Fe  Fe50  1  0.87385872  0.62472651  0.37434462  1
  Fe  Fe51  1  -0.00036526  0.00139978  -0.00148177  1
  Fe  Fe52  1  0.12657038  0.37544551  0.12592630  1
  Fe  Fe53  1  0.87200745  0.12737219  0.87448827  1
  Fe  Fe54  1  0.25138065  0.24982436  0.50226999  1
  Fe  Fe55  1  0.87283471  0.12600224  0.37591465  1
  Fe  Fe56  1  0.24937944  0.00329480  0.50192513  1
  Fe  Fe57  1  0.00215385  0.74725802  0.74983982  1
  Fe  Fe58  1  0.37365999  0.12736520  0.37477575  1
  Fe  Fe59  1  0.87212203  0.87337097  0.87555769  1
  Fe  Fe60  1  0.50044851  0.00034064  0.74989401  1
  Fe  Fe61  1  0.75152493  0.25289826  0.50354321  1
  Fe  Fe62  1  0.25077744  0.25135528  0.74844151  1
  Fe  Fe63  1  -0.00106571  0.74898193  -0.00156828  1
  Fe  Fe64  1  0.49595346  0.49925224  0.49488078  1
  Fe  Fe65  1  0.75022134  0.49735458  0.25083136  1
  Fe  Fe66  1  -0.00073192  0.24956544  0.00117444  1
  Fe  Fe67  1  -0.00026565  0.49991846  -0.00307230  1
  Fe  Fe68  1  0.25257143  0.74604464  0.50473630  1
  Fe  Fe69  1  0.62549005  0.87411351  0.37719270  1
  Fe  Fe70  1  0.25147069  0.75135662  0.00244295  1
  Fe  Fe71  1  0.37361322  0.37646287  0.12934482  1
  Fe  Fe72  1  0.50130395  0.24931429  0.25037011  1
  Fe  Fe73  1  0.49960234  0.49838291  0.75337851  1
  Fe  Fe74  1  0.37226343  0.87384031  0.37589679  1
  Fe  Fe75  1  0.50059565  0.25107137  0.74784675  1
  Fe  Fe76  1  0.74915967  0.75058005  0.24824555  1
  Fe  Fe77  1  0.49831289  0.49961176  0.25375055  1
  Fe  Fe78  1  0.00047853  0.00152840  0.75032397  1
  Fe  Fe79  1  0.12630659  0.87312421  0.87499077  1
  Fe  Fe80  1  0.87520930  0.62350869  0.12540194  1
  Fe  Fe81  1  0.25225358  0.25109413  0.00152045  1
  Fe  Fe82  1  0.12937270  0.37233582  0.37360103  1
  Fe  Fe83  1  0.12429560  0.87419056  0.62262479  1
  Fe  Fe84  1  0.62313471  0.87410317  0.62467613  1
  Fe  Fe85  1  0.37217512  0.62399184  0.87309665  1
  Fe  Fe86  1  0.62627622  0.87367557  0.87613090  1
  Fe  Fe87  1  0.00472436  0.00100939  0.25117693  1
  Fe  Fe88  1  0.00021112  0.24874126  0.24821265  1
  Fe  Fe89  1  0.25010737  0.74670715  0.74519519  1
  Co  Co90  1  0.62308940  0.12222320  0.12639903  1
  Co  Co91  1  0.12757579  0.87311504  0.37976508  1
  Co  Co92  1  0.87938603  0.37904168  0.62622148  1
  Co  Co93  1  0.12233954  0.87528631  0.12254201  1
  Co  Co94  1  0.25253466  0.50077140  0.49793412  1
  Co  Co95  1  0.37372159  0.62946883  0.37213683  1
  Co  Co96  1  0.37481478  0.37325833  0.87305250  1
  Co  Co97  1  0.87346802  0.37202427  0.87530071  1
  Co  Co98  1  0.12542903  0.12492931  0.12231317  1
  Co  Co99  1  0.49953969  0.74992371  0.75146231  1
  Co  Co100  1  0.37578710  0.87683812  0.62480951  1
  Co  Co101  1  -0.00332036  0.74988829  0.49971609  1
  Co  Co102  1  0.12452073  0.12618448  0.62651240  1
  Co  Co103  1  0.62776814  0.12884889  0.37686461  1
  Co  Co104  1  0.87499415  0.12415068  0.62451438  1
  Co  Co105  1  0.12603883  0.12784753  0.37596063  1
  Co  Co106  1  0.62311139  0.37832734  0.12485146  1
  Co  Co107  1  0.62555380  0.12931895  0.87290655  1
  Co  Co108  1  0.87710483  0.37679246  0.12486717  1
  Co  Co109  1  0.37194359  0.37133848  0.37269822  1
  Co  Co110  1  0.24885343  0.50186812  0.25204683  1
  Co  Co111  1  0.49824331  0.25023984  0.49977031  1
  Co  Co112  1  0.12982467  0.62600280  0.87731674  1
  Co  Co113  1  0.87586236  0.12281930  0.12623200  1
  Co  Co114  1  0.25210560  0.49752990  0.00084798  1
  Co  Co115  1  0.74877170  0.74835437  0.00142802  1
  Co  Co116  1  0.87394571  0.62675053  0.87446654  1
  Co  Co117  1  0.24969360  0.24692633  0.24678908  1
  Co  Co118  1  0.24883400  0.50002428  0.74907942  1
  Co  Co119  1  0.87434098  0.37306072  0.37403638  1
  Co  Co120  1  0.12145915  0.62088173  0.62253246  1
  Co  Co121  1  0.37624955  0.12538305  0.62663465  1
  Co  Co122  1  0.37805185  0.87738299  0.12541436  1
  Co  Co123  1  0.74940175  -0.00137364  0.50076263  1
  Co  Co124  1  0.74933495  0.00306892  -0.00129056  1
  Co  Co125  1  0.62171991  0.37788694  0.62348028  1
  Co  Co126  1  0.37953213  0.62006107  0.62772325  1
  Co  Co127  1  0.62416186  0.62242892  0.87570121  1
