# generated using pymatgen
data_Fe45Co19
_symmetry_space_group_name_H-M   'P 1'
_cell_length_a   11.41457441
_cell_length_b   11.41395940
_cell_length_c   11.41536636
_cell_angle_alpha   90.00124375
_cell_angle_beta   89.99581349
_cell_angle_gamma   89.99656451
_symmetry_Int_Tables_number   1
_chemical_formula_structural   Fe45Co19
_chemical_formula_sum   'Fe90 Co38'
_cell_volume   1487.25657996
_cell_formula_units_Z   2
loop_
 _symmetry_equiv_pos_site_id
 _symmetry_equiv_pos_as_xyz
  1  'x, y, z'
loop_
 _atom_site_type_symbol
 _atom_site_label
 _atom_site_symmetry_multiplicity
 _atom_site_fract_x
 _atom_site_fract_y
 _atom_site_fract_z
 _atom_site_occupancy
  Fe  Fe0  1  0.50075791  0.24663360  0.25375461  1
  Fe  Fe1  1  0.75265437  -0.00092869  0.50593878  1
  Fe  Fe2  1  -0.00148275  0.24959360  0.25000313  1
  Fe  Fe3  1  0.50406380  0.25069095  -0.00642173  1
  Fe  Fe4  1  0.62148135  0.36601108  0.62728754  1
  Fe  Fe5  1  0.24972527  0.50043143  0.74810556  1
  Fe  Fe6  1  0.12472138  0.12802345  0.12287540  1
  Fe  Fe7  1  0.25219198  0.74973899  -0.00077455  1
  Fe  Fe8  1  0.00112229  0.50059437  0.74839246  1
  Fe  Fe9  1  0.37882875  0.12708697  0.62631410  1
  Fe  Fe10  1  0.74802100  0.49246721  0.00137893  1
  Fe  Fe11  1  0.25115353  -0.00029988  0.74778882  1
  Fe  Fe12  1  -0.00152558  0.49815958  0.50074559  1
  Fe  Fe13  1  0.37714057  0.12539549  0.12338904  1
  Fe  Fe14  1  0.37803660  0.87695176  0.12623606  1
  Fe  Fe15  1  0.62623203  0.12894726  0.12116214  1
  Fe  Fe16  1  -0.00541988  0.25055262  -0.00531464  1
  Fe  Fe17  1  -0.00155404  0.25063485  0.50030305  1
  Fe  Fe18  1  0.25118742  0.74948163  0.74954553  1
  Fe  Fe19  1  -0.00394661  0.75180557  0.49778714  1
  Fe  Fe20  1  0.38084534  0.37766292  0.86940001  1
  Fe  Fe21  1  0.62531272  0.87777227  0.87305339  1
  Fe  Fe22  1  -0.00498042  0.74905742  0.25255650  1
  Fe  Fe23  1  -0.00183178  0.49790912  0.00013228  1
  Fe  Fe24  1  0.87204514  0.62107151  0.87528367  1
  Fe  Fe25  1  0.12398945  0.62489949  0.12503002  1
  Fe  Fe26  1  0.87386303  0.62406853  0.12409465  1
  Fe  Fe27  1  0.37608311  0.87738878  0.37374308  1
  Fe  Fe28  1  0.87365733  0.88187224  0.87541182  1
  Fe  Fe29  1  0.87450884  0.37213335  0.62964313  1
  Fe  Fe30  1  0.37582540  0.87650346  0.87332921  1
  Fe  Fe31  1  0.37623277  0.62279208  0.37601866  1
  Fe  Fe32  1  0.50164965  0.00121638  -0.00226758  1
  Fe  Fe33  1  -0.00182469  0.00081992  0.24790273  1
  Fe  Fe34  1  0.25080464  0.74940785  0.25088085  1
  Fe  Fe35  1  0.87404376  0.12820385  0.63015991  1
  Fe  Fe36  1  0.12300449  0.37496500  0.12615703  1
  Fe  Fe37  1  0.25253868  0.49554309  0.50261689  1
  Fe  Fe38  1  0.12309438  0.87867021  0.37588264  1
  Fe  Fe39  1  0.12583569  0.12420143  0.87487046  1
  Fe  Fe40  1  0.37761642  0.37247883  0.12689898  1
  Fe  Fe41  1  0.12457895  0.87642084  0.87451451  1
  Fe  Fe42  1  0.12506685  0.62243624  0.37510155  1
  Fe  Fe43  1  0.62920651  0.87491166  0.37398708  1
  Fe  Fe44  1  0.37452793  0.12282727  0.37454966  1
  Fe  Fe45  1  0.37742244  0.62587905  0.12246101  1
  Fe  Fe46  1  0.74892606  0.50178092  0.25020179  1
  Fe  Fe47  1  0.74593065  0.49987418  0.74756773  1
  Fe  Fe48  1  0.24901248  -0.00040539  0.00210201  1
  Fe  Fe49  1  0.12417743  0.12733698  0.62487006  1
  Fe  Fe50  1  0.12174264  0.87569845  0.62466437  1
  Fe  Fe51  1  0.74985174  0.75215677  -0.00013438  1
  Fe  Fe52  1  0.87366664  0.62653673  0.62401413  1
  Fe  Fe53  1  0.75112893  0.24942054  0.24970868  1
  Fe  Fe54  1  0.25389669  0.25363912  0.50020689  1
  Fe  Fe55  1  0.50110846  0.50018199  0.24930030  1
  Fe  Fe56  1  0.25011769  0.25160270  0.75031562  1
  Fe  Fe57  1  0.25062056  0.24947115  0.25076653  1
  Fe  Fe58  1  0.62593257  0.62820342  0.62179085  1
  Fe  Fe59  1  0.87436611  0.37573569  0.37302012  1
  Fe  Fe60  1  0.87246798  0.12637968  0.11848563  1
  Fe  Fe61  1  0.24945128  0.00136045  0.24774228  1
  Fe  Fe62  1  0.12476397  0.12455632  0.37709358  1
  Fe  Fe63  1  0.74830841  0.49763746  0.50139305  1
  Fe  Fe64  1  0.25080215  0.75211138  0.49972618  1
  Fe  Fe65  1  0.62824311  0.12531888  0.37906273  1
  Fe  Fe66  1  0.50086042  0.75135404  0.49876488  1
  Fe  Fe67  1  0.87400097  0.12291262  0.37594533  1
  Fe  Fe68  1  0.25131717  -0.00069585  0.50260226  1
  Fe  Fe69  1  0.74986129  0.00063297  0.24572944  1
  Fe  Fe70  1  0.62422943  0.87320458  0.12619363  1
  Fe  Fe71  1  0.37510375  0.62600323  0.62453549  1
  Fe  Fe72  1  -0.00201115  0.74992665  0.75232774  1
  Fe  Fe73  1  0.49994773  0.49573757  0.50213934  1
  Fe  Fe74  1  0.12598497  0.37605351  0.37325944  1
  Fe  Fe75  1  -0.00228689  0.75055963  -0.00218299  1
  Fe  Fe76  1  0.62312176  0.62217751  0.87853642  1
  Fe  Fe77  1  0.25244213  0.49949553  0.00010717  1
  Fe  Fe78  1  0.62329169  0.87471362  0.62739635  1
  Fe  Fe79  1  0.75029395  0.75005391  0.75124362  1
  Fe  Fe80  1  0.12257067  0.87326131  0.12516180  1
  Fe  Fe81  1  0.62530460  0.37250450  0.37518183  1
  Fe  Fe82  1  0.12575822  0.62473156  0.87544288  1
  Fe  Fe83  1  0.49960736  0.74736532  0.75212010  1
  Fe  Fe84  1  0.62390416  0.62530848  0.12206589  1
  Fe  Fe85  1  0.12307880  0.37617463  0.87351073  1
  Fe  Fe86  1  0.12393018  0.62616204  0.62340519  1
  Fe  Fe87  1  0.25152474  0.25279840  -0.00208387  1
  Fe  Fe88  1  0.50131899  0.00061907  0.50119495  1
  Fe  Fe89  1  0.50249512  0.74888075  0.25161060  1
  Co  Co90  1  0.49988201  0.49571117  0.00249004  1
  Co  Co91  1  0.50403336  0.50529819  0.74479187  1
  Co  Co92  1  0.62428745  0.37135288  0.12874971  1
  Co  Co93  1  0.74807345  0.00001070  0.74353865  1
  Co  Co94  1  0.37856429  0.87468861  0.62653701  1
  Co  Co95  1  0.63439385  0.11995611  0.87884754  1
  Co  Co96  1  0.87628499  0.87204095  0.62739278  1
  Co  Co97  1  0.49655242  0.24993334  0.49582627  1
  Co  Co98  1  0.50141570  0.00568521  0.75164926  1
  Co  Co99  1  0.86900500  0.11924618  0.87704650  1
  Co  Co100  1  0.37079918  0.12404130  0.87653406  1
  Co  Co101  1  0.62459628  0.12971116  0.62111297  1
  Co  Co102  1  0.50383136  0.00287533  0.25072182  1
  Co  Co103  1  0.87131160  0.62400984  0.37839474  1
  Co  Co104  1  0.37717939  0.62290406  0.87482368  1
  Co  Co105  1  0.00022779  0.00209033  0.74978033  1
  Co  Co106  1  0.75393507  0.25078656  0.50027271  1
  Co  Co107  1  0.75037317  0.75203625  0.50097774  1
  Co  Co108  1  0.38089026  0.37112895  0.63195296  1
  Co  Co109  1  -0.00070869  0.24820716  0.75377324  1
  Co  Co110  1  0.74966492  0.74693232  0.24865447  1
  Co  Co111  1  -0.00124348  0.50186151  0.25046907  1
  Co  Co112  1  0.50034177  0.75288476  -0.00218600  1
  Co  Co113  1  0.87469191  0.37429489  0.12740899  1
  Co  Co114  1  0.74709557  0.24958643  0.75578068  1
  Co  Co115  1  0.25060853  0.50120187  0.24674863  1
  Co  Co116  1  0.87070016  0.87724667  0.37354266  1
  Co  Co117  1  0.87558540  0.87420413  0.12450186  1
  Co  Co118  1  0.62484451  0.62358332  0.37814151  1
  Co  Co119  1  0.12358443  0.37277679  0.62532310  1
  Co  Co120  1  0.74730738  -0.00441455  0.00506862  1
  Co  Co121  1  -0.00384454  0.00177270  0.50231842  1
  Co  Co122  1  0.00250663  0.00160847  0.00030890  1
  Co  Co123  1  0.74983033  0.25788183  -0.00545330  1
  Co  Co124  1  0.37539636  0.37649279  0.37114369  1
  Co  Co125  1  0.87412085  0.37815679  0.86908010  1
  Co  Co126  1  0.62170534  0.38019211  0.87048019  1
  Co  Co127  1  0.50550437  0.24040528  0.75743909  1
