# generated using pymatgen
data_Fe45Co19
_symmetry_space_group_name_H-M   'P 1'
_cell_length_a   11.41397588
_cell_length_b   11.41491777
_cell_length_c   11.41269516
_cell_angle_alpha   90.00744632
_cell_angle_beta   89.99654430
_cell_angle_gamma   90.00002502
_symmetry_Int_Tables_number   1
_chemical_formula_structural   Fe45Co19
_chemical_formula_sum   'Fe90 Co38'
_cell_volume   1486.95542761
_cell_formula_units_Z   2
loop_
 _symmetry_equiv_pos_site_id
 _symmetry_equiv_pos_as_xyz
  1  'x, y, z'
loop_
 _atom_site_type_symbol
 _atom_site_label
 _atom_site_symmetry_multiplicity
 _atom_site_fract_x
 _atom_site_fract_y
 _atom_site_fract_z
 _atom_site_occupancy
  Fe  Fe0  1  0.74596738  0.00465958  -0.00420655  1
  Fe  Fe1  1  0.62180662  0.12486970  0.12467662  1
  Fe  Fe2  1  0.49912370  0.49893759  0.00071846  1
  Fe  Fe3  1  0.62736712  0.37481882  0.87801842  1
  Fe  Fe4  1  0.62786068  0.37403726  0.12288637  1
  Fe  Fe5  1  0.74895842  0.50045162  0.50029741  1
  Fe  Fe6  1  0.75205720  0.74506999  -0.00863605  1
  Fe  Fe7  1  0.37798251  0.62435591  0.87243041  1
  Fe  Fe8  1  0.00207725  0.49753461  0.49909638  1
  Fe  Fe9  1  0.25065627  0.24733203  0.50309878  1
  Fe  Fe10  1  0.87459000  0.37344831  0.62331998  1
  Fe  Fe11  1  0.00068661  0.49831450  -0.00050450  1
  Fe  Fe12  1  0.36966812  0.87183114  0.37930026  1
  Fe  Fe13  1  0.12774058  0.87317074  0.37867874  1
  Fe  Fe14  1  0.00068790  0.49862286  0.25118862  1
  Fe  Fe15  1  0.24824024  0.00423627  0.75067436  1
  Fe  Fe16  1  0.37173326  0.37303522  0.87455267  1
  Fe  Fe17  1  0.75119927  0.00323431  0.50252850  1
  Fe  Fe18  1  0.25065675  0.50142945  -0.00173304  1
  Fe  Fe19  1  0.12201743  0.62387984  0.62848914  1
  Fe  Fe20  1  0.37589054  0.12425582  0.37692623  1
  Fe  Fe21  1  0.74879086  0.24817505  0.49960751  1
  Fe  Fe22  1  0.12203029  0.12664034  0.62577928  1
  Fe  Fe23  1  0.25017663  0.24971737  0.24902818  1
  Fe  Fe24  1  0.49925988  0.75219104  0.25140240  1
  Fe  Fe25  1  0.25067311  0.74943672  -0.00030697  1
  Fe  Fe26  1  0.37524075  0.62529947  0.12659372  1
  Fe  Fe27  1  0.50067681  0.75544425  0.74755625  1
  Fe  Fe28  1  -0.00046940  -0.00298290  0.25035503  1
  Fe  Fe29  1  0.87735482  0.12582083  0.37635309  1
  Fe  Fe30  1  0.62454843  0.37383692  0.62326671  1
  Fe  Fe31  1  0.87352402  0.87422709  0.37578261  1
  Fe  Fe32  1  0.37561012  0.12254838  0.12402440  1
  Fe  Fe33  1  0.62073522  0.12641806  0.62477017  1
  Fe  Fe34  1  -0.00003419  0.75138264  0.50279825  1
  Fe  Fe35  1  0.00027389  0.75191642  0.24834748  1
  Fe  Fe36  1  0.12735042  0.87599208  0.12287547  1
  Fe  Fe37  1  0.12304723  0.62634395  0.87471890  1
  Fe  Fe38  1  0.25153833  0.49895816  0.24877222  1
  Fe  Fe39  1  0.12886914  0.37295164  0.87264615  1
  Fe  Fe40  1  0.49916424  0.49519666  0.75034083  1
  Fe  Fe41  1  0.75066476  0.00023042  0.24884809  1
  Fe  Fe42  1  0.37288186  0.37434368  0.62644788  1
  Fe  Fe43  1  0.49941211  -0.00349254  0.25028341  1
  Fe  Fe44  1  0.62508531  0.62659413  0.12384657  1
  Fe  Fe45  1  0.74915753  0.50125753  0.25022288  1
  Fe  Fe46  1  0.87658205  0.62440602  0.62724259  1
  Fe  Fe47  1  0.24801645  0.24501389  0.00011657  1
  Fe  Fe48  1  0.62744657  0.87473790  0.37721541  1
  Fe  Fe49  1  0.87242990  0.87433643  0.12084584  1
  Fe  Fe50  1  0.87895797  0.12295783  0.87219574  1
  Fe  Fe51  1  -0.00262598  0.75454550  0.75315257  1
  Fe  Fe52  1  0.87577738  0.62643902  0.12372892  1
  Fe  Fe53  1  0.00084070  0.25226460  0.74868410  1
  Fe  Fe54  1  0.74836017  0.24679900  0.75187520  1
  Fe  Fe55  1  0.37276627  0.87776388  0.87507153  1
  Fe  Fe56  1  0.37830612  0.12473543  0.87347536  1
  Fe  Fe57  1  0.49952552  0.49807938  0.24988273  1
  Fe  Fe58  1  0.25143704  0.50427736  0.50391108  1
  Fe  Fe59  1  0.87986941  0.12416304  0.12203083  1
  Fe  Fe60  1  0.62264887  0.12418729  0.37536154  1
  Fe  Fe61  1  0.12905435  0.87498251  0.62541052  1
  Fe  Fe62  1  0.87230434  0.37535880  0.87700660  1
  Fe  Fe63  1  0.49951883  0.25058413  0.00019520  1
  Fe  Fe64  1  0.37457867  0.37597476  0.37682726  1
  Fe  Fe65  1  0.00113481  0.25190962  0.25048666  1
  Fe  Fe66  1  0.37322244  0.87777067  0.12260051  1
  Fe  Fe67  1  0.62731387  0.87392867  0.12180054  1
  Fe  Fe68  1  0.87565824  0.62660215  0.37493497  1
  Fe  Fe69  1  0.12361725  0.12512051  0.37511415  1
  Fe  Fe70  1  0.24943072  -0.00004042  0.25082577  1
  Fe  Fe71  1  0.75036549  0.74857499  0.50228727  1
  Fe  Fe72  1  0.00600564  -0.00272124  -0.00535827  1
  Fe  Fe73  1  0.00091244  0.49564863  0.75048935  1
  Fe  Fe74  1  0.49799287  -0.00347699  0.50188466  1
  Fe  Fe75  1  0.74906684  0.50291106  0.75136962  1
  Fe  Fe76  1  0.49930963  0.25177003  0.25097849  1
  Fe  Fe77  1  0.25247810  0.74652807  0.74795700  1
  Fe  Fe78  1  0.86884035  0.87806271  0.63173358  1
  Fe  Fe79  1  0.87391824  0.37380143  0.37614985  1
  Fe  Fe80  1  -0.00115335  -0.00049693  0.50331065  1
  Fe  Fe81  1  0.75002280  0.24764693  0.24924417  1
  Fe  Fe82  1  0.49880391  0.75196370  -0.00139542  1
  Fe  Fe83  1  0.12783308  0.62696726  0.37401100  1
  Fe  Fe84  1  0.50364272  -0.00309128  0.75015613  1
  Fe  Fe85  1  0.87249072  0.37442673  0.12170129  1
  Fe  Fe86  1  0.12460681  0.62617069  0.12406537  1
  Fe  Fe87  1  0.12636749  0.37333392  0.12426302  1
  Fe  Fe88  1  0.62185472  0.62587932  0.37734121  1
  Fe  Fe89  1  0.62131988  0.62636055  0.62553009  1
  Co  Co90  1  0.49690113  0.75331578  0.50212301  1
  Co  Co91  1  0.12902110  0.37557255  0.37643657  1
  Co  Co92  1  0.49856204  0.25173387  0.50003211  1
  Co  Co93  1  0.62782032  0.87339510  0.87549398  1
  Co  Co94  1  0.00132722  0.25166803  -0.00166997  1
  Co  Co95  1  0.62559018  0.37473809  0.37466839  1
  Co  Co96  1  0.88086189  0.62184306  0.87265436  1
  Co  Co97  1  0.24986986  0.75218453  0.24745837  1
  Co  Co98  1  0.87640768  0.12572888  0.62777787  1
  Co  Co99  1  0.24906845  0.00452093  0.50220828  1
  Co  Co100  1  0.75022214  0.74472825  0.75400456  1
  Co  Co101  1  0.87096571  0.88044632  0.87225487  1
  Co  Co102  1  0.75097407  0.24463968  -0.00170111  1
  Co  Co103  1  0.12238754  0.12791203  0.87186320  1
  Co  Co104  1  0.50014608  0.25394538  0.75029141  1
  Co  Co105  1  0.49831334  0.49819855  0.50041537  1
  Co  Co106  1  -0.00045674  0.75337206  -0.00211582  1
  Co  Co107  1  0.12780318  0.37516491  0.62616673  1
  Co  Co108  1  0.00183574  0.25158317  0.50066466  1
  Co  Co109  1  0.37463541  0.62582759  0.37276014  1
  Co  Co110  1  0.00428098  -0.00222705  0.74877212  1
  Co  Co111  1  0.38193984  0.62352173  0.62816138  1
  Co  Co112  1  0.74362125  0.00649171  0.75217059  1
  Co  Co113  1  0.12286490  0.12403964  0.12729786  1
  Co  Co114  1  0.74970719  0.75009037  0.25099249  1
  Co  Co115  1  0.25091024  0.50296313  0.75019434  1
  Co  Co116  1  0.61794243  0.62393319  0.87254969  1
  Co  Co117  1  0.25203073  0.74377706  0.50605092  1
  Co  Co118  1  0.38004613  0.12374487  0.62726816  1
  Co  Co119  1  0.24750937  0.00361210  -0.00252818  1
  Co  Co120  1  0.50095804  -0.00149225  -0.00080025  1
  Co  Co121  1  0.74966320  0.50535820  -0.00194942  1
  Co  Co122  1  0.37001162  0.87826267  0.62556003  1
  Co  Co123  1  0.37377805  0.37386274  0.12273105  1
  Co  Co124  1  0.63000134  0.87439234  0.62486512  1
  Co  Co125  1  0.61843614  0.12794600  0.87501424  1
  Co  Co126  1  0.25075029  0.24600229  0.74737971  1
  Co  Co127  1  0.12991153  0.87207196  0.87261019  1
