# generated using pymatgen
data_Fe45Co19
_symmetry_space_group_name_H-M   'P 1'
_cell_length_a   11.41474090
_cell_length_b   11.41415537
_cell_length_c   11.41471945
_cell_angle_alpha   89.99476775
_cell_angle_beta   89.99223062
_cell_angle_gamma   89.99959847
_symmetry_Int_Tables_number   1
_chemical_formula_structural   Fe45Co19
_chemical_formula_sum   'Fe90 Co38'
_cell_volume   1487.21951032
_cell_formula_units_Z   2
loop_
 _symmetry_equiv_pos_site_id
 _symmetry_equiv_pos_as_xyz
  1  'x, y, z'
loop_
 _atom_site_type_symbol
 _atom_site_label
 _atom_site_symmetry_multiplicity
 _atom_site_fract_x
 _atom_site_fract_y
 _atom_site_fract_z
 _atom_site_occupancy
  Fe  Fe0  1  0.12247708  0.87505652  0.62465571  1
  Fe  Fe1  1  0.87405284  0.87276158  0.62775696  1
  Fe  Fe2  1  0.62471876  0.12298904  0.37500435  1
  Fe  Fe3  1  0.62411875  0.12667195  0.62690416  1
  Fe  Fe4  1  0.00039215  0.74859260  0.75459920  1
  Fe  Fe5  1  0.37661889  0.87486892  0.62456718  1
  Fe  Fe6  1  0.87347840  0.62413553  0.37122136  1
  Fe  Fe7  1  0.25181464  0.24991834  0.25072054  1
  Fe  Fe8  1  0.00103727  0.74992002  0.25019658  1
  Fe  Fe9  1  0.13021065  0.11949288  0.87825552  1
  Fe  Fe10  1  0.38035157  0.86766692  0.12719356  1
  Fe  Fe11  1  0.37633142  0.62881366  0.62474472  1
  Fe  Fe12  1  0.87554545  0.37644635  0.12331668  1
  Fe  Fe13  1  0.37250108  0.62357816  0.87452939  1
  Fe  Fe14  1  -0.00085076  -0.00035065  0.24735880  1
  Fe  Fe15  1  0.62453276  0.12295521  0.87247705  1
  Fe  Fe16  1  0.25250326  0.24742839  -0.00028285  1
  Fe  Fe17  1  0.74848138  0.50097918  0.50355201  1
  Fe  Fe18  1  0.62128452  0.37283210  0.12378303  1
  Fe  Fe19  1  0.37459517  0.12506943  0.62681542  1
  Fe  Fe20  1  0.74712517  0.24899056  -0.00021696  1
  Fe  Fe21  1  0.74719881  -0.00221436  0.24574396  1
  Fe  Fe22  1  0.25034997  -0.00046405  0.50068241  1
  Fe  Fe23  1  0.75048537  0.74713315  -0.00060320  1
  Fe  Fe24  1  0.12583490  0.62617143  0.62660685  1
  Fe  Fe25  1  0.12792512  0.37786069  0.87678007  1
  Fe  Fe26  1  0.87471941  0.87317183  0.12374711  1
  Fe  Fe27  1  0.12654390  0.12603151  0.62697171  1
  Fe  Fe28  1  0.00012475  0.50063768  0.50034283  1
  Fe  Fe29  1  0.87201194  0.37693314  0.87617812  1
  Fe  Fe30  1  0.87321982  0.12499821  0.37354814  1
  Fe  Fe31  1  0.12432809  0.12182026  0.37245294  1
  Fe  Fe32  1  0.24970255  0.75243087  0.75077105  1
  Fe  Fe33  1  0.87447698  0.12819528  0.62851520  1
  Fe  Fe34  1  0.12722420  0.87773502  0.87782752  1
  Fe  Fe35  1  0.74883186  0.50173856  0.24475357  1
  Fe  Fe36  1  -0.00054019  0.50294154  -0.00143791  1
  Fe  Fe37  1  0.50175485  0.75355692  0.49496852  1
  Fe  Fe38  1  0.12618889  0.62331147  0.37346332  1
  Fe  Fe39  1  0.49964331  0.25176961  0.25231517  1
  Fe  Fe40  1  0.62606567  0.87275761  0.62608494  1
  Fe  Fe41  1  -0.00048811  0.74978705  0.49737872  1
  Fe  Fe42  1  0.25206587  0.74937556  0.00033619  1
  Fe  Fe43  1  0.12642544  0.37476578  0.12341101  1
  Fe  Fe44  1  0.37503087  0.37498200  0.87852189  1
  Fe  Fe45  1  0.12849015  0.37681978  0.37694065  1
  Fe  Fe46  1  0.62380379  0.37591306  0.37556782  1
  Fe  Fe47  1  0.87351809  0.37693763  0.37406394  1
  Fe  Fe48  1  0.74726210  0.50109030  0.74687936  1
  Fe  Fe49  1  0.00085854  0.25011463  0.49815230  1
  Fe  Fe50  1  0.37257169  0.37209185  0.62010978  1
  Fe  Fe51  1  0.62511068  0.62276687  0.87497335  1
  Fe  Fe52  1  0.49847409  0.49956304  0.74732732  1
  Fe  Fe53  1  0.00129309  0.50125675  0.75173538  1
  Fe  Fe54  1  0.74888041  0.25011023  0.24820378  1
  Fe  Fe55  1  0.87177562  0.87622744  0.87437724  1
  Fe  Fe56  1  0.74878476  0.00150345  0.00164374  1
  Fe  Fe57  1  0.62754048  0.62596345  0.37579340  1
  Fe  Fe58  1  0.49684822  0.50197640  0.00297901  1
  Fe  Fe59  1  0.00077504  0.25139707  0.25005889  1
  Fe  Fe60  1  0.75010317  0.00025201  0.50334192  1
  Fe  Fe61  1  0.87476333  0.37327690  0.62668507  1
  Fe  Fe62  1  0.49894613  0.50016851  0.50018044  1
  Fe  Fe63  1  0.25089212  -0.00257920  0.24658065  1
  Fe  Fe64  1  -0.00213644  0.00107561  0.50041815  1
  Fe  Fe65  1  0.12580586  0.62440039  0.12373867  1
  Fe  Fe66  1  0.50392525  -0.00604747  0.25050134  1
  Fe  Fe67  1  0.74767095  0.25139476  0.50055972  1
  Fe  Fe68  1  0.62470447  0.37719548  0.87555750  1
  Fe  Fe69  1  0.87487791  0.62717074  0.62752412  1
  Fe  Fe70  1  0.62004016  0.63079355  0.12439436  1
  Fe  Fe71  1  0.12818265  0.37358989  0.62297196  1
  Fe  Fe72  1  0.49792340  0.25059786  0.75110963  1
  Fe  Fe73  1  0.87277482  0.87463363  0.37418768  1
  Fe  Fe74  1  0.87562941  0.12631193  0.12420106  1
  Fe  Fe75  1  0.49724196  0.50013574  0.24851474  1
  Fe  Fe76  1  0.37901955  0.12713196  0.12500712  1
  Fe  Fe77  1  0.37329309  0.62815163  0.37205466  1
  Fe  Fe78  1  -0.00118277  0.74737028  -0.00309749  1
  Fe  Fe79  1  0.24814522  0.75211041  0.49757562  1
  Fe  Fe80  1  0.00160090  0.24937469  0.75425382  1
  Fe  Fe81  1  0.50208092  0.75191577  0.75428365  1
  Fe  Fe82  1  0.37445416  0.87927358  0.87413659  1
  Fe  Fe83  1  0.25085957  0.49909281  0.74844771  1
  Fe  Fe84  1  0.00077063  0.24666384  -0.00129567  1
  Fe  Fe85  1  0.25425471  0.49887514  0.24601759  1
  Fe  Fe86  1  0.12367345  0.87638345  0.12284029  1
  Fe  Fe87  1  0.49982851  0.00011901  -0.00045906  1
  Fe  Fe88  1  0.37810287  0.12170878  0.37606434  1
  Fe  Fe89  1  -0.00067563  0.00081440  0.75284378  1
  Co  Co90  1  -0.00276348  0.00073997  -0.00048148  1
  Co  Co91  1  0.62286587  0.37407048  0.62541778  1
  Co  Co92  1  0.74734716  0.50179696  0.00499016  1
  Co  Co93  1  0.25206346  0.50430676  0.50109434  1
  Co  Co94  1  0.74893592  0.25166737  0.75201847  1
  Co  Co95  1  0.24991563  0.24465375  0.49663302  1
  Co  Co96  1  0.12532291  0.12417204  0.12437321  1
  Co  Co97  1  0.50532358  0.75273587  0.25716286  1
  Co  Co98  1  0.74626840  0.74852639  0.75166392  1
  Co  Co99  1  0.87109245  0.62198395  0.87386908  1
  Co  Co100  1  0.50171898  0.24702734  -0.00406953  1
  Co  Co101  1  0.50092270  -0.00202338  0.50184633  1
  Co  Co102  1  0.49772986  0.74955539  -0.00752575  1
  Co  Co103  1  0.62194119  0.12532693  0.12655301  1
  Co  Co104  1  0.37746871  0.37066994  0.12234075  1
  Co  Co105  1  0.74806171  0.75040177  0.24733324  1
  Co  Co106  1  0.37271947  0.87592286  0.37397496  1
  Co  Co107  1  0.62214173  0.87042032  0.12019242  1
  Co  Co108  1  0.37473224  0.37508948  0.37814503  1
  Co  Co109  1  0.62729170  0.87723353  0.87681990  1
  Co  Co110  1  0.24971983  -0.00232361  0.74699384  1
  Co  Co111  1  0.12974109  0.62449452  0.87476575  1
  Co  Co112  1  0.50107346  -0.00157551  0.74925010  1
  Co  Co113  1  0.37737625  0.63163278  0.12786134  1
  Co  Co114  1  0.25047238  0.25118414  0.75386000  1
  Co  Co115  1  0.25376310  0.50174778  0.00363715  1
  Co  Co116  1  0.87766680  0.62483395  0.12625808  1
  Co  Co117  1  0.00125383  0.49802610  0.24928340  1
  Co  Co118  1  0.24585440  0.75237878  0.24982742  1
  Co  Co119  1  0.75154328  0.74868273  0.50090377  1
  Co  Co120  1  0.50074173  0.24897104  0.49977505  1
  Co  Co121  1  0.62072215  0.62832053  0.62454980  1
  Co  Co122  1  0.63092158  0.87702536  0.37757258  1
  Co  Co123  1  0.25629564  -0.00193664  0.00620618  1
  Co  Co124  1  0.87256687  0.12475023  0.87520510  1
  Co  Co125  1  0.75008672  -0.00006871  0.74837327  1
  Co  Co126  1  0.37367154  0.12130779  0.87362961  1
  Co  Co127  1  0.12342741  0.87893961  0.37523735  1
