# generated using pymatgen
data_Fe45Co19
_symmetry_space_group_name_H-M   'P 1'
_cell_length_a   11.41501643
_cell_length_b   11.41526284
_cell_length_c   11.41484605
_cell_angle_alpha   89.99652771
_cell_angle_beta   90.01081261
_cell_angle_gamma   90.01250287
_symmetry_Int_Tables_number   1
_chemical_formula_structural   Fe45Co19
_chemical_formula_sum   'Fe90 Co38'
_cell_volume   1487.41616293
_cell_formula_units_Z   2
loop_
 _symmetry_equiv_pos_site_id
 _symmetry_equiv_pos_as_xyz
  1  'x, y, z'
loop_
 _atom_site_type_symbol
 _atom_site_label
 _atom_site_symmetry_multiplicity
 _atom_site_fract_x
 _atom_site_fract_y
 _atom_site_fract_z
 _atom_site_occupancy
  Fe  Fe0  1  0.75052373  0.50067269  0.50192829  1
  Fe  Fe1  1  0.25265672  0.74741498  0.50322818  1
  Fe  Fe2  1  -0.00027467  0.50101543  0.25152755  1
  Fe  Fe3  1  0.12463549  0.37713403  0.38184376  1
  Fe  Fe4  1  0.12785974  0.62341286  0.37661751  1
  Fe  Fe5  1  0.12498736  0.62153353  0.62382209  1
  Fe  Fe6  1  0.74753263  0.24948800  0.49961237  1
  Fe  Fe7  1  0.74907539  0.49980523  -0.00530986  1
  Fe  Fe8  1  0.62012828  0.37347466  0.12122427  1
  Fe  Fe9  1  0.12844409  0.87474427  0.12479365  1
  Fe  Fe10  1  0.75141077  0.74902160  0.75109486  1
  Fe  Fe11  1  0.50023108  0.74917557  0.25037814  1
  Fe  Fe12  1  0.74864181  0.49844024  0.24876673  1
  Fe  Fe13  1  0.75130790  -0.00155621  0.75027293  1
  Fe  Fe14  1  0.75079513  0.00091212  0.00044450  1
  Fe  Fe15  1  0.00247263  0.24988522  0.25063996  1
  Fe  Fe16  1  0.12800223  0.12794076  0.62432273  1
  Fe  Fe17  1  0.00033950  0.74998625  0.74890130  1
  Fe  Fe18  1  0.49993412  0.24968772  0.75224986  1
  Fe  Fe19  1  0.12689869  0.87572897  0.37637326  1
  Fe  Fe20  1  0.62326196  0.87492921  0.62594842  1
  Fe  Fe21  1  0.37510579  0.62512275  0.37487322  1
  Fe  Fe22  1  0.74797637  0.24960159  -0.00048032  1
  Fe  Fe23  1  0.62458658  0.87577120  0.37447090  1
  Fe  Fe24  1  0.87450134  0.12492760  0.37468188  1
  Fe  Fe25  1  0.00032516  0.00003053  0.74913360  1
  Fe  Fe26  1  0.37601529  0.12923550  0.12413281  1
  Fe  Fe27  1  0.49849825  0.00156290  0.24948977  1
  Fe  Fe28  1  0.62352721  0.62459561  0.62854772  1
  Fe  Fe29  1  0.00198441  0.00096879  0.24797198  1
  Fe  Fe30  1  0.12632338  0.87544444  0.62387339  1
  Fe  Fe31  1  0.49872334  0.49787352  0.75067287  1
  Fe  Fe32  1  0.00323104  0.24952820  0.00163755  1
  Fe  Fe33  1  0.87515687  0.37401277  0.37745652  1
  Fe  Fe34  1  0.62173722  0.37521007  0.37604339  1
  Fe  Fe35  1  0.49544227  0.75333611  0.75456221  1
  Fe  Fe36  1  0.87284523  0.62539641  0.37499486  1
  Fe  Fe37  1  -0.00643428  0.49807221  0.74659021  1
  Fe  Fe38  1  0.37601632  0.13039113  0.37672992  1
  Fe  Fe39  1  0.00121414  0.00094111  0.00178953  1
  Fe  Fe40  1  0.62339858  0.12461729  0.37463021  1
  Fe  Fe41  1  0.62562206  0.12329768  0.87490445  1
  Fe  Fe42  1  0.50055822  0.00122851  0.50173826  1
  Fe  Fe43  1  0.00082802  0.50172473  0.00048406  1
  Fe  Fe44  1  0.74779993  0.74898899  -0.00245435  1
  Fe  Fe45  1  0.37411623  0.12901799  0.62480889  1
  Fe  Fe46  1  0.87624686  0.87416618  0.87463394  1
  Fe  Fe47  1  0.00063312  0.74949094  0.25026944  1
  Fe  Fe48  1  0.37549926  0.87368548  0.37807739  1
  Fe  Fe49  1  0.37206490  0.12413050  0.87478732  1
  Fe  Fe50  1  0.25163300  0.00234641  0.49986904  1
  Fe  Fe51  1  0.74656304  0.25005759  0.24748827  1
  Fe  Fe52  1  0.37535832  0.37520490  0.87517316  1
  Fe  Fe53  1  0.74920781  0.00193985  0.24765608  1
  Fe  Fe54  1  0.62412285  0.62391999  0.37492654  1
  Fe  Fe55  1  -0.00079162  0.74917921  0.50102929  1
  Fe  Fe56  1  0.87397238  0.87365130  0.12541681  1
  Fe  Fe57  1  0.49771486  0.49814378  0.24898989  1
  Fe  Fe58  1  0.49768724  0.50371464  -0.00188601  1
  Fe  Fe59  1  0.87333987  0.62453343  0.12475502  1
  Fe  Fe60  1  0.49618586  0.49829744  0.50240991  1
  Fe  Fe61  1  0.00231137  0.74819284  -0.00038554  1
  Fe  Fe62  1  0.25229756  0.74602755  -0.00160308  1
  Fe  Fe63  1  0.49885044  -0.00163462  -0.00243558  1
  Fe  Fe64  1  0.74809041  0.75131292  0.50036381  1
  Fe  Fe65  1  0.25304865  0.49643041  0.25046853  1
  Fe  Fe66  1  0.62376876  0.87411399  0.12430893  1
  Fe  Fe67  1  0.24821152  0.25191086  -0.00109880  1
  Fe  Fe68  1  0.12358759  0.37728751  0.87291135  1
  Fe  Fe69  1  -0.00061969  0.00230711  0.50096946  1
  Fe  Fe70  1  0.75099684  0.25404091  0.75282751  1
  Fe  Fe71  1  0.62349247  0.62609168  0.12410422  1
  Fe  Fe72  1  0.37518508  0.87170706  0.12341491  1
  Fe  Fe73  1  0.00101181  0.25208489  0.74724782  1
  Fe  Fe74  1  0.25122072  0.49955984  0.00190599  1
  Fe  Fe75  1  0.12645444  0.12351885  0.87518351  1
  Fe  Fe76  1  0.87639289  0.12654630  0.87565677  1
  Fe  Fe77  1  0.25133693  0.00043869  0.24989156  1
  Fe  Fe78  1  0.12930092  0.87536391  0.87488828  1
  Fe  Fe79  1  0.87636751  0.37464191  0.12355914  1
  Fe  Fe80  1  0.49742847  -0.00117271  0.75120200  1
  Fe  Fe81  1  0.87276814  0.12546605  0.62422865  1
  Fe  Fe82  1  0.62565289  0.37589173  0.62762671  1
  Fe  Fe83  1  0.62567484  0.12477031  0.62671745  1
  Fe  Fe84  1  0.25283118  0.49784082  0.74469378  1
  Fe  Fe85  1  0.12657914  0.62280109  0.87114232  1
  Fe  Fe86  1  0.25113714  -0.00079308  0.74849917  1
  Fe  Fe87  1  0.12794401  0.62416414  0.12851822  1
  Fe  Fe88  1  0.24912872  0.25295097  0.25062781  1
  Fe  Fe89  1  0.87352701  0.87582116  0.37536643  1
  Co  Co90  1  0.36928263  0.87560536  0.87545947  1
  Co  Co91  1  0.87622384  0.62590083  0.87523313  1
  Co  Co92  1  0.25023031  0.75004384  0.74715209  1
  Co  Co93  1  0.37773710  0.37181873  0.37620589  1
  Co  Co94  1  0.62589427  0.87568228  0.87418305  1
  Co  Co95  1  0.37310634  0.62317760  0.87159742  1
  Co  Co96  1  0.74799400  -0.00069777  0.50051502  1
  Co  Co97  1  0.50099412  0.74948710  0.49846834  1
  Co  Co98  1  0.87251191  0.62600696  0.62462872  1
  Co  Co99  1  0.75344714  0.49837238  0.75258516  1
  Co  Co100  1  0.87341938  0.37322660  0.62097169  1
  Co  Co101  1  0.87791795  0.37359320  0.87792721  1
  Co  Co102  1  0.87610235  0.12741081  0.12579588  1
  Co  Co103  1  0.25100213  0.00168725  0.00236556  1
  Co  Co104  1  0.37913454  0.62688669  0.62705968  1
  Co  Co105  1  0.37548867  0.87521756  0.62312448  1
  Co  Co106  1  0.74855827  0.74890949  0.25035598  1
  Co  Co107  1  0.37560324  0.36920059  0.62513025  1
  Co  Co108  1  0.12667338  0.12440543  0.37440535  1
  Co  Co109  1  0.62147903  0.12451473  0.12284709  1
  Co  Co110  1  0.62273262  0.37595442  0.87519591  1
  Co  Co111  1  0.49960435  0.24791458  -0.00554223  1
  Co  Co112  1  0.62321813  0.62501079  0.87123712  1
  Co  Co113  1  0.25658843  0.49969528  0.50286104  1
  Co  Co114  1  0.12754429  0.12519210  0.12629408  1
  Co  Co115  1  -0.00323342  0.50179506  0.50048220  1
  Co  Co116  1  0.87488717  0.87541222  0.62499559  1
  Co  Co117  1  0.37469177  0.62547145  0.12760444  1
  Co  Co118  1  0.24864845  0.25213849  0.75260476  1
  Co  Co119  1  0.25081942  0.75136185  0.25153507  1
  Co  Co120  1  0.12409342  0.37659678  0.12578956  1
  Co  Co121  1  0.00096115  0.24689916  0.50134816  1
  Co  Co122  1  0.24907668  0.25280962  0.50011818  1
  Co  Co123  1  0.12393970  0.37683943  0.62190362  1
  Co  Co124  1  0.50258680  0.25066256  0.25046239  1
  Co  Co125  1  0.49826451  0.74932422  -0.00317994  1
  Co  Co126  1  0.50360221  0.25028977  0.50270032  1
  Co  Co127  1  0.37779466  0.37229308  0.12321678  1
