# generated using pymatgen
data_Fe45Co19
_symmetry_space_group_name_H-M   'P 1'
_cell_length_a   11.41676192
_cell_length_b   11.41479588
_cell_length_c   11.41382099
_cell_angle_alpha   90.00620933
_cell_angle_beta   90.00351642
_cell_angle_gamma   90.00257746
_symmetry_Int_Tables_number   1
_chemical_formula_structural   Fe45Co19
_chemical_formula_sum   'Fe90 Co38'
_cell_volume   1487.44921620
_cell_formula_units_Z   2
loop_
 _symmetry_equiv_pos_site_id
 _symmetry_equiv_pos_as_xyz
  1  'x, y, z'
loop_
 _atom_site_type_symbol
 _atom_site_label
 _atom_site_symmetry_multiplicity
 _atom_site_fract_x
 _atom_site_fract_y
 _atom_site_fract_z
 _atom_site_occupancy
  Fe  Fe0  1  0.87519756  0.12593835  0.62589318  1
  Fe  Fe1  1  -0.00127799  0.74747864  0.74709691  1
  Fe  Fe2  1  0.00079161  0.74949053  0.49992004  1
  Fe  Fe3  1  0.37315124  0.87591186  0.62282587  1
  Fe  Fe4  1  0.62466916  0.37600592  0.12411598  1
  Fe  Fe5  1  0.12869769  0.37760140  0.37941273  1
  Fe  Fe6  1  0.74861402  0.24930670  0.74713099  1
  Fe  Fe7  1  0.49944115  0.50066845  -0.00129254  1
  Fe  Fe8  1  0.49931574  0.49870056  0.25118092  1
  Fe  Fe9  1  0.62366767  0.62338611  0.87026942  1
  Fe  Fe10  1  0.24817496  0.74836661  0.49714327  1
  Fe  Fe11  1  0.24832913  0.75053430  0.00143213  1
  Fe  Fe12  1  0.87410919  0.12682061  0.37270409  1
  Fe  Fe13  1  0.24960326  0.24732952  0.00000614  1
  Fe  Fe14  1  0.12574801  0.37549262  0.87391229  1
  Fe  Fe15  1  0.87500041  0.62616886  0.12656616  1
  Fe  Fe16  1  0.37310844  0.12300840  0.12903641  1
  Fe  Fe17  1  0.50010032  0.75323081  0.74860552  1
  Fe  Fe18  1  0.50281392  0.24823496  0.74468235  1
  Fe  Fe19  1  0.37653792  0.37084570  0.87506391  1
  Fe  Fe20  1  0.12311743  0.61847939  0.62161651  1
  Fe  Fe21  1  0.87436763  0.37537386  0.87296654  1
  Fe  Fe22  1  0.37564623  0.62750251  0.87450359  1
  Fe  Fe23  1  0.37556366  0.36877501  0.37979585  1
  Fe  Fe24  1  0.50248059  0.75202975  0.50155628  1
  Fe  Fe25  1  0.62443633  0.37455765  0.37609698  1
  Fe  Fe26  1  -0.00068788  0.49820140  0.25322537  1
  Fe  Fe27  1  0.87532113  0.87454039  0.12490927  1
  Fe  Fe28  1  0.37620267  0.62699309  0.12738768  1
  Fe  Fe29  1  0.12383248  0.87427482  0.87606430  1
  Fe  Fe30  1  0.24830707  0.24969009  0.25223076  1
  Fe  Fe31  1  0.74544193  0.25005538  0.50389881  1
  Fe  Fe32  1  0.87497176  0.87381841  0.37516989  1
  Fe  Fe33  1  -0.00306139  -0.00214153  0.74945250  1
  Fe  Fe34  1  0.50164645  0.75016344  0.00136527  1
  Fe  Fe35  1  0.50401188  0.75651939  0.24903303  1
  Fe  Fe36  1  0.12472241  0.87841724  0.62209263  1
  Fe  Fe37  1  0.00198542  0.00025336  0.00339547  1
  Fe  Fe38  1  0.74897659  0.50184242  -0.00071300  1
  Fe  Fe39  1  0.87405272  0.12615685  0.12846819  1
  Fe  Fe40  1  0.49703675  0.00263946  0.49819154  1
  Fe  Fe41  1  0.87375767  0.37434870  0.12472450  1
  Fe  Fe42  1  0.37367393  0.36961498  0.62004022  1
  Fe  Fe43  1  0.37375800  0.87376799  0.87534284  1
  Fe  Fe44  1  0.25156218  -0.00005313  0.75017336  1
  Fe  Fe45  1  0.12436049  0.62562255  0.87496410  1
  Fe  Fe46  1  0.87432113  0.62648413  0.37535826  1
  Fe  Fe47  1  0.12343941  0.12452055  0.87357907  1
  Fe  Fe48  1  -0.00343340  -0.00000981  0.49911947  1
  Fe  Fe49  1  -0.00083346  0.50141998  -0.00099790  1
  Fe  Fe50  1  0.74788954  0.74754425  0.00127762  1
  Fe  Fe51  1  0.37665501  0.62741647  0.62487170  1
  Fe  Fe52  1  0.87635292  0.87130474  0.87666116  1
  Fe  Fe53  1  0.75323186  0.00035316  0.49991227  1
  Fe  Fe54  1  0.75302163  0.74845235  0.74647117  1
  Fe  Fe55  1  0.75239054  0.00091798  -0.00134110  1
  Fe  Fe56  1  0.12529553  0.62510442  0.12698257  1
  Fe  Fe57  1  0.74572355  0.75425894  0.24922893  1
  Fe  Fe58  1  0.25325929  0.50000654  0.74916267  1
  Fe  Fe59  1  0.62623077  0.12140656  0.12700630  1
  Fe  Fe60  1  0.00282556  0.25241286  0.50364650  1
  Fe  Fe61  1  0.37766038  0.62950139  0.37349069  1
  Fe  Fe62  1  0.74968199  0.49942077  0.25157912  1
  Fe  Fe63  1  0.62600915  0.87711190  0.87352031  1
  Fe  Fe64  1  0.50012787  0.50032290  0.50128623  1
  Fe  Fe65  1  0.12571939  0.37478666  0.12435391  1
  Fe  Fe66  1  0.00066849  0.24954605  0.00117504  1
  Fe  Fe67  1  0.24584793  0.24848687  0.74484801  1
  Fe  Fe68  1  0.87128940  0.37277928  0.37786613  1
  Fe  Fe69  1  0.00266264  0.25367145  0.74508635  1
  Fe  Fe70  1  0.62603424  0.12220794  0.37245438  1
  Fe  Fe71  1  0.49723240  0.00107033  -0.00073075  1
  Fe  Fe72  1  0.37072986  0.87703501  0.12786031  1
  Fe  Fe73  1  0.74907177  0.74819828  0.50363096  1
  Fe  Fe74  1  0.25232035  0.50095353  0.25268990  1
  Fe  Fe75  1  0.62434990  0.62667617  0.37456220  1
  Fe  Fe76  1  0.00020932  0.25175168  0.25059123  1
  Fe  Fe77  1  0.25300236  0.00416727  0.49604396  1
  Fe  Fe78  1  0.12172451  0.12348778  0.37416611  1
  Fe  Fe79  1  0.50237306  0.24950519  0.24935454  1
  Fe  Fe80  1  0.37567242  0.37324538  0.12362759  1
  Fe  Fe81  1  0.62322195  0.37618650  0.87164122  1
  Fe  Fe82  1  0.74797204  0.24964190  -0.00038852  1
  Fe  Fe83  1  0.37595923  0.12669816  0.87241134  1
  Fe  Fe84  1  0.62649959  0.88000841  0.62577276  1
  Fe  Fe85  1  0.25162956  0.50028635  -0.00022138  1
  Fe  Fe86  1  0.00533881  0.75344931  0.25114955  1
  Fe  Fe87  1  0.62431798  0.12207712  0.87177165  1
  Fe  Fe88  1  0.87658010  0.12688344  0.87386305  1
  Fe  Fe89  1  0.24791039  0.75021733  0.74737591  1
  Co  Co90  1  0.37763300  0.13035353  0.37351254  1
  Co  Co91  1  0.87577945  0.87508375  0.62348442  1
  Co  Co92  1  -0.00356982  0.49665643  0.49560009  1
  Co  Co93  1  0.62695999  0.11692379  0.62705825  1
  Co  Co94  1  0.62523647  0.37997050  0.62688147  1
  Co  Co95  1  0.50133258  0.24680204  0.00174890  1
  Co  Co96  1  0.74813876  0.25156122  0.24958666  1
  Co  Co97  1  0.75383553  0.50279019  0.74896459  1
  Co  Co98  1  0.12467204  0.87803289  0.37925852  1
  Co  Co99  1  0.37456854  0.87227933  0.37501888  1
  Co  Co100  1  0.12698043  0.12511171  0.12714167  1
  Co  Co101  1  -0.00141228  0.50037318  0.75245049  1
  Co  Co102  1  0.75579608  -0.00161866  0.75144585  1
  Co  Co103  1  0.75143632  -0.00402473  0.25125827  1
  Co  Co104  1  0.25010698  0.00217049  -0.00355408  1
  Co  Co105  1  0.49281938  0.49849272  0.74827054  1
  Co  Co106  1  0.87332658  0.37655070  0.62401526  1
  Co  Co107  1  0.12761615  0.38195475  0.62182633  1
  Co  Co108  1  0.24457934  0.24380436  0.50146840  1
  Co  Co109  1  0.24899931  0.00021317  0.25674216  1
  Co  Co110  1  0.62614023  0.87693227  0.38057587  1
  Co  Co111  1  0.87493818  0.62691948  0.87696426  1
  Co  Co112  1  0.12970635  0.87776369  0.12520167  1
  Co  Co113  1  0.62250193  0.62271064  0.62798182  1
  Co  Co114  1  0.50048650  -0.00320226  0.25275488  1
  Co  Co115  1  0.62384264  0.62346904  0.12729452  1
  Co  Co116  1  -0.00098289  -0.00161673  0.24913409  1
  Co  Co117  1  0.37493173  0.12685101  0.62434009  1
  Co  Co118  1  0.00209309  0.74991255  0.00271460  1
  Co  Co119  1  0.49549367  -0.00167563  0.74981308  1
  Co  Co120  1  0.50739209  0.24618293  0.50261298  1
  Co  Co121  1  0.87756572  0.61981604  0.62095520  1
  Co  Co122  1  0.12249389  0.11839928  0.62541189  1
  Co  Co123  1  0.12359897  0.62191789  0.37668204  1
  Co  Co124  1  0.25691268  0.50423994  0.49816785  1
  Co  Co125  1  0.24625607  0.74983063  0.25410198  1
  Co  Co126  1  0.74706032  0.50188420  0.49865431  1
  Co  Co127  1  0.62526955  0.87925182  0.12103088  1
