# generated using pymatgen
data_Fe45Co19
_symmetry_space_group_name_H-M   'P 1'
_cell_length_a   11.41480386
_cell_length_b   11.41630341
_cell_length_c   11.41569283
_cell_angle_alpha   89.98925992
_cell_angle_beta   90.00911929
_cell_angle_gamma   90.00402840
_symmetry_Int_Tables_number   1
_chemical_formula_structural   Fe45Co19
_chemical_formula_sum   'Fe90 Co38'
_cell_volume   1487.63441297
_cell_formula_units_Z   2
loop_
 _symmetry_equiv_pos_site_id
 _symmetry_equiv_pos_as_xyz
  1  'x, y, z'
loop_
 _atom_site_type_symbol
 _atom_site_label
 _atom_site_symmetry_multiplicity
 _atom_site_fract_x
 _atom_site_fract_y
 _atom_site_fract_z
 _atom_site_occupancy
  Fe  Fe0  1  0.00150133  0.49931757  0.25354804  1
  Fe  Fe1  1  0.49917137  0.50305151  -0.00182907  1
  Fe  Fe2  1  0.24861901  0.00336977  0.24759842  1
  Fe  Fe3  1  0.12519706  0.87488655  0.87497086  1
  Fe  Fe4  1  0.87393378  0.12109303  0.12477564  1
  Fe  Fe5  1  -0.00022319  0.49934855  -0.00286033  1
  Fe  Fe6  1  0.37366988  0.12489136  0.37579481  1
  Fe  Fe7  1  0.12926770  0.87383052  0.37650429  1
  Fe  Fe8  1  0.25041862  0.50029831  0.00017155  1
  Fe  Fe9  1  0.87658442  0.62482938  0.12652523  1
  Fe  Fe10  1  0.37551973  0.12627203  0.87673509  1
  Fe  Fe11  1  0.74944663  0.24928249  0.24756117  1
  Fe  Fe12  1  0.25006216  0.24705824  0.00370693  1
  Fe  Fe13  1  0.24826891  0.49789664  0.49831803  1
  Fe  Fe14  1  0.62480516  0.63205731  0.87546526  1
  Fe  Fe15  1  0.12613401  0.87551534  0.62428217  1
  Fe  Fe16  1  0.00028251  0.74998109  0.25194329  1
  Fe  Fe17  1  0.37610774  0.12358849  0.62432707  1
  Fe  Fe18  1  0.62657316  0.12117041  0.12169300  1
  Fe  Fe19  1  0.25021391  0.49954693  0.75134694  1
  Fe  Fe20  1  0.50531218  0.49821309  0.49434733  1
  Fe  Fe21  1  0.37505418  0.37415058  0.87555350  1
  Fe  Fe22  1  0.12259137  0.62385535  0.62551173  1
  Fe  Fe23  1  0.37793445  0.86996829  0.87508613  1
  Fe  Fe24  1  -0.00391328  0.25016710  -0.00131125  1
  Fe  Fe25  1  0.50237958  0.25172659  0.50207353  1
  Fe  Fe26  1  0.12330810  0.87518500  0.12490992  1
  Fe  Fe27  1  0.87184782  0.37723616  0.37613700  1
  Fe  Fe28  1  0.12544965  0.62661928  0.12500608  1
  Fe  Fe29  1  0.49706306  0.75056937  0.25113741  1
  Fe  Fe30  1  0.37582791  0.62217153  0.62312516  1
  Fe  Fe31  1  0.75048613  0.50230081  -0.00088984  1
  Fe  Fe32  1  0.62546030  0.87286153  0.37556305  1
  Fe  Fe33  1  0.62633039  0.12509293  0.37698518  1
  Fe  Fe34  1  0.13037877  0.62628587  0.37385105  1
  Fe  Fe35  1  0.37204765  0.62563609  0.12525014  1
  Fe  Fe36  1  0.12198153  0.12495989  0.87430446  1
  Fe  Fe37  1  0.37849892  0.37716119  0.62610423  1
  Fe  Fe38  1  0.00102409  0.00119387  0.25290871  1
  Fe  Fe39  1  -0.00082941  0.75086882  -0.00039179  1
  Fe  Fe40  1  0.50105329  0.50258706  0.25340876  1
  Fe  Fe41  1  0.25140564  0.00087495  -0.00003570  1
  Fe  Fe42  1  0.62528933  0.37733239  0.12524387  1
  Fe  Fe43  1  0.12278819  0.37577796  0.62403635  1
  Fe  Fe44  1  0.87500254  0.87601769  0.37477042  1
  Fe  Fe45  1  0.74917085  -0.00163658  0.50114696  1
  Fe  Fe46  1  0.62651740  0.62570677  0.12683445  1
  Fe  Fe47  1  0.49949634  0.50335513  0.75410377  1
  Fe  Fe48  1  0.87800498  0.87428107  0.62582224  1
  Fe  Fe49  1  0.62668587  0.37517903  0.87452696  1
  Fe  Fe50  1  0.87083840  0.62310713  0.37677768  1
  Fe  Fe51  1  0.37460985  0.87589076  0.12444665  1
  Fe  Fe52  1  0.62827109  0.12365479  0.87753451  1
  Fe  Fe53  1  0.00222100  0.00072258  0.50039601  1
  Fe  Fe54  1  0.12596479  0.62601800  0.87508050  1
  Fe  Fe55  1  0.50033236  0.24795998  0.24875276  1
  Fe  Fe56  1  0.87696101  0.62722328  0.87106540  1
  Fe  Fe57  1  0.50132083  -0.00101671  0.75279588  1
  Fe  Fe58  1  0.87639072  0.12295366  0.62625459  1
  Fe  Fe59  1  0.12609702  0.37351496  0.87631482  1
  Fe  Fe60  1  0.75161180  0.75223403  0.24825694  1
  Fe  Fe61  1  0.50143625  0.24836866  0.74987215  1
  Fe  Fe62  1  0.62343020  0.62595765  0.62256172  1
  Fe  Fe63  1  0.87359669  0.37748555  0.12435370  1
  Fe  Fe64  1  0.25159618  0.74853082  0.74782252  1
  Fe  Fe65  1  0.00047047  0.25123256  0.49946641  1
  Fe  Fe66  1  0.49877469  -0.00178930  0.49938249  1
  Fe  Fe67  1  0.25009085  0.24978680  0.74704220  1
  Fe  Fe68  1  0.62220746  0.87438256  0.62646540  1
  Fe  Fe69  1  0.12443237  0.37385278  0.12669241  1
  Fe  Fe70  1  0.00029869  0.74799289  0.49986072  1
  Fe  Fe71  1  0.87322669  0.87062373  0.87136914  1
  Fe  Fe72  1  0.87164011  0.12409087  0.37647242  1
  Fe  Fe73  1  0.50188344  0.24976397  0.00019587  1
  Fe  Fe74  1  0.87600878  0.38185626  0.62370242  1
  Fe  Fe75  1  -0.00044791  0.24933511  0.25081609  1
  Fe  Fe76  1  0.37189933  0.37316727  0.37291065  1
  Fe  Fe77  1  0.75187652  0.74983879  0.50329238  1
  Fe  Fe78  1  0.74966803  0.25024610  0.74801080  1
  Fe  Fe79  1  -0.00177569  0.25202359  0.75057869  1
  Fe  Fe80  1  0.62705816  0.87553067  0.12014153  1
  Fe  Fe81  1  0.12815989  0.12861835  0.37743906  1
  Fe  Fe82  1  0.37561211  0.37478224  0.12570237  1
  Fe  Fe83  1  0.50188587  -0.00081697  0.25019319  1
  Fe  Fe84  1  0.24936896  0.00129806  0.74958239  1
  Fe  Fe85  1  -0.00458538  -0.00124463  -0.00315210  1
  Fe  Fe86  1  0.74639034  0.25270560  0.50407634  1
  Fe  Fe87  1  0.49394669  0.75198263  0.49854361  1
  Fe  Fe88  1  0.74914499  -0.00271865  0.75130145  1
  Fe  Fe89  1  0.74980882  0.50369955  0.74858170  1
  Co  Co90  1  0.24902556  0.00158690  0.50244919  1
  Co  Co91  1  0.25159863  0.75162937  0.24891542  1
  Co  Co92  1  0.62677757  0.37162454  0.37135453  1
  Co  Co93  1  0.00142272  0.49800825  0.75388835  1
  Co  Co94  1  0.00314824  0.50155557  0.49462272  1
  Co  Co95  1  0.74937326  0.74952185  0.74551975  1
  Co  Co96  1  0.62728556  0.63116656  0.37493614  1
  Co  Co97  1  0.49767738  0.74841153  0.74649925  1
  Co  Co98  1  0.62312443  0.86982013  0.87635946  1
  Co  Co99  1  0.87113178  0.37563555  0.87481134  1
  Co  Co100  1  0.62430318  0.12184134  0.62512545  1
  Co  Co101  1  0.74857188  0.50041313  0.25084960  1
  Co  Co102  1  0.37296932  0.62821405  0.87638646  1
  Co  Co103  1  0.37860814  0.12319282  0.12388795  1
  Co  Co104  1  0.25140664  0.25111346  0.50441251  1
  Co  Co105  1  0.12236702  0.12568802  0.62633335  1
  Co  Co106  1  0.87746278  0.87654120  0.12853482  1
  Co  Co107  1  0.75396525  -0.00418886  -0.00312683  1
  Co  Co108  1  0.75364424  0.74962992  0.00213007  1
  Co  Co109  1  0.37274627  0.62403946  0.37571366  1
  Co  Co110  1  0.11952175  0.12324521  0.12176073  1
  Co  Co111  1  0.74815166  -0.00108953  0.25130867  1
  Co  Co112  1  0.24938915  0.75176067  0.00078581  1
  Co  Co113  1  0.25297503  0.75000796  0.50266819  1
  Co  Co114  1  0.00282734  0.75075975  0.74865303  1
  Co  Co115  1  0.74976963  0.25067525  0.00209762  1
  Co  Co116  1  0.24990323  0.24625966  0.24517870  1
  Co  Co117  1  -0.00024552  -0.00172178  0.75034730  1
  Co  Co118  1  0.24923959  0.49942046  0.24859530  1
  Co  Co119  1  0.49909652  0.74773920  0.00353142  1
  Co  Co120  1  0.37096571  0.87825580  0.37374311  1
  Co  Co121  1  0.74452350  0.49892089  0.50009197  1
  Co  Co122  1  0.62227923  0.37785662  0.63036806  1
  Co  Co123  1  0.12836753  0.37123550  0.37292729  1
  Co  Co124  1  0.87852414  0.62180337  0.62468555  1
  Co  Co125  1  0.87396652  0.12674018  0.87249040  1
  Co  Co126  1  0.37426033  0.87807222  0.62714460  1
  Co  Co127  1  0.49895061  -0.00121645  -0.00263254  1
