# generated using pymatgen
data_Fe45Co19
_symmetry_space_group_name_H-M   'P 1'
_cell_length_a   11.41484673
_cell_length_b   11.41485017
_cell_length_c   11.41598151
_cell_angle_alpha   90.00504854
_cell_angle_beta   90.00659571
_cell_angle_gamma   89.99722026
_symmetry_Int_Tables_number   1
_chemical_formula_structural   Fe45Co19
_chemical_formula_sum   'Fe90 Co38'
_cell_volume   1487.48827571
_cell_formula_units_Z   2
loop_
 _symmetry_equiv_pos_site_id
 _symmetry_equiv_pos_as_xyz
  1  'x, y, z'
loop_
 _atom_site_type_symbol
 _atom_site_label
 _atom_site_symmetry_multiplicity
 _atom_site_fract_x
 _atom_site_fract_y
 _atom_site_fract_z
 _atom_site_occupancy
  Fe  Fe0  1  0.25004228  0.24961169  0.49880432  1
  Fe  Fe1  1  0.25398064  0.24750528  0.00301852  1
  Fe  Fe2  1  0.87566154  0.62539454  0.87251613  1
  Fe  Fe3  1  -0.00082961  0.74949737  0.49932087  1
  Fe  Fe4  1  0.24987010  0.74898285  0.25163891  1
  Fe  Fe5  1  0.49900429  0.49764826  0.74726179  1
  Fe  Fe6  1  0.25348025  0.74917098  0.49948697  1
  Fe  Fe7  1  0.25094576  0.00002279  0.25014475  1
  Fe  Fe8  1  0.87634364  0.37368199  0.62428943  1
  Fe  Fe9  1  0.12702023  0.87385962  0.12463776  1
  Fe  Fe10  1  0.62498029  0.87313490  0.12214468  1
  Fe  Fe11  1  0.61909211  0.62601419  0.37916954  1
  Fe  Fe12  1  0.75111916  0.00168752  0.00200815  1
  Fe  Fe13  1  0.25521647  0.50028156  0.49939520  1
  Fe  Fe14  1  0.62429090  0.37496509  0.62197114  1
  Fe  Fe15  1  0.49957426  0.25062692  0.50124720  1
  Fe  Fe16  1  -0.00028675  0.25303075  0.25072512  1
  Fe  Fe17  1  0.74871021  0.74714761  -0.00146430  1
  Fe  Fe18  1  0.12446372  0.37370668  0.62194723  1
  Fe  Fe19  1  0.25211039  0.74626206  -0.00269807  1
  Fe  Fe20  1  0.75071669  0.24781312  0.49994217  1
  Fe  Fe21  1  0.50010659  0.49902702  0.00094362  1
  Fe  Fe22  1  0.12576086  0.37465647  0.87613459  1
  Fe  Fe23  1  0.12415141  0.12371874  0.37526909  1
  Fe  Fe24  1  0.00161858  0.75281355  0.74817072  1
  Fe  Fe25  1  0.62346764  0.62532818  0.12517928  1
  Fe  Fe26  1  0.12332502  0.62303987  0.37489616  1
  Fe  Fe27  1  0.00153589  0.49852393  0.74877958  1
  Fe  Fe28  1  0.87237131  0.87547200  0.87502521  1
  Fe  Fe29  1  0.37800641  0.62612404  0.12785376  1
  Fe  Fe30  1  0.00024758  -0.00091621  0.00140502  1
  Fe  Fe31  1  0.87119582  0.87579927  0.62152895  1
  Fe  Fe32  1  0.25116197  0.50187524  0.75087820  1
  Fe  Fe33  1  0.00034854  0.74976558  -0.00021442  1
  Fe  Fe34  1  0.87761072  0.62351446  0.37298538  1
  Fe  Fe35  1  0.74646235  0.49794611  0.25141095  1
  Fe  Fe36  1  0.12276787  0.62618964  0.12692651  1
  Fe  Fe37  1  0.50248433  -0.00342777  0.25167299  1
  Fe  Fe38  1  0.62561033  0.12237752  0.87372720  1
  Fe  Fe39  1  0.12533998  0.12379178  0.87650578  1
  Fe  Fe40  1  0.37505725  0.37427748  0.87542351  1
  Fe  Fe41  1  0.87413616  0.37473905  0.87365225  1
  Fe  Fe42  1  0.87149812  0.37640706  0.12359665  1
  Fe  Fe43  1  0.00203992  -0.00187849  0.74830584  1
  Fe  Fe44  1  0.12492354  0.12373532  0.12574869  1
  Fe  Fe45  1  0.74788849  0.49991508  0.74984017  1
  Fe  Fe46  1  0.25060674  0.25115312  0.24890655  1
  Fe  Fe47  1  0.12831628  0.87451219  0.87381847  1
  Fe  Fe48  1  0.37593398  0.12293323  0.62536767  1
  Fe  Fe49  1  0.74526996  0.75318419  0.74911908  1
  Fe  Fe50  1  0.62565068  0.12779196  0.37212407  1
  Fe  Fe51  1  0.49999505  0.24959090  0.75109155  1
  Fe  Fe52  1  0.74961487  0.24829007  0.00069774  1
  Fe  Fe53  1  0.25132159  0.49911479  0.25232584  1
  Fe  Fe54  1  0.87746454  0.12497805  0.62586379  1
  Fe  Fe55  1  0.12302656  0.12266341  0.62119105  1
  Fe  Fe56  1  0.74696328  0.74966530  0.25216925  1
  Fe  Fe57  1  0.12708325  0.37562459  0.12449272  1
  Fe  Fe58  1  0.87341027  0.87382536  0.12663616  1
  Fe  Fe59  1  0.62560211  0.37440990  0.87717245  1
  Fe  Fe60  1  0.12771767  0.62781186  0.62638504  1
  Fe  Fe61  1  0.62060630  0.62629346  0.62224815  1
  Fe  Fe62  1  0.37311534  0.87715656  0.87576407  1
  Fe  Fe63  1  0.12520499  0.87609865  0.37802936  1
  Fe  Fe64  1  0.62341125  0.11997088  0.62662640  1
  Fe  Fe65  1  0.87179881  0.87616584  0.37577346  1
  Fe  Fe66  1  0.25083247  0.50427121  -0.00180556  1
  Fe  Fe67  1  0.37500209  0.87441915  0.12524885  1
  Fe  Fe68  1  0.37416080  0.12304766  0.87443171  1
  Fe  Fe69  1  0.37572549  0.87405297  0.37459266  1
  Fe  Fe70  1  0.62537225  0.12716693  0.12772492  1
  Fe  Fe71  1  0.50018639  0.75580472  0.74889441  1
  Fe  Fe72  1  0.87424178  0.62569873  0.62706396  1
  Fe  Fe73  1  0.49924448  0.25577389  0.24624137  1
  Fe  Fe74  1  -0.00071299  0.50140888  0.00032615  1
  Fe  Fe75  1  0.37278233  0.87899510  0.62458598  1
  Fe  Fe76  1  0.87520920  0.62611027  0.12791019  1
  Fe  Fe77  1  0.87591912  0.12450747  0.87326244  1
  Fe  Fe78  1  0.87692516  0.37742909  0.37785684  1
  Fe  Fe79  1  0.24829270  0.24801481  0.74896276  1
  Fe  Fe80  1  0.74937844  0.24922394  0.74883727  1
  Fe  Fe81  1  0.74926374  0.50213093  0.50032932  1
  Fe  Fe82  1  0.49999129  0.49591488  0.25259464  1
  Fe  Fe83  1  0.00014320  -0.00275828  0.24939240  1
  Fe  Fe84  1  0.37658602  0.12630473  0.37287079  1
  Fe  Fe85  1  0.62206169  0.62623347  0.87446147  1
  Fe  Fe86  1  0.87349702  0.12295003  0.37095014  1
  Fe  Fe87  1  0.49915171  0.00121564  0.00034912  1
  Fe  Fe88  1  -0.00100223  0.24953035  0.00124591  1
  Fe  Fe89  1  0.62616047  0.87349180  0.38201956  1
  Co  Co90  1  0.74604223  -0.00336117  0.24972493  1
  Co  Co91  1  0.38023574  0.62400683  0.87232112  1
  Co  Co92  1  0.12807701  0.87370914  0.62260354  1
  Co  Co93  1  0.87464654  0.12417279  0.12851024  1
  Co  Co94  1  0.00252981  0.25021811  0.75008642  1
  Co  Co95  1  0.25066119  0.00097497  0.00240375  1
  Co  Co96  1  0.62658740  0.87735053  0.87766275  1
  Co  Co97  1  0.62703557  0.37454245  0.12190140  1
  Co  Co98  1  0.00108525  0.49667779  0.24748945  1
  Co  Co99  1  0.12186295  0.62642630  0.87261414  1
  Co  Co100  1  0.49846940  0.75057033  -0.00109219  1
  Co  Co101  1  0.37373330  0.37747125  0.12345837  1
  Co  Co102  1  0.75182469  0.25494864  0.25084855  1
  Co  Co103  1  0.62627991  0.87778546  0.61988488  1
  Co  Co104  1  0.74947953  0.00545711  0.49958375  1
  Co  Co105  1  0.37409766  0.37197929  0.62647120  1
  Co  Co106  1  0.37656407  0.62524471  0.62669920  1
  Co  Co107  1  0.75002292  0.50357649  -0.00140858  1
  Co  Co108  1  0.25321669  0.74922004  0.75212531  1
  Co  Co109  1  0.49996602  -0.00252535  0.75141387  1
  Co  Co110  1  0.37848460  0.62680613  0.37338686  1
  Co  Co111  1  0.75143437  0.74589133  0.49973873  1
  Co  Co112  1  0.49917303  0.00149978  0.49648627  1
  Co  Co113  1  0.24755729  0.00225695  0.74798196  1
  Co  Co114  1  0.25258024  0.00166318  0.49778231  1
  Co  Co115  1  0.00051192  0.50300356  0.50368713  1
  Co  Co116  1  0.49887499  0.24825233  0.00016277  1
  Co  Co117  1  0.37503656  0.37165584  0.37603407  1
  Co  Co118  1  -0.00172100  -0.00108604  0.49944940  1
  Co  Co119  1  0.62454416  0.37344669  0.37948566  1
  Co  Co120  1  0.12535271  0.37702521  0.37711818  1
  Co  Co121  1  0.75064545  -0.00121815  0.74842284  1
  Co  Co122  1  0.49502015  0.49778564  0.50008092  1
  Co  Co123  1  -0.00087628  0.24864588  0.49649820  1
  Co  Co124  1  0.49514061  0.75288952  0.50341891  1
  Co  Co125  1  0.50220786  0.75297510  0.25063693  1
  Co  Co126  1  0.00073422  0.75261574  0.25232307  1
  Co  Co127  1  0.37773195  0.12241227  0.12870040  1
