# generated using pymatgen
data_Fe45Co19
_symmetry_space_group_name_H-M   'P 1'
_cell_length_a   11.41495956
_cell_length_b   11.41459238
_cell_length_c   11.41531350
_cell_angle_alpha   90.00092375
_cell_angle_beta   89.99503047
_cell_angle_gamma   89.99773464
_symmetry_Int_Tables_number   1
_chemical_formula_structural   Fe45Co19
_chemical_formula_sum   'Fe90 Co38'
_cell_volume   1487.38235731
_cell_formula_units_Z   2
loop_
 _symmetry_equiv_pos_site_id
 _symmetry_equiv_pos_as_xyz
  1  'x, y, z'
loop_
 _atom_site_type_symbol
 _atom_site_label
 _atom_site_symmetry_multiplicity
 _atom_site_fract_x
 _atom_site_fract_y
 _atom_site_fract_z
 _atom_site_occupancy
  Fe  Fe0  1  0.74966605  -0.00121556  -0.00190711  1
  Fe  Fe1  1  0.37325036  0.37442913  0.87314996  1
  Fe  Fe2  1  0.49762884  0.74703821  0.74948784  1
  Fe  Fe3  1  0.00239104  0.49907466  0.74803778  1
  Fe  Fe4  1  0.49762560  0.24691496  -0.00000637  1
  Fe  Fe5  1  0.24748409  0.25044412  0.49924910  1
  Fe  Fe6  1  0.87765866  0.12783225  0.87606635  1
  Fe  Fe7  1  0.12827752  0.11984385  0.12781953  1
  Fe  Fe8  1  0.75056314  0.50109368  -0.00204635  1
  Fe  Fe9  1  0.37776407  0.12673054  0.37332531  1
  Fe  Fe10  1  0.62305149  0.37667653  0.12498130  1
  Fe  Fe11  1  0.87497457  0.12705620  0.62449787  1
  Fe  Fe12  1  0.62279023  0.37434453  0.87499614  1
  Fe  Fe13  1  0.12466273  0.62744277  0.87522053  1
  Fe  Fe14  1  0.24682833  0.24929672  0.74718114  1
  Fe  Fe15  1  0.00270006  0.50069688  0.00124765  1
  Fe  Fe16  1  0.24882785  0.24859101  0.00127368  1
  Fe  Fe17  1  0.24902267  -0.00047820  0.75306942  1
  Fe  Fe18  1  0.87642807  0.62674907  0.37471642  1
  Fe  Fe19  1  0.00210659  0.75220811  0.24809343  1
  Fe  Fe20  1  0.24888256  0.49826635  0.49459987  1
  Fe  Fe21  1  0.74883233  0.25109679  0.74814995  1
  Fe  Fe22  1  0.87591958  0.37550416  0.12518674  1
  Fe  Fe23  1  -0.00123231  -0.00104492  0.74864861  1
  Fe  Fe24  1  0.12843572  0.62398795  0.62289275  1
  Fe  Fe25  1  0.87472416  0.62429302  0.62467487  1
  Fe  Fe26  1  -0.00137990  0.00174901  0.50074979  1
  Fe  Fe27  1  0.37535018  0.87620084  0.62459247  1
  Fe  Fe28  1  0.13053011  0.62393948  0.12722021  1
  Fe  Fe29  1  0.00162253  -0.00059036  0.00102672  1
  Fe  Fe30  1  0.00176965  0.49736407  0.49862949  1
  Fe  Fe31  1  0.12437573  0.37300469  0.87488018  1
  Fe  Fe32  1  0.87595859  0.87473443  0.12410078  1
  Fe  Fe33  1  0.25336060  -0.00291158  0.49486822  1
  Fe  Fe34  1  0.75153978  0.74916439  -0.00068219  1
  Fe  Fe35  1  0.49786345  0.50266083  -0.00057372  1
  Fe  Fe36  1  0.49907133  0.50107717  0.49969496  1
  Fe  Fe37  1  0.74939926  0.49880749  0.49923432  1
  Fe  Fe38  1  0.87424033  0.62474391  0.12699070  1
  Fe  Fe39  1  0.74954264  -0.00142785  0.25099374  1
  Fe  Fe40  1  0.74900529  0.49869033  0.75112967  1
  Fe  Fe41  1  0.50012434  0.00381788  0.75236539  1
  Fe  Fe42  1  0.37353514  0.87903650  0.12550077  1
  Fe  Fe43  1  0.37281438  0.62957671  0.37618490  1
  Fe  Fe44  1  0.74779580  0.25104038  0.24945553  1
  Fe  Fe45  1  0.74905950  0.75040583  0.50012173  1
  Fe  Fe46  1  0.62458194  0.62737211  0.37211692  1
  Fe  Fe47  1  0.62448049  0.62367096  0.62760368  1
  Fe  Fe48  1  0.12400390  0.12379758  0.37408528  1
  Fe  Fe49  1  0.74848876  0.25214382  0.50203473  1
  Fe  Fe50  1  0.37276470  0.12014312  0.12482374  1
  Fe  Fe51  1  0.62409277  0.12402273  0.12365938  1
  Fe  Fe52  1  0.50082084  0.24801471  0.74817148  1
  Fe  Fe53  1  0.75229067  -0.00087159  0.75109456  1
  Fe  Fe54  1  0.62411160  0.87470002  0.87525831  1
  Fe  Fe55  1  0.00126927  0.24836253  0.24819072  1
  Fe  Fe56  1  0.12886200  0.37668564  0.12915199  1
  Fe  Fe57  1  0.49557426  0.50259273  0.25029001  1
  Fe  Fe58  1  0.87446273  0.12484087  0.12462286  1
  Fe  Fe59  1  0.62263866  0.12561624  0.37558737  1
  Fe  Fe60  1  0.12612135  0.87717739  0.62298515  1
  Fe  Fe61  1  0.50020439  0.24974672  0.50367876  1
  Fe  Fe62  1  0.37221906  0.37644366  0.12733017  1
  Fe  Fe63  1  0.00209799  0.50060449  0.25205240  1
  Fe  Fe64  1  0.25042167  0.74875714  0.74728339  1
  Fe  Fe65  1  0.49905500  0.74942761  0.50306962  1
  Fe  Fe66  1  0.37300924  0.62322440  0.87513638  1
  Fe  Fe67  1  0.87989613  0.37216282  0.87468053  1
  Fe  Fe68  1  0.74997132  0.49922055  0.25193534  1
  Fe  Fe69  1  0.00174041  0.75032468  0.50255826  1
  Fe  Fe70  1  0.62329011  0.87772301  0.62547246  1
  Fe  Fe71  1  0.75051360  0.25136378  0.00041580  1
  Fe  Fe72  1  0.62273273  0.87410209  0.12623916  1
  Fe  Fe73  1  0.74881529  -0.00088098  0.49981476  1
  Fe  Fe74  1  0.75269019  0.75262944  0.74974812  1
  Fe  Fe75  1  0.87746403  0.37224961  0.37581569  1
  Fe  Fe76  1  0.62596088  0.62607981  0.12632745  1
  Fe  Fe77  1  0.24914692  0.75485971  0.25388040  1
  Fe  Fe78  1  0.37550912  0.87682146  0.87579615  1
  Fe  Fe79  1  0.87560184  0.12666106  0.37433574  1
  Fe  Fe80  1  0.37352361  0.37895083  0.62593956  1
  Fe  Fe81  1  0.24946505  0.75171273  0.00007448  1
  Fe  Fe82  1  0.12137802  0.87182845  0.87564417  1
  Fe  Fe83  1  0.62095620  0.37399528  0.37395798  1
  Fe  Fe84  1  0.87834160  0.62819647  0.87400731  1
  Fe  Fe85  1  0.87691310  0.87427881  0.37591302  1
  Fe  Fe86  1  0.49799858  0.74849280  0.00136551  1
  Fe  Fe87  1  0.12378422  0.12628271  0.87470064  1
  Fe  Fe88  1  0.62076716  0.87392694  0.37336308  1
  Fe  Fe89  1  0.37280527  0.12292749  0.62556538  1
  Co  Co90  1  0.25025046  0.75371717  0.50035205  1
  Co  Co91  1  0.24831648  -0.00029530  -0.00481825  1
  Co  Co92  1  0.62504275  0.62732106  0.87498892  1
  Co  Co93  1  0.12760785  0.11952317  0.62285876  1
  Co  Co94  1  0.50015879  0.00131649  0.25050131  1
  Co  Co95  1  0.00354156  0.24975581  0.00504646  1
  Co  Co96  1  0.25097356  0.24726184  0.25020914  1
  Co  Co97  1  0.12700980  0.37727749  0.62292340  1
  Co  Co98  1  0.37245318  0.62169127  0.62355524  1
  Co  Co99  1  0.24925800  0.49828193  -0.00284540  1
  Co  Co100  1  0.37252524  0.12646298  0.87421147  1
  Co  Co101  1  0.75198931  0.75176099  0.25109841  1
  Co  Co102  1  0.62596482  0.12285294  0.62481025  1
  Co  Co103  1  0.62697174  0.12617479  0.87541404  1
  Co  Co104  1  0.24766965  0.50121403  0.75178103  1
  Co  Co105  1  -0.00178836  -0.00097826  0.24899944  1
  Co  Co106  1  0.49941010  0.24846166  0.24633879  1
  Co  Co107  1  0.12466378  0.37158083  0.37162420  1
  Co  Co108  1  0.38065870  0.87224111  0.37488175  1
  Co  Co109  1  0.37665917  0.37135591  0.37473851  1
  Co  Co110  1  0.49645864  0.74793790  0.24687237  1
  Co  Co111  1  0.87579554  0.37506582  0.62435193  1
  Co  Co112  1  0.00102638  0.75056257  0.74426995  1
  Co  Co113  1  0.49954364  0.50195989  0.75232065  1
  Co  Co114  1  0.50001944  0.00127181  -0.00216385  1
  Co  Co115  1  0.12839704  0.87787176  0.12490637  1
  Co  Co116  1  0.00171656  0.74790037  0.00561368  1
  Co  Co117  1  0.36844196  0.62448433  0.12504005  1
  Co  Co118  1  0.62320388  0.37763748  0.62543681  1
  Co  Co119  1  0.12068695  0.87649401  0.37719469  1
  Co  Co120  1  0.87536931  0.87564483  0.62208451  1
  Co  Co121  1  0.12510894  0.62785535  0.37519625  1
  Co  Co122  1  0.87911665  0.87281558  0.87753467  1
  Co  Co123  1  0.00384983  0.24923149  0.74400662  1
  Co  Co124  1  0.49848254  0.00098954  0.49986263  1
  Co  Co125  1  0.25178229  -0.00309275  0.25631586  1
  Co  Co126  1  0.00353555  0.24968092  0.50262949  1
  Co  Co127  1  0.25244887  0.50037171  0.25698982  1
