# generated using pymatgen
data_Fe45Co19
_symmetry_space_group_name_H-M   'P 1'
_cell_length_a   11.41649957
_cell_length_b   11.41593852
_cell_length_c   11.41550391
_cell_angle_alpha   90.00303553
_cell_angle_beta   89.99643208
_cell_angle_gamma   90.00805757
_symmetry_Int_Tables_number   1
_chemical_formula_structural   Fe45Co19
_chemical_formula_sum   'Fe90 Co38'
_cell_volume   1487.78325889
_cell_formula_units_Z   2
loop_
 _symmetry_equiv_pos_site_id
 _symmetry_equiv_pos_as_xyz
  1  'x, y, z'
loop_
 _atom_site_type_symbol
 _atom_site_label
 _atom_site_symmetry_multiplicity
 _atom_site_fract_x
 _atom_site_fract_y
 _atom_site_fract_z
 _atom_site_occupancy
  Fe  Fe0  1  0.75081708  0.49954287  0.00087912  1
  Fe  Fe1  1  0.62294365  0.62434834  0.12688735  1
  Fe  Fe2  1  0.75037630  0.75043591  0.00015626  1
  Fe  Fe3  1  0.50093402  0.49813756  0.74936052  1
  Fe  Fe4  1  0.24872058  0.49857657  0.74759990  1
  Fe  Fe5  1  0.25152665  0.49986274  0.25270036  1
  Fe  Fe6  1  0.12246556  0.62799863  0.12309553  1
  Fe  Fe7  1  0.87758743  0.37460609  0.62250535  1
  Fe  Fe8  1  0.37608353  0.87513143  0.12572435  1
  Fe  Fe9  1  0.50200066  0.25077030  0.49759406  1
  Fe  Fe10  1  0.12421718  0.37516523  0.12602192  1
  Fe  Fe11  1  0.62718348  0.87514278  0.87366995  1
  Fe  Fe12  1  0.12511572  0.62352792  0.62423467  1
  Fe  Fe13  1  0.49960883  0.75007381  0.75098929  1
  Fe  Fe14  1  0.12611450  0.87740571  0.62684488  1
  Fe  Fe15  1  0.74903384  0.24988069  0.75000366  1
  Fe  Fe16  1  0.74720063  0.74846856  0.50089761  1
  Fe  Fe17  1  0.49830894  0.24926940  0.75166186  1
  Fe  Fe18  1  0.37582486  0.62708011  0.37629017  1
  Fe  Fe19  1  0.00220201  0.75127478  0.49698061  1
  Fe  Fe20  1  0.87701287  0.62563365  0.62359177  1
  Fe  Fe21  1  0.87431112  0.62430612  0.87446290  1
  Fe  Fe22  1  0.37417511  0.62351179  0.87608473  1
  Fe  Fe23  1  0.49937303  -0.00119144  0.49882302  1
  Fe  Fe24  1  0.87768021  0.12480646  0.62466572  1
  Fe  Fe25  1  -0.00125915  -0.00454462  -0.00497721  1
  Fe  Fe26  1  0.75088524  0.25049022  0.49941949  1
  Fe  Fe27  1  0.62411375  0.12473249  0.12592903  1
  Fe  Fe28  1  0.87760026  0.12606669  0.87458806  1
  Fe  Fe29  1  0.62516468  0.62299287  0.87410197  1
  Fe  Fe30  1  0.24931945  0.75033159  0.24935087  1
  Fe  Fe31  1  0.37405208  0.87319751  0.37446284  1
  Fe  Fe32  1  0.74959195  0.00012125  0.50173469  1
  Fe  Fe33  1  -0.00113850  0.50232070  0.25221056  1
  Fe  Fe34  1  0.12019539  0.12562852  0.12362454  1
  Fe  Fe35  1  0.75041941  0.00080327  0.00111061  1
  Fe  Fe36  1  0.87522000  0.87478983  0.62635494  1
  Fe  Fe37  1  -0.00179218  -0.00533974  0.25174385  1
  Fe  Fe38  1  0.62233568  0.12649299  0.87754086  1
  Fe  Fe39  1  0.12451954  0.12329810  0.37558682  1
  Fe  Fe40  1  0.75030747  0.00259282  0.74904159  1
  Fe  Fe41  1  0.37402413  0.37512304  0.12654898  1
  Fe  Fe42  1  0.62377484  0.87691094  0.12759681  1
  Fe  Fe43  1  0.49889789  0.75167559  -0.00071978  1
  Fe  Fe44  1  0.12679027  0.62515157  0.37628262  1
  Fe  Fe45  1  0.75300375  0.75100647  0.24985713  1
  Fe  Fe46  1  0.62851751  0.37813993  0.37270583  1
  Fe  Fe47  1  0.37330706  0.12684627  0.37589464  1
  Fe  Fe48  1  0.50041882  0.49919015  0.49960013  1
  Fe  Fe49  1  0.74823388  0.49871033  0.74532789  1
  Fe  Fe50  1  -0.00055671  -0.00202963  0.49949853  1
  Fe  Fe51  1  0.37150935  0.37085359  0.87565445  1
  Fe  Fe52  1  0.37916848  0.12546841  0.12262895  1
  Fe  Fe53  1  0.24636000  0.24910325  0.50358080  1
  Fe  Fe54  1  0.12784596  0.37045907  0.87531964  1
  Fe  Fe55  1  0.62580421  0.62285200  0.37326707  1
  Fe  Fe56  1  0.25000619  0.00911243  0.75026678  1
  Fe  Fe57  1  0.00067870  0.49884662  -0.00202194  1
  Fe  Fe58  1  0.12580678  0.37595928  0.37771977  1
  Fe  Fe59  1  0.25092587  -0.00025851  0.50097543  1
  Fe  Fe60  1  0.37607907  0.62680547  0.62263191  1
  Fe  Fe61  1  0.37502399  0.87472964  0.62533066  1
  Fe  Fe62  1  0.62373020  0.87506020  0.62674744  1
  Fe  Fe63  1  0.00242043  0.49945276  0.75082248  1
  Fe  Fe64  1  0.87612987  0.12538050  0.12541642  1
  Fe  Fe65  1  0.24854686  0.49996089  0.00042545  1
  Fe  Fe66  1  0.24843279  0.24881728  0.24845722  1
  Fe  Fe67  1  0.49814001  0.00221918  0.75126487  1
  Fe  Fe68  1  0.87376158  0.37357406  0.87467804  1
  Fe  Fe69  1  0.00438273  0.24856183  0.74714742  1
  Fe  Fe70  1  0.37229198  0.87668758  0.87494240  1
  Fe  Fe71  1  0.12266335  0.87132204  0.12324975  1
  Fe  Fe72  1  0.37576939  0.62427658  0.12540612  1
  Fe  Fe73  1  0.87990157  0.62939641  0.12435123  1
  Fe  Fe74  1  0.62670419  0.12298932  0.37264424  1
  Fe  Fe75  1  0.00166413  0.75218471  0.75509653  1
  Fe  Fe76  1  0.50098748  0.49725123  0.00023050  1
  Fe  Fe77  1  0.25012159  0.00103623  0.24825733  1
  Fe  Fe78  1  0.87261516  0.37958233  0.37599738  1
  Fe  Fe79  1  0.24968491  0.00259348  0.00027894  1
  Fe  Fe80  1  -0.00131293  0.25115610  0.25294280  1
  Fe  Fe81  1  0.87388789  0.37371947  0.12598691  1
  Fe  Fe82  1  0.62554583  0.87678151  0.37241455  1
  Fe  Fe83  1  0.74912801  0.74801421  0.74828931  1
  Fe  Fe84  1  0.62793978  0.37452443  0.12661784  1
  Fe  Fe85  1  0.62279653  0.12637943  0.62429826  1
  Fe  Fe86  1  0.49991295  0.25092674  0.25055094  1
  Fe  Fe87  1  0.87430121  0.12244684  0.37440283  1
  Fe  Fe88  1  0.37444849  0.37246662  0.62375816  1
  Fe  Fe89  1  0.24935548  0.74798841  0.75081890  1
  Co  Co90  1  0.00055558  -0.00112150  0.75261892  1
  Co  Co91  1  0.12833385  0.87736363  0.37424944  1
  Co  Co92  1  0.24823584  0.75095681  0.50105751  1
  Co  Co93  1  -0.00118611  0.24959719  0.49704731  1
  Co  Co94  1  0.75033423  0.24833117  -0.00015504  1
  Co  Co95  1  0.24877985  0.24819993  0.00468249  1
  Co  Co96  1  0.74815950  0.50049963  0.50557620  1
  Co  Co97  1  0.49794708  0.49809299  0.25117405  1
  Co  Co98  1  0.75277101  -0.00109492  0.24741616  1
  Co  Co99  1  0.49737882  0.00123669  0.25221157  1
  Co  Co100  1  0.62343039  0.37177780  0.62538150  1
  Co  Co101  1  0.00085144  0.75235456  -0.00852436  1
  Co  Co102  1  0.37282612  0.37144144  0.37637561  1
  Co  Co103  1  0.37630815  0.12796801  0.88014601  1
  Co  Co104  1  -0.00008404  0.50235080  0.49848874  1
  Co  Co105  1  0.62174532  0.62545788  0.62662824  1
  Co  Co106  1  0.86944784  0.87502616  0.87263783  1
  Co  Co107  1  0.12328154  0.12783121  0.87849895  1
  Co  Co108  1  -0.00121754  0.25289272  0.00112082  1
  Co  Co109  1  0.24836289  0.24510924  0.74585490  1
  Co  Co110  1  0.37844568  0.12621979  0.62118646  1
  Co  Co111  1  0.75177290  0.24861344  0.25078151  1
  Co  Co112  1  0.25215094  0.50029909  0.50073212  1
  Co  Co113  1  0.12668194  0.62366317  0.87646022  1
  Co  Co114  1  0.50169892  0.25470993  0.00144326  1
  Co  Co115  1  0.13107598  0.87711475  0.87383038  1
  Co  Co116  1  0.12382353  0.37686994  0.62219958  1
  Co  Co117  1  -0.00010575  0.75157888  0.25587565  1
  Co  Co118  1  0.62720493  0.37564429  0.87425030  1
  Co  Co119  1  0.49953957  0.75022758  0.24995220  1
  Co  Co120  1  0.50230224  0.75129932  0.49926129  1
  Co  Co121  1  0.87185478  0.62432453  0.37672199  1
  Co  Co122  1  0.87203549  0.87509552  0.37751627  1
  Co  Co123  1  0.50116568  -0.00329681  -0.00099776  1
  Co  Co124  1  0.12096398  0.12229432  0.62192906  1
  Co  Co125  1  0.75315489  0.50302943  0.24597217  1
  Co  Co126  1  0.87822120  0.87199351  0.12342609  1
  Co  Co127  1  0.25182697  0.74890109  -0.00001726  1
