# generated using pymatgen
data_Fe45Co19
_symmetry_space_group_name_H-M   'P 1'
_cell_length_a   11.41437319
_cell_length_b   11.41352017
_cell_length_c   11.41531857
_cell_angle_alpha   90.00262146
_cell_angle_beta   90.00236356
_cell_angle_gamma   90.01013618
_symmetry_Int_Tables_number   1
_chemical_formula_structural   Fe45Co19
_chemical_formula_sum   'Fe90 Co38'
_cell_volume   1487.16688522
_cell_formula_units_Z   2
loop_
 _symmetry_equiv_pos_site_id
 _symmetry_equiv_pos_as_xyz
  1  'x, y, z'
loop_
 _atom_site_type_symbol
 _atom_site_label
 _atom_site_symmetry_multiplicity
 _atom_site_fract_x
 _atom_site_fract_y
 _atom_site_fract_z
 _atom_site_occupancy
  Fe  Fe0  1  0.25097589  0.25067338  0.75031801  1
  Fe  Fe1  1  0.37425461  0.62632309  0.62784177  1
  Fe  Fe2  1  0.75058253  0.00114832  0.50051713  1
  Fe  Fe3  1  0.24922492  0.74611085  0.00013282  1
  Fe  Fe4  1  0.87443963  0.37408043  0.87607268  1
  Fe  Fe5  1  0.62732115  0.62719613  0.37695319  1
  Fe  Fe6  1  0.87728197  0.37826690  0.37554106  1
  Fe  Fe7  1  0.87533016  0.87322784  0.12428745  1
  Fe  Fe8  1  0.62273128  0.62639831  0.12639967  1
  Fe  Fe9  1  0.87279273  0.87438220  0.37277143  1
  Fe  Fe10  1  0.12250912  0.37409152  0.62612786  1
  Fe  Fe11  1  0.37432487  0.87387857  0.62345849  1
  Fe  Fe12  1  0.37516756  0.12275744  0.37474226  1
  Fe  Fe13  1  0.24902378  0.75031809  0.49961008  1
  Fe  Fe14  1  0.74828551  -0.00359256  0.75066489  1
  Fe  Fe15  1  0.24886752  0.50222338  0.75284461  1
  Fe  Fe16  1  0.50220762  -0.00203591  -0.00052027  1
  Fe  Fe17  1  -0.00144678  0.00102635  0.49812831  1
  Fe  Fe18  1  0.62291173  0.12383756  0.87199144  1
  Fe  Fe19  1  0.50242018  -0.00064354  0.50215530  1
  Fe  Fe20  1  0.75062292  0.50111886  0.25032806  1
  Fe  Fe21  1  0.74903003  0.50301491  -0.00028717  1
  Fe  Fe22  1  0.62608277  0.12405376  0.37437345  1
  Fe  Fe23  1  0.37579278  0.37658130  0.62566384  1
  Fe  Fe24  1  0.87395693  0.12507865  0.12314294  1
  Fe  Fe25  1  0.75256757  0.49881490  0.50223055  1
  Fe  Fe26  1  -0.00096495  0.49997458  0.74911837  1
  Fe  Fe27  1  0.12455785  0.37542761  0.87836544  1
  Fe  Fe28  1  0.87544239  0.62665616  0.87497049  1
  Fe  Fe29  1  0.75104794  0.24934078  0.74775474  1
  Fe  Fe30  1  0.62643735  0.62887821  0.87275441  1
  Fe  Fe31  1  0.24883634  0.49983770  0.50201804  1
  Fe  Fe32  1  0.25352757  0.50546121  0.00135288  1
  Fe  Fe33  1  -0.00089825  0.00222052  -0.00453032  1
  Fe  Fe34  1  0.37662295  0.12465285  0.12489883  1
  Fe  Fe35  1  0.37391227  0.87360821  0.87492162  1
  Fe  Fe36  1  0.74908919  0.25001208  0.00053112  1
  Fe  Fe37  1  0.62481428  0.62774033  0.62436437  1
  Fe  Fe38  1  0.12334700  0.37863495  0.37394509  1
  Fe  Fe39  1  -0.00115118  0.25304038  0.24573643  1
  Fe  Fe40  1  0.50276561  -0.00179109  0.24747256  1
  Fe  Fe41  1  0.37555319  0.12307871  0.87249872  1
  Fe  Fe42  1  -0.00036083  0.74992495  -0.00054612  1
  Fe  Fe43  1  0.12380965  0.12501209  0.12329680  1
  Fe  Fe44  1  0.87511042  0.62663814  0.12741113  1
  Fe  Fe45  1  0.24776236  -0.00315598  0.74777005  1
  Fe  Fe46  1  0.24989830  0.24904240  0.49968743  1
  Fe  Fe47  1  0.50082927  0.75326800  0.74862217  1
  Fe  Fe48  1  0.50081911  0.74908442  -0.00145921  1
  Fe  Fe49  1  -0.00147907  0.24543259  0.75472378  1
  Fe  Fe50  1  0.25054085  0.50141388  0.24476388  1
  Fe  Fe51  1  0.50164742  0.75184576  0.25385681  1
  Fe  Fe52  1  0.37711242  0.12417495  0.62732198  1
  Fe  Fe53  1  0.62421871  0.37419598  0.62477617  1
  Fe  Fe54  1  0.62283371  0.37760664  0.12501913  1
  Fe  Fe55  1  0.75144501  0.75215636  0.50015819  1
  Fe  Fe56  1  -0.00138092  0.49826344  0.00409766  1
  Fe  Fe57  1  0.49996393  0.25075576  0.24940025  1
  Fe  Fe58  1  0.87775361  0.87711721  0.62727715  1
  Fe  Fe59  1  0.00081079  0.74766934  0.49679705  1
  Fe  Fe60  1  0.49919639  0.24923050  0.50088779  1
  Fe  Fe61  1  0.25058957  0.25033394  0.24848843  1
  Fe  Fe62  1  0.50108359  0.50003957  0.75138173  1
  Fe  Fe63  1  0.62505511  0.37495746  0.37651703  1
  Fe  Fe64  1  0.49882547  0.50247075  0.49850782  1
  Fe  Fe65  1  0.24852772  -0.00163983  0.24826806  1
  Fe  Fe66  1  0.75089216  0.24995397  0.24949022  1
  Fe  Fe67  1  0.37604687  0.37740607  0.87686492  1
  Fe  Fe68  1  0.00068458  0.75154380  0.75104077  1
  Fe  Fe69  1  0.74773660  -0.00212537  0.24744811  1
  Fe  Fe70  1  0.12560782  0.87407823  0.87571986  1
  Fe  Fe71  1  0.12726682  0.87619047  0.37627523  1
  Fe  Fe72  1  0.12389078  0.12473742  0.37397568  1
  Fe  Fe73  1  0.00065611  -0.00125330  0.24916487  1
  Fe  Fe74  1  0.37396920  0.87655599  0.37598126  1
  Fe  Fe75  1  0.12265589  0.12272448  0.62583893  1
  Fe  Fe76  1  0.75319477  0.24704732  0.50241475  1
  Fe  Fe77  1  0.62530505  0.37609984  0.87428875  1
  Fe  Fe78  1  0.50021384  0.25037837  -0.00059644  1
  Fe  Fe79  1  0.37454229  0.37636824  0.37399415  1
  Fe  Fe80  1  0.00280978  0.74754895  0.25266127  1
  Fe  Fe81  1  0.12535996  0.62655461  0.62560685  1
  Fe  Fe82  1  0.37467439  0.87200854  0.12518951  1
  Fe  Fe83  1  0.25096073  0.25014281  0.00153038  1
  Fe  Fe84  1  0.74743638  -0.00397888  0.00032554  1
  Fe  Fe85  1  -0.00242959  0.24868754  0.50003438  1
  Fe  Fe86  1  0.87588784  0.62529838  0.62382050  1
  Fe  Fe87  1  0.24929170  -0.00068981  0.00174097  1
  Fe  Fe88  1  0.37223862  0.62619904  0.37288585  1
  Fe  Fe89  1  0.75177929  0.50100485  0.74883578  1
  Co  Co90  1  0.00152729  0.00033506  0.75618865  1
  Co  Co91  1  0.50037683  -0.00574012  0.75070700  1
  Co  Co92  1  0.87473813  0.12464851  0.37141244  1
  Co  Co93  1  0.62476168  0.12591729  0.12459048  1
  Co  Co94  1  0.62389235  0.12517274  0.62774469  1
  Co  Co95  1  0.12293708  0.87446213  0.12221890  1
  Co  Co96  1  -0.00073417  0.50065170  0.24734033  1
  Co  Co97  1  0.24677869  0.75287928  0.24922230  1
  Co  Co98  1  0.87108949  0.37527334  0.12388448  1
  Co  Co99  1  -0.00097902  0.24848921  -0.00071635  1
  Co  Co100  1  0.87707716  0.37366701  0.62601655  1
  Co  Co101  1  0.62618776  0.87320374  0.62356463  1
  Co  Co102  1  0.86922577  0.12431868  0.87596320  1
  Co  Co103  1  0.13024839  0.12506035  0.87572570  1
  Co  Co104  1  0.12440352  0.62580171  0.12487327  1
  Co  Co105  1  0.12155088  0.62370190  0.87615409  1
  Co  Co106  1  0.62646808  0.87586976  0.37672243  1
  Co  Co107  1  0.87671081  0.12082875  0.62792991  1
  Co  Co108  1  0.87343699  0.62332834  0.37552776  1
  Co  Co109  1  0.62714191  0.87061296  0.87527477  1
  Co  Co110  1  0.75122056  0.74822308  0.00174643  1
  Co  Co111  1  0.87339696  0.87249110  0.87536234  1
  Co  Co112  1  0.50064391  0.50298567  -0.00228321  1
  Co  Co113  1  0.62432316  0.87080060  0.12375392  1
  Co  Co114  1  0.37711504  0.62763088  0.87186731  1
  Co  Co115  1  0.24701922  0.75113723  0.75093145  1
  Co  Co116  1  0.50077945  0.50112715  0.25310864  1
  Co  Co117  1  0.12767555  0.37612419  0.12237402  1
  Co  Co118  1  0.37818898  0.37667024  0.12395876  1
  Co  Co119  1  0.24933330  0.00151134  0.50142507  1
  Co  Co120  1  0.00064263  0.50189856  0.50172969  1
  Co  Co121  1  0.75269361  0.74994998  0.74812005  1
  Co  Co122  1  0.12183166  0.87494885  0.62335306  1
  Co  Co123  1  0.12765686  0.62155046  0.37418321  1
  Co  Co124  1  0.49847820  0.74954351  0.49859645  1
  Co  Co125  1  0.74959233  0.75040153  0.24954484  1
  Co  Co126  1  0.37848955  0.62833783  0.12758601  1
  Co  Co127  1  0.49859644  0.25276163  0.75107682  1
