# generated using pymatgen
data_Fe45Co19
_symmetry_space_group_name_H-M   'P 1'
_cell_length_a   11.41563408
_cell_length_b   11.41411957
_cell_length_c   11.41487623
_cell_angle_alpha   90.00200869
_cell_angle_beta   90.00287782
_cell_angle_gamma   90.00789473
_symmetry_Int_Tables_number   1
_chemical_formula_structural   Fe45Co19
_chemical_formula_sum   'Fe90 Co38'
_cell_volume   1487.35164768
_cell_formula_units_Z   2
loop_
 _symmetry_equiv_pos_site_id
 _symmetry_equiv_pos_as_xyz
  1  'x, y, z'
loop_
 _atom_site_type_symbol
 _atom_site_label
 _atom_site_symmetry_multiplicity
 _atom_site_fract_x
 _atom_site_fract_y
 _atom_site_fract_z
 _atom_site_occupancy
  Fe  Fe0  1  0.24777047  0.00589132  0.74969172  1
  Fe  Fe1  1  0.74883271  0.75092921  0.50262630  1
  Fe  Fe2  1  0.62300269  0.87571486  0.62663870  1
  Fe  Fe3  1  0.00204059  0.00304704  0.75400313  1
  Fe  Fe4  1  0.37663768  0.62227030  0.37856963  1
  Fe  Fe5  1  0.37600621  0.87900657  0.62786390  1
  Fe  Fe6  1  0.37312821  0.12510439  0.37263057  1
  Fe  Fe7  1  0.12762034  0.37518502  0.87325207  1
  Fe  Fe8  1  0.87356339  0.62473897  0.37565268  1
  Fe  Fe9  1  0.74994259  0.75050548  -0.00041905  1
  Fe  Fe10  1  0.37407660  0.62480671  0.12331339  1
  Fe  Fe11  1  0.74827041  0.49805338  0.24779366  1
  Fe  Fe12  1  0.12807625  0.87657885  0.37261610  1
  Fe  Fe13  1  0.24959913  0.25106956  0.00021577  1
  Fe  Fe14  1  0.74820608  0.74953773  0.74855648  1
  Fe  Fe15  1  0.87542539  0.37490396  0.87306385  1
  Fe  Fe16  1  0.00184227  0.50187365  0.74758862  1
  Fe  Fe17  1  0.12827527  0.87362747  0.12688299  1
  Fe  Fe18  1  0.00058337  0.00052830  0.49844894  1
  Fe  Fe19  1  -0.00144431  0.75171106  0.24954378  1
  Fe  Fe20  1  0.62582511  0.37328627  0.37540418  1
  Fe  Fe21  1  0.37616995  0.37457559  0.12670818  1
  Fe  Fe22  1  0.87619316  0.87620541  0.62697890  1
  Fe  Fe23  1  0.00024265  0.74975850  0.50110325  1
  Fe  Fe24  1  0.74762594  0.24709070  0.75092481  1
  Fe  Fe25  1  0.37649118  0.62221432  0.62132797  1
  Fe  Fe26  1  0.62444936  0.62185095  0.12210624  1
  Fe  Fe27  1  0.25188659  0.75151967  0.50054699  1
  Fe  Fe28  1  0.87628397  0.62431097  0.12481480  1
  Fe  Fe29  1  0.87422996  0.62326180  0.87434017  1
  Fe  Fe30  1  0.12537055  0.87549628  0.62656957  1
  Fe  Fe31  1  0.25132305  0.24820925  0.50114050  1
  Fe  Fe32  1  0.62416567  0.87544503  0.37409053  1
  Fe  Fe33  1  0.37309053  0.62149411  0.87617944  1
  Fe  Fe34  1  0.25017942  0.00269081  0.50199918  1
  Fe  Fe35  1  0.49891488  0.74880453  0.75021221  1
  Fe  Fe36  1  0.62301001  0.62607429  0.37802388  1
  Fe  Fe37  1  0.25122602  0.74940740  0.74977031  1
  Fe  Fe38  1  0.24979256  0.75035888  -0.00087467  1
  Fe  Fe39  1  0.74859474  0.50055835  0.50356159  1
  Fe  Fe40  1  0.12521117  0.62472552  0.37539319  1
  Fe  Fe41  1  0.62412062  0.12652111  0.12361005  1
  Fe  Fe42  1  0.87572862  0.37394667  0.62614690  1
  Fe  Fe43  1  0.74810313  -0.00142944  -0.00280629  1
  Fe  Fe44  1  0.75088540  0.75208023  0.24868094  1
  Fe  Fe45  1  0.75272361  0.25361965  0.00222240  1
  Fe  Fe46  1  0.12693623  0.37379004  0.62634746  1
  Fe  Fe47  1  0.00148861  0.75170935  -0.00130568  1
  Fe  Fe48  1  0.75083055  0.24813102  0.49925123  1
  Fe  Fe49  1  0.00254081  0.74909685  0.75094995  1
  Fe  Fe50  1  0.87489598  0.12444625  0.62760855  1
  Fe  Fe51  1  0.12361040  0.12593767  0.12366497  1
  Fe  Fe52  1  0.62329320  0.87499712  0.12329782  1
  Fe  Fe53  1  0.00042665  0.24921383  0.49845710  1
  Fe  Fe54  1  0.49998146  0.49909277  0.74975121  1
  Fe  Fe55  1  0.50509730  0.00699567  0.75403467  1
  Fe  Fe56  1  0.12534976  0.37445428  0.37380358  1
  Fe  Fe57  1  0.62555006  0.62236548  0.87668251  1
  Fe  Fe58  1  0.37661467  0.87887402  0.87517976  1
  Fe  Fe59  1  0.12764710  0.62238999  0.87528001  1
  Fe  Fe60  1  0.25454690  0.00095684  0.00343162  1
  Fe  Fe61  1  0.87611118  0.12561753  0.12369528  1
  Fe  Fe62  1  0.24818564  0.24760935  0.24982849  1
  Fe  Fe63  1  0.50059996  0.49865489  0.25027560  1
  Fe  Fe64  1  0.12273031  0.37493843  0.12679440  1
  Fe  Fe65  1  0.75221884  -0.00151899  0.24912708  1
  Fe  Fe66  1  0.49932289  0.75067084  -0.00128216  1
  Fe  Fe67  1  0.00082458  -0.00056619  -0.00282938  1
  Fe  Fe68  1  0.87339970  0.87572015  0.87367386  1
  Fe  Fe69  1  0.62544333  0.12410086  0.37403604  1
  Fe  Fe70  1  0.74820241  0.50068930  0.74694478  1
  Fe  Fe71  1  0.37610284  0.37196686  0.62541935  1
  Fe  Fe72  1  0.49862559  0.74988796  0.25017341  1
  Fe  Fe73  1  -0.00017159  -0.00015843  0.25104682  1
  Fe  Fe74  1  0.62507178  0.37662833  0.87803981  1
  Fe  Fe75  1  0.50139861  0.25098969  0.25225635  1
  Fe  Fe76  1  0.75028371  -0.00013814  0.50154096  1
  Fe  Fe77  1  0.00084673  0.50065111  0.50197186  1
  Fe  Fe78  1  0.49600781  -0.00033699  0.24513516  1
  Fe  Fe79  1  0.00277561  0.24627400  0.75313139  1
  Fe  Fe80  1  0.49891441  0.00155638  0.49988407  1
  Fe  Fe81  1  0.87806837  0.37427194  0.12912567  1
  Fe  Fe82  1  0.37296580  0.87618721  0.37162324  1
  Fe  Fe83  1  0.87498750  0.37491598  0.37327606  1
  Fe  Fe84  1  0.24884665  0.50207387  0.24870855  1
  Fe  Fe85  1  0.37213170  0.37432009  0.87248001  1
  Fe  Fe86  1  0.49806482  0.24932961  -0.00268421  1
  Fe  Fe87  1  0.00059286  0.49841119  0.00062888  1
  Fe  Fe88  1  0.87514490  0.12582357  0.37304618  1
  Fe  Fe89  1  0.62173067  0.37006807  0.62382113  1
  Co  Co90  1  0.25129145  0.50082932  0.74725184  1
  Co  Co91  1  0.87566387  0.62544853  0.62551723  1
  Co  Co92  1  0.12407069  0.62679816  0.12357425  1
  Co  Co93  1  0.37341142  0.87029518  0.12515680  1
  Co  Co94  1  0.87535424  0.87620993  0.12239847  1
  Co  Co95  1  0.37184991  0.37519862  0.37275596  1
  Co  Co96  1  0.00045750  0.24712238  0.25141558  1
  Co  Co97  1  0.12258330  0.12542493  0.62336288  1
  Co  Co98  1  0.75375970  0.49705110  0.00174132  1
  Co  Co99  1  0.62001077  0.62570884  0.62313638  1
  Co  Co100  1  0.87305562  0.12599182  0.87624818  1
  Co  Co101  1  0.74676793  0.00149656  0.75083806  1
  Co  Co102  1  0.49753400  0.00057848  0.00186288  1
  Co  Co103  1  0.37275894  0.12458602  0.87511567  1
  Co  Co104  1  0.50109314  0.49457717  0.49946053  1
  Co  Co105  1  0.49651630  0.49887865  -0.00070400  1
  Co  Co106  1  0.25166718  0.00312997  0.24561031  1
  Co  Co107  1  0.12758525  0.62651462  0.62464373  1
  Co  Co108  1  0.24865667  0.24590474  0.74829274  1
  Co  Co109  1  0.24852190  0.49778467  0.50048240  1
  Co  Co110  1  -0.00055514  0.25254074  -0.00155371  1
  Co  Co111  1  0.12682541  0.12422934  0.37517681  1
  Co  Co112  1  0.24915190  0.49754355  0.00261374  1
  Co  Co113  1  0.49736276  0.75506469  0.50025330  1
  Co  Co114  1  0.12848949  0.12644889  0.87965732  1
  Co  Co115  1  0.00100198  0.50116536  0.25088082  1
  Co  Co116  1  0.62138693  0.37452996  0.12222684  1
  Co  Co117  1  0.50149293  0.24815759  0.75408529  1
  Co  Co118  1  0.62273545  0.87344901  0.87525354  1
  Co  Co119  1  0.25167212  0.74562487  0.25194148  1
  Co  Co120  1  0.62369416  0.12792044  0.62178539  1
  Co  Co121  1  0.49726559  0.24889220  0.49521409  1
  Co  Co122  1  0.74929981  0.25069873  0.24843704  1
  Co  Co123  1  0.12889573  0.87651459  0.87497240  1
  Co  Co124  1  0.37657921  0.13084219  0.12507611  1
  Co  Co125  1  0.37888534  0.12681492  0.62677682  1
  Co  Co126  1  0.87431047  0.87394385  0.37660079  1
  Co  Co127  1  0.62736563  0.12783901  0.88040882  1
