# generated using pymatgen
data_Fe45Co19
_symmetry_space_group_name_H-M   'P 1'
_cell_length_a   11.41413748
_cell_length_b   11.41542905
_cell_length_c   11.41422717
_cell_angle_alpha   90.00043231
_cell_angle_beta   90.01191510
_cell_angle_gamma   90.00833672
_symmetry_Int_Tables_number   1
_chemical_formula_structural   Fe45Co19
_chemical_formula_sum   'Fe90 Co38'
_cell_volume   1487.24266568
_cell_formula_units_Z   2
loop_
 _symmetry_equiv_pos_site_id
 _symmetry_equiv_pos_as_xyz
  1  'x, y, z'
loop_
 _atom_site_type_symbol
 _atom_site_label
 _atom_site_symmetry_multiplicity
 _atom_site_fract_x
 _atom_site_fract_y
 _atom_site_fract_z
 _atom_site_occupancy
  Fe  Fe0  1  0.12373345  0.12269763  0.62326950  1
  Fe  Fe1  1  -0.00079767  0.24908655  0.74944975  1
  Fe  Fe2  1  0.75431857  0.00491287  0.25040680  1
  Fe  Fe3  1  0.37793288  0.62457550  0.12375923  1
  Fe  Fe4  1  0.12600609  0.62519531  0.12695810  1
  Fe  Fe5  1  0.75189835  0.75509388  0.49982357  1
  Fe  Fe6  1  0.37425312  0.12406384  0.12380923  1
  Fe  Fe7  1  0.37623508  0.37304107  0.37621296  1
  Fe  Fe8  1  0.87514460  0.12647548  0.87717462  1
  Fe  Fe9  1  0.37362617  0.62570702  0.62352207  1
  Fe  Fe10  1  -0.00147090  0.50519726  0.25473681  1
  Fe  Fe11  1  -0.00146040  0.74998557  0.00356897  1
  Fe  Fe12  1  -0.00001165  0.00083556  0.00306480  1
  Fe  Fe13  1  0.49957442  0.25031190  -0.00074254  1
  Fe  Fe14  1  0.12430064  0.87373529  0.87436357  1
  Fe  Fe15  1  0.50096033  0.49962590  0.50009659  1
  Fe  Fe16  1  0.50204897  0.50255006  0.74667599  1
  Fe  Fe17  1  0.12006037  0.87134229  0.36824052  1
  Fe  Fe18  1  0.12452337  0.62352716  0.62373752  1
  Fe  Fe19  1  -0.00378001  -0.00571244  0.49758744  1
  Fe  Fe20  1  0.50469460  0.24967280  0.50405657  1
  Fe  Fe21  1  0.74827663  0.75057578  0.00119940  1
  Fe  Fe22  1  0.37504652  0.87488924  0.62570978  1
  Fe  Fe23  1  0.50184988  -0.00141311  0.00072211  1
  Fe  Fe24  1  0.49989644  0.00077837  0.74965858  1
  Fe  Fe25  1  0.75258172  -0.00385075  0.49856636  1
  Fe  Fe26  1  0.74778732  0.74678845  0.75104928  1
  Fe  Fe27  1  0.37487753  0.87694552  0.12819005  1
  Fe  Fe28  1  0.87339708  0.37597887  0.87183530  1
  Fe  Fe29  1  0.50275859  0.24711081  0.24995591  1
  Fe  Fe30  1  0.50101577  0.75370636  0.49807842  1
  Fe  Fe31  1  0.24889922  0.75246668  0.49877533  1
  Fe  Fe32  1  0.24993698  0.24646992  0.25128553  1
  Fe  Fe33  1  0.75132431  0.00104114  0.75085201  1
  Fe  Fe34  1  0.37774629  0.62634830  0.87754184  1
  Fe  Fe35  1  0.87522702  0.37613094  0.12682425  1
  Fe  Fe36  1  0.62534657  0.87607044  0.62596770  1
  Fe  Fe37  1  0.25089537  0.49849208  0.00015483  1
  Fe  Fe38  1  0.74798327  0.24815812  0.74607187  1
  Fe  Fe39  1  0.12156446  0.12366587  0.37516737  1
  Fe  Fe40  1  0.25016683  0.00031433  0.75049225  1
  Fe  Fe41  1  0.12685157  0.12642407  0.87711505  1
  Fe  Fe42  1  0.62696951  0.12366747  0.37740512  1
  Fe  Fe43  1  0.87406908  0.62434463  0.87706979  1
  Fe  Fe44  1  0.37627268  0.37511267  0.87182482  1
  Fe  Fe45  1  0.24723967  0.49789717  0.49693901  1
  Fe  Fe46  1  0.87469791  0.37778430  0.62640713  1
  Fe  Fe47  1  -0.00341414  0.24552715  0.24920096  1
  Fe  Fe48  1  0.24844661  0.25044618  0.49967814  1
  Fe  Fe49  1  0.37481044  0.37467254  0.12803594  1
  Fe  Fe50  1  0.62457710  0.37620450  0.87052551  1
  Fe  Fe51  1  0.37636863  0.12451885  0.62363810  1
  Fe  Fe52  1  0.62706261  0.62812752  0.37709556  1
  Fe  Fe53  1  0.62196868  0.62391466  0.12129292  1
  Fe  Fe54  1  -0.00040570  0.74878008  0.74860190  1
  Fe  Fe55  1  0.74896386  0.49811858  0.50087975  1
  Fe  Fe56  1  0.00141851  0.49878544  -0.00214854  1
  Fe  Fe57  1  0.24965853  -0.00183938  0.49737131  1
  Fe  Fe58  1  0.50137772  0.75072262  0.25011626  1
  Fe  Fe59  1  0.75005235  0.50317825  0.25047516  1
  Fe  Fe60  1  -0.00046744  0.25298540  0.50065438  1
  Fe  Fe61  1  0.37620140  0.87698977  0.37218273  1
  Fe  Fe62  1  0.87332254  0.37335990  0.37455992  1
  Fe  Fe63  1  0.00087793  0.25106140  0.00109166  1
  Fe  Fe64  1  0.50121121  0.50071046  0.25176026  1
  Fe  Fe65  1  0.37424897  0.62570795  0.37547962  1
  Fe  Fe66  1  0.87656219  0.62360187  0.62184941  1
  Fe  Fe67  1  0.12460398  0.87548381  0.62685196  1
  Fe  Fe68  1  0.87501224  0.87395874  0.87567589  1
  Fe  Fe69  1  0.62473029  0.37423478  0.12699721  1
  Fe  Fe70  1  0.25220993  0.24875078  0.74920783  1
  Fe  Fe71  1  0.62803100  0.87660174  0.12900373  1
  Fe  Fe72  1  0.75015107  0.00022143  -0.00035690  1
  Fe  Fe73  1  0.24956233  0.50138025  0.25332323  1
  Fe  Fe74  1  0.87521010  0.12377718  0.62196206  1
  Fe  Fe75  1  0.12629620  0.37492951  0.87271679  1
  Fe  Fe76  1  0.24822003  -0.00089451  0.00116303  1
  Fe  Fe77  1  0.62329041  0.12465424  0.87448698  1
  Fe  Fe78  1  0.12549379  0.37738013  0.62716456  1
  Fe  Fe79  1  0.37756822  0.12369398  0.37665614  1
  Fe  Fe80  1  0.12634846  0.62589483  0.87413030  1
  Fe  Fe81  1  0.12220409  0.87451720  0.13159745  1
  Fe  Fe82  1  0.37501066  0.87451305  0.87447438  1
  Fe  Fe83  1  0.12498047  0.37428461  0.12842853  1
  Fe  Fe84  1  0.74790583  0.49804583  -0.00103823  1
  Fe  Fe85  1  0.50268268  0.74915354  0.75110494  1
  Fe  Fe86  1  0.25127262  0.75114753  0.00178415  1
  Fe  Fe87  1  -0.00112692  0.00102002  0.75138940  1
  Fe  Fe88  1  0.74862893  0.25124250  0.00127458  1
  Fe  Fe89  1  0.62620748  0.37355632  0.37480980  1
  Co  Co90  1  0.87394968  0.87511789  0.62974077  1
  Co  Co91  1  0.87312311  0.12672154  0.12023809  1
  Co  Co92  1  0.24942189  0.00202676  0.25262375  1
  Co  Co93  1  0.24967702  0.74972660  0.75033039  1
  Co  Co94  1  0.62641209  0.11988442  0.62367415  1
  Co  Co95  1  0.50073566  0.24847301  0.74777888  1
  Co  Co96  1  0.12408683  0.37155592  0.37117871  1
  Co  Co97  1  0.62531948  0.62764210  0.61977405  1
  Co  Co98  1  0.49902265  0.49450608  0.00048272  1
  Co  Co99  1  0.87452059  0.12765701  0.38008826  1
  Co  Co100  1  0.74800144  0.25152110  0.50283182  1
  Co  Co101  1  0.62188317  0.62376690  0.88021085  1
  Co  Co102  1  0.12382096  0.63096806  0.37572640  1
  Co  Co103  1  -0.00436848  0.00518359  0.24852832  1
  Co  Co104  1  0.87379882  0.87658107  0.12654556  1
  Co  Co105  1  0.50051171  -0.00266326  0.49920132  1
  Co  Co106  1  0.75183758  0.74316184  0.24607943  1
  Co  Co107  1  0.37519194  0.37513015  0.62292701  1
  Co  Co108  1  0.00259906  0.49761794  0.49638520  1
  Co  Co109  1  0.87582684  0.87099357  0.36763764  1
  Co  Co110  1  0.25332885  0.74913374  0.24975029  1
  Co  Co111  1  0.62792234  0.87524691  0.37120095  1
  Co  Co112  1  0.75027394  0.24761935  0.24959835  1
  Co  Co113  1  0.74810265  0.50538563  0.74958230  1
  Co  Co114  1  0.62534570  0.37739051  0.62699615  1
  Co  Co115  1  0.50127807  0.00182991  0.25007970  1
  Co  Co116  1  0.50101370  0.75621345  0.00140687  1
  Co  Co117  1  0.37513197  0.12345792  0.87635322  1
  Co  Co118  1  0.87365265  0.61990742  0.11945228  1
  Co  Co119  1  0.62641118  0.87636248  0.87342076  1
  Co  Co120  1  0.62546185  0.12494209  0.12342896  1
  Co  Co121  1  -0.00724163  0.74240024  0.24590981  1
  Co  Co122  1  0.87347121  0.62715754  0.38173088  1
  Co  Co123  1  0.25153721  0.25300129  -0.00012101  1
  Co  Co124  1  -0.00093999  0.75407591  0.50257425  1
  Co  Co125  1  0.12697920  0.12594559  0.12434677  1
  Co  Co126  1  0.25198317  0.50165691  0.75062660  1
  Co  Co127  1  -0.00088864  0.50176146  0.75189963  1
