# generated using pymatgen
data_Fe45Co19
_symmetry_space_group_name_H-M   'P 1'
_cell_length_a   11.41433757
_cell_length_b   11.41473583
_cell_length_c   11.41541942
_cell_angle_alpha   90.00147554
_cell_angle_beta   89.99537538
_cell_angle_gamma   89.99859014
_symmetry_Int_Tables_number   1
_chemical_formula_structural   Fe45Co19
_chemical_formula_sum   'Fe90 Co38'
_cell_volume   1487.33380243
_cell_formula_units_Z   2
loop_
 _symmetry_equiv_pos_site_id
 _symmetry_equiv_pos_as_xyz
  1  'x, y, z'
loop_
 _atom_site_type_symbol
 _atom_site_label
 _atom_site_symmetry_multiplicity
 _atom_site_fract_x
 _atom_site_fract_y
 _atom_site_fract_z
 _atom_site_occupancy
  Fe  Fe0  1  0.12603877  0.87387496  0.62463313  1
  Fe  Fe1  1  0.24989967  0.50086339  0.24622923  1
  Fe  Fe2  1  0.62466057  0.12100588  0.87119662  1
  Fe  Fe3  1  0.49755623  0.25089652  0.75051789  1
  Fe  Fe4  1  0.37532115  0.37489568  0.37517722  1
  Fe  Fe5  1  -0.00129867  0.50005253  0.24863891  1
  Fe  Fe6  1  0.62314414  0.12258303  0.37693405  1
  Fe  Fe7  1  0.74926660  0.00159670  -0.00138756  1
  Fe  Fe8  1  0.87642624  0.62841340  0.12509119  1
  Fe  Fe9  1  0.25073679  0.00057706  0.50173533  1
  Fe  Fe10  1  0.49962638  0.49804515  0.50275378  1
  Fe  Fe11  1  0.50162384  0.24786804  -0.00180364  1
  Fe  Fe12  1  0.00010428  0.49843962  0.50099222  1
  Fe  Fe13  1  0.37519148  0.62312416  0.87420200  1
  Fe  Fe14  1  0.74970435  0.75145397  0.25022268  1
  Fe  Fe15  1  0.75013093  0.50123127  0.74996129  1
  Fe  Fe16  1  0.12833920  0.87511835  0.12857395  1
  Fe  Fe17  1  0.37815946  0.62674989  0.62768537  1
  Fe  Fe18  1  0.24972800  0.49733036  0.50278165  1
  Fe  Fe19  1  0.37489853  0.12190053  0.87388800  1
  Fe  Fe20  1  0.74885973  0.74885364  0.49994473  1
  Fe  Fe21  1  0.37552010  0.62256064  0.37414138  1
  Fe  Fe22  1  0.12833337  0.87756138  0.87396237  1
  Fe  Fe23  1  0.25101872  0.49596849  0.74772634  1
  Fe  Fe24  1  0.87458379  0.87740590  0.37735570  1
  Fe  Fe25  1  0.37562538  0.87920165  0.37324501  1
  Fe  Fe26  1  0.37668651  0.37206530  0.12458109  1
  Fe  Fe27  1  0.74916159  0.50194414  0.50042428  1
  Fe  Fe28  1  0.50159227  0.24979205  0.25184237  1
  Fe  Fe29  1  0.62239911  0.87689081  0.37798987  1
  Fe  Fe30  1  0.12494554  0.37384387  0.37316757  1
  Fe  Fe31  1  0.75379558  0.25064103  0.75391911  1
  Fe  Fe32  1  -0.00201106  0.25156978  0.75172046  1
  Fe  Fe33  1  0.62409063  0.62379691  0.37329823  1
  Fe  Fe34  1  0.12585241  0.62594285  0.62611914  1
  Fe  Fe35  1  0.37572710  0.37653224  0.87577733  1
  Fe  Fe36  1  0.25095851  0.24760614  0.00017210  1
  Fe  Fe37  1  0.00053197  0.00018540  0.50154486  1
  Fe  Fe38  1  -0.00261738  0.24651757  -0.00236689  1
  Fe  Fe39  1  0.62295604  0.87699409  0.12321974  1
  Fe  Fe40  1  0.25112143  0.75083941  0.49787544  1
  Fe  Fe41  1  0.12669320  0.12198638  0.87472519  1
  Fe  Fe42  1  0.12465541  0.37494345  0.87539999  1
  Fe  Fe43  1  0.74546782  -0.00024214  0.50617668  1
  Fe  Fe44  1  0.00127347  0.75236925  0.25328160  1
  Fe  Fe45  1  0.00088739  0.50118313  0.00132933  1
  Fe  Fe46  1  0.75086059  0.00155815  0.25120420  1
  Fe  Fe47  1  0.25258757  0.00127561  0.00644185  1
  Fe  Fe48  1  0.62521964  0.37677066  0.87529396  1
  Fe  Fe49  1  0.37395882  0.63026311  0.12366188  1
  Fe  Fe50  1  0.12387287  0.37154275  0.12472722  1
  Fe  Fe51  1  0.62386835  0.12459714  0.12474642  1
  Fe  Fe52  1  0.87061149  0.87603935  0.87388647  1
  Fe  Fe53  1  0.37986477  0.87319976  0.62470243  1
  Fe  Fe54  1  0.62465843  0.37238492  0.62627099  1
  Fe  Fe55  1  0.00123715  0.75052690  0.49815590  1
  Fe  Fe56  1  0.12529263  0.62453274  0.37478150  1
  Fe  Fe57  1  0.50063485  0.50115850  0.00109316  1
  Fe  Fe58  1  0.62413819  0.37759435  0.37311723  1
  Fe  Fe59  1  0.00195021  0.75297539  -0.00081867  1
  Fe  Fe60  1  0.62495881  0.37373865  0.12503294  1
  Fe  Fe61  1  0.87447988  0.37458821  0.37672372  1
  Fe  Fe62  1  0.12639286  0.62532649  0.87416007  1
  Fe  Fe63  1  0.87391752  0.87344356  0.62546192  1
  Fe  Fe64  1  0.87570306  0.62547970  0.62440425  1
  Fe  Fe65  1  0.12441909  0.12066510  0.37294991  1
  Fe  Fe66  1  0.37452480  0.12944095  0.62454401  1
  Fe  Fe67  1  0.12763527  0.12745120  0.62762259  1
  Fe  Fe68  1  0.87462337  0.87787845  0.12474203  1
  Fe  Fe69  1  -0.00080818  -0.00044393  0.74988470  1
  Fe  Fe70  1  0.00104332  0.24974617  0.50044012  1
  Fe  Fe71  1  0.74932482  0.50103421  0.00114570  1
  Fe  Fe72  1  0.87363179  0.12638487  0.62539884  1
  Fe  Fe73  1  0.62386396  0.62625770  0.12514984  1
  Fe  Fe74  1  0.50011070  0.75092379  0.25156820  1
  Fe  Fe75  1  0.74880081  0.24981835  0.49849860  1
  Fe  Fe76  1  0.24851582  0.50074271  0.00249449  1
  Fe  Fe77  1  0.75201755  0.24670635  0.25030759  1
  Fe  Fe78  1  0.24989182  0.24582887  0.24892671  1
  Fe  Fe79  1  0.75213786  0.50075078  0.24908323  1
  Fe  Fe80  1  0.61982151  0.62998941  0.62816693  1
  Fe  Fe81  1  0.50277125  0.75271018  -0.00518519  1
  Fe  Fe82  1  0.87287715  0.62710098  0.87676615  1
  Fe  Fe83  1  -0.00176571  0.49739736  0.74926571  1
  Fe  Fe84  1  0.37776015  0.12310472  0.37531111  1
  Fe  Fe85  1  -0.00445188  0.24425210  0.24964179  1
  Fe  Fe86  1  0.87294333  0.37114303  0.12157622  1
  Fe  Fe87  1  0.25174928  0.75203136  0.75108749  1
  Fe  Fe88  1  0.37521215  0.87999039  0.87550777  1
  Fe  Fe89  1  -0.00035024  0.75117806  0.75106811  1
  Co  Co90  1  0.62540242  0.13119249  0.62723381  1
  Co  Co91  1  0.87472797  0.12034001  0.87491311  1
  Co  Co92  1  0.25044604  0.74981194  0.25468133  1
  Co  Co93  1  0.49772207  0.50058692  0.24729514  1
  Co  Co94  1  0.38010227  0.12742406  0.12552591  1
  Co  Co95  1  0.37627601  0.87080529  0.12559672  1
  Co  Co96  1  0.25075460  0.25173021  0.75408214  1
  Co  Co97  1  -0.00252792  0.00074266  0.25002688  1
  Co  Co98  1  0.50039095  -0.00053262  0.24789621  1
  Co  Co99  1  0.50145050  -0.00010449  0.74531731  1
  Co  Co100  1  0.74795353  -0.00105609  0.74390603  1
  Co  Co101  1  0.49948935  0.75356924  0.75862959  1
  Co  Co102  1  0.49988666  0.00026658  0.00001133  1
  Co  Co103  1  0.87372791  0.37680392  0.87825028  1
  Co  Co104  1  0.50150287  0.00242639  0.50578710  1
  Co  Co105  1  0.74856687  0.75106295  0.00188377  1
  Co  Co106  1  0.87396805  0.12209798  0.12070489  1
  Co  Co107  1  0.12668928  0.87939286  0.37451647  1
  Co  Co108  1  0.62653151  0.62397154  0.87454004  1
  Co  Co109  1  0.87526844  0.62583611  0.37476598  1
  Co  Co110  1  0.25138177  -0.00066001  0.74633600  1
  Co  Co111  1  0.74743635  0.24689440  -0.00262716  1
  Co  Co112  1  0.74942306  0.74973889  0.74928721  1
  Co  Co113  1  0.12614284  0.37182897  0.62603042  1
  Co  Co114  1  0.00159852  -0.00339949  -0.00122937  1
  Co  Co115  1  0.62895887  0.87892784  0.87344824  1
  Co  Co116  1  0.24795565  0.24879755  0.49583834  1
  Co  Co117  1  0.87370338  0.12189933  0.37987105  1
  Co  Co118  1  0.37391357  0.37007020  0.62308854  1
  Co  Co119  1  0.12528321  0.62880044  0.12533340  1
  Co  Co120  1  0.87315972  0.37455644  0.62313210  1
  Co  Co121  1  0.62064972  0.86791788  0.62521649  1
  Co  Co122  1  0.12171974  0.12409680  0.12394169  1
  Co  Co123  1  0.25315647  0.00311366  0.24552136  1
  Co  Co124  1  0.49786647  0.74885960  0.49501324  1
  Co  Co125  1  0.50040958  0.49746690  0.74853394  1
  Co  Co126  1  0.50131337  0.25094065  0.49790403  1
  Co  Co127  1  0.24972430  0.75172905  -0.00380999  1
