# generated using pymatgen
data_Fe45Co19
_symmetry_space_group_name_H-M   'P 1'
_cell_length_a   11.41442761
_cell_length_b   11.41477954
_cell_length_c   11.41462174
_cell_angle_alpha   89.99387511
_cell_angle_beta   89.99822167
_cell_angle_gamma   89.98887836
_symmetry_Int_Tables_number   1
_chemical_formula_structural   Fe45Co19
_chemical_formula_sum   'Fe90 Co38'
_cell_volume   1487.24726761
_cell_formula_units_Z   2
loop_
 _symmetry_equiv_pos_site_id
 _symmetry_equiv_pos_as_xyz
  1  'x, y, z'
loop_
 _atom_site_type_symbol
 _atom_site_label
 _atom_site_symmetry_multiplicity
 _atom_site_fract_x
 _atom_site_fract_y
 _atom_site_fract_z
 _atom_site_occupancy
  Fe  Fe0  1  0.49921600  0.75192652  0.49917728  1
  Fe  Fe1  1  0.75325998  0.49607549  0.24964186  1
  Fe  Fe2  1  0.00194837  0.24975070  0.50092219  1
  Fe  Fe3  1  0.74880582  0.00061184  0.24913993  1
  Fe  Fe4  1  0.87508934  0.87450993  0.87337212  1
  Fe  Fe5  1  0.62252738  0.62269671  0.87619279  1
  Fe  Fe6  1  0.24923276  0.74823822  0.00059604  1
  Fe  Fe7  1  0.24532117  0.75339116  0.75182438  1
  Fe  Fe8  1  0.62526040  0.87589321  0.12362820  1
  Fe  Fe9  1  0.75054986  0.50030552  0.74900841  1
  Fe  Fe10  1  0.62364761  0.87685344  0.37423041  1
  Fe  Fe11  1  0.62519193  0.12543652  0.87371795  1
  Fe  Fe12  1  0.00060908  -0.00043590  0.24877660  1
  Fe  Fe13  1  0.87970591  0.37469051  0.12316027  1
  Fe  Fe14  1  0.87238036  0.62304959  0.37765046  1
  Fe  Fe15  1  0.62683502  0.62453565  0.37545431  1
  Fe  Fe16  1  0.12618633  0.37441419  0.62337196  1
  Fe  Fe17  1  0.12285205  0.37342602  0.87748606  1
  Fe  Fe18  1  0.87382235  0.87091821  0.62807729  1
  Fe  Fe19  1  0.00236179  0.74873380  -0.00184648  1
  Fe  Fe20  1  0.12511708  0.12409842  0.87320086  1
  Fe  Fe21  1  0.49754934  0.00190242  0.74791217  1
  Fe  Fe22  1  0.12392405  0.62583580  0.62630132  1
  Fe  Fe23  1  0.62471761  0.12856361  0.12633314  1
  Fe  Fe24  1  0.49975695  0.74907589  0.75041095  1
  Fe  Fe25  1  0.37300393  0.12560647  0.61885131  1
  Fe  Fe26  1  0.25115217  0.24817991  -0.00005431  1
  Fe  Fe27  1  0.37389159  0.62485032  0.62624966  1
  Fe  Fe28  1  0.37366713  0.62336154  0.87481674  1
  Fe  Fe29  1  0.62494798  0.87673586  0.87435917  1
  Fe  Fe30  1  0.24993539  0.24949981  0.74957367  1
  Fe  Fe31  1  0.87827523  0.62460373  0.12578544  1
  Fe  Fe32  1  0.62760922  0.62506022  0.62342621  1
  Fe  Fe33  1  -0.00145993  0.74919237  0.50046402  1
  Fe  Fe34  1  -0.00106293  0.00263253  0.00128923  1
  Fe  Fe35  1  0.74974491  0.25145570  0.00043725  1
  Fe  Fe36  1  0.24681341  0.50040091  0.00504149  1
  Fe  Fe37  1  0.25351628  0.24681282  0.25687259  1
  Fe  Fe38  1  0.24922573  0.49875480  0.24609665  1
  Fe  Fe39  1  0.37504357  0.37323725  0.62131545  1
  Fe  Fe40  1  0.37649679  0.37434902  0.87663340  1
  Fe  Fe41  1  0.62508400  0.12600931  0.62418626  1
  Fe  Fe42  1  0.62372618  0.37519207  0.62605893  1
  Fe  Fe43  1  0.87529570  0.12760560  0.87090343  1
  Fe  Fe44  1  0.62527731  0.62348873  0.12543736  1
  Fe  Fe45  1  0.74871637  0.25109420  0.49935522  1
  Fe  Fe46  1  0.12523416  0.62413680  0.37288603  1
  Fe  Fe47  1  -0.00167210  0.25161160  0.25002666  1
  Fe  Fe48  1  0.49753766  0.49808303  0.00427567  1
  Fe  Fe49  1  0.37485614  0.87846108  0.12784835  1
  Fe  Fe50  1  0.75148503  0.00076855  -0.00014814  1
  Fe  Fe51  1  0.49695009  0.24844975  0.25325343  1
  Fe  Fe52  1  -0.00053342  0.00026270  0.50049627  1
  Fe  Fe53  1  0.25128700  0.75050539  0.49740697  1
  Fe  Fe54  1  0.00079896  0.49962747  0.74950707  1
  Fe  Fe55  1  0.74939994  -0.00020512  0.50087660  1
  Fe  Fe56  1  0.12794564  0.12339301  0.62276498  1
  Fe  Fe57  1  0.37392788  0.87811520  0.87443421  1
  Fe  Fe58  1  0.87769417  0.62528150  0.87232583  1
  Fe  Fe59  1  0.49758558  0.49832062  0.24810482  1
  Fe  Fe60  1  0.75060034  0.75114727  0.24950097  1
  Fe  Fe61  1  0.12657671  0.12711401  0.12818394  1
  Fe  Fe62  1  0.49900183  0.75069914  0.24945179  1
  Fe  Fe63  1  0.49823717  0.74996910  0.00091594  1
  Fe  Fe64  1  0.87381833  0.12561429  0.12651192  1
  Fe  Fe65  1  0.62764990  0.87380666  0.62779235  1
  Fe  Fe66  1  -0.00074379  0.50017743  0.49907137  1
  Fe  Fe67  1  -0.00143991  0.75036914  0.25136819  1
  Fe  Fe68  1  0.87530633  0.37405794  0.62523689  1
  Fe  Fe69  1  0.50063739  0.49970259  0.49975099  1
  Fe  Fe70  1  0.37088529  0.87773513  0.62284234  1
  Fe  Fe71  1  0.25046535  0.49754559  0.75027023  1
  Fe  Fe72  1  0.00300397  -0.00253037  0.74852878  1
  Fe  Fe73  1  0.87834280  0.37200118  0.87469045  1
  Fe  Fe74  1  0.87374857  0.87719772  0.37409272  1
  Fe  Fe75  1  0.49876830  0.24975679  0.75026305  1
  Fe  Fe76  1  0.75019030  0.74955406  -0.00018257  1
  Fe  Fe77  1  0.37513693  0.62371488  0.37373259  1
  Fe  Fe78  1  0.25119496  0.75140069  0.25008751  1
  Fe  Fe79  1  0.87376410  0.12641919  0.37501528  1
  Fe  Fe80  1  0.75147420  0.49857496  0.00116594  1
  Fe  Fe81  1  0.12504536  0.87542126  0.12422906  1
  Fe  Fe82  1  0.25169415  0.00345764  0.00112228  1
  Fe  Fe83  1  0.24949476  0.50031671  0.49978777  1
  Fe  Fe84  1  0.12438614  0.37507889  0.37419064  1
  Fe  Fe85  1  0.49816490  0.00406130  0.00117364  1
  Fe  Fe86  1  0.62282877  0.37567165  0.87553224  1
  Fe  Fe87  1  0.87390154  0.12703907  0.62756517  1
  Fe  Fe88  1  0.62619380  0.37382279  0.37265718  1
  Fe  Fe89  1  0.12442021  0.87578970  0.37623873  1
  Co  Co90  1  0.50373565  -0.00328418  0.50320780  1
  Co  Co91  1  0.24870858  0.24924346  0.49475380  1
  Co  Co92  1  0.12593838  0.87938005  0.87951631  1
  Co  Co93  1  0.12456981  0.37024386  0.12649120  1
  Co  Co94  1  0.50109227  0.00301324  0.24814996  1
  Co  Co95  1  0.00331831  0.50092394  0.00021348  1
  Co  Co96  1  -0.00088667  0.49804290  0.25153737  1
  Co  Co97  1  0.87421516  0.62624020  0.62423913  1
  Co  Co98  1  0.74765189  0.25205245  0.75015045  1
  Co  Co99  1  0.11956919  0.12538233  0.37446387  1
  Co  Co100  1  0.75235399  0.25192061  0.24893192  1
  Co  Co101  1  0.87623683  0.37176874  0.37779960  1
  Co  Co102  1  0.74766359  0.74700390  0.75284022  1
  Co  Co103  1  0.24942710  0.00036874  0.74938752  1
  Co  Co104  1  0.50075604  0.24854009  -0.00075070  1
  Co  Co105  1  0.74955511  0.75296192  0.49813956  1
  Co  Co106  1  0.00518055  0.75242362  0.75081402  1
  Co  Co107  1  0.62300675  0.37380273  0.12667783  1
  Co  Co108  1  0.37394825  0.37007545  0.12472102  1
  Co  Co109  1  0.12177218  0.62691309  0.12806925  1
  Co  Co110  1  0.50111169  0.25251889  0.49720817  1
  Co  Co111  1  0.37415288  0.37848026  0.37677604  1
  Co  Co112  1  0.49872232  0.50038249  0.74815949  1
  Co  Co113  1  0.62599285  0.12531537  0.37532606  1
  Co  Co114  1  0.75028681  0.00037321  0.75000183  1
  Co  Co115  1  0.37456130  0.12636214  0.12698608  1
  Co  Co116  1  0.00010062  0.24588471  0.00104781  1
  Co  Co117  1  0.12660739  0.87546546  0.61993257  1
  Co  Co118  1  0.37719439  0.87887749  0.37405291  1
  Co  Co119  1  0.74916527  0.49570058  0.50000365  1
  Co  Co120  1  0.24894578  0.00224669  0.25405330  1
  Co  Co121  1  0.00446631  0.24961681  0.74802851  1
  Co  Co122  1  0.37477728  0.12563652  0.87315973  1
  Co  Co123  1  0.38079268  0.11932381  0.38035224  1
  Co  Co124  1  0.24733532  0.00050193  0.49367420  1
  Co  Co125  1  0.37556108  0.62567391  0.12559755  1
  Co  Co126  1  0.12688793  0.62227802  0.87277397  1
  Co  Co127  1  0.87551122  0.87422592  0.12382652  1
