# generated using pymatgen
data_Fe45Co19
_symmetry_space_group_name_H-M   'P 1'
_cell_length_a   11.41534723
_cell_length_b   11.41497902
_cell_length_c   11.41565529
_cell_angle_alpha   90.01007005
_cell_angle_beta   90.00047121
_cell_angle_gamma   89.98822612
_symmetry_Int_Tables_number   1
_chemical_formula_structural   Fe45Co19
_chemical_formula_sum   'Fe90 Co38'
_cell_volume   1487.52774188
_cell_formula_units_Z   2
loop_
 _symmetry_equiv_pos_site_id
 _symmetry_equiv_pos_as_xyz
  1  'x, y, z'
loop_
 _atom_site_type_symbol
 _atom_site_label
 _atom_site_symmetry_multiplicity
 _atom_site_fract_x
 _atom_site_fract_y
 _atom_site_fract_z
 _atom_site_occupancy
  Fe  Fe0  1  0.37432379  0.12865678  0.37874965  1
  Fe  Fe1  1  0.75009038  0.49820170  0.24965059  1
  Fe  Fe2  1  0.62515058  0.12738975  0.87197980  1
  Fe  Fe3  1  0.75167785  0.74866263  0.74790108  1
  Fe  Fe4  1  0.62620244  0.37330621  0.87137745  1
  Fe  Fe5  1  0.24816004  -0.00198094  0.00020462  1
  Fe  Fe6  1  0.24902104  0.74836181  0.24905673  1
  Fe  Fe7  1  0.62443718  0.37502242  0.12553703  1
  Fe  Fe8  1  0.12455293  0.87531040  0.62470453  1
  Fe  Fe9  1  0.25111787  0.49642210  0.00055387  1
  Fe  Fe10  1  0.87397600  0.37024346  0.37256706  1
  Fe  Fe11  1  0.74969701  0.75222292  0.00431624  1
  Fe  Fe12  1  0.87555582  0.12560563  0.62282961  1
  Fe  Fe13  1  0.12607591  0.87471391  0.37406947  1
  Fe  Fe14  1  0.50102379  -0.00095226  -0.00022156  1
  Fe  Fe15  1  0.12596424  0.37488787  0.87393501  1
  Fe  Fe16  1  0.25134869  0.25299644  0.00019524  1
  Fe  Fe17  1  0.12574798  0.12729003  0.12784293  1
  Fe  Fe18  1  0.75172894  0.00199061  0.75062314  1
  Fe  Fe19  1  0.62553440  0.87477726  0.87435725  1
  Fe  Fe20  1  0.49941884  0.25225084  -0.00196889  1
  Fe  Fe21  1  0.87624355  0.62441826  0.37464318  1
  Fe  Fe22  1  0.75182284  0.24939051  0.00278433  1
  Fe  Fe23  1  0.75177573  0.00315078  0.25323491  1
  Fe  Fe24  1  0.49797665  0.24918929  0.24929870  1
  Fe  Fe25  1  0.87731834  0.62186379  0.62126500  1
  Fe  Fe26  1  0.50032276  0.49790591  -0.00236560  1
  Fe  Fe27  1  0.50125911  0.74861448  0.74877182  1
  Fe  Fe28  1  0.49524654  0.25128623  0.50522743  1
  Fe  Fe29  1  0.00010516  0.00218792  0.49610724  1
  Fe  Fe30  1  0.49897394  0.50060601  0.25005174  1
  Fe  Fe31  1  0.00242947  0.74932872  0.49746737  1
  Fe  Fe32  1  0.25281210  0.00273868  0.25040934  1
  Fe  Fe33  1  0.62611985  0.62520854  0.87524910  1
  Fe  Fe34  1  -0.00253688  0.25015034  0.00305818  1
  Fe  Fe35  1  0.37363564  0.62434979  0.37622490  1
  Fe  Fe36  1  0.62459735  0.12364049  0.12679237  1
  Fe  Fe37  1  0.75025494  0.75102167  0.24867554  1
  Fe  Fe38  1  0.37496926  0.62208988  0.62465842  1
  Fe  Fe39  1  0.37639443  0.87298925  0.37346062  1
  Fe  Fe40  1  0.00124659  0.49916711  0.24880537  1
  Fe  Fe41  1  0.00204729  0.75274668  0.00455003  1
  Fe  Fe42  1  0.62615383  0.62358705  0.12472273  1
  Fe  Fe43  1  0.12783069  0.37020661  0.37074679  1
  Fe  Fe44  1  0.37437351  0.62374282  0.12350816  1
  Fe  Fe45  1  -0.00086222  0.24966794  0.75062630  1
  Fe  Fe46  1  0.24748779  0.74792944  0.74873156  1
  Fe  Fe47  1  0.25065717  -0.00067784  0.49872649  1
  Fe  Fe48  1  0.50026786  0.75009313  0.49962264  1
  Fe  Fe49  1  0.75053941  0.00069599  0.00077412  1
  Fe  Fe50  1  0.00161023  0.74841984  0.24815156  1
  Fe  Fe51  1  0.00320564  0.25033776  0.49778005  1
  Fe  Fe52  1  0.62165996  0.12324010  0.62588290  1
  Fe  Fe53  1  0.74887120  0.75043426  0.49871883  1
  Fe  Fe54  1  0.62382711  0.87697454  0.62521230  1
  Fe  Fe55  1  0.37711198  0.87534485  0.12665352  1
  Fe  Fe56  1  0.24839082  0.49692131  0.49819382  1
  Fe  Fe57  1  0.74905112  0.00131323  0.49575208  1
  Fe  Fe58  1  0.62428294  0.37590473  0.62808623  1
  Fe  Fe59  1  0.50186002  0.75154633  0.00348780  1
  Fe  Fe60  1  0.12617658  0.37569567  0.62792054  1
  Fe  Fe61  1  0.75066761  0.49843120  0.49869307  1
  Fe  Fe62  1  0.12259499  0.62096282  0.62204949  1
  Fe  Fe63  1  0.87671459  0.87619517  0.87595464  1
  Fe  Fe64  1  0.74770204  0.24960020  0.50099644  1
  Fe  Fe65  1  0.62052195  0.87641856  0.37107481  1
  Fe  Fe66  1  0.87685281  0.37560631  0.62466041  1
  Fe  Fe67  1  0.00003381  0.74853743  0.74964196  1
  Fe  Fe68  1  0.12796156  0.12621681  0.62309927  1
  Fe  Fe69  1  0.24712471  0.75334453  0.00207612  1
  Fe  Fe70  1  0.62283873  0.37231280  0.37470557  1
  Fe  Fe71  1  0.00104368  -0.00039669  0.00177276  1
  Fe  Fe72  1  0.37483482  0.62481496  0.87554809  1
  Fe  Fe73  1  -0.00222650  0.00353963  0.25382128  1
  Fe  Fe74  1  0.87499579  0.62469622  0.87825290  1
  Fe  Fe75  1  0.25079468  0.49718988  0.24829592  1
  Fe  Fe76  1  0.49974176  0.49836782  0.50106725  1
  Fe  Fe77  1  0.12407135  0.62470450  0.87805304  1
  Fe  Fe78  1  0.87267596  0.37401944  0.87458695  1
  Fe  Fe79  1  0.62460850  0.62424847  0.37575516  1
  Fe  Fe80  1  0.24888509  0.00076535  0.75196297  1
  Fe  Fe81  1  -0.00163479  0.49799149  0.00303400  1
  Fe  Fe82  1  0.37519519  0.12604117  0.87387591  1
  Fe  Fe83  1  0.87528304  0.87571349  0.62199523  1
  Fe  Fe84  1  0.37438211  0.87399402  0.87411367  1
  Fe  Fe85  1  0.12416209  0.12601795  0.87608719  1
  Fe  Fe86  1  0.37482752  0.12687190  0.12202284  1
  Fe  Fe87  1  0.75091968  0.50141132  0.74934634  1
  Fe  Fe88  1  0.37602729  0.87697292  0.62619276  1
  Fe  Fe89  1  -0.00026354  0.00157173  0.74995650  1
  Co  Co90  1  0.37664551  0.37497019  0.37464602  1
  Co  Co91  1  0.24991653  0.75035152  0.50124236  1
  Co  Co92  1  0.25175810  0.25290284  0.50202378  1
  Co  Co93  1  0.74779097  0.24912037  0.24795100  1
  Co  Co94  1  0.12654863  0.62249256  0.12331884  1
  Co  Co95  1  0.12698384  0.62433668  0.37491874  1
  Co  Co96  1  0.37742303  0.37513804  0.12459710  1
  Co  Co97  1  0.87537081  0.12421486  0.12635249  1
  Co  Co98  1  0.25466985  0.25018891  0.24826495  1
  Co  Co99  1  0.24693526  0.50373061  0.75223762  1
  Co  Co100  1  0.49611971  0.24974687  0.74767641  1
  Co  Co101  1  0.87618667  0.12535609  0.87585522  1
  Co  Co102  1  0.49605065  0.00512133  0.25042314  1
  Co  Co103  1  0.87385617  0.37494798  0.12720244  1
  Co  Co104  1  0.75222134  0.24811283  0.74768317  1
  Co  Co105  1  0.50235453  0.50113847  0.75135570  1
  Co  Co106  1  0.37124741  0.37987220  0.63060694  1
  Co  Co107  1  0.62577194  0.62406431  0.62287583  1
  Co  Co108  1  0.12393380  0.87513217  0.87301425  1
  Co  Co109  1  0.87445074  0.62408154  0.12486899  1
  Co  Co110  1  0.87612978  0.87295748  0.37542073  1
  Co  Co111  1  0.87553668  0.87715099  0.12616781  1
  Co  Co112  1  0.49950579  0.74607201  0.24840411  1
  Co  Co113  1  0.37359208  0.12107992  0.62534001  1
  Co  Co114  1  0.25073817  0.24763088  0.75010821  1
  Co  Co115  1  0.12510483  0.87858175  0.12963870  1
  Co  Co116  1  0.00153657  0.49548938  0.49416288  1
  Co  Co117  1  0.37397954  0.37610181  0.87036204  1
  Co  Co118  1  0.62237858  0.12867844  0.37575150  1
  Co  Co119  1  -0.00117155  0.49970680  0.75295528  1
  Co  Co120  1  0.62381735  0.87881333  0.12939748  1
  Co  Co121  1  0.49985257  0.00050258  0.75333961  1
  Co  Co122  1  0.12850567  0.12750576  0.37422602  1
  Co  Co123  1  0.87353852  0.13085120  0.37705352  1
  Co  Co124  1  0.12566124  0.37230968  0.12549940  1
  Co  Co125  1  0.74911497  0.49801687  0.00039896  1
  Co  Co126  1  0.49891546  0.00004266  0.49717596  1
  Co  Co127  1  -0.00062426  0.24852499  0.24886100  1
