# generated using pymatgen
data_Fe45Co19
_symmetry_space_group_name_H-M   'P 1'
_cell_length_a   11.41665813
_cell_length_b   11.41460514
_cell_length_c   11.41452960
_cell_angle_alpha   90.00518062
_cell_angle_beta   90.00174632
_cell_angle_gamma   90.00267884
_symmetry_Int_Tables_number   1
_chemical_formula_structural   Fe45Co19
_chemical_formula_sum   'Fe90 Co38'
_cell_volume   1487.50318811
_cell_formula_units_Z   2
loop_
 _symmetry_equiv_pos_site_id
 _symmetry_equiv_pos_as_xyz
  1  'x, y, z'
loop_
 _atom_site_type_symbol
 _atom_site_label
 _atom_site_symmetry_multiplicity
 _atom_site_fract_x
 _atom_site_fract_y
 _atom_site_fract_z
 _atom_site_occupancy
  Fe  Fe0  1  0.24825155  0.25063080  0.50218929  1
  Fe  Fe1  1  0.74629639  -0.00042304  0.50139525  1
  Fe  Fe2  1  0.00126717  0.24915967  0.25120624  1
  Fe  Fe3  1  0.62328993  0.12539156  0.12497314  1
  Fe  Fe4  1  0.49608281  0.50056672  0.25217203  1
  Fe  Fe5  1  0.12842439  0.62404827  0.12233908  1
  Fe  Fe6  1  0.74895344  -0.00227721  0.00456986  1
  Fe  Fe7  1  0.49870539  0.75081009  0.00037733  1
  Fe  Fe8  1  0.37196500  0.62295989  0.12109826  1
  Fe  Fe9  1  0.74962745  0.24842101  0.75108960  1
  Fe  Fe10  1  0.37729228  0.37486531  0.62652601  1
  Fe  Fe11  1  0.50025687  0.49999806  0.49765954  1
  Fe  Fe12  1  0.12341439  0.12345731  0.62580740  1
  Fe  Fe13  1  0.37495376  0.87594915  0.87275553  1
  Fe  Fe14  1  0.24867990  0.00106964  0.25141359  1
  Fe  Fe15  1  0.12348766  0.62513816  0.62601348  1
  Fe  Fe16  1  0.87330189  0.62448747  0.12208146  1
  Fe  Fe17  1  0.37618568  0.62410375  0.62584236  1
  Fe  Fe18  1  0.62434908  0.37404234  0.62557528  1
  Fe  Fe19  1  0.75192495  0.25032949  0.00045877  1
  Fe  Fe20  1  0.12763052  0.12684384  0.37489512  1
  Fe  Fe21  1  0.49544946  0.25030877  0.24899532  1
  Fe  Fe22  1  0.00025641  0.00243877  0.75312672  1
  Fe  Fe23  1  0.62494258  0.87583634  0.87599046  1
  Fe  Fe24  1  0.87651745  0.37497987  0.12345947  1
  Fe  Fe25  1  0.75065098  0.75063707  0.75126934  1
  Fe  Fe26  1  0.87344967  0.12217050  0.37473473  1
  Fe  Fe27  1  0.37548554  0.87831325  0.12501691  1
  Fe  Fe28  1  0.12775752  0.36887417  0.87574430  1
  Fe  Fe29  1  0.62638699  0.12677705  0.37524031  1
  Fe  Fe30  1  0.75123957  0.25064656  0.25050231  1
  Fe  Fe31  1  0.12342872  0.87771043  0.12463153  1
  Fe  Fe32  1  0.74984002  0.49746452  0.24922336  1
  Fe  Fe33  1  -0.00044756  0.75307906  0.25077352  1
  Fe  Fe34  1  0.49715291  0.00362541  -0.00186958  1
  Fe  Fe35  1  0.50151819  0.00022223  0.25246134  1
  Fe  Fe36  1  0.87743440  0.12043397  0.12638410  1
  Fe  Fe37  1  0.75012392  0.75129448  0.50107186  1
  Fe  Fe38  1  0.37363279  0.12485374  0.37736488  1
  Fe  Fe39  1  0.62520674  0.62584811  0.37322853  1
  Fe  Fe40  1  0.00072946  0.75213458  0.49813320  1
  Fe  Fe41  1  0.37266251  0.87663008  0.37770649  1
  Fe  Fe42  1  0.87390673  0.62593860  0.37357656  1
  Fe  Fe43  1  0.37696471  0.12364887  0.62502455  1
  Fe  Fe44  1  0.74704963  0.00147853  0.74845435  1
  Fe  Fe45  1  0.12697450  0.62609640  0.37462328  1
  Fe  Fe46  1  0.50191100  0.25033377  0.50031005  1
  Fe  Fe47  1  0.24981805  0.49901974  0.49826430  1
  Fe  Fe48  1  0.49711041  0.74995606  0.24957604  1
  Fe  Fe49  1  0.25192004  0.49688098  0.25335757  1
  Fe  Fe50  1  0.87734288  0.37400565  0.62322684  1
  Fe  Fe51  1  0.87497764  0.62405300  0.62457438  1
  Fe  Fe52  1  0.62361320  0.37217991  0.87585011  1
  Fe  Fe53  1  -0.00122469  0.24722106  0.75162297  1
  Fe  Fe54  1  0.24858628  -0.00014243  0.74690821  1
  Fe  Fe55  1  0.24951923  0.75338773  0.50416228  1
  Fe  Fe56  1  0.74993081  0.49785029  0.75213026  1
  Fe  Fe57  1  0.49318035  0.24572002  -0.00039538  1
  Fe  Fe58  1  0.62491818  0.62390295  0.62623735  1
  Fe  Fe59  1  0.25076374  0.00278314  -0.00138845  1
  Fe  Fe60  1  0.50002376  0.74956660  0.74934681  1
  Fe  Fe61  1  0.87923738  0.37465586  0.37681002  1
  Fe  Fe62  1  0.12534045  0.87524578  0.87410882  1
  Fe  Fe63  1  0.62195310  0.37408346  0.12489840  1
  Fe  Fe64  1  0.49759276  0.49948050  -0.00265799  1
  Fe  Fe65  1  0.87444397  0.87799379  0.87737874  1
  Fe  Fe66  1  0.00049764  0.50036552  0.75283859  1
  Fe  Fe67  1  0.12126061  0.37659277  0.62307110  1
  Fe  Fe68  1  0.74977292  0.49763019  0.49803803  1
  Fe  Fe69  1  0.62577451  0.62482969  0.12377711  1
  Fe  Fe70  1  0.25028613  0.74915161  0.75061839  1
  Fe  Fe71  1  0.75128659  0.75570347  0.24489420  1
  Fe  Fe72  1  0.37348853  0.37011062  0.87239930  1
  Fe  Fe73  1  0.00375755  -0.00250174  0.49718970  1
  Fe  Fe74  1  -0.00145464  0.74917292  0.75170375  1
  Fe  Fe75  1  0.62558715  0.87450491  0.37467272  1
  Fe  Fe76  1  0.87351279  0.62249582  0.87898884  1
  Fe  Fe77  1  0.87592988  0.87621153  0.62463230  1
  Fe  Fe78  1  0.62620300  0.62478534  0.87667673  1
  Fe  Fe79  1  0.25017973  0.50118912  0.75306297  1
  Fe  Fe80  1  0.49946862  0.75210930  0.50138063  1
  Fe  Fe81  1  0.50428612  0.00346234  0.74796065  1
  Fe  Fe82  1  0.25153138  0.75080195  0.24749146  1
  Fe  Fe83  1  0.00004576  0.75172378  0.00017327  1
  Fe  Fe84  1  -0.00108684  0.24567916  -0.00303232  1
  Fe  Fe85  1  0.12568532  0.12514803  0.12506117  1
  Fe  Fe86  1  0.12989562  0.37227338  0.12329305  1
  Fe  Fe87  1  0.00247067  0.49807654  -0.00083367  1
  Fe  Fe88  1  0.00184007  0.49993800  0.24994966  1
  Fe  Fe89  1  0.87410215  0.12517010  0.62334619  1
  Co  Co90  1  0.87081797  0.12273107  0.87575830  1
  Co  Co91  1  0.74835637  0.49635104  0.00050731  1
  Co  Co92  1  0.25063352  0.49848275  -0.00590017  1
  Co  Co93  1  0.62705487  0.12525582  0.87890466  1
  Co  Co94  1  0.37510113  0.37192602  0.37681031  1
  Co  Co95  1  0.50331562  0.24675661  0.75021614  1
  Co  Co96  1  0.37650102  0.87726583  0.62669125  1
  Co  Co97  1  0.25590406  0.24453747  0.00294369  1
  Co  Co98  1  0.88097123  0.88009329  0.12480918  1
  Co  Co99  1  0.75068276  0.25225224  0.49805974  1
  Co  Co100  1  0.12320933  0.37409425  0.37589305  1
  Co  Co101  1  0.00307119  -0.00065994  0.25506558  1
  Co  Co102  1  0.25010324  0.75390723  -0.00008873  1
  Co  Co103  1  0.87232642  0.87784799  0.37533365  1
  Co  Co104  1  0.24841909  0.25042492  0.74270684  1
  Co  Co105  1  0.12222473  0.87446717  0.62838178  1
  Co  Co106  1  0.50232586  -0.00076736  0.50040291  1
  Co  Co107  1  0.00118127  0.24632690  0.49963825  1
  Co  Co108  1  0.13046660  0.12828217  0.87340073  1
  Co  Co109  1  0.61925750  0.87585571  0.12446134  1
  Co  Co110  1  0.37316810  0.62774517  0.37738516  1
  Co  Co111  1  0.12972565  0.87268661  0.37427956  1
  Co  Co112  1  0.00353742  0.00362984  -0.00419484  1
  Co  Co113  1  -0.00045749  0.50386254  0.49810648  1
  Co  Co114  1  0.37286045  0.37780047  0.12397882  1
  Co  Co115  1  0.62601407  0.12808633  0.62241493  1
  Co  Co116  1  0.49888126  0.50010999  0.75227586  1
  Co  Co117  1  0.62511217  0.87315265  0.62597550  1
  Co  Co118  1  0.37166438  0.12550422  0.86741049  1
  Co  Co119  1  0.87628473  0.37449204  0.87508197  1
  Co  Co120  1  0.24773104  0.00026008  0.50264731  1
  Co  Co121  1  0.37481023  0.62788389  0.87614285  1
  Co  Co122  1  0.37477589  0.12094703  0.12940891  1
  Co  Co123  1  0.12432652  0.62701167  0.87725587  1
  Co  Co124  1  0.74712183  -0.00180267  0.24647307  1
  Co  Co125  1  0.62277698  0.37416945  0.37198937  1
  Co  Co126  1  0.25155825  0.25115726  0.25003286  1
  Co  Co127  1  0.75025061  0.75405642  0.00235841  1
