# generated using pymatgen
data_Fe45Co19
_symmetry_space_group_name_H-M   'P 1'
_cell_length_a   11.41618690
_cell_length_b   11.41637087
_cell_length_c   11.41527117
_cell_angle_alpha   89.99988187
_cell_angle_beta   89.99582566
_cell_angle_gamma   89.99146164
_symmetry_Int_Tables_number   1
_chemical_formula_structural   Fe45Co19
_chemical_formula_sum   'Fe90 Co38'
_cell_volume   1487.76852077
_cell_formula_units_Z   2
loop_
 _symmetry_equiv_pos_site_id
 _symmetry_equiv_pos_as_xyz
  1  'x, y, z'
loop_
 _atom_site_type_symbol
 _atom_site_label
 _atom_site_symmetry_multiplicity
 _atom_site_fract_x
 _atom_site_fract_y
 _atom_site_fract_z
 _atom_site_occupancy
  Fe  Fe0  1  0.12556542  0.62313522  0.62352651  1
  Fe  Fe1  1  0.37591679  0.37800221  0.12359542  1
  Fe  Fe2  1  0.24864711  0.74989007  0.49895275  1
  Fe  Fe3  1  0.62495006  0.62758314  0.87368886  1
  Fe  Fe4  1  0.74904442  0.74971367  0.25125889  1
  Fe  Fe5  1  0.12264933  0.87330973  0.37610774  1
  Fe  Fe6  1  0.49994688  0.25078037  0.75186347  1
  Fe  Fe7  1  0.50068293  0.24777533  0.24856756  1
  Fe  Fe8  1  0.12866857  0.37826297  0.12578999  1
  Fe  Fe9  1  0.37508195  0.62739899  0.87324713  1
  Fe  Fe10  1  0.37399558  0.12486854  0.62884177  1
  Fe  Fe11  1  0.37457972  0.87649829  0.12875818  1
  Fe  Fe12  1  0.87488950  0.12821989  0.62249183  1
  Fe  Fe13  1  0.75003202  0.50075082  0.00004942  1
  Fe  Fe14  1  0.62589391  0.87836051  0.12184749  1
  Fe  Fe15  1  0.75237271  0.24639146  0.00047446  1
  Fe  Fe16  1  0.87506349  0.87454340  0.87610950  1
  Fe  Fe17  1  0.87742533  0.87552219  0.62094049  1
  Fe  Fe18  1  0.50029978  0.24762316  0.49948473  1
  Fe  Fe19  1  0.00385305  0.25477730  0.25211244  1
  Fe  Fe20  1  0.50196106  0.50218330  0.25018546  1
  Fe  Fe21  1  0.87335925  0.62155603  0.62437945  1
  Fe  Fe22  1  0.25031722  -0.00101715  -0.00008671  1
  Fe  Fe23  1  -0.00175901  0.74833665  0.74879669  1
  Fe  Fe24  1  0.87677166  0.87502634  0.12538829  1
  Fe  Fe25  1  0.75051141  -0.00108931  0.75007934  1
  Fe  Fe26  1  0.87764794  0.87439164  0.37756251  1
  Fe  Fe27  1  -0.00098015  0.49469623  0.49703691  1
  Fe  Fe28  1  0.12502648  0.12451676  0.12667527  1
  Fe  Fe29  1  0.25198001  0.49738350  0.74986213  1
  Fe  Fe30  1  0.12430485  0.62442739  0.87452558  1
  Fe  Fe31  1  0.37229245  0.12325388  0.87346122  1
  Fe  Fe32  1  0.62400941  0.12285881  0.62452581  1
  Fe  Fe33  1  0.49906960  0.75287270  -0.00121216  1
  Fe  Fe34  1  0.62317995  0.37427857  0.87874592  1
  Fe  Fe35  1  0.74874290  0.49584633  0.49598476  1
  Fe  Fe36  1  0.49897800  0.50212048  0.74840107  1
  Fe  Fe37  1  0.25376034  0.49987137  0.49906045  1
  Fe  Fe38  1  0.25196270  0.25066184  0.00072049  1
  Fe  Fe39  1  -0.00201624  0.24833687  0.00191424  1
  Fe  Fe40  1  0.37545199  0.87366356  0.62612207  1
  Fe  Fe41  1  0.49892208  0.00084734  0.49849276  1
  Fe  Fe42  1  0.00020904  0.00086398  0.25348147  1
  Fe  Fe43  1  0.74926916  0.00014456  0.25155743  1
  Fe  Fe44  1  0.62308020  0.87428091  0.37576552  1
  Fe  Fe45  1  0.50374958  0.74766171  0.50504633  1
  Fe  Fe46  1  0.12391564  0.62345543  0.37240309  1
  Fe  Fe47  1  0.74439150  0.25053984  0.25201705  1
  Fe  Fe48  1  0.24816626  0.74927968  0.00220178  1
  Fe  Fe49  1  0.62454149  0.62569250  0.12563030  1
  Fe  Fe50  1  0.00024507  0.25172237  0.74766420  1
  Fe  Fe51  1  0.24813306  0.75098865  0.74816581  1
  Fe  Fe52  1  0.49909346  0.50241730  0.50109378  1
  Fe  Fe53  1  0.00040024  0.00082506  0.74794130  1
  Fe  Fe54  1  0.75018255  0.49792551  0.75233818  1
  Fe  Fe55  1  0.37488594  0.62491272  0.12566041  1
  Fe  Fe56  1  -0.00155150  0.50159900  0.00014517  1
  Fe  Fe57  1  0.74975011  0.00156710  0.49897511  1
  Fe  Fe58  1  0.37758965  0.62912596  0.37393333  1
  Fe  Fe59  1  -0.00116813  0.49865267  0.74963403  1
  Fe  Fe60  1  0.87426751  0.13023680  0.37577576  1
  Fe  Fe61  1  0.87477834  0.62229033  0.37238759  1
  Fe  Fe62  1  0.74849179  0.75171801  0.74735800  1
  Fe  Fe63  1  0.12357943  0.62389058  0.12817461  1
  Fe  Fe64  1  0.12188596  0.87409793  0.62178376  1
  Fe  Fe65  1  0.87297147  0.37493242  0.12817384  1
  Fe  Fe66  1  0.74822437  0.25068672  0.74891933  1
  Fe  Fe67  1  0.62288536  0.37585369  0.62361937  1
  Fe  Fe68  1  0.74904333  0.74900837  0.50078861  1
  Fe  Fe69  1  0.37320567  0.12373411  0.37111677  1
  Fe  Fe70  1  0.62567888  0.12217900  0.87831315  1
  Fe  Fe71  1  0.12800323  0.12936225  0.37624969  1
  Fe  Fe72  1  0.37668300  0.87343571  0.37269995  1
  Fe  Fe73  1  0.87582588  0.37343673  0.87584874  1
  Fe  Fe74  1  0.50082261  -0.00562747  0.75420915  1
  Fe  Fe75  1  -0.00472924  0.00402476  0.00013281  1
  Fe  Fe76  1  0.12758203  0.12823314  0.62416701  1
  Fe  Fe77  1  0.87677233  0.62403129  0.12744369  1
  Fe  Fe78  1  0.12480163  0.37473328  0.87719030  1
  Fe  Fe79  1  0.37474797  0.12108430  0.12699564  1
  Fe  Fe80  1  0.12873692  0.37359635  0.62219849  1
  Fe  Fe81  1  0.75268132  0.74864651  0.00019933  1
  Fe  Fe82  1  0.12210980  0.87476385  0.12620969  1
  Fe  Fe83  1  0.37652929  0.37668535  0.87831174  1
  Fe  Fe84  1  0.62311524  0.37512786  0.12307613  1
  Fe  Fe85  1  0.37519635  0.37332733  0.37380319  1
  Fe  Fe86  1  0.62396591  0.12113773  0.12244464  1
  Fe  Fe87  1  0.24986989  -0.00021061  0.50031644  1
  Fe  Fe88  1  0.12396535  0.87588130  0.87595436  1
  Fe  Fe89  1  0.12604299  0.12557436  0.87360995  1
  Co  Co90  1  0.50371007  0.75112781  0.74768483  1
  Co  Co91  1  0.87144493  0.37251046  0.37122084  1
  Co  Co92  1  0.49622685  -0.00265055  -0.00261809  1
  Co  Co93  1  0.25177222  0.25116641  0.24645321  1
  Co  Co94  1  0.50241660  0.75082614  0.24726639  1
  Co  Co95  1  0.50214798  0.50352172  -0.00078824  1
  Co  Co96  1  0.74582180  0.50070672  0.24960973  1
  Co  Co97  1  0.24798829  -0.00257124  0.74729903  1
  Co  Co98  1  0.62510388  0.12437155  0.37646414  1
  Co  Co99  1  0.87270579  0.37485743  0.62559944  1
  Co  Co100  1  0.49762614  0.24677158  0.00037188  1
  Co  Co101  1  0.24848006  0.74985082  0.25026375  1
  Co  Co102  1  0.62922411  0.87551204  0.87944070  1
  Co  Co103  1  0.50307418  -0.00013555  0.25070902  1
  Co  Co104  1  0.00120521  0.00455302  0.49914260  1
  Co  Co105  1  0.62898918  0.62101150  0.62511876  1
  Co  Co106  1  0.25472623  0.24860285  0.50099335  1
  Co  Co107  1  0.00015312  0.74799118  -0.00064712  1
  Co  Co108  1  0.87605195  0.12709179  0.87056460  1
  Co  Co109  1  0.87424069  0.62514285  0.87354134  1
  Co  Co110  1  0.25344895  0.50198746  0.25177300  1
  Co  Co111  1  0.24959969  0.50210247  -0.00084707  1
  Co  Co112  1  0.37108645  0.87154155  0.87299204  1
  Co  Co113  1  0.74697116  0.25223463  0.50088305  1
  Co  Co114  1  -0.00133584  0.74476150  0.49975488  1
  Co  Co115  1  -0.00015166  0.25479835  0.49919939  1
  Co  Co116  1  0.75715546  0.00450703  0.00123999  1
  Co  Co117  1  0.00054008  0.49588431  0.25162918  1
  Co  Co118  1  0.25159489  0.25410653  0.75140964  1
  Co  Co119  1  -0.00097749  0.75008301  0.25146180  1
  Co  Co120  1  0.62060642  0.37552875  0.37517264  1
  Co  Co121  1  0.13194584  0.37428681  0.37569508  1
  Co  Co122  1  0.24662878  -0.00215380  0.25210212  1
  Co  Co123  1  0.87596224  0.12785924  0.13317134  1
  Co  Co124  1  0.62391980  0.62618160  0.37531682  1
  Co  Co125  1  0.37710122  0.37396137  0.62383479  1
  Co  Co126  1  0.62480059  0.87876595  0.62234553  1
  Co  Co127  1  0.37232383  0.62734734  0.62571938  1
