# generated using pymatgen
data_Fe45Co19
_symmetry_space_group_name_H-M   'P 1'
_cell_length_a   11.41580523
_cell_length_b   11.41519417
_cell_length_c   11.41522395
_cell_angle_alpha   90.00574172
_cell_angle_beta   89.99291380
_cell_angle_gamma   89.99944742
_symmetry_Int_Tables_number   1
_chemical_formula_structural   Fe45Co19
_chemical_formula_sum   'Fe90 Co38'
_cell_volume   1487.55928904
_cell_formula_units_Z   2
loop_
 _symmetry_equiv_pos_site_id
 _symmetry_equiv_pos_as_xyz
  1  'x, y, z'
loop_
 _atom_site_type_symbol
 _atom_site_label
 _atom_site_symmetry_multiplicity
 _atom_site_fract_x
 _atom_site_fract_y
 _atom_site_fract_z
 _atom_site_occupancy
  Fe  Fe0  1  0.49757987  0.24928272  0.74848305  1
  Fe  Fe1  1  0.87861796  0.62793108  0.62404670  1
  Fe  Fe2  1  0.00125670  0.49709350  0.50095324  1
  Fe  Fe3  1  0.87638380  0.12151384  0.87477681  1
  Fe  Fe4  1  0.62768533  0.87237447  0.36813720  1
  Fe  Fe5  1  0.37606216  0.12498644  0.37410100  1
  Fe  Fe6  1  0.49899464  0.49856186  0.50014710  1
  Fe  Fe7  1  0.87582206  0.37350659  0.37352235  1
  Fe  Fe8  1  0.74972621  0.24770520  0.24994237  1
  Fe  Fe9  1  0.87219508  0.87587473  0.12887187  1
  Fe  Fe10  1  0.75064705  0.25038064  0.50011252  1
  Fe  Fe11  1  0.37284299  0.37718400  0.12514674  1
  Fe  Fe12  1  -0.00231645  -0.00306533  0.50288508  1
  Fe  Fe13  1  0.24827975  0.24788281  0.24976444  1
  Fe  Fe14  1  0.87984806  0.62783641  0.87769729  1
  Fe  Fe15  1  0.24829949  0.50203611  0.75216775  1
  Fe  Fe16  1  0.25194282  0.75140144  0.74977896  1
  Fe  Fe17  1  0.12261363  0.12111864  0.37609352  1
  Fe  Fe18  1  0.00096768  0.49812258  0.24935669  1
  Fe  Fe19  1  0.37437512  0.62737265  0.62248039  1
  Fe  Fe20  1  0.00457093  0.75508504  0.49752367  1
  Fe  Fe21  1  0.24467401  0.50060638  -0.00327885  1
  Fe  Fe22  1  0.62347871  0.12369221  0.62319569  1
  Fe  Fe23  1  0.75130955  -0.00158004  0.50123253  1
  Fe  Fe24  1  0.74969685  0.75065996  0.00046623  1
  Fe  Fe25  1  0.24768443  0.50203306  0.24944253  1
  Fe  Fe26  1  0.37433478  0.62668509  0.87711158  1
  Fe  Fe27  1  0.74882903  0.74844753  0.75136186  1
  Fe  Fe28  1  -0.00069979  -0.00309717  0.00194001  1
  Fe  Fe29  1  0.49877738  0.50188965  0.75008542  1
  Fe  Fe30  1  0.87479835  0.87555942  0.87419285  1
  Fe  Fe31  1  0.12220301  0.37202023  0.12229458  1
  Fe  Fe32  1  0.49841423  0.25288327  0.50119621  1
  Fe  Fe33  1  0.62720531  0.37639954  0.12623207  1
  Fe  Fe34  1  0.62565036  0.87211904  0.13222215  1
  Fe  Fe35  1  0.49665421  -0.00122534  0.74871644  1
  Fe  Fe36  1  0.75121129  0.50033608  0.50075858  1
  Fe  Fe37  1  0.75323148  0.49921326  -0.00095941  1
  Fe  Fe38  1  0.74766277  -0.00001503  0.00270954  1
  Fe  Fe39  1  0.24828095  0.75148372  0.00003214  1
  Fe  Fe40  1  0.13108487  0.88069435  0.62596714  1
  Fe  Fe41  1  0.25150032  0.00102037  -0.00000351  1
  Fe  Fe42  1  0.12828094  0.87664852  0.12788497  1
  Fe  Fe43  1  0.50041580  0.25029415  0.24897626  1
  Fe  Fe44  1  0.12179346  0.62618571  0.12225810  1
  Fe  Fe45  1  0.00160535  0.75430803  0.75009883  1
  Fe  Fe46  1  0.50175637  -0.00224563  0.00466832  1
  Fe  Fe47  1  0.75094144  0.50343977  0.75037649  1
  Fe  Fe48  1  0.62407065  0.87316235  0.62609426  1
  Fe  Fe49  1  0.75120627  -0.00062429  0.74691723  1
  Fe  Fe50  1  0.62544235  0.37548685  0.62593404  1
  Fe  Fe51  1  0.62363103  0.62685023  0.62363506  1
  Fe  Fe52  1  0.62329656  0.12403347  0.87622353  1
  Fe  Fe53  1  0.75100387  0.75042855  0.49836395  1
  Fe  Fe54  1  0.12514960  0.37463110  0.37525250  1
  Fe  Fe55  1  0.74921113  0.24771522  0.74983340  1
  Fe  Fe56  1  0.25141601  0.24121879  0.75051327  1
  Fe  Fe57  1  0.49843711  -0.00337714  0.49765540  1
  Fe  Fe58  1  0.00295293  0.50022244  0.75408572  1
  Fe  Fe59  1  0.87711482  0.12576931  0.12659306  1
  Fe  Fe60  1  0.24942239  0.24746946  0.50127032  1
  Fe  Fe61  1  0.37751742  0.12388399  0.12491257  1
  Fe  Fe62  1  0.49959041  0.50608711  0.24952624  1
  Fe  Fe63  1  0.37224951  0.37389091  0.87362150  1
  Fe  Fe64  1  0.00082286  0.75456990  0.25231763  1
  Fe  Fe65  1  0.12662334  0.37215050  0.62726722  1
  Fe  Fe66  1  0.12448553  0.62653890  0.62498258  1
  Fe  Fe67  1  0.50009338  0.50104335  0.00009817  1
  Fe  Fe68  1  0.49762897  0.75178133  0.49702892  1
  Fe  Fe69  1  0.50055664  0.25256169  0.00126834  1
  Fe  Fe70  1  0.37317965  0.37647101  0.37364176  1
  Fe  Fe71  1  0.50055882  0.74892229  0.00337080  1
  Fe  Fe72  1  0.25025536  0.74657489  0.25159832  1
  Fe  Fe73  1  0.75231116  0.25093038  0.00017447  1
  Fe  Fe74  1  0.24832005  0.50094607  0.50047454  1
  Fe  Fe75  1  0.12169695  0.12550687  0.12303630  1
  Fe  Fe76  1  0.87767240  0.12321000  0.37553875  1
  Fe  Fe77  1  0.36946123  0.87544181  0.37209113  1
  Fe  Fe78  1  0.25019232  0.24691677  -0.00194927  1
  Fe  Fe79  1  0.62392937  0.87417061  0.87397275  1
  Fe  Fe80  1  0.75032005  0.50449052  0.25082085  1
  Fe  Fe81  1  0.00218214  0.24539821  0.75099833  1
  Fe  Fe82  1  0.62517282  0.37669286  0.37402113  1
  Fe  Fe83  1  0.87910676  0.62636975  0.37704505  1
  Fe  Fe84  1  0.62591277  0.37592205  0.87399967  1
  Fe  Fe85  1  0.62361674  0.12388619  0.37455959  1
  Fe  Fe86  1  0.87677836  0.37257158  0.62732590  1
  Fe  Fe87  1  0.87940311  0.62525932  0.12182946  1
  Fe  Fe88  1  0.37632007  0.87511679  0.87642026  1
  Fe  Fe89  1  0.12551267  0.87955671  0.87226812  1
  Co  Co90  1  0.87237843  0.87697561  0.37317289  1
  Co  Co91  1  0.24625587  0.74888625  0.49887362  1
  Co  Co92  1  0.37306230  0.87504842  0.12676851  1
  Co  Co93  1  0.75461591  0.74467066  0.25075569  1
  Co  Co94  1  -0.00369199  0.25181469  -0.00235014  1
  Co  Co95  1  0.87538726  0.37466390  0.12806991  1
  Co  Co96  1  0.00176758  0.25085778  0.49965328  1
  Co  Co97  1  0.37241255  0.62342055  0.37786913  1
  Co  Co98  1  0.38022835  0.12369619  0.87964024  1
  Co  Co99  1  0.62331714  0.12621629  0.12437602  1
  Co  Co100  1  0.87532780  0.37432681  0.87036767  1
  Co  Co101  1  0.12998272  0.88027583  0.37442780  1
  Co  Co102  1  0.12443399  0.12053270  0.62444373  1
  Co  Co103  1  0.37760274  0.12287810  0.62124396  1
  Co  Co104  1  0.00092999  -0.00233569  0.24889867  1
  Co  Co105  1  0.25274315  0.00303684  0.49990798  1
  Co  Co106  1  0.49874877  0.74916822  0.75053328  1
  Co  Co107  1  0.37119762  0.37467766  0.62636213  1
  Co  Co108  1  0.12256767  0.62381664  0.37441418  1
  Co  Co109  1  0.12099868  0.12019855  0.87669936  1
  Co  Co110  1  0.25051146  0.00508065  0.24769909  1
  Co  Co111  1  0.25617556  0.00422065  0.75237377  1
  Co  Co112  1  0.62451704  0.62714153  0.37632617  1
  Co  Co113  1  0.00125428  0.75728215  0.00150332  1
  Co  Co114  1  0.00181191  0.24982758  0.25145352  1
  Co  Co115  1  0.87321481  0.87084538  0.62496705  1
  Co  Co116  1  0.37296456  0.87436545  0.62298772  1
  Co  Co117  1  0.49445931  0.74626221  0.24947237  1
  Co  Co118  1  0.37090135  0.62360693  0.12157395  1
  Co  Co119  1  0.49881550  -0.00051729  0.24986060  1
  Co  Co120  1  0.87509752  0.12740010  0.62390511  1
  Co  Co121  1  -0.00368923  -0.00146968  0.74635483  1
  Co  Co122  1  0.62493698  0.62498668  0.87707137  1
  Co  Co123  1  0.74936608  0.00437344  0.24966177  1
  Co  Co124  1  0.00169915  0.49559046  -0.00386434  1
  Co  Co125  1  0.12254674  0.63044531  0.87648234  1
  Co  Co126  1  0.62677060  0.62633193  0.12452990  1
  Co  Co127  1  0.12738393  0.36891022  0.87371319  1
