# generated using pymatgen
data_Fe45Co19
_symmetry_space_group_name_H-M   'P 1'
_cell_length_a   11.42315934
_cell_length_b   11.42328739
_cell_length_c   11.42366489
_cell_angle_alpha   90.00461632
_cell_angle_beta   89.99789849
_cell_angle_gamma   90.00848795
_symmetry_Int_Tables_number   1
_chemical_formula_structural   Fe45Co19
_chemical_formula_sum   'Fe90 Co38'
_cell_volume   1490.67437564
_cell_formula_units_Z   2
loop_
 _symmetry_equiv_pos_site_id
 _symmetry_equiv_pos_as_xyz
  1  'x, y, z'
loop_
 _atom_site_type_symbol
 _atom_site_label
 _atom_site_symmetry_multiplicity
 _atom_site_fract_x
 _atom_site_fract_y
 _atom_site_fract_z
 _atom_site_occupancy
  Fe  Fe0  1  0.37491993  0.87651608  0.87737754  1
  Fe  Fe1  1  0.49836555  0.24971571  0.75140941  1
  Fe  Fe2  1  0.75104848  0.25241290  0.75180792  1
  Fe  Fe3  1  0.50017377  0.25061564  0.25141096  1
  Fe  Fe4  1  0.25135109  0.75084563  0.25151248  1
  Fe  Fe5  1  0.12374457  0.12648772  0.62567197  1
  Fe  Fe6  1  0.12629383  0.87159490  0.62377386  1
  Fe  Fe7  1  0.62412166  0.37641808  0.12534341  1
  Fe  Fe8  1  0.87127775  0.62403538  0.37677128  1
  Fe  Fe9  1  0.62727680  0.12365914  0.37489269  1
  Fe  Fe10  1  0.25026660  0.00033655  0.25077530  1
  Fe  Fe11  1  0.87251886  0.12611441  0.37478551  1
  Fe  Fe12  1  -0.00000532  -0.00145598  0.75118949  1
  Fe  Fe13  1  0.49910514  0.24874550  -0.00192420  1
  Fe  Fe14  1  0.62304813  0.62171428  0.87279751  1
  Fe  Fe15  1  0.00033729  0.25166864  -0.00035160  1
  Fe  Fe16  1  0.24821584  0.50079901  0.00083067  1
  Fe  Fe17  1  0.62536665  0.87679120  0.87605701  1
  Fe  Fe18  1  0.37314779  0.12384681  0.12299461  1
  Fe  Fe19  1  0.12547197  0.62717058  0.62656882  1
  Fe  Fe20  1  0.12452266  0.37308500  0.37623394  1
  Fe  Fe21  1  0.74956236  0.25291934  0.49868560  1
  Fe  Fe22  1  0.24828209  0.74746372  -0.00021336  1
  Fe  Fe23  1  0.37512511  0.62530519  0.62528501  1
  Fe  Fe24  1  0.87518373  0.62512953  0.62410245  1
  Fe  Fe25  1  0.37542276  0.62405424  0.12643536  1
  Fe  Fe26  1  0.37504080  0.62354887  0.87428102  1
  Fe  Fe27  1  0.00316788  0.50075927  -0.00030352  1
  Fe  Fe28  1  0.62488230  0.37961583  0.37425672  1
  Fe  Fe29  1  0.74938232  0.50028042  0.00011314  1
  Fe  Fe30  1  0.62603131  0.12594997  0.62651205  1
  Fe  Fe31  1  0.00257610  0.74713902  -0.00093908  1
  Fe  Fe32  1  0.37433233  0.12673064  0.37648630  1
  Fe  Fe33  1  0.37501593  0.87572909  0.12375533  1
  Fe  Fe34  1  -0.00029463  0.50020756  0.49919558  1
  Fe  Fe35  1  0.25088388  0.50042869  0.49971860  1
  Fe  Fe36  1  0.74839566  0.74762994  -0.00089292  1
  Fe  Fe37  1  0.49938418  0.00004551  0.25008745  1
  Fe  Fe38  1  0.50052536  0.00211424  0.49992129  1
  Fe  Fe39  1  0.00134633  0.49827567  0.75070702  1
  Fe  Fe40  1  0.50036159  0.74692842  0.49761647  1
  Fe  Fe41  1  0.12834980  0.12931701  0.87430250  1
  Fe  Fe42  1  0.12520462  0.12635939  0.37563657  1
  Fe  Fe43  1  0.62251356  0.37695010  0.62549978  1
  Fe  Fe44  1  -0.00059495  0.25003208  0.25073484  1
  Fe  Fe45  1  0.12507750  0.37484152  0.12635859  1
  Fe  Fe46  1  0.24848949  0.24966116  0.50178689  1
  Fe  Fe47  1  -0.00074089  0.75009324  0.25257198  1
  Fe  Fe48  1  0.75256664  0.00061282  0.75259215  1
  Fe  Fe49  1  0.50041319  0.74937943  0.25276308  1
  Fe  Fe50  1  0.62600135  0.87690763  0.12316624  1
  Fe  Fe51  1  0.12451456  0.87352563  0.12582524  1
  Fe  Fe52  1  0.87406438  0.37442996  0.12531942  1
  Fe  Fe53  1  0.62384534  0.62180170  0.62456062  1
  Fe  Fe54  1  0.87619223  0.62536591  0.12512319  1
  Fe  Fe55  1  0.62595231  0.87638322  0.37685851  1
  Fe  Fe56  1  0.62468739  0.87666363  0.62463450  1
  Fe  Fe57  1  0.00256275  0.25453665  0.75043589  1
  Fe  Fe58  1  0.74954699  0.74888292  0.74936347  1
  Fe  Fe59  1  0.12733313  0.87493122  0.37794554  1
  Fe  Fe60  1  0.37283086  0.37426173  0.87471006  1
  Fe  Fe61  1  0.87577160  0.62383335  0.87388160  1
  Fe  Fe62  1  0.87432660  0.87474775  0.12253379  1
  Fe  Fe63  1  0.37607207  0.37486611  0.12636152  1
  Fe  Fe64  1  0.87546142  0.12739042  0.62640610  1
  Fe  Fe65  1  0.49824557  0.00142449  0.75153840  1
  Fe  Fe66  1  -0.00062656  -0.00081601  0.25112337  1
  Fe  Fe67  1  0.12579601  0.12546788  0.12467616  1
  Fe  Fe68  1  0.75015412  0.24924905  -0.00255432  1
  Fe  Fe69  1  0.62461229  0.37738006  0.87355077  1
  Fe  Fe70  1  0.87318631  0.12497828  0.12578524  1
  Fe  Fe71  1  0.37726331  0.37423664  0.62129601  1
  Fe  Fe72  1  0.74875358  0.74933226  0.25052214  1
  Fe  Fe73  1  0.25035089  -0.00028838  0.74909873  1
  Fe  Fe74  1  0.37466121  0.87483148  0.62134671  1
  Fe  Fe75  1  0.12532372  0.87109268  0.87267896  1
  Fe  Fe76  1  0.24929622  0.49744734  0.74817720  1
  Fe  Fe77  1  0.62688632  0.12414606  0.12498651  1
  Fe  Fe78  1  0.00053324  0.00016141  -0.00264930  1
  Fe  Fe79  1  0.12627813  0.62532226  0.37415112  1
  Fe  Fe80  1  -0.00123508  0.50007082  0.25061356  1
  Fe  Fe81  1  0.87466909  0.87372093  0.62387729  1
  Fe  Fe82  1  0.50037268  0.74847176  -0.00031396  1
  Fe  Fe83  1  0.87233675  0.87472425  0.37793125  1
  Fe  Fe84  1  0.37597589  0.12631918  0.62434842  1
  Fe  Fe85  1  0.25133914  0.49712644  0.25136434  1
  Fe  Fe86  1  -0.00022609  0.00083151  0.50059462  1
  Fe  Fe87  1  0.87682011  0.37498095  0.62412644  1
  Fe  Fe88  1  0.62263389  0.62174073  0.12702893  1
  Fe  Fe89  1  0.49916941  0.75049342  0.75016155  1
  Co  Co90  1  0.37507192  0.87653808  0.37733181  1
  Co  Co91  1  0.50359161  0.24970107  0.49875784  1
  Co  Co92  1  0.49803366  0.50242173  0.49749540  1
  Co  Co93  1  0.00046747  0.74912021  0.49892258  1
  Co  Co94  1  0.49878206  0.49872936  -0.00060310  1
  Co  Co95  1  0.87461595  0.87194854  0.87670539  1
  Co  Co96  1  0.75211773  0.49948331  0.24772044  1
  Co  Co97  1  0.37411685  0.37172306  0.37779535  1
  Co  Co98  1  0.87535933  0.37681183  0.87618128  1
  Co  Co99  1  0.25141565  0.74774568  0.49945808  1
  Co  Co100  1  0.75114162  0.49717846  0.50267466  1
  Co  Co101  1  0.49709228  0.49939537  0.25267435  1
  Co  Co102  1  0.12575768  0.62507994  0.87008406  1
  Co  Co103  1  0.25079440  0.25259224  0.74530960  1
  Co  Co104  1  0.75214384  0.00313449  -0.00281953  1
  Co  Co105  1  0.75062537  -0.00187690  0.24956846  1
  Co  Co106  1  -0.00288321  0.74985603  0.74879355  1
  Co  Co107  1  0.25029295  0.24949825  0.24955840  1
  Co  Co108  1  0.74809700  0.25220830  0.25143850  1
  Co  Co109  1  0.50075438  0.00267507  -0.00006390  1
  Co  Co110  1  0.75167602  0.49960533  0.74877769  1
  Co  Co111  1  0.49704567  0.49904338  0.74934208  1
  Co  Co112  1  0.87865105  0.12818271  0.87277159  1
  Co  Co113  1  0.25117652  0.25226464  0.00292019  1
  Co  Co114  1  0.24915308  0.00283673  0.50176290  1
  Co  Co115  1  0.25406882  0.75092812  0.74980828  1
  Co  Co116  1  0.62426437  0.12501063  0.87295864  1
  Co  Co117  1  0.12726627  0.37385738  0.87634056  1
  Co  Co118  1  0.62781150  0.62096846  0.37456022  1
  Co  Co119  1  0.12558223  0.62480476  0.12960345  1
  Co  Co120  1  0.37100341  0.12517737  0.87549854  1
  Co  Co121  1  0.75080532  0.00198025  0.50237641  1
  Co  Co122  1  0.87642058  0.37527551  0.37423097  1
  Co  Co123  1  0.12398421  0.37605510  0.62088393  1
  Co  Co124  1  -0.00130454  0.24894654  0.49949124  1
  Co  Co125  1  0.74708818  0.74890307  0.50191366  1
  Co  Co126  1  0.24628811  -0.00161674  -0.00094392  1
  Co  Co127  1  0.37344219  0.62422017  0.37314899  1
