# generated using pymatgen
data_Fe45Co19
_symmetry_space_group_name_H-M   'P 1'
_cell_length_a   11.41463009
_cell_length_b   11.41460815
_cell_length_c   11.41478679
_cell_angle_alpha   90.01334979
_cell_angle_beta   90.01056317
_cell_angle_gamma   89.99424291
_symmetry_Int_Tables_number   1
_chemical_formula_structural   Fe45Co19
_chemical_formula_sum   'Fe90 Co38'
_cell_volume   1487.27278771
_cell_formula_units_Z   2
loop_
 _symmetry_equiv_pos_site_id
 _symmetry_equiv_pos_as_xyz
  1  'x, y, z'
loop_
 _atom_site_type_symbol
 _atom_site_label
 _atom_site_symmetry_multiplicity
 _atom_site_fract_x
 _atom_site_fract_y
 _atom_site_fract_z
 _atom_site_occupancy
  Fe  Fe0  1  0.62839201  0.37677422  0.62270099  1
  Fe  Fe1  1  0.37417777  0.37396037  0.12719165  1
  Fe  Fe2  1  0.75024087  0.75027162  0.49783755  1
  Fe  Fe3  1  0.50020729  0.49894482  -0.00012359  1
  Fe  Fe4  1  0.37529622  0.62088291  0.62391594  1
  Fe  Fe5  1  0.24926411  0.00076343  0.74969898  1
  Fe  Fe6  1  0.75198544  0.49803546  0.25356016  1
  Fe  Fe7  1  0.00448827  -0.00112648  0.00311407  1
  Fe  Fe8  1  0.62500911  0.87400019  0.87617173  1
  Fe  Fe9  1  0.25314805  0.75112406  0.00024786  1
  Fe  Fe10  1  0.75116846  0.25211803  0.00083037  1
  Fe  Fe11  1  0.87522478  0.87712522  0.37195641  1
  Fe  Fe12  1  0.50172765  0.24937454  0.74752635  1
  Fe  Fe13  1  0.49816651  0.00081461  -0.00192520  1
  Fe  Fe14  1  0.62552983  0.12934132  0.37518072  1
  Fe  Fe15  1  0.37553466  0.62132840  0.12825486  1
  Fe  Fe16  1  0.12417564  0.37350921  0.12304855  1
  Fe  Fe17  1  0.49791972  0.00446499  0.49830959  1
  Fe  Fe18  1  0.00019572  0.00126682  0.74970584  1
  Fe  Fe19  1  0.24774673  0.00374895  0.24915753  1
  Fe  Fe20  1  0.87626727  0.87758385  0.12734315  1
  Fe  Fe21  1  0.12291232  0.12857843  0.62565605  1
  Fe  Fe22  1  -0.00005431  0.00181607  0.49950839  1
  Fe  Fe23  1  0.87575448  0.87500190  0.87534804  1
  Fe  Fe24  1  0.00037406  0.25133449  0.24940272  1
  Fe  Fe25  1  0.62492855  0.87639388  0.62407390  1
  Fe  Fe26  1  0.74952295  0.75037487  0.24908344  1
  Fe  Fe27  1  0.25227330  0.74969469  0.49981532  1
  Fe  Fe28  1  0.11830205  0.37325295  0.62580944  1
  Fe  Fe29  1  0.37637949  0.87588018  0.12924813  1
  Fe  Fe30  1  0.74860970  -0.00070952  0.00045689  1
  Fe  Fe31  1  0.12642470  0.87583847  0.37445532  1
  Fe  Fe32  1  0.12623013  0.87208510  0.87538120  1
  Fe  Fe33  1  0.62420404  0.62420601  0.62114542  1
  Fe  Fe34  1  0.25023307  0.25329834  0.75000621  1
  Fe  Fe35  1  0.74779621  0.50181154  0.74976109  1
  Fe  Fe36  1  0.50143480  0.00125276  0.75176185  1
  Fe  Fe37  1  0.12476937  0.12894345  0.37644941  1
  Fe  Fe38  1  -0.00511585  0.49822705  0.49572206  1
  Fe  Fe39  1  0.49722320  0.74883068  0.00006727  1
  Fe  Fe40  1  0.87485023  0.62369457  0.87785981  1
  Fe  Fe41  1  0.00088597  0.74841599  0.00252186  1
  Fe  Fe42  1  0.87487577  0.62294121  0.62297872  1
  Fe  Fe43  1  0.75001106  0.74956063  0.74927389  1
  Fe  Fe44  1  0.12576794  0.87523701  0.62329992  1
  Fe  Fe45  1  0.00521268  0.50375954  0.75367402  1
  Fe  Fe46  1  0.49902149  0.25172092  0.00055883  1
  Fe  Fe47  1  -0.00136786  0.75072762  0.49979278  1
  Fe  Fe48  1  0.87388957  0.12275675  0.87636261  1
  Fe  Fe49  1  0.12581747  0.12864716  0.87645896  1
  Fe  Fe50  1  0.24865586  0.00028219  0.00203558  1
  Fe  Fe51  1  0.00161979  0.74866968  0.24932630  1
  Fe  Fe52  1  0.62427399  0.62294010  0.37404171  1
  Fe  Fe53  1  0.87506711  0.12474474  0.37385950  1
  Fe  Fe54  1  0.62659555  0.37691201  0.12643334  1
  Fe  Fe55  1  0.24904349  0.74662707  0.74672016  1
  Fe  Fe56  1  0.75006795  0.74881520  0.00305615  1
  Fe  Fe57  1  0.87587639  0.37861049  0.87498632  1
  Fe  Fe58  1  0.62423327  0.62456064  0.87601511  1
  Fe  Fe59  1  0.49679437  0.75091821  0.49546617  1
  Fe  Fe60  1  0.37531045  0.87741070  0.62473887  1
  Fe  Fe61  1  0.62408583  0.37413107  0.87479228  1
  Fe  Fe62  1  0.50022481  0.49496957  0.49485168  1
  Fe  Fe63  1  0.49838088  0.74942652  0.75031573  1
  Fe  Fe64  1  0.75048334  0.24978319  0.24676030  1
  Fe  Fe65  1  0.37666107  0.37475594  0.62579118  1
  Fe  Fe66  1  0.62279923  0.62264252  0.12813474  1
  Fe  Fe67  1  0.25046086  0.49611675  0.25414593  1
  Fe  Fe68  1  0.37388656  0.61994688  0.87119273  1
  Fe  Fe69  1  0.25073640  0.49560556  0.50000245  1
  Fe  Fe70  1  0.75379651  0.24912584  0.74948509  1
  Fe  Fe71  1  0.62066518  0.87670312  0.12779841  1
  Fe  Fe72  1  0.37494509  0.12740460  0.87419590  1
  Fe  Fe73  1  0.12478589  0.62423672  0.37695751  1
  Fe  Fe74  1  0.87651112  0.61874737  0.12560329  1
  Fe  Fe75  1  0.25153918  0.00431348  0.50061987  1
  Fe  Fe76  1  0.37337338  0.12914927  0.12630039  1
  Fe  Fe77  1  0.62368752  0.12391699  0.12410901  1
  Fe  Fe78  1  0.87244130  0.87874908  0.62475952  1
  Fe  Fe79  1  0.12703092  0.62293367  0.12483215  1
  Fe  Fe80  1  0.62201694  0.87738584  0.37138236  1
  Fe  Fe81  1  0.87692369  0.12375822  0.12548644  1
  Fe  Fe82  1  -0.00172710  0.25223378  -0.00032337  1
  Fe  Fe83  1  0.00171192  0.74795495  0.74814904  1
  Fe  Fe84  1  0.25299315  0.74882829  0.25303348  1
  Fe  Fe85  1  0.37432728  0.13475090  0.37492871  1
  Fe  Fe86  1  0.75567546  0.25283612  0.50283259  1
  Fe  Fe87  1  0.62959686  0.12299258  0.62497901  1
  Fe  Fe88  1  0.12395758  0.37123799  0.37778421  1
  Fe  Fe89  1  0.24877408  0.49536942  -0.00489855  1
  Co  Co90  1  0.12436932  0.13004135  0.12277963  1
  Co  Co91  1  0.49780023  0.00598052  0.25227922  1
  Co  Co92  1  0.37419097  0.62141857  0.37628263  1
  Co  Co93  1  0.74856361  -0.00033262  0.75341290  1
  Co  Co94  1  0.25226473  0.25286462  -0.00215228  1
  Co  Co95  1  0.37466737  0.12600988  0.62733120  1
  Co  Co96  1  0.12850504  0.62831875  0.87852465  1
  Co  Co97  1  0.74889429  -0.00122084  0.49597140  1
  Co  Co98  1  0.87388981  0.37172190  0.37192993  1
  Co  Co99  1  0.87260884  0.12019901  0.62413964  1
  Co  Co100  1  0.37312562  0.87598867  0.87332170  1
  Co  Co101  1  0.12396612  0.62300955  0.61871555  1
  Co  Co102  1  0.00397504  0.49918397  -0.00094614  1
  Co  Co103  1  0.50380846  0.49959997  0.74798607  1
  Co  Co104  1  0.50213297  0.24965081  0.50420797  1
  Co  Co105  1  0.37489835  0.36603363  0.37569383  1
  Co  Co106  1  0.74763631  0.49945559  -0.00093051  1
  Co  Co107  1  0.12749847  0.87198855  0.12732305  1
  Co  Co108  1  0.62519819  0.12813082  0.87620743  1
  Co  Co109  1  0.75291095  0.49928677  0.49734802  1
  Co  Co110  1  0.24866270  0.25138738  0.50561359  1
  Co  Co111  1  -0.00490895  0.24918458  0.50154918  1
  Co  Co112  1  0.37881204  0.37588982  0.87137532  1
  Co  Co113  1  0.24477990  0.49760675  0.74858632  1
  Co  Co114  1  0.74888030  0.00184718  0.24922848  1
  Co  Co115  1  0.87594539  0.62661124  0.37294013  1
  Co  Co116  1  0.50259675  0.25255784  0.24732531  1
  Co  Co117  1  0.00391701  0.00169122  0.24947177  1
  Co  Co118  1  0.62764616  0.37133560  0.37549932  1
  Co  Co119  1  0.87561275  0.37796478  0.12523569  1
  Co  Co120  1  -0.00545510  0.24656081  0.75040573  1
  Co  Co121  1  0.37305627  0.87890471  0.37379443  1
  Co  Co122  1  0.49744155  0.74791007  0.25248423  1
  Co  Co123  1  0.12222928  0.37004950  0.87338583  1
  Co  Co124  1  0.87789651  0.37999000  0.62877475  1
  Co  Co125  1  0.00293088  0.49756925  0.25181057  1
  Co  Co126  1  0.49774881  0.49533872  0.25387471  1
  Co  Co127  1  0.24598716  0.25189445  0.24890043  1
