# generated using pymatgen
data_Fe45Co19
_symmetry_space_group_name_H-M   'P 1'
_cell_length_a   11.41474662
_cell_length_b   11.41531922
_cell_length_c   11.41508996
_cell_angle_alpha   90.00459555
_cell_angle_beta   89.98896975
_cell_angle_gamma   90.00887977
_symmetry_Int_Tables_number   1
_chemical_formula_structural   Fe45Co19
_chemical_formula_sum   'Fe90 Co38'
_cell_volume   1487.42014827
_cell_formula_units_Z   2
loop_
 _symmetry_equiv_pos_site_id
 _symmetry_equiv_pos_as_xyz
  1  'x, y, z'
loop_
 _atom_site_type_symbol
 _atom_site_label
 _atom_site_symmetry_multiplicity
 _atom_site_fract_x
 _atom_site_fract_y
 _atom_site_fract_z
 _atom_site_occupancy
  Fe  Fe0  1  0.50043766  0.25038603  0.50144151  1
  Fe  Fe1  1  0.12646858  0.87657052  0.12543779  1
  Fe  Fe2  1  0.50028563  0.50212743  0.50097334  1
  Fe  Fe3  1  0.75069842  0.50046512  0.49874021  1
  Fe  Fe4  1  0.24889138  0.25127158  0.74844123  1
  Fe  Fe5  1  0.87623779  0.37567497  0.62587358  1
  Fe  Fe6  1  0.87430982  0.62202105  0.12588787  1
  Fe  Fe7  1  0.62810730  0.12133647  0.62612595  1
  Fe  Fe8  1  0.87658116  0.12815927  0.87638723  1
  Fe  Fe9  1  0.25078004  0.74921988  0.50093326  1
  Fe  Fe10  1  0.12441079  0.37536238  0.37580855  1
  Fe  Fe11  1  0.87371035  0.62418533  0.87582641  1
  Fe  Fe12  1  0.75077434  0.49868184  0.75242756  1
  Fe  Fe13  1  0.25157954  -0.00214020  0.25057578  1
  Fe  Fe14  1  0.74765324  0.75026339  0.24785953  1
  Fe  Fe15  1  0.37873222  0.62933111  0.37438879  1
  Fe  Fe16  1  0.50074607  0.00155350  -0.00343053  1
  Fe  Fe17  1  0.50148211  -0.00241071  0.50074601  1
  Fe  Fe18  1  0.12646160  0.62317527  0.62655026  1
  Fe  Fe19  1  0.87678743  0.12651593  0.12541746  1
  Fe  Fe20  1  0.37688943  0.37363513  0.12530708  1
  Fe  Fe21  1  0.12386534  0.12468409  0.12753632  1
  Fe  Fe22  1  -0.00355918  0.49723434  -0.00085189  1
  Fe  Fe23  1  -0.00240089  0.00018982  0.74925714  1
  Fe  Fe24  1  0.00168881  0.00076557  0.00067926  1
  Fe  Fe25  1  0.24933385  0.49830018  -0.00432475  1
  Fe  Fe26  1  0.75002682  -0.00103683  0.25103336  1
  Fe  Fe27  1  0.50132840  0.24911297  0.75072131  1
  Fe  Fe28  1  0.74877858  0.75106241  -0.00136035  1
  Fe  Fe29  1  0.62473004  0.87757812  0.12328797  1
  Fe  Fe30  1  0.24853748  0.74977575  0.00078920  1
  Fe  Fe31  1  0.74780476  0.75286455  0.50071225  1
  Fe  Fe32  1  0.37691932  0.37390031  0.37395845  1
  Fe  Fe33  1  0.62505215  0.37466025  0.87600476  1
  Fe  Fe34  1  0.37959912  0.87004688  0.37314164  1
  Fe  Fe35  1  0.12335551  0.87422618  0.87446338  1
  Fe  Fe36  1  0.75262369  0.25406133  0.00090086  1
  Fe  Fe37  1  0.37503717  0.12577038  0.12264609  1
  Fe  Fe38  1  0.11977019  0.37458367  0.87063249  1
  Fe  Fe39  1  0.12406458  0.87401233  0.62611159  1
  Fe  Fe40  1  0.24919660  0.25011884  0.25098876  1
  Fe  Fe41  1  0.00108382  0.74796729  0.00246034  1
  Fe  Fe42  1  -0.00234982  0.74714585  0.50205328  1
  Fe  Fe43  1  -0.00359081  0.50379786  0.50012330  1
  Fe  Fe44  1  -0.00265186  0.74788423  0.74880148  1
  Fe  Fe45  1  0.12402075  0.87385568  0.37389009  1
  Fe  Fe46  1  0.37536330  0.87386279  0.62599078  1
  Fe  Fe47  1  0.37546239  0.37871721  0.62864403  1
  Fe  Fe48  1  0.74939299  -0.00081728  -0.00526489  1
  Fe  Fe49  1  0.74926689  0.25098913  0.24976615  1
  Fe  Fe50  1  0.62282416  0.37528589  0.12523798  1
  Fe  Fe51  1  0.62623183  0.62131980  0.12243346  1
  Fe  Fe52  1  0.00073400  0.24854415  0.49960158  1
  Fe  Fe53  1  0.24741771  0.25144419  -0.00049715  1
  Fe  Fe54  1  0.62268187  0.37424394  0.37421839  1
  Fe  Fe55  1  0.49914190  0.49950009  -0.00341752  1
  Fe  Fe56  1  0.62483238  0.37609545  0.62504720  1
  Fe  Fe57  1  0.87416669  0.12482495  0.37495279  1
  Fe  Fe58  1  0.12350118  0.37769236  0.62648032  1
  Fe  Fe59  1  0.62635163  0.87937913  0.63042196  1
  Fe  Fe60  1  0.62497921  0.12714941  0.12262286  1
  Fe  Fe61  1  0.62601035  0.12582407  0.37702669  1
  Fe  Fe62  1  0.87568328  0.37510095  0.37317707  1
  Fe  Fe63  1  0.37411484  0.12784535  0.87638660  1
  Fe  Fe64  1  0.37347439  0.12694051  0.37739834  1
  Fe  Fe65  1  0.12382209  0.12626679  0.87408938  1
  Fe  Fe66  1  0.87510450  0.87287751  0.37474873  1
  Fe  Fe67  1  0.25071861  -0.00373079  0.49910442  1
  Fe  Fe68  1  0.25131054  -0.00046183  0.75143141  1
  Fe  Fe69  1  0.50059964  0.00057296  0.24930670  1
  Fe  Fe70  1  0.74934866  0.49961152  0.25035339  1
  Fe  Fe71  1  0.12156139  0.37653615  0.12798518  1
  Fe  Fe72  1  0.37333363  0.62489518  0.12480693  1
  Fe  Fe73  1  0.12517468  0.62527400  0.37386592  1
  Fe  Fe74  1  0.00132506  0.74809272  0.24733735  1
  Fe  Fe75  1  0.00035676  -0.00012285  0.49868192  1
  Fe  Fe76  1  0.37546064  0.87466716  0.87670448  1
  Fe  Fe77  1  0.62311777  0.62744724  0.37411962  1
  Fe  Fe78  1  0.25021589  0.74649969  0.75149658  1
  Fe  Fe79  1  0.25229812  0.50064353  0.50044908  1
  Fe  Fe80  1  0.87466135  0.87616227  0.12334406  1
  Fe  Fe81  1  0.12779679  0.12416001  0.62214323  1
  Fe  Fe82  1  0.75081830  0.24956433  0.74924797  1
  Fe  Fe83  1  0.25070153  0.50211292  0.25056408  1
  Fe  Fe84  1  0.49902532  0.74662454  0.75007378  1
  Fe  Fe85  1  0.62670092  0.62412848  0.62774688  1
  Fe  Fe86  1  0.87096909  0.12172683  0.62260384  1
  Fe  Fe87  1  0.75301773  0.75480218  0.75304706  1
  Fe  Fe88  1  0.37373922  0.12515094  0.62383634  1
  Fe  Fe89  1  0.50108558  0.74907410  0.00075479  1
  Co  Co90  1  0.87748278  0.37273704  0.87033432  1
  Co  Co91  1  0.37456440  0.62268508  0.62529540  1
  Co  Co92  1  0.37542848  0.87653390  0.12298617  1
  Co  Co93  1  0.49942537  0.50166780  0.24934176  1
  Co  Co94  1  0.25014244  0.25388288  0.50184708  1
  Co  Co95  1  0.00133747  0.24864192  0.25281203  1
  Co  Co96  1  0.12562075  0.62093968  0.12324194  1
  Co  Co97  1  0.37524626  0.37303198  0.87259734  1
  Co  Co98  1  0.24863251  0.74956362  0.24753178  1
  Co  Co99  1  0.37464744  0.62522295  0.87604055  1
  Co  Co100  1  0.74819495  -0.00418628  0.49681780  1
  Co  Co101  1  0.50359737  0.75037403  0.50556350  1
  Co  Co102  1  -0.00108896  -0.00097866  0.25017225  1
  Co  Co103  1  0.24799712  0.00079449  -0.00131749  1
  Co  Co104  1  0.24926243  0.50154913  0.75318270  1
  Co  Co105  1  0.49735879  0.00273565  0.75232884  1
  Co  Co106  1  0.86980724  0.62534979  0.62580341  1
  Co  Co107  1  0.50232761  0.74959052  0.24327268  1
  Co  Co108  1  0.62246362  0.87299785  0.37225739  1
  Co  Co109  1  0.62142165  0.87429449  0.87324968  1
  Co  Co110  1  -0.00238452  0.50488025  0.74925540  1
  Co  Co111  1  0.62791059  0.62514998  0.87527663  1
  Co  Co112  1  -0.00007266  0.50300279  0.25196473  1
  Co  Co113  1  0.12845854  0.12391506  0.37590526  1
  Co  Co114  1  0.00039945  0.25248221  0.00189341  1
  Co  Co115  1  0.12290324  0.62482651  0.87627850  1
  Co  Co116  1  0.50021619  0.24788331  0.24996894  1
  Co  Co117  1  0.87241355  0.62788106  0.37313960  1
  Co  Co118  1  0.50034502  0.25107275  -0.00119756  1
  Co  Co119  1  0.62684984  0.12734065  0.87428503  1
  Co  Co120  1  0.87734286  0.37503670  0.13049963  1
  Co  Co121  1  -0.00083146  0.24589797  0.74497624  1
  Co  Co122  1  0.88005052  0.87420511  0.87900076  1
  Co  Co123  1  0.75462092  -0.00195807  0.75637211  1
  Co  Co124  1  0.75322471  0.49569284  -0.00066310  1
  Co  Co125  1  0.75012779  0.25207189  0.50030365  1
  Co  Co126  1  0.87473889  0.87675107  0.62243206  1
  Co  Co127  1  0.50163270  0.50197512  0.75350461  1
