# generated using pymatgen
data_Fe45Co19
_symmetry_space_group_name_H-M   'P 1'
_cell_length_a   11.41546599
_cell_length_b   11.41620085
_cell_length_c   11.41587588
_cell_angle_alpha   89.99444597
_cell_angle_beta   90.00317356
_cell_angle_gamma   90.00297475
_symmetry_Int_Tables_number   1
_chemical_formula_structural   Fe45Co19
_chemical_formula_sum   'Fe90 Co38'
_cell_volume   1487.73123301
_cell_formula_units_Z   2
loop_
 _symmetry_equiv_pos_site_id
 _symmetry_equiv_pos_as_xyz
  1  'x, y, z'
loop_
 _atom_site_type_symbol
 _atom_site_label
 _atom_site_symmetry_multiplicity
 _atom_site_fract_x
 _atom_site_fract_y
 _atom_site_fract_z
 _atom_site_occupancy
  Fe  Fe0  1  -0.00030055  0.75199667  0.00134723  1
  Fe  Fe1  1  0.50431403  -0.00133207  0.24978319  1
  Fe  Fe2  1  0.25353512  0.24275939  0.75180800  1
  Fe  Fe3  1  0.37425299  0.62586589  0.37613928  1
  Fe  Fe4  1  0.62539709  0.62802478  0.37668211  1
  Fe  Fe5  1  0.12460186  0.12586836  0.62517618  1
  Fe  Fe6  1  0.37694340  0.62426149  0.12284064  1
  Fe  Fe7  1  0.62874439  0.37481337  0.12582569  1
  Fe  Fe8  1  0.87647571  0.62581896  0.37567555  1
  Fe  Fe9  1  0.37452988  0.37351248  0.87697082  1
  Fe  Fe10  1  0.62997503  0.87204249  0.12366459  1
  Fe  Fe11  1  0.62520114  0.37548221  0.87326880  1
  Fe  Fe12  1  0.50026479  0.49833626  0.50050401  1
  Fe  Fe13  1  0.50061579  0.50036361  0.24962431  1
  Fe  Fe14  1  0.87519509  0.37510976  0.87644766  1
  Fe  Fe15  1  0.87468428  0.12458024  0.37508299  1
  Fe  Fe16  1  0.24616652  0.50422352  0.25138296  1
  Fe  Fe17  1  0.37283927  0.37556343  0.12464294  1
  Fe  Fe18  1  0.86837063  0.87211160  0.37645044  1
  Fe  Fe19  1  0.87959280  0.62074828  0.62713790  1
  Fe  Fe20  1  0.24842569  0.00066452  0.25099733  1
  Fe  Fe21  1  0.63203347  0.12623776  0.12444593  1
  Fe  Fe22  1  0.87735064  0.62315812  0.87308661  1
  Fe  Fe23  1  0.87607953  0.87592444  0.87498146  1
  Fe  Fe24  1  0.00302972  0.49675135  -0.00025597  1
  Fe  Fe25  1  0.00048794  -0.00013175  0.74995170  1
  Fe  Fe26  1  0.24212603  0.49737720  0.49712056  1
  Fe  Fe27  1  0.62486408  0.62371059  0.62766228  1
  Fe  Fe28  1  0.87556702  0.12286279  0.62331352  1
  Fe  Fe29  1  0.12177626  0.62483223  0.62668226  1
  Fe  Fe30  1  0.37238250  0.87712159  0.62742868  1
  Fe  Fe31  1  0.24651567  0.00557839  -0.00264757  1
  Fe  Fe32  1  0.24769240  0.50168178  0.75224945  1
  Fe  Fe33  1  0.24855598  0.50038557  0.00020443  1
  Fe  Fe34  1  0.62200861  0.62784390  0.11967185  1
  Fe  Fe35  1  0.87755979  0.62308421  0.12426928  1
  Fe  Fe36  1  -0.00179264  0.25087514  0.74942903  1
  Fe  Fe37  1  0.50376562  -0.00308408  0.49944459  1
  Fe  Fe38  1  0.75087782  0.25138168  0.74910727  1
  Fe  Fe39  1  0.50101329  0.24981421  0.24959754  1
  Fe  Fe40  1  0.87594327  0.12645754  0.87830835  1
  Fe  Fe41  1  0.74740568  0.50237021  -0.00329427  1
  Fe  Fe42  1  0.24924536  0.75034585  0.50134766  1
  Fe  Fe43  1  0.75365237  0.74893840  0.74911394  1
  Fe  Fe44  1  0.49878742  0.25105290  0.50023087  1
  Fe  Fe45  1  0.62802721  0.12524362  0.37449470  1
  Fe  Fe46  1  0.75172636  -0.00009048  0.74978997  1
  Fe  Fe47  1  0.37208960  0.87745272  0.12459134  1
  Fe  Fe48  1  -0.00533245  0.25115521  0.24099216  1
  Fe  Fe49  1  -0.00196823  0.75111896  0.50152360  1
  Fe  Fe50  1  0.00096639  0.00278039  0.00243390  1
  Fe  Fe51  1  0.37553860  0.12384329  0.37646325  1
  Fe  Fe52  1  0.37484559  0.87422251  0.37373608  1
  Fe  Fe53  1  0.37161390  0.87762274  0.87392485  1
  Fe  Fe54  1  0.62564632  0.12611440  0.87593261  1
  Fe  Fe55  1  0.37811621  0.62398710  0.87778196  1
  Fe  Fe56  1  0.62578070  0.37512135  0.37555432  1
  Fe  Fe57  1  0.87159388  0.87615726  0.12395738  1
  Fe  Fe58  1  0.00403469  0.50077976  0.25016198  1
  Fe  Fe59  1  0.75066093  0.50049139  0.50151065  1
  Fe  Fe60  1  0.24760556  0.00055899  0.49931389  1
  Fe  Fe61  1  0.74818309  0.50295703  0.25037125  1
  Fe  Fe62  1  0.25040361  0.75004979  0.00104518  1
  Fe  Fe63  1  0.37349666  0.37553529  0.37456045  1
  Fe  Fe64  1  0.37316672  0.62283114  0.62378345  1
  Fe  Fe65  1  0.00043750  -0.00201733  0.49856663  1
  Fe  Fe66  1  0.62667804  0.87096336  0.87484023  1
  Fe  Fe67  1  0.87672831  0.37726792  0.37341107  1
  Fe  Fe68  1  0.50171644  0.75247290  0.50148203  1
  Fe  Fe69  1  0.12559448  0.87446780  0.62922631  1
  Fe  Fe70  1  0.50363154  -0.00171150  0.00073273  1
  Fe  Fe71  1  0.49900106  0.00051035  0.75023599  1
  Fe  Fe72  1  0.37580055  0.12394821  0.12358477  1
  Fe  Fe73  1  0.49817846  0.24971640  0.74826829  1
  Fe  Fe74  1  0.50014525  0.49892732  0.75019595  1
  Fe  Fe75  1  0.12181553  0.12783705  0.37202262  1
  Fe  Fe76  1  0.62518291  0.12502292  0.62513095  1
  Fe  Fe77  1  0.50109768  0.25156377  0.00160709  1
  Fe  Fe78  1  0.12298165  0.62783354  0.87571665  1
  Fe  Fe79  1  0.12549516  0.87045321  0.37101881  1
  Fe  Fe80  1  0.25074366  0.24834943  0.24925214  1
  Fe  Fe81  1  0.87652547  0.37926429  0.62636213  1
  Fe  Fe82  1  0.37121488  0.37449624  0.62390933  1
  Fe  Fe83  1  0.12555621  0.36883755  0.87681751  1
  Fe  Fe84  1  0.12611404  0.87510021  0.87317966  1
  Fe  Fe85  1  0.75200297  0.25142636  0.50021388  1
  Fe  Fe86  1  0.00180971  0.25375940  0.50116859  1
  Fe  Fe87  1  -0.00268367  -0.00195121  0.24840356  1
  Fe  Fe88  1  0.49957655  0.75136187  0.24916616  1
  Fe  Fe89  1  0.49662323  0.74969915  0.75044444  1
  Co  Co90  1  0.25036076  0.24550185  -0.00022919  1
  Co  Co91  1  0.87133712  0.38175916  0.12404834  1
  Co  Co92  1  0.74872620  0.50018422  0.75153158  1
  Co  Co93  1  0.75337927  0.25150905  0.25146827  1
  Co  Co94  1  0.62538593  0.37487591  0.62434118  1
  Co  Co95  1  0.12265513  0.37005650  0.36908567  1
  Co  Co96  1  0.12642875  0.87525926  0.12499413  1
  Co  Co97  1  0.37612909  0.12258774  0.62043293  1
  Co  Co98  1  0.75071190  0.74737486  0.50612728  1
  Co  Co99  1  0.00381598  0.49732855  0.75381852  1
  Co  Co100  1  0.75062354  -0.00029382  0.25186153  1
  Co  Co101  1  -0.00110759  0.75151113  0.75074574  1
  Co  Co102  1  0.11852010  0.12880661  0.87513387  1
  Co  Co103  1  0.12232739  0.63124774  0.37451536  1
  Co  Co104  1  0.74876857  0.00060213  0.50101530  1
  Co  Co105  1  0.12458023  0.12479005  0.12719917  1
  Co  Co106  1  0.00488086  0.49718595  0.49841227  1
  Co  Co107  1  0.38090492  0.12342900  0.87940475  1
  Co  Co108  1  -0.00293396  0.25033818  0.00718871  1
  Co  Co109  1  0.12733615  0.37217348  0.63040448  1
  Co  Co110  1  0.62208399  0.62776350  0.87511141  1
  Co  Co111  1  0.87550005  0.87762164  0.62442040  1
  Co  Co112  1  -0.00312355  0.75292590  0.24791162  1
  Co  Co113  1  0.50131207  0.49557907  -0.00007623  1
  Co  Co114  1  0.24925200  0.00640242  0.75159533  1
  Co  Co115  1  0.75151891  0.25242002  -0.00108120  1
  Co  Co116  1  0.12240012  0.62743568  0.12400464  1
  Co  Co117  1  0.12804919  0.37514553  0.12450676  1
  Co  Co118  1  0.74929369  -0.00143259  -0.00407138  1
  Co  Co119  1  0.25214479  0.74739899  0.24724247  1
  Co  Co120  1  0.24768361  0.24963297  0.49838814  1
  Co  Co121  1  0.62953539  0.87107159  0.37463482  1
  Co  Co122  1  0.25069214  0.74600525  0.75115377  1
  Co  Co123  1  0.75436268  0.74751578  -0.00152797  1
  Co  Co124  1  0.75060453  0.74598177  0.24653335  1
  Co  Co125  1  0.62613656  0.87493177  0.62810936  1
  Co  Co126  1  0.86869745  0.12148624  0.12268461  1
  Co  Co127  1  0.49611025  0.75497000  -0.00082231  1
