# generated using pymatgen
data_Fe45Co19
_symmetry_space_group_name_H-M   'P 1'
_cell_length_a   11.41513912
_cell_length_b   11.41602682
_cell_length_c   11.41553797
_cell_angle_alpha   89.99247288
_cell_angle_beta   90.00684189
_cell_angle_gamma   90.00262896
_symmetry_Int_Tables_number   1
_chemical_formula_structural   Fe45Co19
_chemical_formula_sum   'Fe90 Co38'
_cell_volume   1487.62190605
_cell_formula_units_Z   2
loop_
 _symmetry_equiv_pos_site_id
 _symmetry_equiv_pos_as_xyz
  1  'x, y, z'
loop_
 _atom_site_type_symbol
 _atom_site_label
 _atom_site_symmetry_multiplicity
 _atom_site_fract_x
 _atom_site_fract_y
 _atom_site_fract_z
 _atom_site_occupancy
  Fe  Fe0  1  0.49498220  0.50117119  0.74887298  1
  Fe  Fe1  1  -0.00128739  0.00166638  0.50242756  1
  Fe  Fe2  1  0.75251524  -0.00143460  0.24974295  1
  Fe  Fe3  1  -0.00628934  -0.00192221  0.74788462  1
  Fe  Fe4  1  0.87624850  0.37415285  0.87506670  1
  Fe  Fe5  1  0.24746008  0.50249253  0.50204109  1
  Fe  Fe6  1  0.62793643  0.87698018  0.62535916  1
  Fe  Fe7  1  0.87549081  0.12794319  0.12667102  1
  Fe  Fe8  1  0.75278687  0.75318763  0.75149813  1
  Fe  Fe9  1  0.50070655  -0.00160667  0.49952353  1
  Fe  Fe10  1  0.25410861  -0.00123884  0.75023189  1
  Fe  Fe11  1  0.62439225  0.37582647  0.12725468  1
  Fe  Fe12  1  0.37444756  0.63009939  0.38103424  1
  Fe  Fe13  1  0.87082795  0.12909046  0.62486888  1
  Fe  Fe14  1  0.62703480  0.62386051  0.12818756  1
  Fe  Fe15  1  0.50132068  0.74963796  0.25326276  1
  Fe  Fe16  1  0.00198599  0.25030357  0.25367393  1
  Fe  Fe17  1  0.37375318  0.12460136  0.12522571  1
  Fe  Fe18  1  0.49903545  0.24887313  -0.00113468  1
  Fe  Fe19  1  0.49708434  -0.00056057  0.25093739  1
  Fe  Fe20  1  0.87656033  0.37150418  0.62132902  1
  Fe  Fe21  1  0.25039487  -0.00411482  0.24772908  1
  Fe  Fe22  1  0.12608575  0.62246568  0.87186529  1
  Fe  Fe23  1  0.62411983  0.87688708  0.87290528  1
  Fe  Fe24  1  0.87586192  0.37737813  0.37907894  1
  Fe  Fe25  1  0.87608689  0.62785834  0.62265051  1
  Fe  Fe26  1  0.74909655  0.25075030  -0.00098344  1
  Fe  Fe27  1  0.62465710  0.37348353  0.62384835  1
  Fe  Fe28  1  0.49823832  0.74923958  0.75003368  1
  Fe  Fe29  1  0.25004563  0.25006055  0.25320630  1
  Fe  Fe30  1  0.75244366  0.49861880  0.74656191  1
  Fe  Fe31  1  0.62467538  0.62578361  0.62527948  1
  Fe  Fe32  1  0.87772465  0.87128092  0.12372781  1
  Fe  Fe33  1  0.12622309  0.12296692  0.87269468  1
  Fe  Fe34  1  0.75160058  -0.00124536  -0.00060161  1
  Fe  Fe35  1  0.00501367  0.74696601  0.00133354  1
  Fe  Fe36  1  0.25350587  0.50177230  0.24980338  1
  Fe  Fe37  1  0.24997162  0.50198719  0.00118285  1
  Fe  Fe38  1  0.62326676  0.87556666  0.12678674  1
  Fe  Fe39  1  0.50075776  0.50270132  0.50120009  1
  Fe  Fe40  1  0.87360498  0.62388833  0.37741496  1
  Fe  Fe41  1  -0.00216758  0.49909075  0.74753944  1
  Fe  Fe42  1  0.24928999  0.24989468  -0.00059170  1
  Fe  Fe43  1  0.12293772  0.37394438  0.62137482  1
  Fe  Fe44  1  0.62344145  0.37735261  0.87482294  1
  Fe  Fe45  1  0.74733973  0.75107740  -0.00063025  1
  Fe  Fe46  1  0.62624088  0.38033002  0.37448890  1
  Fe  Fe47  1  0.12611690  0.12199297  0.37416330  1
  Fe  Fe48  1  0.12336663  0.87699932  0.87207309  1
  Fe  Fe49  1  0.62660205  0.12146612  0.37439330  1
  Fe  Fe50  1  0.49623118  -0.00043998  0.74983024  1
  Fe  Fe51  1  0.49642889  -0.00209224  -0.00069584  1
  Fe  Fe52  1  0.37372770  0.87241372  0.37777435  1
  Fe  Fe53  1  0.12514391  0.37640553  0.87386933  1
  Fe  Fe54  1  0.37313019  0.37471901  0.37930092  1
  Fe  Fe55  1  -0.00056717  0.50192761  0.00382943  1
  Fe  Fe56  1  0.74980984  0.75017556  0.25272757  1
  Fe  Fe57  1  0.37465683  0.12717747  0.62200045  1
  Fe  Fe58  1  0.62527094  0.12432537  0.12596562  1
  Fe  Fe59  1  0.87391541  0.12639001  0.87322575  1
  Fe  Fe60  1  0.00718953  0.75017420  0.50017397  1
  Fe  Fe61  1  0.00168790  0.00127220  0.00224676  1
  Fe  Fe62  1  0.12514889  0.12492345  0.62646813  1
  Fe  Fe63  1  -0.00001107  0.75205250  0.74822171  1
  Fe  Fe64  1  0.00050777  -0.00078534  0.24772547  1
  Fe  Fe65  1  0.49819705  0.24913160  0.25280571  1
  Fe  Fe66  1  0.37223523  0.63310183  0.12170800  1
  Fe  Fe67  1  0.49729285  0.25050891  0.75128538  1
  Fe  Fe68  1  -0.00401572  0.50189195  0.24722623  1
  Fe  Fe69  1  0.49807959  0.50311991  0.00056740  1
  Fe  Fe70  1  0.62872928  0.12364674  0.62624002  1
  Fe  Fe71  1  0.25056902  -0.00470278  0.00190180  1
  Fe  Fe72  1  0.37369281  0.87057861  0.62188349  1
  Fe  Fe73  1  0.74501792  0.75043369  0.49689870  1
  Fe  Fe74  1  0.12486538  0.37601054  0.12781045  1
  Fe  Fe75  1  0.75046911  0.25138733  0.25294384  1
  Fe  Fe76  1  0.24917703  0.74883239  0.74767598  1
  Fe  Fe77  1  0.24888974  -0.00118961  0.50065145  1
  Fe  Fe78  1  0.00282747  0.24870737  -0.00057943  1
  Fe  Fe79  1  0.87684270  0.87583296  0.37728990  1
  Fe  Fe80  1  0.87495159  0.62569835  0.87563073  1
  Fe  Fe81  1  0.50073868  0.24804087  0.49758951  1
  Fe  Fe82  1  0.37512045  0.37359666  0.12432221  1
  Fe  Fe83  1  0.62598608  0.62322439  0.87357311  1
  Fe  Fe84  1  0.62590572  0.12248148  0.87232342  1
  Fe  Fe85  1  0.25439360  0.49961957  0.74679802  1
  Fe  Fe86  1  0.49610706  0.50271333  0.24987208  1
  Fe  Fe87  1  0.25181750  0.25211612  0.74897851  1
  Fe  Fe88  1  0.75266465  0.49889385  0.00332460  1
  Fe  Fe89  1  0.12484680  0.62349591  0.37140930  1
  Co  Co90  1  0.50619941  0.75236628  0.49848268  1
  Co  Co91  1  0.00194046  0.50218013  0.50073853  1
  Co  Co92  1  0.00167885  0.24651225  0.49677855  1
  Co  Co93  1  0.37504098  0.37607986  0.87676014  1
  Co  Co94  1  0.24166798  0.74980936  0.50103563  1
  Co  Co95  1  0.37333890  0.62734493  0.87648249  1
  Co  Co96  1  0.00151553  0.25007461  0.75012191  1
  Co  Co97  1  0.74860995  0.25321299  0.75113254  1
  Co  Co98  1  0.37540782  0.37386214  0.61986085  1
  Co  Co99  1  0.24383417  0.75290560  -0.00196755  1
  Co  Co100  1  0.87579082  0.12216447  0.37332446  1
  Co  Co101  1  0.37282982  0.12275735  0.37588600  1
  Co  Co102  1  0.74918974  0.24974743  0.49642090  1
  Co  Co103  1  0.87374310  0.87096074  0.61893643  1
  Co  Co104  1  0.75080982  0.00058781  0.49955858  1
  Co  Co105  1  0.37593486  0.62879159  0.62040302  1
  Co  Co106  1  0.62592762  0.61966768  0.37316502  1
  Co  Co107  1  0.37327711  0.12543108  0.87594128  1
  Co  Co108  1  0.24627705  0.24853506  0.49887435  1
  Co  Co109  1  0.24885762  0.75252804  0.25274710  1
  Co  Co110  1  0.87318149  0.63004392  0.12404680  1
  Co  Co111  1  0.12715893  0.62505437  0.12942507  1
  Co  Co112  1  0.87710101  0.36993598  0.12510711  1
  Co  Co113  1  0.75513602  0.49920996  0.24790126  1
  Co  Co114  1  0.75569499  -0.00393951  0.75088528  1
  Co  Co115  1  0.50470483  0.74988451  -0.00112498  1
  Co  Co116  1  0.12486160  0.87855010  0.62737115  1
  Co  Co117  1  0.12320381  0.87819729  0.37473300  1
  Co  Co118  1  0.62534143  0.87909476  0.37287527  1
  Co  Co119  1  0.37467604  0.87018340  0.87505123  1
  Co  Co120  1  0.12645369  0.12605536  0.12676246  1
  Co  Co121  1  0.12250491  0.87116307  0.12765588  1
  Co  Co122  1  0.74933453  0.50081566  0.50406460  1
  Co  Co123  1  0.87863873  0.87278909  0.88008967  1
  Co  Co124  1  0.37674883  0.87007643  0.12534021  1
  Co  Co125  1  -0.00091838  0.74823188  0.25263736  1
  Co  Co126  1  0.12343263  0.62320909  0.62832123  1
  Co  Co127  1  0.12555721  0.37904280  0.37406946  1
