# generated using pymatgen
data_Fe45Co19
_symmetry_space_group_name_H-M   'P 1'
_cell_length_a   11.41481339
_cell_length_b   11.41558662
_cell_length_c   11.41497033
_cell_angle_alpha   89.99676980
_cell_angle_beta   90.00668134
_cell_angle_gamma   89.99968690
_symmetry_Int_Tables_number   1
_chemical_formula_structural   Fe45Co19
_chemical_formula_sum   'Fe90 Co38'
_cell_volume   1487.44814083
_cell_formula_units_Z   2
loop_
 _symmetry_equiv_pos_site_id
 _symmetry_equiv_pos_as_xyz
  1  'x, y, z'
loop_
 _atom_site_type_symbol
 _atom_site_label
 _atom_site_symmetry_multiplicity
 _atom_site_fract_x
 _atom_site_fract_y
 _atom_site_fract_z
 _atom_site_occupancy
  Fe  Fe0  1  0.25089277  0.74916131  0.49910892  1
  Fe  Fe1  1  0.00135456  0.75171580  0.49891925  1
  Fe  Fe2  1  0.62516037  0.12287840  0.62607435  1
  Fe  Fe3  1  0.37714433  0.62586620  0.87457503  1
  Fe  Fe4  1  0.00178835  0.25205863  0.00121347  1
  Fe  Fe5  1  0.00012496  0.25036997  0.24922140  1
  Fe  Fe6  1  0.87123939  0.37558763  0.87310285  1
  Fe  Fe7  1  0.38165908  0.62740673  0.37606304  1
  Fe  Fe8  1  0.62610123  0.87542436  0.12518591  1
  Fe  Fe9  1  0.50091749  0.49544673  0.25093853  1
  Fe  Fe10  1  0.74414208  0.25067809  -0.00297993  1
  Fe  Fe11  1  -0.00213229  0.24987046  0.74902403  1
  Fe  Fe12  1  0.50316837  0.24974355  0.75033434  1
  Fe  Fe13  1  0.74942949  0.00133510  0.25117372  1
  Fe  Fe14  1  0.00437822  0.00131713  0.50106243  1
  Fe  Fe15  1  0.37479831  0.87559895  0.12494632  1
  Fe  Fe16  1  0.12685512  0.37447947  0.62466690  1
  Fe  Fe17  1  0.13136854  0.37824145  0.12561792  1
  Fe  Fe18  1  0.00021219  0.75024973  0.25069849  1
  Fe  Fe19  1  0.87397666  0.12499154  0.62312273  1
  Fe  Fe20  1  0.12371451  0.12289276  0.87165756  1
  Fe  Fe21  1  -0.00020729  0.49910069  0.49959472  1
  Fe  Fe22  1  0.49706695  -0.00057168  0.25196282  1
  Fe  Fe23  1  0.12449452  0.62511674  0.87405066  1
  Fe  Fe24  1  0.50271904  0.00086586  -0.00037114  1
  Fe  Fe25  1  0.12504064  0.87791586  0.87177233  1
  Fe  Fe26  1  0.87507156  0.87649705  0.62357521  1
  Fe  Fe27  1  0.49896676  0.50077759  0.74679095  1
  Fe  Fe28  1  -0.00101583  0.50021633  0.74905185  1
  Fe  Fe29  1  0.25186011  0.50097556  0.49741422  1
  Fe  Fe30  1  0.25256073  0.74891322  0.25148553  1
  Fe  Fe31  1  0.87352624  0.62429752  0.37668624  1
  Fe  Fe32  1  0.61916459  0.87027085  0.37586846  1
  Fe  Fe33  1  0.37710304  0.12475765  0.62447854  1
  Fe  Fe34  1  0.37663218  0.87543950  0.87590608  1
  Fe  Fe35  1  0.00115762  0.75134211  0.00085472  1
  Fe  Fe36  1  0.74794697  0.49909278  0.00068461  1
  Fe  Fe37  1  0.25186745  0.24875779  0.25029301  1
  Fe  Fe38  1  0.24970393  0.74863666  0.00020988  1
  Fe  Fe39  1  0.37847241  0.12568899  0.87572237  1
  Fe  Fe40  1  0.62399313  0.12824960  0.12752509  1
  Fe  Fe41  1  0.75156195  -0.00011530  0.75157133  1
  Fe  Fe42  1  0.74786691  0.74789253  0.25169976  1
  Fe  Fe43  1  0.62705982  0.87566127  0.87665499  1
  Fe  Fe44  1  0.87356034  0.62448999  0.12566822  1
  Fe  Fe45  1  0.62508893  0.87673013  0.62336421  1
  Fe  Fe46  1  0.87025700  0.37495715  0.12827055  1
  Fe  Fe47  1  0.50080256  0.49363182  0.00283572  1
  Fe  Fe48  1  0.12541647  0.37441177  0.37487232  1
  Fe  Fe49  1  0.62760503  0.37708603  0.62669472  1
  Fe  Fe50  1  0.87459848  0.62580992  0.87655773  1
  Fe  Fe51  1  0.87289495  0.62423983  0.62066460  1
  Fe  Fe52  1  0.37499529  0.37260183  0.87837890  1
  Fe  Fe53  1  0.87360632  0.12696555  0.12469557  1
  Fe  Fe54  1  0.00043206  0.49879710  0.00088333  1
  Fe  Fe55  1  0.25029395  0.00193178  -0.00018882  1
  Fe  Fe56  1  0.37831652  0.37076856  0.37878364  1
  Fe  Fe57  1  0.25051052  0.49979899  0.75203800  1
  Fe  Fe58  1  0.37774411  0.12875379  0.12119768  1
  Fe  Fe59  1  0.87096051  0.87345940  0.12336025  1
  Fe  Fe60  1  0.25089781  0.24859742  0.74990072  1
  Fe  Fe61  1  0.12715644  0.87764070  0.12866471  1
  Fe  Fe62  1  0.74893450  0.25258572  0.49770606  1
  Fe  Fe63  1  0.62683030  0.62354326  0.61855571  1
  Fe  Fe64  1  -0.00191489  0.75210886  0.74933626  1
  Fe  Fe65  1  0.12427663  0.12199140  0.12783144  1
  Fe  Fe66  1  0.74956847  0.74834884  0.74909464  1
  Fe  Fe67  1  0.62318329  0.62290095  0.87515306  1
  Fe  Fe68  1  0.00288770  0.24890395  0.50006899  1
  Fe  Fe69  1  0.24709059  0.00393873  0.50029249  1
  Fe  Fe70  1  0.87371146  0.12544982  0.87592005  1
  Fe  Fe71  1  0.12668158  0.62505897  0.62401514  1
  Fe  Fe72  1  0.37400745  0.37443090  0.62325016  1
  Fe  Fe73  1  0.12729496  0.87837131  0.37166944  1
  Fe  Fe74  1  0.62138998  0.12956652  0.37341175  1
  Fe  Fe75  1  0.87770970  0.12490125  0.37541846  1
  Fe  Fe76  1  0.50026384  0.75041260  0.74608832  1
  Fe  Fe77  1  0.37719825  0.12715958  0.37880798  1
  Fe  Fe78  1  0.74680225  -0.00033746  0.49641803  1
  Fe  Fe79  1  0.12582694  0.37436900  0.87542481  1
  Fe  Fe80  1  0.87255927  0.37541149  0.62501879  1
  Fe  Fe81  1  0.50093782  0.74928035  0.00264450  1
  Fe  Fe82  1  0.12800870  0.62222542  0.12725982  1
  Fe  Fe83  1  -0.00297654  -0.00205658  0.00011686  1
  Fe  Fe84  1  0.25191234  0.75171381  0.74846755  1
  Fe  Fe85  1  -0.00041450  0.50011766  0.25099950  1
  Fe  Fe86  1  0.62431838  0.62286955  0.12753633  1
  Fe  Fe87  1  0.87503223  0.87639234  0.37464335  1
  Fe  Fe88  1  0.37402783  0.62106660  0.12524797  1
  Fe  Fe89  1  0.37554374  0.87868475  0.62222095  1
  Co  Co90  1  0.49402025  0.25222178  0.24730269  1
  Co  Co91  1  0.12371144  0.62518308  0.37520502  1
  Co  Co92  1  0.50398920  0.25063534  0.50522971  1
  Co  Co93  1  0.50622538  0.25437422  -0.00158936  1
  Co  Co94  1  0.24749175  0.24762943  0.50016191  1
  Co  Co95  1  0.24656585  0.24607683  0.00000855  1
  Co  Co96  1  0.49683093  0.74999311  0.50621774  1
  Co  Co97  1  0.25724630  0.00317615  0.25004911  1
  Co  Co98  1  0.62390994  0.12249906  0.87307559  1
  Co  Co99  1  0.62635314  0.37912667  0.86969656  1
  Co  Co100  1  0.75181841  0.50502292  0.74840083  1
  Co  Co101  1  0.75331084  0.24746152  0.25476584  1
  Co  Co102  1  0.62945861  0.37087297  0.13152281  1
  Co  Co103  1  0.87096807  0.87334426  0.87722903  1
  Co  Co104  1  0.36996099  0.37446028  0.12154867  1
  Co  Co105  1  0.12423141  0.12627925  0.62975341  1
  Co  Co106  1  0.25428728  0.49970237  0.25700590  1
  Co  Co107  1  0.74865153  0.24797085  0.74928992  1
  Co  Co108  1  0.87816957  0.37398562  0.37341086  1
  Co  Co109  1  0.50114093  0.49797442  0.50003332  1
  Co  Co110  1  -0.00496860  -0.00087373  0.24794224  1
  Co  Co111  1  0.62197548  0.36969766  0.37197398  1
  Co  Co112  1  0.75099776  0.75326701  0.49881861  1
  Co  Co113  1  0.49920572  0.75078024  0.24595627  1
  Co  Co114  1  0.37520141  0.87485607  0.37749715  1
  Co  Co115  1  0.25056314  0.50238324  -0.00420378  1
  Co  Co116  1  0.74687198  0.74555879  0.00063466  1
  Co  Co117  1  0.12530859  0.87468778  0.62587326  1
  Co  Co118  1  0.74690177  0.50169865  0.25612299  1
  Co  Co119  1  -0.00455286  0.00025117  0.74924440  1
  Co  Co120  1  0.37215147  0.62287137  0.62515960  1
  Co  Co121  1  0.50034261  -0.00175477  0.75016718  1
  Co  Co122  1  0.25293594  0.00074441  0.74873545  1
  Co  Co123  1  0.74787901  0.49522950  0.49342409  1
  Co  Co124  1  0.12385357  0.12363891  0.36979243  1
  Co  Co125  1  0.62138812  0.62928750  0.37828437  1
  Co  Co126  1  0.74896233  0.00345844  0.00208791  1
  Co  Co127  1  0.50190401  0.00105312  0.49770109  1
