# generated using pymatgen
data_Fe45Co19
_symmetry_space_group_name_H-M   'P 1'
_cell_length_a   11.41396760
_cell_length_b   11.41507305
_cell_length_c   11.41545442
_cell_angle_alpha   89.99740103
_cell_angle_beta   90.00188227
_cell_angle_gamma   90.00392784
_symmetry_Int_Tables_number   1
_chemical_formula_structural   Fe45Co19
_chemical_formula_sum   'Fe90 Co38'
_cell_volume   1487.33409280
_cell_formula_units_Z   2
loop_
 _symmetry_equiv_pos_site_id
 _symmetry_equiv_pos_as_xyz
  1  'x, y, z'
loop_
 _atom_site_type_symbol
 _atom_site_label
 _atom_site_symmetry_multiplicity
 _atom_site_fract_x
 _atom_site_fract_y
 _atom_site_fract_z
 _atom_site_occupancy
  Fe  Fe0  1  0.24961978  0.00141438  0.00036246  1
  Fe  Fe1  1  0.37584491  0.62670934  0.12482656  1
  Fe  Fe2  1  0.12555025  0.87595437  0.37474546  1
  Fe  Fe3  1  0.75214052  0.25103258  0.25212586  1
  Fe  Fe4  1  0.75050063  0.75008091  0.49877153  1
  Fe  Fe5  1  0.24765642  0.74793399  0.49945727  1
  Fe  Fe6  1  0.87608096  0.87433096  0.12421838  1
  Fe  Fe7  1  0.75256997  0.25236634  -0.00244081  1
  Fe  Fe8  1  0.37180232  0.12375121  0.37694931  1
  Fe  Fe9  1  0.87970249  0.62781721  0.62397180  1
  Fe  Fe10  1  0.12592256  0.12937631  0.12687530  1
  Fe  Fe11  1  0.87579084  0.62676654  0.12397650  1
  Fe  Fe12  1  0.62582503  0.87509126  0.62489954  1
  Fe  Fe13  1  0.62186899  0.87497112  0.37452474  1
  Fe  Fe14  1  0.00029123  0.75026185  0.25204410  1
  Fe  Fe15  1  0.00453280  0.50071546  0.00400391  1
  Fe  Fe16  1  0.50068605  0.00248164  0.50144135  1
  Fe  Fe17  1  0.87679262  0.87832807  0.37810399  1
  Fe  Fe18  1  0.25402715  0.75371757  0.25020733  1
  Fe  Fe19  1  0.87814132  0.12238221  0.37952241  1
  Fe  Fe20  1  0.49923188  0.49852156  0.25256503  1
  Fe  Fe21  1  0.25005634  0.25134757  0.74961482  1
  Fe  Fe22  1  0.12533086  0.12374506  0.87189429  1
  Fe  Fe23  1  0.37239022  0.62262279  0.37490612  1
  Fe  Fe24  1  0.62341545  0.12549901  0.12611026  1
  Fe  Fe25  1  0.74713474  0.75156459  0.00009121  1
  Fe  Fe26  1  0.49789406  0.50208584  -0.00146390  1
  Fe  Fe27  1  -0.00133583  -0.00201702  0.74612104  1
  Fe  Fe28  1  0.24458688  0.00219532  0.50440035  1
  Fe  Fe29  1  0.62310237  0.62552776  0.12704590  1
  Fe  Fe30  1  0.24554443  0.50137145  0.50336792  1
  Fe  Fe31  1  0.25310611  -0.00216360  0.24833137  1
  Fe  Fe32  1  0.49887843  0.24972005  0.50046791  1
  Fe  Fe33  1  0.75231735  0.00073832  0.74404308  1
  Fe  Fe34  1  0.12716139  0.62506552  0.87495482  1
  Fe  Fe35  1  0.37701915  0.87534717  0.87755471  1
  Fe  Fe36  1  0.87611669  0.62296162  0.37445384  1
  Fe  Fe37  1  0.49771415  0.49973114  0.74927681  1
  Fe  Fe38  1  0.62718083  0.12543224  0.87170132  1
  Fe  Fe39  1  0.49801951  0.24816746  -0.00272577  1
  Fe  Fe40  1  0.62503560  0.62487082  0.62535112  1
  Fe  Fe41  1  0.00026950  0.00181577  0.00139695  1
  Fe  Fe42  1  0.87683813  0.37373925  0.12309674  1
  Fe  Fe43  1  0.12106339  0.87005656  0.62641278  1
  Fe  Fe44  1  0.62461837  0.37378988  0.12366785  1
  Fe  Fe45  1  0.49968210  0.74999039  0.75102071  1
  Fe  Fe46  1  0.49850240  0.25042591  0.74857683  1
  Fe  Fe47  1  0.87427573  0.12423379  0.87402845  1
  Fe  Fe48  1  0.49850736  0.00012108  0.74810135  1
  Fe  Fe49  1  0.62622760  0.37605399  0.37588209  1
  Fe  Fe50  1  0.00357726  0.49999305  0.74878061  1
  Fe  Fe51  1  0.87462573  0.87539371  0.87584315  1
  Fe  Fe52  1  0.74879881  0.75089742  0.25126936  1
  Fe  Fe53  1  0.87499192  0.12593061  0.12533579  1
  Fe  Fe54  1  0.75266336  0.74962701  0.74940246  1
  Fe  Fe55  1  0.00304761  0.49815066  0.24829892  1
  Fe  Fe56  1  0.37135293  0.37795467  0.87581101  1
  Fe  Fe57  1  0.62637285  0.37603511  0.87456315  1
  Fe  Fe58  1  0.87822397  0.37281473  0.62299304  1
  Fe  Fe59  1  0.62620655  0.62327026  0.87422842  1
  Fe  Fe60  1  0.49664919  0.25107817  0.25299844  1
  Fe  Fe61  1  0.24448572  0.24808353  0.49890508  1
  Fe  Fe62  1  0.49920724  0.74713037  0.49814265  1
  Fe  Fe63  1  -0.00187689  0.25131989  0.75096863  1
  Fe  Fe64  1  0.37267315  0.12226070  0.87089980  1
  Fe  Fe65  1  0.12661538  0.37415005  0.87902023  1
  Fe  Fe66  1  0.75030655  0.49883710  0.24944495  1
  Fe  Fe67  1  0.75004428  0.50086724  0.50088304  1
  Fe  Fe68  1  0.87558014  0.62269572  0.87798889  1
  Fe  Fe69  1  0.25074670  0.74925225  0.00055528  1
  Fe  Fe70  1  0.12324992  0.87566188  0.87614513  1
  Fe  Fe71  1  0.74789307  -0.00063497  0.00150496  1
  Fe  Fe72  1  0.24765360  0.49711000  0.24593689  1
  Fe  Fe73  1  0.37265292  0.37265802  0.12268175  1
  Fe  Fe74  1  0.00031521  0.25198088  0.25415753  1
  Fe  Fe75  1  0.37288645  0.62447542  0.62797061  1
  Fe  Fe76  1  0.75038945  0.24885834  0.50094686  1
  Fe  Fe77  1  0.37584620  0.12407612  0.12509655  1
  Fe  Fe78  1  0.74917545  -0.00003669  0.25091880  1
  Fe  Fe79  1  0.00503377  0.49999196  0.49915423  1
  Fe  Fe80  1  0.62551608  0.37390150  0.62603868  1
  Fe  Fe81  1  0.37406805  0.87513423  0.62280721  1
  Fe  Fe82  1  0.37206175  0.37457632  0.62352274  1
  Fe  Fe83  1  0.00078785  -0.00042526  0.24859724  1
  Fe  Fe84  1  0.50013085  0.50041933  0.49986668  1
  Fe  Fe85  1  0.12420305  0.87310995  0.12343375  1
  Fe  Fe86  1  0.75251122  0.49844451  0.74901462  1
  Fe  Fe87  1  0.24981256  0.75097305  0.75104980  1
  Fe  Fe88  1  0.61708355  0.87616468  0.12630707  1
  Fe  Fe89  1  0.62482705  0.12503201  0.37456896  1
  Co  Co90  1  0.37248452  0.62421001  0.87247034  1
  Co  Co91  1  0.87744413  0.12752700  0.62112892  1
  Co  Co92  1  0.12463475  0.12222711  0.37060955  1
  Co  Co93  1  0.00525757  0.00041707  0.50368427  1
  Co  Co94  1  0.12569081  0.63017325  0.12755832  1
  Co  Co95  1  0.12362852  0.12707142  0.63059350  1
  Co  Co96  1  0.12675833  0.36780623  0.12295329  1
  Co  Co97  1  0.49520834  0.75021645  0.25434384  1
  Co  Co98  1  0.62548856  0.12644443  0.62694319  1
  Co  Co99  1  0.24956243  -0.00441009  0.74812426  1
  Co  Co100  1  -0.00154643  0.74947105  0.75378171  1
  Co  Co101  1  -0.00007834  0.74961769  -0.00147221  1
  Co  Co102  1  -0.00123230  0.24720383  -0.00228874  1
  Co  Co103  1  0.12700889  0.62426324  0.37151243  1
  Co  Co104  1  0.50125201  0.00385938  -0.00390781  1
  Co  Co105  1  0.00548624  0.24983125  0.49739160  1
  Co  Co106  1  0.62567854  0.87719087  0.87165999  1
  Co  Co107  1  0.25266014  0.25068129  0.25268278  1
  Co  Co108  1  0.25197826  0.24559085  -0.00248781  1
  Co  Co109  1  0.37343321  0.87726688  0.38100665  1
  Co  Co110  1  0.87712311  0.87246911  0.62206945  1
  Co  Co111  1  0.24842289  0.50201559  0.00334405  1
  Co  Co112  1  0.75345008  0.25268834  0.75018327  1
  Co  Co113  1  0.75003629  0.49905862  0.00194283  1
  Co  Co114  1  0.38003295  0.87586875  0.11960788  1
  Co  Co115  1  0.00156883  0.74917019  0.49556611  1
  Co  Co116  1  0.12736920  0.37680144  0.37342130  1
  Co  Co117  1  0.12534924  0.37251558  0.62520070  1
  Co  Co118  1  0.49597915  0.00079160  0.25357631  1
  Co  Co119  1  0.24714794  0.49917253  0.74804435  1
  Co  Co120  1  0.12354137  0.62907980  0.62700643  1
  Co  Co121  1  0.37246644  0.12533896  0.62535253  1
  Co  Co122  1  0.74832655  -0.00024496  0.50070985  1
  Co  Co123  1  0.87808669  0.37916431  0.87633932  1
  Co  Co124  1  0.37191511  0.37691752  0.37839300  1
  Co  Co125  1  0.62550922  0.62403130  0.37408257  1
  Co  Co126  1  0.50203423  0.74675777  -0.00335832  1
  Co  Co127  1  0.87522001  0.37648623  0.37734434  1
