# generated using pymatgen
data_Fe45Co19
_symmetry_space_group_name_H-M   'P 1'
_cell_length_a   11.41600321
_cell_length_b   11.41488029
_cell_length_c   11.41510624
_cell_angle_alpha   90.00716513
_cell_angle_beta   89.99819667
_cell_angle_gamma   90.00285749
_symmetry_Int_Tables_number   1
_chemical_formula_structural   Fe45Co19
_chemical_formula_sum   'Fe90 Co38'
_cell_volume   1487.52884828
_cell_formula_units_Z   2
loop_
 _symmetry_equiv_pos_site_id
 _symmetry_equiv_pos_as_xyz
  1  'x, y, z'
loop_
 _atom_site_type_symbol
 _atom_site_label
 _atom_site_symmetry_multiplicity
 _atom_site_fract_x
 _atom_site_fract_y
 _atom_site_fract_z
 _atom_site_occupancy
  Fe  Fe0  1  0.75053718  0.25168977  0.49977505  1
  Fe  Fe1  1  0.24954559  -0.00037055  0.75011607  1
  Fe  Fe2  1  0.37633580  0.87372898  0.12644446  1
  Fe  Fe3  1  0.87251052  0.62291231  0.87381204  1
  Fe  Fe4  1  0.37792216  0.12426186  0.87661598  1
  Fe  Fe5  1  0.12591319  0.62693593  0.37547601  1
  Fe  Fe6  1  0.25087428  0.25257236  -0.00124045  1
  Fe  Fe7  1  0.87877863  0.87382751  0.37463545  1
  Fe  Fe8  1  0.87586343  0.37511391  0.12483555  1
  Fe  Fe9  1  0.12458166  0.12512032  0.87454964  1
  Fe  Fe10  1  0.50329642  0.00220235  0.74906333  1
  Fe  Fe11  1  -0.00141074  0.50272811  0.50157053  1
  Fe  Fe12  1  0.75096552  0.75054342  0.50200192  1
  Fe  Fe13  1  0.12335434  0.37378071  0.37690468  1
  Fe  Fe14  1  0.37446768  0.62252556  0.62510127  1
  Fe  Fe15  1  -0.00087617  0.24620720  0.74768998  1
  Fe  Fe16  1  0.62705835  0.62436021  0.12415953  1
  Fe  Fe17  1  0.49749533  0.74963993  -0.00144156  1
  Fe  Fe18  1  0.24956684  -0.00295863  0.25205063  1
  Fe  Fe19  1  0.49953971  0.50136951  -0.00245834  1
  Fe  Fe20  1  0.75074646  0.75305959  0.00133143  1
  Fe  Fe21  1  0.49972770  0.24841704  0.74919734  1
  Fe  Fe22  1  0.36833244  0.62315074  0.12422580  1
  Fe  Fe23  1  0.12470283  0.37508876  0.87238679  1
  Fe  Fe24  1  0.74961689  0.25118240  -0.00070157  1
  Fe  Fe25  1  0.12735528  0.12634751  0.12318880  1
  Fe  Fe26  1  0.00322560  0.74678690  -0.00079328  1
  Fe  Fe27  1  0.25089272  0.49768317  0.50111678  1
  Fe  Fe28  1  0.87531484  0.37572222  0.62548315  1
  Fe  Fe29  1  0.00312333  0.50112378  -0.00049376  1
  Fe  Fe30  1  0.62486710  0.37667596  0.37365133  1
  Fe  Fe31  1  0.50015250  0.50514431  0.25371899  1
  Fe  Fe32  1  0.75055732  0.49973593  0.49957815  1
  Fe  Fe33  1  0.49950400  0.74680812  0.49843050  1
  Fe  Fe34  1  0.75191099  0.75264402  0.24783511  1
  Fe  Fe35  1  0.62528530  0.37695890  0.87481993  1
  Fe  Fe36  1  0.37364392  0.37765200  0.87175170  1
  Fe  Fe37  1  0.12278825  0.87314092  0.12459630  1
  Fe  Fe38  1  0.00020599  0.50206161  0.25026358  1
  Fe  Fe39  1  0.74973370  -0.00317494  0.24607986  1
  Fe  Fe40  1  0.74872092  0.74909032  0.74974906  1
  Fe  Fe41  1  0.87460209  0.62633346  0.37560594  1
  Fe  Fe42  1  0.62344428  0.87553506  0.87676947  1
  Fe  Fe43  1  0.87564854  0.87502615  0.62704240  1
  Fe  Fe44  1  0.62348999  0.12452471  0.11969197  1
  Fe  Fe45  1  0.50124777  -0.00179697  0.50194933  1
  Fe  Fe46  1  0.74677032  0.00189814  0.74899193  1
  Fe  Fe47  1  0.74841058  0.24890255  0.74936979  1
  Fe  Fe48  1  0.49940206  0.24818222  0.24962712  1
  Fe  Fe49  1  0.62587428  0.12500427  0.37637369  1
  Fe  Fe50  1  0.00084711  0.00067118  0.50310338  1
  Fe  Fe51  1  0.62559914  0.62292306  0.62517490  1
  Fe  Fe52  1  0.00072486  0.50254437  0.74855804  1
  Fe  Fe53  1  0.37780766  0.87472406  0.62775827  1
  Fe  Fe54  1  0.24860595  0.75234994  0.25255736  1
  Fe  Fe55  1  0.25252709  0.24914568  0.74620938  1
  Fe  Fe56  1  0.00011219  0.00101424  0.24928658  1
  Fe  Fe57  1  0.49885968  0.74593929  0.25188270  1
  Fe  Fe58  1  0.87483004  0.12603503  0.12308031  1
  Fe  Fe59  1  0.25010519  0.75587861  0.49871481  1
  Fe  Fe60  1  0.37283830  0.12211799  0.37813857  1
  Fe  Fe61  1  0.36892001  0.62415656  0.87551785  1
  Fe  Fe62  1  0.62442136  0.37765724  0.12595501  1
  Fe  Fe63  1  0.12530407  0.37511642  0.12549066  1
  Fe  Fe64  1  0.50114008  0.00116537  0.24875145  1
  Fe  Fe65  1  0.12874327  0.12403507  0.37897610  1
  Fe  Fe66  1  0.87670357  0.87643308  0.87432597  1
  Fe  Fe67  1  0.87309118  0.12439470  0.37572384  1
  Fe  Fe68  1  0.37478441  0.12570703  0.12251540  1
  Fe  Fe69  1  0.74798878  -0.00210542  0.50194423  1
  Fe  Fe70  1  -0.00116874  0.24727092  0.50122113  1
  Fe  Fe71  1  0.62112091  0.37802654  0.62541211  1
  Fe  Fe72  1  0.37572995  0.37717360  0.37448031  1
  Fe  Fe73  1  0.50157354  0.74580975  0.75242906  1
  Fe  Fe74  1  0.62306971  0.87245401  0.37379025  1
  Fe  Fe75  1  0.12600219  0.62646521  0.62455604  1
  Fe  Fe76  1  0.00000980  0.00100656  -0.00054713  1
  Fe  Fe77  1  0.12562530  0.37283933  0.62509828  1
  Fe  Fe78  1  0.00006064  0.74775931  0.75023168  1
  Fe  Fe79  1  0.49660353  0.25069389  0.50112153  1
  Fe  Fe80  1  0.12262782  0.87553879  0.62737560  1
  Fe  Fe81  1  0.25053356  0.25089404  0.25186922  1
  Fe  Fe82  1  0.24845021  0.75110570  0.75229264  1
  Fe  Fe83  1  0.75034663  0.25122819  0.25002267  1
  Fe  Fe84  1  0.87581913  0.37621308  0.87442631  1
  Fe  Fe85  1  0.37477080  0.37730182  0.12648727  1
  Fe  Fe86  1  0.87431709  0.62443417  0.12434287  1
  Fe  Fe87  1  0.25171178  -0.00470986  -0.00259877  1
  Fe  Fe88  1  0.00010327  0.24851223  0.25097189  1
  Fe  Fe89  1  0.87434006  0.12441638  0.87531069  1
  Co  Co90  1  0.49732857  -0.00358987  0.00001553  1
  Co  Co91  1  0.24739201  0.49647332  -0.00165131  1
  Co  Co92  1  0.12139064  0.87536488  0.87396823  1
  Co  Co93  1  0.62338423  0.87166067  0.62582758  1
  Co  Co94  1  0.37419328  0.12220224  0.62301170  1
  Co  Co95  1  0.24986440  -0.00726541  0.50077845  1
  Co  Co96  1  0.74899565  0.49952169  0.74932478  1
  Co  Co97  1  -0.00005640  0.00292361  0.74776012  1
  Co  Co98  1  0.62907017  0.62587447  0.87766458  1
  Co  Co99  1  0.87672808  0.37482737  0.37567963  1
  Co  Co100  1  0.24917963  0.75430431  -0.00208400  1
  Co  Co101  1  0.75096345  -0.00243141  0.00173910  1
  Co  Co102  1  0.87182789  0.12519686  0.62421427  1
  Co  Co103  1  0.00092345  0.25013314  -0.00066937  1
  Co  Co104  1  0.49881184  0.25431895  -0.00040243  1
  Co  Co105  1  0.12892686  0.12523157  0.62277744  1
  Co  Co106  1  0.87277150  0.62522835  0.62683083  1
  Co  Co107  1  0.75222067  0.49960826  0.25097668  1
  Co  Co108  1  0.50110160  0.50413831  0.75442413  1
  Co  Co109  1  0.37870211  0.38024854  0.62719519  1
  Co  Co110  1  0.37972530  0.87578464  0.37420626  1
  Co  Co111  1  0.00057358  0.74682392  0.24865095  1
  Co  Co112  1  0.24765585  0.50045772  0.74754035  1
  Co  Co113  1  0.62342906  0.12455098  0.87918121  1
  Co  Co114  1  0.12803415  0.62431931  0.87461805  1
  Co  Co115  1  0.37747272  0.87419406  0.87070970  1
  Co  Co116  1  0.63051130  0.62708363  0.37472717  1
  Co  Co117  1  0.50001974  0.50349529  0.49574615  1
  Co  Co118  1  0.88078401  0.87403033  0.12362242  1
  Co  Co119  1  0.36905228  0.62532792  0.37625323  1
  Co  Co120  1  0.25434908  0.25392335  0.50174934  1
  Co  Co121  1  0.11969286  0.87478802  0.37451859  1
  Co  Co122  1  0.62497320  0.12811102  0.62237617  1
  Co  Co123  1  0.13013614  0.62516374  0.12554376  1
  Co  Co124  1  0.62060023  0.87276700  0.12480055  1
  Co  Co125  1  -0.00044242  0.74946326  0.50280961  1
  Co  Co126  1  0.75039929  0.49850067  0.00001143  1
  Co  Co127  1  0.24809512  0.49780862  0.25309608  1
