# generated using pymatgen
data_Fe45Co19
_symmetry_space_group_name_H-M   'P 1'
_cell_length_a   11.41462387
_cell_length_b   11.41421224
_cell_length_c   11.41558485
_cell_angle_alpha   89.99294661
_cell_angle_beta   89.99367494
_cell_angle_gamma   89.99373656
_symmetry_Int_Tables_number   1
_chemical_formula_structural   Fe45Co19
_chemical_formula_sum   'Fe90 Co38'
_cell_volume   1487.32441489
_cell_formula_units_Z   2
loop_
 _symmetry_equiv_pos_site_id
 _symmetry_equiv_pos_as_xyz
  1  'x, y, z'
loop_
 _atom_site_type_symbol
 _atom_site_label
 _atom_site_symmetry_multiplicity
 _atom_site_fract_x
 _atom_site_fract_y
 _atom_site_fract_z
 _atom_site_occupancy
  Fe  Fe0  1  0.49908120  0.49964845  0.25090177  1
  Fe  Fe1  1  0.12177449  0.62328894  0.87665078  1
  Fe  Fe2  1  0.50287227  0.75439743  -0.00034809  1
  Fe  Fe3  1  0.24821815  0.24826641  0.50426695  1
  Fe  Fe4  1  0.75079549  0.49790042  0.24775329  1
  Fe  Fe5  1  0.37488830  0.62667320  0.12402555  1
  Fe  Fe6  1  0.24832293  0.75085349  -0.00101131  1
  Fe  Fe7  1  0.00027457  0.00081603  0.49944863  1
  Fe  Fe8  1  0.12337694  0.62364610  0.12121490  1
  Fe  Fe9  1  0.24943595  0.50049060  0.50256462  1
  Fe  Fe10  1  0.62645531  0.62473248  0.37408939  1
  Fe  Fe11  1  0.87765180  0.62281666  0.87610535  1
  Fe  Fe12  1  0.75050077  0.74952561  0.74914911  1
  Fe  Fe13  1  0.49822767  0.75173152  0.49896432  1
  Fe  Fe14  1  0.50180200  0.25019070  0.50197397  1
  Fe  Fe15  1  0.37131957  0.12597008  0.37623469  1
  Fe  Fe16  1  0.62635417  0.12389286  0.37560878  1
  Fe  Fe17  1  0.50428629  0.24898832  0.74772508  1
  Fe  Fe18  1  0.24976583  0.24409931  0.74879911  1
  Fe  Fe19  1  0.74817568  -0.00178086  0.00121775  1
  Fe  Fe20  1  0.49927157  0.49851391  -0.00187379  1
  Fe  Fe21  1  0.87890178  0.12827351  0.62684874  1
  Fe  Fe22  1  0.87720524  0.37221512  0.62907583  1
  Fe  Fe23  1  0.37184749  0.37270514  0.37476815  1
  Fe  Fe24  1  0.62652532  0.12425823  0.87576590  1
  Fe  Fe25  1  0.12635454  0.87515307  0.37495463  1
  Fe  Fe26  1  0.25121890  0.00122349  -0.00388517  1
  Fe  Fe27  1  0.25012104  0.49994685  0.24839104  1
  Fe  Fe28  1  0.62274005  0.12034869  0.12548195  1
  Fe  Fe29  1  0.24881561  0.00177598  0.50480708  1
  Fe  Fe30  1  0.62717316  0.87762769  0.37246254  1
  Fe  Fe31  1  0.00076375  0.49955996  0.24972381  1
  Fe  Fe32  1  -0.00042595  0.25437148  -0.00647053  1
  Fe  Fe33  1  0.00613381  0.24565657  0.25135770  1
  Fe  Fe34  1  0.37484958  0.12420199  0.12286225  1
  Fe  Fe35  1  0.49988022  0.00209709  0.75022953  1
  Fe  Fe36  1  0.74964413  0.75056948  0.50016913  1
  Fe  Fe37  1  0.87064599  0.12809334  0.87480127  1
  Fe  Fe38  1  0.12410139  0.12228128  0.87313919  1
  Fe  Fe39  1  0.24903627  0.24848308  -0.00172096  1
  Fe  Fe40  1  0.74814483  0.24877985  0.24636726  1
  Fe  Fe41  1  0.87503750  0.87433535  0.87508277  1
  Fe  Fe42  1  0.87621189  0.62580740  0.37600598  1
  Fe  Fe43  1  0.37510503  0.87787711  0.12525094  1
  Fe  Fe44  1  0.37084444  0.62750831  0.37437237  1
  Fe  Fe45  1  0.75024248  0.00038707  0.74750108  1
  Fe  Fe46  1  0.37400084  0.87511050  0.62796933  1
  Fe  Fe47  1  0.87824549  0.87846305  0.12559233  1
  Fe  Fe48  1  0.12235512  0.87904663  0.12211344  1
  Fe  Fe49  1  0.75317716  0.49484364  0.00445711  1
  Fe  Fe50  1  0.12483483  0.87695375  0.63108638  1
  Fe  Fe51  1  0.87588734  0.87301309  0.62478901  1
  Fe  Fe52  1  0.87630323  0.37240433  0.37235404  1
  Fe  Fe53  1  0.49786479  0.75342006  0.25145452  1
  Fe  Fe54  1  0.74925345  0.75311424  0.00130110  1
  Fe  Fe55  1  0.12320321  0.87647043  0.87192026  1
  Fe  Fe56  1  0.62592940  0.37460805  0.37452032  1
  Fe  Fe57  1  0.87824588  0.62448196  0.12348341  1
  Fe  Fe58  1  0.37661307  0.37555669  0.62719022  1
  Fe  Fe59  1  0.75249700  0.49826360  0.50059200  1
  Fe  Fe60  1  0.74953747  0.25081210  0.50302172  1
  Fe  Fe61  1  0.62910807  0.37334407  0.87591371  1
  Fe  Fe62  1  0.50087394  0.74921702  0.74986293  1
  Fe  Fe63  1  0.49790470  0.50049803  0.49907505  1
  Fe  Fe64  1  0.37519234  0.62554756  0.87510796  1
  Fe  Fe65  1  0.62697327  0.62492215  0.87687454  1
  Fe  Fe66  1  0.75241369  0.75247003  0.24957619  1
  Fe  Fe67  1  0.25108336  0.50277121  0.74993124  1
  Fe  Fe68  1  0.37409683  0.37378154  0.12414939  1
  Fe  Fe69  1  0.24684689  0.00367981  0.24949165  1
  Fe  Fe70  1  0.12223705  0.37185804  0.62826952  1
  Fe  Fe71  1  0.49936663  0.24872640  0.25045077  1
  Fe  Fe72  1  0.12556803  0.37463889  0.12228237  1
  Fe  Fe73  1  0.00111916  0.75203479  0.24956231  1
  Fe  Fe74  1  0.12340323  0.62638178  0.62828564  1
  Fe  Fe75  1  0.62455054  0.62552258  0.12472694  1
  Fe  Fe76  1  -0.00032369  0.49887694  0.50190135  1
  Fe  Fe77  1  -0.00009867  0.75030095  0.50155818  1
  Fe  Fe78  1  0.75174864  -0.00025541  0.50057766  1
  Fe  Fe79  1  0.12594003  0.62651767  0.37467850  1
  Fe  Fe80  1  0.74949225  0.50057904  0.74760007  1
  Fe  Fe81  1  0.62293545  0.62387543  0.62409593  1
  Fe  Fe82  1  0.50197789  0.24956919  -0.00012879  1
  Fe  Fe83  1  0.87598966  0.12496395  0.37454286  1
  Fe  Fe84  1  0.87950596  0.12474574  0.12350872  1
  Fe  Fe85  1  0.37545990  0.87616884  0.87342855  1
  Fe  Fe86  1  0.37337247  0.37314959  0.87341811  1
  Fe  Fe87  1  0.12641817  0.37318819  0.37568753  1
  Fe  Fe88  1  0.49859505  -0.00152580  0.49820195  1
  Fe  Fe89  1  0.25073696  0.74992167  0.50340266  1
  Co  Co90  1  -0.00009224  0.49846493  0.75053540  1
  Co  Co91  1  0.24769759  0.24774899  0.24757596  1
  Co  Co92  1  -0.00199667  0.74954592  0.75096105  1
  Co  Co93  1  0.25247796  0.50140456  0.00012384  1
  Co  Co94  1  -0.00445367  0.00024799  0.75135320  1
  Co  Co95  1  0.24742525  0.75127994  0.24591132  1
  Co  Co96  1  0.87988878  0.37003423  0.12847557  1
  Co  Co97  1  0.11932010  0.12466979  0.62770082  1
  Co  Co98  1  -0.00045283  0.75200332  -0.00095804  1
  Co  Co99  1  0.74968344  0.25014596  0.00557530  1
  Co  Co100  1  0.62186349  0.37598821  0.12518614  1
  Co  Co101  1  0.36878706  0.87564362  0.37493694  1
  Co  Co102  1  0.62601871  0.87608479  0.87160164  1
  Co  Co103  1  0.25188450  0.00474344  0.75096209  1
  Co  Co104  1  0.74534481  0.24785364  0.74458410  1
  Co  Co105  1  0.50083079  0.49910351  0.75367058  1
  Co  Co106  1  0.00304281  0.00241037  0.25300651  1
  Co  Co107  1  0.37788946  0.12477497  0.62388625  1
  Co  Co108  1  0.00015563  0.25010266  0.49831558  1
  Co  Co109  1  0.37814552  0.12652500  0.87601590  1
  Co  Co110  1  0.62439672  0.87546362  0.62557276  1
  Co  Co111  1  0.00140393  0.25075179  0.75738945  1
  Co  Co112  1  0.50145628  -0.00224977  -0.00197261  1
  Co  Co113  1  0.49656064  0.00099093  0.25375865  1
  Co  Co114  1  0.13089809  0.37740999  0.87316042  1
  Co  Co115  1  0.62418291  0.87719906  0.12887387  1
  Co  Co116  1  0.87503659  0.62558777  0.62453170  1
  Co  Co117  1  0.62428159  0.12090490  0.62260213  1
  Co  Co118  1  0.75371819  0.00108242  0.24915425  1
  Co  Co119  1  0.86765394  0.37318436  0.87043593  1
  Co  Co120  1  0.37669006  0.62486284  0.62625133  1
  Co  Co121  1  0.12813305  0.12518891  0.37967133  1
  Co  Co122  1  -0.00246065  0.00112721  -0.00532880  1
  Co  Co123  1  0.87675240  0.87522010  0.37579893  1
  Co  Co124  1  -0.00306267  0.49294329  -0.00276488  1
  Co  Co125  1  0.24967431  0.74841242  0.75247054  1
  Co  Co126  1  0.62398326  0.37875306  0.62398229  1
  Co  Co127  1  0.12283536  0.12416034  0.11831053  1
