# generated using pymatgen
data_Fe45Co19
_symmetry_space_group_name_H-M   'P 1'
_cell_length_a   11.41485787
_cell_length_b   11.41519438
_cell_length_c   11.41508200
_cell_angle_alpha   90.00282210
_cell_angle_beta   90.00464580
_cell_angle_gamma   90.00117865
_symmetry_Int_Tables_number   1
_chemical_formula_structural   Fe45Co19
_chemical_formula_sum   'Fe90 Co38'
_cell_volume   1487.41738346
_cell_formula_units_Z   2
loop_
 _symmetry_equiv_pos_site_id
 _symmetry_equiv_pos_as_xyz
  1  'x, y, z'
loop_
 _atom_site_type_symbol
 _atom_site_label
 _atom_site_symmetry_multiplicity
 _atom_site_fract_x
 _atom_site_fract_y
 _atom_site_fract_z
 _atom_site_occupancy
  Fe  Fe0  1  0.25159662  -0.00271661  0.49823481  1
  Fe  Fe1  1  0.75035894  0.49931942  0.24872038  1
  Fe  Fe2  1  0.12537976  0.12310203  0.62599775  1
  Fe  Fe3  1  0.87356609  0.87535926  0.62630186  1
  Fe  Fe4  1  0.37479063  0.12517888  0.62504720  1
  Fe  Fe5  1  0.88027004  0.37628058  0.37901953  1
  Fe  Fe6  1  0.49875927  0.49674472  0.49929761  1
  Fe  Fe7  1  0.00273580  0.25130490  -0.00213333  1
  Fe  Fe8  1  0.37217223  0.37557039  0.62550130  1
  Fe  Fe9  1  0.75133059  0.74939193  0.49945897  1
  Fe  Fe10  1  0.24885215  -0.00027349  0.75211777  1
  Fe  Fe11  1  0.37304750  0.62479589  0.87498962  1
  Fe  Fe12  1  0.24700670  0.00046705  0.25137362  1
  Fe  Fe13  1  0.62714281  0.87518044  0.87629409  1
  Fe  Fe14  1  0.12460200  0.62571787  0.62814589  1
  Fe  Fe15  1  0.00178747  0.25109974  0.74915500  1
  Fe  Fe16  1  0.87797197  0.12492246  0.37472154  1
  Fe  Fe17  1  0.37394531  0.87421482  0.87408014  1
  Fe  Fe18  1  0.62387526  0.62505199  0.62285634  1
  Fe  Fe19  1  0.75111008  0.24996899  0.00021885  1
  Fe  Fe20  1  0.87704913  0.12273177  0.87610629  1
  Fe  Fe21  1  0.75261684  0.25175254  0.24975663  1
  Fe  Fe22  1  0.75176186  0.24872093  0.50090683  1
  Fe  Fe23  1  0.12550413  0.86933848  0.87858718  1
  Fe  Fe24  1  0.00043387  0.75109813  0.24864472  1
  Fe  Fe25  1  0.12794348  0.87372825  0.62224130  1
  Fe  Fe26  1  0.62551323  0.62487514  0.87585269  1
  Fe  Fe27  1  0.12326380  0.12424474  0.37644579  1
  Fe  Fe28  1  0.87838863  0.12333577  0.12402399  1
  Fe  Fe29  1  0.62602718  0.37295570  0.62414901  1
  Fe  Fe30  1  0.62336455  0.12591677  0.37706815  1
  Fe  Fe31  1  0.62651537  0.37436696  0.37550105  1
  Fe  Fe32  1  0.50116403  0.49789341  0.24804447  1
  Fe  Fe33  1  0.24828604  -0.00050333  -0.00099801  1
  Fe  Fe34  1  0.75078524  0.50017957  0.74833555  1
  Fe  Fe35  1  0.49855671  -0.00171884  0.50068791  1
  Fe  Fe36  1  0.75072129  0.74807927  0.24931895  1
  Fe  Fe37  1  0.87634622  0.62712801  0.62992360  1
  Fe  Fe38  1  0.62767073  0.87737623  0.62541356  1
  Fe  Fe39  1  0.49864367  0.25165218  0.24913863  1
  Fe  Fe40  1  0.12407548  0.37685631  0.62462765  1
  Fe  Fe41  1  0.37205291  0.12741885  0.87460151  1
  Fe  Fe42  1  0.62596636  0.12662075  0.12443642  1
  Fe  Fe43  1  0.87695106  0.87619378  0.37453923  1
  Fe  Fe44  1  0.87369721  0.87261629  0.87541529  1
  Fe  Fe45  1  0.37262465  0.12591459  0.12593095  1
  Fe  Fe46  1  0.24764474  0.50500459  0.49706925  1
  Fe  Fe47  1  0.49799973  0.25328316  0.00177165  1
  Fe  Fe48  1  0.37542998  0.12440739  0.37376730  1
  Fe  Fe49  1  0.87888504  0.62300737  0.37290761  1
  Fe  Fe50  1  0.37366114  0.87610853  0.12796267  1
  Fe  Fe51  1  0.49882445  -0.00005186  0.00132900  1
  Fe  Fe52  1  0.00382893  0.25357353  0.25064598  1
  Fe  Fe53  1  0.87718311  0.87767382  0.12359720  1
  Fe  Fe54  1  0.50072757  0.74975855  0.74986160  1
  Fe  Fe55  1  -0.00061405  -0.00070748  0.49924125  1
  Fe  Fe56  1  0.25047859  0.74885827  0.74920783  1
  Fe  Fe57  1  0.00087874  0.74904276  0.50090681  1
  Fe  Fe58  1  0.62381602  0.62405656  0.37563174  1
  Fe  Fe59  1  0.24902434  0.24956373  0.49924373  1
  Fe  Fe60  1  0.87771975  0.37706194  0.12311859  1
  Fe  Fe61  1  0.12469832  0.87355697  0.12428636  1
  Fe  Fe62  1  0.87514832  0.12346630  0.62544741  1
  Fe  Fe63  1  0.49827404  0.49736428  0.00252645  1
  Fe  Fe64  1  0.49684008  0.75292590  0.49965450  1
  Fe  Fe65  1  0.87514989  0.37593568  0.87362638  1
  Fe  Fe66  1  0.75292940  0.74612624  0.00241961  1
  Fe  Fe67  1  0.50040666  0.00076407  0.74962227  1
  Fe  Fe68  1  0.74950685  0.24784893  0.74942838  1
  Fe  Fe69  1  0.62499556  0.87424636  0.12447622  1
  Fe  Fe70  1  0.75136677  0.50321662  0.00151982  1
  Fe  Fe71  1  0.36920811  0.37617033  0.37099771  1
  Fe  Fe72  1  0.75326104  0.50061628  0.50192686  1
  Fe  Fe73  1  0.62568571  0.12413572  0.87661792  1
  Fe  Fe74  1  0.62468955  0.37596302  0.87600862  1
  Fe  Fe75  1  0.24873306  0.25309795  -0.00102852  1
  Fe  Fe76  1  0.75001738  0.00117113  0.24994893  1
  Fe  Fe77  1  0.62463251  0.87610957  0.37391885  1
  Fe  Fe78  1  0.00090784  0.50401524  -0.00495716  1
  Fe  Fe79  1  0.37474098  0.62672157  0.62314944  1
  Fe  Fe80  1  0.12332300  0.12463885  0.12295121  1
  Fe  Fe81  1  0.49898460  0.74915965  0.25055168  1
  Fe  Fe82  1  0.49756322  0.74966635  0.00097310  1
  Fe  Fe83  1  0.37410107  0.62285572  0.12687342  1
  Fe  Fe84  1  0.49816619  0.49974788  0.74959957  1
  Fe  Fe85  1  0.00202989  -0.00278089  0.75334102  1
  Fe  Fe86  1  0.12357004  0.62501807  0.12406945  1
  Fe  Fe87  1  0.24938864  0.49866916  -0.00190499  1
  Fe  Fe88  1  0.24967508  0.74669979  0.25535690  1
  Fe  Fe89  1  0.49918215  0.25024562  0.74871322  1
  Co  Co90  1  0.87417664  0.62754258  0.86979234  1
  Co  Co91  1  0.37430361  0.37379957  0.87336751  1
  Co  Co92  1  0.00225458  0.00002184  0.25019710  1
  Co  Co93  1  0.62759279  0.37408813  0.12425748  1
  Co  Co94  1  0.00276452  0.75262933  0.75054693  1
  Co  Co95  1  0.49668366  0.25375496  0.49848390  1
  Co  Co96  1  0.37220459  0.87412434  0.62665007  1
  Co  Co97  1  0.00299475  -0.00157492  -0.00280964  1
  Co  Co98  1  0.00195465  0.24818088  0.50171470  1
  Co  Co99  1  0.24874829  0.25130345  0.74744565  1
  Co  Co100  1  0.12615485  0.12753741  0.87418899  1
  Co  Co101  1  0.87586659  0.37252276  0.62517130  1
  Co  Co102  1  0.75126353  0.00096932  0.49803073  1
  Co  Co103  1  0.62371588  0.12555218  0.62175647  1
  Co  Co104  1  0.12430475  0.37667290  0.37975820  1
  Co  Co105  1  -0.00092062  0.49927659  0.75180508  1
  Co  Co106  1  0.12561561  0.37658472  0.12231041  1
  Co  Co107  1  0.74994990  0.00150334  0.75094421  1
  Co  Co108  1  -0.00124577  0.50265444  0.50477877  1
  Co  Co109  1  0.24461533  0.24852456  0.25092922  1
  Co  Co110  1  0.75071632  0.00034549  0.00151042  1
  Co  Co111  1  -0.00317616  0.74637172  0.00069954  1
  Co  Co112  1  0.24505179  0.50323903  0.25172621  1
  Co  Co113  1  0.12407369  0.87400081  0.37643483  1
  Co  Co114  1  0.11789696  0.62438539  0.37442683  1
  Co  Co115  1  0.25079617  0.50084674  0.75058033  1
  Co  Co116  1  0.62375027  0.62513434  0.12530400  1
  Co  Co117  1  0.37860137  0.62296704  0.37484819  1
  Co  Co118  1  0.37007957  0.37502505  0.12856637  1
  Co  Co119  1  0.00343959  0.49496884  0.24956399  1
  Co  Co120  1  0.74657687  0.74994857  0.74873372  1
  Co  Co121  1  0.25020511  0.74729641  0.49568145  1
  Co  Co122  1  0.12737899  0.62747902  0.87388145  1
  Co  Co123  1  0.50170418  0.00191437  0.24783029  1
  Co  Co124  1  0.37479315  0.87671882  0.37252006  1
  Co  Co125  1  0.87800029  0.62157190  0.12955282  1
  Co  Co126  1  0.12564914  0.37549503  0.87203339  1
  Co  Co127  1  0.25257563  0.74915631  0.00231158  1
