# generated using pymatgen
data_Fe45Co19
_symmetry_space_group_name_H-M   'P 1'
_cell_length_a   11.41601151
_cell_length_b   11.41509357
_cell_length_c   11.41585898
_cell_angle_alpha   90.00254780
_cell_angle_beta   89.99781921
_cell_angle_gamma   89.99558610
_symmetry_Int_Tables_number   1
_chemical_formula_structural   Fe45Co19
_chemical_formula_sum   'Fe90 Co38'
_cell_volume   1487.65582554
_cell_formula_units_Z   2
loop_
 _symmetry_equiv_pos_site_id
 _symmetry_equiv_pos_as_xyz
  1  'x, y, z'
loop_
 _atom_site_type_symbol
 _atom_site_label
 _atom_site_symmetry_multiplicity
 _atom_site_fract_x
 _atom_site_fract_y
 _atom_site_fract_z
 _atom_site_occupancy
  Fe  Fe0  1  0.24951295  0.49941067  -0.00219008  1
  Fe  Fe1  1  0.62339624  0.87648752  0.37663775  1
  Fe  Fe2  1  0.62743557  0.62518492  0.12509620  1
  Fe  Fe3  1  0.37329683  0.12472431  0.12661420  1
  Fe  Fe4  1  0.75178853  0.49380097  0.75121290  1
  Fe  Fe5  1  0.24892152  0.75078970  0.75145038  1
  Fe  Fe6  1  0.62484405  0.37318010  0.62574389  1
  Fe  Fe7  1  0.12134792  0.37631184  0.87470262  1
  Fe  Fe8  1  0.75050236  0.25242961  0.49905340  1
  Fe  Fe9  1  0.37910516  0.87709861  0.62389818  1
  Fe  Fe10  1  0.75243031  -0.00154729  0.50019623  1
  Fe  Fe11  1  0.49968580  0.24686650  0.50162223  1
  Fe  Fe12  1  -0.00096685  0.50394408  0.50285556  1
  Fe  Fe13  1  0.37140169  0.12655142  0.37561499  1
  Fe  Fe14  1  0.75095039  0.49878660  0.50151505  1
  Fe  Fe15  1  0.50126276  0.24742777  0.00089964  1
  Fe  Fe16  1  0.75178893  0.49819188  0.24881398  1
  Fe  Fe17  1  0.62121536  0.87902861  0.62357990  1
  Fe  Fe18  1  0.87984816  0.87295275  0.37777591  1
  Fe  Fe19  1  0.74979570  0.00032519  0.00261343  1
  Fe  Fe20  1  0.37491323  0.62424717  0.37395346  1
  Fe  Fe21  1  0.62991540  0.12618967  0.87326197  1
  Fe  Fe22  1  0.87463016  0.13050896  0.62462092  1
  Fe  Fe23  1  0.87646291  0.37151912  0.12492747  1
  Fe  Fe24  1  0.49900403  0.74963663  0.24917907  1
  Fe  Fe25  1  0.37119421  0.12503215  0.87441585  1
  Fe  Fe26  1  0.62524941  0.62351437  0.37444135  1
  Fe  Fe27  1  0.24733927  0.75137635  0.49600173  1
  Fe  Fe28  1  0.00103224  0.74733223  0.00167853  1
  Fe  Fe29  1  0.74977226  0.49554126  -0.00145129  1
  Fe  Fe30  1  0.37545328  0.87380921  0.12436340  1
  Fe  Fe31  1  0.24959355  -0.00376749  0.49817131  1
  Fe  Fe32  1  0.50098478  0.50237126  -0.00142562  1
  Fe  Fe33  1  0.24746087  0.00035323  0.00085213  1
  Fe  Fe34  1  0.24766780  0.74868612  -0.00136679  1
  Fe  Fe35  1  0.00243166  0.74406376  0.24917670  1
  Fe  Fe36  1  0.25036058  0.49946152  0.75154366  1
  Fe  Fe37  1  0.62832390  0.62473423  0.62566988  1
  Fe  Fe38  1  0.50217582  0.74976630  0.75367070  1
  Fe  Fe39  1  0.87721166  0.87427969  0.12648615  1
  Fe  Fe40  1  0.87622676  0.37559618  0.37538203  1
  Fe  Fe41  1  0.87364933  0.62414610  0.87517277  1
  Fe  Fe42  1  0.37642355  0.37419828  0.62585168  1
  Fe  Fe43  1  0.37296297  0.62674417  0.62593416  1
  Fe  Fe44  1  0.49968674  0.00096588  0.25122728  1
  Fe  Fe45  1  0.24834559  -0.00194105  0.25153332  1
  Fe  Fe46  1  -0.00025988  0.50433016  0.00436026  1
  Fe  Fe47  1  0.12229467  0.37369574  0.12668665  1
  Fe  Fe48  1  0.24994621  -0.00164309  0.74886115  1
  Fe  Fe49  1  -0.00211887  0.50241136  0.74634141  1
  Fe  Fe50  1  0.49951811  0.25020092  0.25059401  1
  Fe  Fe51  1  0.50152919  0.00197406  -0.00102559  1
  Fe  Fe52  1  0.12481430  0.12700585  0.62319084  1
  Fe  Fe53  1  0.62848906  0.12475581  0.37401120  1
  Fe  Fe54  1  0.62333761  0.87510047  0.12426749  1
  Fe  Fe55  1  0.00083609  0.24688731  0.25461394  1
  Fe  Fe56  1  0.24982367  0.25369826  0.49917231  1
  Fe  Fe57  1  0.12416275  0.87481748  0.12729971  1
  Fe  Fe58  1  0.75127181  -0.00157305  0.74771608  1
  Fe  Fe59  1  0.37320134  0.62620161  0.12458153  1
  Fe  Fe60  1  0.50006196  0.50160179  0.75033263  1
  Fe  Fe61  1  0.24779607  0.25024252  0.00094374  1
  Fe  Fe62  1  0.49986306  0.24434198  0.74678587  1
  Fe  Fe63  1  0.62265197  0.37622780  0.37437309  1
  Fe  Fe64  1  0.62464437  0.37318569  0.12594102  1
  Fe  Fe65  1  0.37735209  0.87542859  0.87580132  1
  Fe  Fe66  1  0.87619810  0.87654368  0.87545243  1
  Fe  Fe67  1  0.12171540  0.87396009  0.62174299  1
  Fe  Fe68  1  0.87775628  0.87142786  0.62083647  1
  Fe  Fe69  1  0.87252581  0.12781945  0.12634810  1
  Fe  Fe70  1  0.74851999  0.75289186  0.75026657  1
  Fe  Fe71  1  0.12092689  0.37397581  0.62521329  1
  Fe  Fe72  1  0.00026639  0.74659857  0.74772659  1
  Fe  Fe73  1  0.25169320  0.49836537  0.50031023  1
  Fe  Fe74  1  0.37749970  0.37352136  0.87410635  1
  Fe  Fe75  1  0.75026270  0.75185954  0.25153798  1
  Fe  Fe76  1  0.24800685  0.25093231  0.74994224  1
  Fe  Fe77  1  0.75135348  -0.00117864  0.24986300  1
  Fe  Fe78  1  0.49893989  0.50041893  0.50126613  1
  Fe  Fe79  1  0.25254756  0.49701720  0.25006946  1
  Fe  Fe80  1  0.50107785  0.74918944  0.49916910  1
  Fe  Fe81  1  0.00048030  0.00273472  -0.00025062  1
  Fe  Fe82  1  0.87373877  0.62595367  0.37682486  1
  Fe  Fe83  1  -0.00011255  0.00292871  0.74845275  1
  Fe  Fe84  1  0.12254962  0.87563067  0.87487897  1
  Fe  Fe85  1  0.00023712  0.00464485  0.25280988  1
  Fe  Fe86  1  0.37632136  0.37444069  0.12542757  1
  Fe  Fe87  1  0.74936054  0.75236993  -0.00135235  1
  Fe  Fe88  1  0.12333002  0.37781077  0.37375252  1
  Fe  Fe89  1  0.00021901  0.24451498  -0.00423107  1
  Co  Co90  1  0.86888014  0.62657692  0.62516191  1
  Co  Co91  1  0.12781702  0.12282351  0.87332965  1
  Co  Co92  1  0.75047899  0.25250544  -0.00202577  1
  Co  Co93  1  0.12622725  0.62023628  0.37328135  1
  Co  Co94  1  0.62870877  0.62337011  0.87442294  1
  Co  Co95  1  0.88100504  0.37712344  0.87742417  1
  Co  Co96  1  0.75048226  0.25310472  0.25095421  1
  Co  Co97  1  0.87089416  0.12207634  0.87393023  1
  Co  Co98  1  0.11822877  0.87535801  0.37490831  1
  Co  Co99  1  0.37438952  0.62538791  0.87442936  1
  Co  Co100  1  0.24936640  0.75211736  0.25296000  1
  Co  Co101  1  0.12964526  0.12451220  0.37762745  1
  Co  Co102  1  0.86980796  0.62646358  0.12385902  1
  Co  Co103  1  0.00035729  0.24865990  0.49529585  1
  Co  Co104  1  0.62687967  0.12627617  0.12736006  1
  Co  Co105  1  -0.00392250  0.50236369  0.24747221  1
  Co  Co106  1  -0.00058505  0.24772107  0.75380606  1
  Co  Co107  1  0.13004892  0.62400365  0.62546851  1
  Co  Co108  1  0.37758383  0.87516850  0.37553127  1
  Co  Co109  1  0.62539613  0.87888995  0.87547988  1
  Co  Co110  1  0.12512060  0.12554078  0.12653765  1
  Co  Co111  1  0.49978210  0.00513930  0.49845888  1
  Co  Co112  1  0.50182870  0.74851086  -0.00129177  1
  Co  Co113  1  0.87071596  0.12532085  0.37557763  1
  Co  Co114  1  0.74743156  0.75236054  0.49937037  1
  Co  Co115  1  0.12341168  0.62378953  0.87378067  1
  Co  Co116  1  0.37789636  0.37428092  0.37527384  1
  Co  Co117  1  0.63090453  0.12525821  0.62493198  1
  Co  Co118  1  0.24921954  0.25237801  0.24954598  1
  Co  Co119  1  0.12965482  0.62325324  0.12739501  1
  Co  Co120  1  0.61950560  0.37205948  0.87353460  1
  Co  Co121  1  0.49924551  0.00465399  0.75132129  1
  Co  Co122  1  -0.00147963  0.00437959  0.50038800  1
  Co  Co123  1  0.36984235  0.12303358  0.62287001  1
  Co  Co124  1  0.87844497  0.37131824  0.62280454  1
  Co  Co125  1  0.00290485  0.74344737  0.50150805  1
  Co  Co126  1  0.75371170  0.25625455  0.75293556  1
  Co  Co127  1  0.49950377  0.50070806  0.24839083  1
