# generated using pymatgen
data_Fe45Co19
_symmetry_space_group_name_H-M   'P 1'
_cell_length_a   11.41578778
_cell_length_b   11.41354130
_cell_length_c   11.41505115
_cell_angle_alpha   89.99351673
_cell_angle_beta   89.99827134
_cell_angle_gamma   89.99688634
_symmetry_Int_Tables_number   1
_chemical_formula_structural   Fe45Co19
_chemical_formula_sum   'Fe90 Co38'
_cell_volume   1487.31911569
_cell_formula_units_Z   2
loop_
 _symmetry_equiv_pos_site_id
 _symmetry_equiv_pos_as_xyz
  1  'x, y, z'
loop_
 _atom_site_type_symbol
 _atom_site_label
 _atom_site_symmetry_multiplicity
 _atom_site_fract_x
 _atom_site_fract_y
 _atom_site_fract_z
 _atom_site_occupancy
  Fe  Fe0  1  0.75023776  0.49877052  0.50436508  1
  Fe  Fe1  1  0.87630481  0.87588594  0.12565861  1
  Fe  Fe2  1  0.24878109  0.25319136  0.74772365  1
  Fe  Fe3  1  0.87617182  0.12542155  0.12387568  1
  Fe  Fe4  1  0.74826341  0.25073534  0.00198630  1
  Fe  Fe5  1  0.74938460  0.00206567  0.50142822  1
  Fe  Fe6  1  0.62328646  0.12704582  0.87600010  1
  Fe  Fe7  1  0.87783237  0.37580643  0.12433470  1
  Fe  Fe8  1  0.74842466  0.00056829  -0.00086926  1
  Fe  Fe9  1  0.74947076  0.25307212  0.74798690  1
  Fe  Fe10  1  0.37409089  0.12599699  0.87480337  1
  Fe  Fe11  1  0.87438899  0.87523972  0.37474625  1
  Fe  Fe12  1  0.37340946  0.87557667  0.37603114  1
  Fe  Fe13  1  0.87965788  0.37536878  0.62538820  1
  Fe  Fe14  1  0.50016464  0.74720711  0.25157172  1
  Fe  Fe15  1  0.37534880  0.62316103  0.62187519  1
  Fe  Fe16  1  0.24880736  0.00048568  0.00006588  1
  Fe  Fe17  1  0.37538090  0.12427030  0.12322848  1
  Fe  Fe18  1  0.12594204  0.87432253  0.87383507  1
  Fe  Fe19  1  0.37172808  0.37903811  0.87691201  1
  Fe  Fe20  1  0.12157210  0.62236042  0.12501359  1
  Fe  Fe21  1  0.24796661  0.50009274  0.25096890  1
  Fe  Fe22  1  0.49871341  0.74900350  0.75072481  1
  Fe  Fe23  1  0.00227445  0.25283293  -0.00406795  1
  Fe  Fe24  1  0.00030214  0.24777166  0.25096713  1
  Fe  Fe25  1  0.24850483  0.24816339  0.25100513  1
  Fe  Fe26  1  0.00116374  0.00052694  -0.00126178  1
  Fe  Fe27  1  0.74987982  0.00236951  0.24895884  1
  Fe  Fe28  1  0.12664331  0.87725625  0.37277303  1
  Fe  Fe29  1  0.62263774  0.37431088  0.12844691  1
  Fe  Fe30  1  0.74989204  0.49730096  -0.00187752  1
  Fe  Fe31  1  0.62448147  0.87462068  0.62440149  1
  Fe  Fe32  1  0.49921490  0.75052115  0.49950069  1
  Fe  Fe33  1  0.62289698  0.87723485  0.12504633  1
  Fe  Fe34  1  0.12559618  0.12681712  0.87397431  1
  Fe  Fe35  1  0.62701602  0.62480168  0.37692721  1
  Fe  Fe36  1  0.00226051  0.74798296  0.49897277  1
  Fe  Fe37  1  0.24967671  0.00090864  0.50113476  1
  Fe  Fe38  1  0.49943555  0.25278757  0.00060798  1
  Fe  Fe39  1  0.87449840  0.12637728  0.37554344  1
  Fe  Fe40  1  -0.00042912  0.00118458  0.50050949  1
  Fe  Fe41  1  0.12285904  0.12842414  0.62500625  1
  Fe  Fe42  1  0.49934938  0.00335461  0.25124483  1
  Fe  Fe43  1  0.24872604  0.00083894  0.74930181  1
  Fe  Fe44  1  0.37498822  0.87556820  0.62386104  1
  Fe  Fe45  1  0.49859471  0.25325223  0.74994430  1
  Fe  Fe46  1  0.12517677  0.87435224  0.62552040  1
  Fe  Fe47  1  0.75066076  0.74851465  0.24886005  1
  Fe  Fe48  1  0.87600441  0.87460139  0.62531927  1
  Fe  Fe49  1  0.37409919  0.12843199  0.37908720  1
  Fe  Fe50  1  0.87611680  0.12673374  0.87299215  1
  Fe  Fe51  1  0.74846579  0.75060891  0.00035886  1
  Fe  Fe52  1  0.87432117  0.87448961  0.87353009  1
  Fe  Fe53  1  0.37419323  0.87520272  0.87557874  1
  Fe  Fe54  1  -0.00143600  0.49816176  0.75775675  1
  Fe  Fe55  1  0.62572822  0.13029943  0.37629180  1
  Fe  Fe56  1  0.37571111  0.12663038  0.62345337  1
  Fe  Fe57  1  0.50114038  0.49586975  0.49668525  1
  Fe  Fe58  1  0.00081236  0.74765674  -0.00198996  1
  Fe  Fe59  1  0.62626192  0.62170454  0.87266888  1
  Fe  Fe60  1  0.75029978  0.74622956  0.74682099  1
  Fe  Fe61  1  0.37698195  0.37802799  0.12822664  1
  Fe  Fe62  1  0.50003984  0.49777047  0.74995644  1
  Fe  Fe63  1  0.24983750  0.74603267  -0.00030873  1
  Fe  Fe64  1  0.50063021  -0.00032098  0.75081998  1
  Fe  Fe65  1  0.25201261  0.74638234  0.74965857  1
  Fe  Fe66  1  0.37210476  0.62346682  0.37709066  1
  Fe  Fe67  1  0.25054928  0.74855888  0.24975416  1
  Fe  Fe68  1  0.24953276  0.25202362  0.00169290  1
  Fe  Fe69  1  0.37603091  0.87587617  0.12437846  1
  Fe  Fe70  1  0.74929547  0.00076056  0.74958776  1
  Fe  Fe71  1  -0.00145114  0.74837147  0.25087606  1
  Fe  Fe72  1  0.50095374  0.74860497  -0.00270206  1
  Fe  Fe73  1  0.37841704  0.62209562  0.12487415  1
  Fe  Fe74  1  0.12339905  0.62258128  0.62666198  1
  Fe  Fe75  1  0.12275574  0.37653773  0.12521976  1
  Fe  Fe76  1  0.75138721  0.74683169  0.50361531  1
  Fe  Fe77  1  0.87593801  0.62231633  0.12281204  1
  Fe  Fe78  1  -0.00033082  0.74803040  0.75237122  1
  Fe  Fe79  1  0.37362151  0.37470326  0.62156016  1
  Fe  Fe80  1  0.62460693  0.62179508  0.12577386  1
  Fe  Fe81  1  0.75133704  0.49887405  0.25034139  1
  Fe  Fe82  1  0.24368239  0.49623370  0.49917718  1
  Fe  Fe83  1  0.87601334  0.62306264  0.37691130  1
  Fe  Fe84  1  0.62635425  0.37066238  0.37403943  1
  Fe  Fe85  1  0.87773056  0.37541065  0.37604747  1
  Fe  Fe86  1  0.12526689  0.87744254  0.12786250  1
  Fe  Fe87  1  0.62608887  0.87461719  0.37554095  1
  Fe  Fe88  1  0.87806663  0.12773413  0.62719623  1
  Fe  Fe89  1  0.62267207  0.12912359  0.62250464  1
  Co  Co90  1  0.24779816  0.74934223  0.50109780  1
  Co  Co91  1  0.62590285  0.37433433  0.87385469  1
  Co  Co92  1  0.75370205  0.25229161  0.50272413  1
  Co  Co93  1  0.12550984  0.62533884  0.37325635  1
  Co  Co94  1  0.75067958  0.49953306  0.74695230  1
  Co  Co95  1  0.50105573  0.00071130  0.49954899  1
  Co  Co96  1  0.12279916  0.37302477  0.37176894  1
  Co  Co97  1  0.50154587  0.49806842  -0.00086241  1
  Co  Co98  1  0.00449393  0.49999397  0.49716666  1
  Co  Co99  1  0.62394603  0.12603381  0.12460163  1
  Co  Co100  1  0.24653867  0.25329325  0.50081530  1
  Co  Co101  1  0.12050724  0.37572340  0.62787786  1
  Co  Co102  1  0.62657275  0.87435239  0.87349584  1
  Co  Co103  1  0.87027358  0.37244163  0.87459278  1
  Co  Co104  1  0.00146139  0.25020183  0.49871145  1
  Co  Co105  1  0.49848870  0.25400521  0.50003710  1
  Co  Co106  1  0.88021272  0.62128879  0.62501555  1
  Co  Co107  1  0.12482910  0.12511962  0.12452361  1
  Co  Co108  1  0.12566232  0.12368756  0.37588056  1
  Co  Co109  1  0.13197281  0.37792171  0.87549478  1
  Co  Co110  1  0.75327606  0.25078895  0.24820161  1
  Co  Co111  1  0.00196091  0.25367884  0.75452458  1
  Co  Co112  1  0.24988306  0.50206430  0.00457341  1
  Co  Co113  1  0.49740152  0.24864768  0.24992420  1
  Co  Co114  1  0.87126720  0.62559325  0.87636922  1
  Co  Co115  1  0.12889812  0.62128227  0.87424954  1
  Co  Co116  1  0.00083892  -0.00050929  0.75027193  1
  Co  Co117  1  0.50106238  0.50079036  0.25475397  1
  Co  Co118  1  -0.00138181  0.00228839  0.25029581  1
  Co  Co119  1  -0.00069666  0.49843271  -0.00550597  1
  Co  Co120  1  0.62431291  0.37386163  0.62468523  1
  Co  Co121  1  0.62134552  0.62314848  0.62465611  1
  Co  Co122  1  0.49983144  0.00072839  -0.00234615  1
  Co  Co123  1  0.37490036  0.62113689  0.87564849  1
  Co  Co124  1  0.37209613  0.37432896  0.37334874  1
  Co  Co125  1  0.25208676  0.49991168  0.74621496  1
  Co  Co126  1  -0.00090083  0.50106213  0.25076451  1
  Co  Co127  1  0.25299308  0.00306827  0.24976653  1
