# generated using pymatgen
data_Fe45Co19
_symmetry_space_group_name_H-M   'P 1'
_cell_length_a   11.41567379
_cell_length_b   11.41516740
_cell_length_c   11.41451646
_cell_angle_alpha   90.01255243
_cell_angle_beta   89.99249533
_cell_angle_gamma   89.99710073
_symmetry_Int_Tables_number   1
_chemical_formula_structural   Fe45Co19
_chemical_formula_sum   'Fe90 Co38'
_cell_volume   1487.44644695
_cell_formula_units_Z   2
loop_
 _symmetry_equiv_pos_site_id
 _symmetry_equiv_pos_as_xyz
  1  'x, y, z'
loop_
 _atom_site_type_symbol
 _atom_site_label
 _atom_site_symmetry_multiplicity
 _atom_site_fract_x
 _atom_site_fract_y
 _atom_site_fract_z
 _atom_site_occupancy
  Fe  Fe0  1  0.24766943  0.24814169  -0.00073958  1
  Fe  Fe1  1  0.37828910  0.12446263  0.87037167  1
  Fe  Fe2  1  0.62558703  0.12432820  0.37425401  1
  Fe  Fe3  1  0.24969678  0.50098720  0.00304479  1
  Fe  Fe4  1  0.62948791  0.37695728  0.37197163  1
  Fe  Fe5  1  0.75019240  0.00065193  0.49853877  1
  Fe  Fe6  1  0.37419590  0.87498473  0.62454835  1
  Fe  Fe7  1  0.37485974  0.12566369  0.37512408  1
  Fe  Fe8  1  0.24735547  0.49761620  0.74985195  1
  Fe  Fe9  1  0.87598336  0.62310125  0.87793685  1
  Fe  Fe10  1  0.87520903  0.87564423  0.87479007  1
  Fe  Fe11  1  0.50156028  0.74853361  0.49954066  1
  Fe  Fe12  1  -0.00124883  0.49646737  0.49593097  1
  Fe  Fe13  1  0.87166559  0.62082983  0.37087607  1
  Fe  Fe14  1  0.50119454  0.25287987  0.49970111  1
  Fe  Fe15  1  0.75001014  0.24737314  0.00270006  1
  Fe  Fe16  1  0.87738782  0.12555620  0.87300650  1
  Fe  Fe17  1  0.00260047  0.25029786  0.00362869  1
  Fe  Fe18  1  0.00209965  0.74993099  0.25108355  1
  Fe  Fe19  1  0.24949089  0.00230335  -0.00116160  1
  Fe  Fe20  1  0.12671546  0.61805790  0.37133468  1
  Fe  Fe21  1  0.74882722  0.00136509  0.75210655  1
  Fe  Fe22  1  0.50140953  0.75184486  0.25132044  1
  Fe  Fe23  1  0.87438464  0.62273907  0.62493908  1
  Fe  Fe24  1  0.49884587  0.75044702  -0.00277327  1
  Fe  Fe25  1  -0.00125073  0.25347047  0.49653451  1
  Fe  Fe26  1  0.50021613  -0.00064845  0.25032597  1
  Fe  Fe27  1  0.87506535  0.87537367  0.62438883  1
  Fe  Fe28  1  0.87458709  0.12781234  0.37112463  1
  Fe  Fe29  1  0.62717049  0.37428658  0.87753874  1
  Fe  Fe30  1  0.25014233  0.74956511  -0.00188916  1
  Fe  Fe31  1  0.62620030  0.62346222  0.87636177  1
  Fe  Fe32  1  0.11973672  0.12911830  0.62822009  1
  Fe  Fe33  1  0.37149216  0.37580668  0.37403734  1
  Fe  Fe34  1  0.24834470  0.74929261  0.75181576  1
  Fe  Fe35  1  0.24686531  0.24959897  0.24889578  1
  Fe  Fe36  1  0.62612563  0.87782191  0.12155995  1
  Fe  Fe37  1  0.87352486  0.37568382  0.62382851  1
  Fe  Fe38  1  0.24686524  0.00087310  0.74933605  1
  Fe  Fe39  1  0.62540906  0.12293380  0.12385560  1
  Fe  Fe40  1  0.87528855  0.37646417  0.88067509  1
  Fe  Fe41  1  0.62462150  0.12848233  0.62661177  1
  Fe  Fe42  1  0.12320103  0.12320421  0.37141726  1
  Fe  Fe43  1  0.62872655  0.62248321  0.62420481  1
  Fe  Fe44  1  0.12309166  0.62273608  0.62438465  1
  Fe  Fe45  1  0.50005568  0.50058369  0.00124255  1
  Fe  Fe46  1  0.37351139  0.37511136  0.87550030  1
  Fe  Fe47  1  0.24989603  0.75089730  0.25225243  1
  Fe  Fe48  1  0.87424693  0.87490254  0.37513612  1
  Fe  Fe49  1  0.50200870  0.49745443  0.75035049  1
  Fe  Fe50  1  0.00189388  0.75079967  0.00007341  1
  Fe  Fe51  1  0.12103848  0.12681382  0.87186747  1
  Fe  Fe52  1  0.37636481  0.62737113  0.12471123  1
  Fe  Fe53  1  0.37492078  0.87633021  0.37752488  1
  Fe  Fe54  1  0.00008402  0.75027250  0.75148274  1
  Fe  Fe55  1  0.87387469  0.87479672  0.12532138  1
  Fe  Fe56  1  0.37412232  0.87709867  0.12455770  1
  Fe  Fe57  1  0.37566932  0.37215993  0.12422739  1
  Fe  Fe58  1  0.50064045  0.00060930  0.50093549  1
  Fe  Fe59  1  0.24809883  0.00195055  0.49979794  1
  Fe  Fe60  1  -0.00041098  0.49652498  0.75172188  1
  Fe  Fe61  1  0.37609021  0.87769663  0.87309570  1
  Fe  Fe62  1  0.50135080  0.24991123  0.25049047  1
  Fe  Fe63  1  0.75120851  0.74793368  0.75124964  1
  Fe  Fe64  1  0.00003870  0.50074450  0.00829773  1
  Fe  Fe65  1  0.75039311  0.50103554  0.00868395  1
  Fe  Fe66  1  0.12651469  0.87745547  0.12648322  1
  Fe  Fe67  1  0.37329087  0.37283339  0.62553457  1
  Fe  Fe68  1  0.75193535  0.25180573  0.75071579  1
  Fe  Fe69  1  0.62794636  0.62283845  0.37465564  1
  Fe  Fe70  1  0.24805885  0.74748754  0.49816349  1
  Fe  Fe71  1  0.49991503  0.24718040  -0.00157214  1
  Fe  Fe72  1  0.37467117  0.62209285  0.37533915  1
  Fe  Fe73  1  0.37494681  0.62449680  0.62610113  1
  Fe  Fe74  1  0.37407182  0.12426131  0.12629252  1
  Fe  Fe75  1  -0.00126625  0.00109856  0.49930922  1
  Fe  Fe76  1  0.50095840  0.49929463  0.24709628  1
  Fe  Fe77  1  0.62725350  0.87307773  0.62346716  1
  Fe  Fe78  1  0.87710223  0.12619766  0.12959549  1
  Fe  Fe79  1  0.12326859  0.87443535  0.62380025  1
  Fe  Fe80  1  0.75041606  0.74942472  -0.00056071  1
  Fe  Fe81  1  0.75107382  0.25167238  0.49937282  1
  Fe  Fe82  1  -0.00073486  0.74748827  0.49750551  1
  Fe  Fe83  1  0.37677082  0.12716220  0.62737604  1
  Fe  Fe84  1  0.12451371  0.62352749  0.87707148  1
  Fe  Fe85  1  0.50142135  0.75009855  0.75215328  1
  Fe  Fe86  1  0.74734593  0.75100288  0.25028692  1
  Fe  Fe87  1  0.50076010  0.49767108  0.50099025  1
  Fe  Fe88  1  0.24702452  0.25062068  0.49991658  1
  Fe  Fe89  1  -0.00067905  -0.00032712  0.00038326  1
  Co  Co90  1  0.75213570  0.49811122  0.49944830  1
  Co  Co91  1  0.62220134  0.37168682  0.12313638  1
  Co  Co92  1  0.12462914  0.87615556  0.87576363  1
  Co  Co93  1  0.62446050  0.12675888  0.87430583  1
  Co  Co94  1  0.12631224  0.62739075  0.12688542  1
  Co  Co95  1  0.87571455  0.63062262  0.12638050  1
  Co  Co96  1  0.49909278  0.00231088  -0.00026900  1
  Co  Co97  1  -0.00059096  -0.00182266  0.75012696  1
  Co  Co98  1  -0.00209606  -0.00174823  0.25008056  1
  Co  Co99  1  0.75182365  0.49892621  0.75186448  1
  Co  Co100  1  0.62598763  0.87569631  0.87827323  1
  Co  Co101  1  0.00512247  0.25341306  0.25100149  1
  Co  Co102  1  0.87469189  0.36961023  0.12808400  1
  Co  Co103  1  0.25064718  0.49952486  0.50322137  1
  Co  Co104  1  0.12339725  0.37314083  0.62418768  1
  Co  Co105  1  0.50384137  -0.00166370  0.74845288  1
  Co  Co106  1  0.25121585  -0.00006353  0.25214158  1
  Co  Co107  1  0.62812794  0.37454680  0.62546366  1
  Co  Co108  1  0.75247106  0.74833931  0.49922362  1
  Co  Co109  1  0.12814008  0.37958721  0.37252010  1
  Co  Co110  1  0.25413688  0.49975194  0.24457584  1
  Co  Co111  1  0.75024724  -0.00045499  0.25035750  1
  Co  Co112  1  -0.00326385  0.49819463  0.24573132  1
  Co  Co113  1  0.37418856  0.62317658  0.87407892  1
  Co  Co114  1  0.24871473  0.25129049  0.75202630  1
  Co  Co115  1  0.62500677  0.87532254  0.37696770  1
  Co  Co116  1  0.50097346  0.25384359  0.75096995  1
  Co  Co117  1  0.12415445  0.12176352  0.12688148  1
  Co  Co118  1  0.74952251  0.50055948  0.24086797  1
  Co  Co119  1  0.62232567  0.62879543  0.12391676  1
  Co  Co120  1  0.12701327  0.37538470  0.12595362  1
  Co  Co121  1  0.74620062  0.24876211  0.24715754  1
  Co  Co122  1  0.87102515  0.37429815  0.36796850  1
  Co  Co123  1  0.87563152  0.12503963  0.62522720  1
  Co  Co124  1  -0.00457507  0.25593546  0.75026601  1
  Co  Co125  1  0.12409843  0.87634919  0.37622594  1
  Co  Co126  1  0.12306101  0.37510051  0.87844179  1
  Co  Co127  1  0.75364326  0.00348191  -0.00105908  1
