# generated using pymatgen
data_Fe45Co19
_symmetry_space_group_name_H-M   'P 1'
_cell_length_a   11.41564010
_cell_length_b   11.41512876
_cell_length_c   11.41446858
_cell_angle_alpha   90.00108060
_cell_angle_beta   90.00135645
_cell_angle_gamma   89.99576939
_symmetry_Int_Tables_number   1
_chemical_formula_structural   Fe45Co19
_chemical_formula_sum   'Fe90 Co38'
_cell_volume   1487.43082959
_cell_formula_units_Z   2
loop_
 _symmetry_equiv_pos_site_id
 _symmetry_equiv_pos_as_xyz
  1  'x, y, z'
loop_
 _atom_site_type_symbol
 _atom_site_label
 _atom_site_symmetry_multiplicity
 _atom_site_fract_x
 _atom_site_fract_y
 _atom_site_fract_z
 _atom_site_occupancy
  Fe  Fe0  1  0.62537913  0.12490153  0.37197137  1
  Fe  Fe1  1  0.87518660  0.87373955  0.87607839  1
  Fe  Fe2  1  0.49964244  0.00128733  0.24758586  1
  Fe  Fe3  1  0.12520508  0.87468354  0.12630740  1
  Fe  Fe4  1  0.25154137  0.24740057  0.25368774  1
  Fe  Fe5  1  0.75191828  0.25145043  0.00004630  1
  Fe  Fe6  1  0.00304528  0.24582458  0.50087352  1
  Fe  Fe7  1  0.12305748  0.87605594  0.37704019  1
  Fe  Fe8  1  0.50194887  0.75132298  0.50113948  1
  Fe  Fe9  1  -0.00119000  0.25077373  0.24990500  1
  Fe  Fe10  1  0.12606203  0.62453775  0.87329610  1
  Fe  Fe11  1  0.24759181  0.50065152  0.49631400  1
  Fe  Fe12  1  0.37401707  0.37308276  0.62335437  1
  Fe  Fe13  1  0.87522785  0.12300681  0.37585188  1
  Fe  Fe14  1  0.37293826  0.37434536  0.12592147  1
  Fe  Fe15  1  0.24855749  0.75235957  0.49830251  1
  Fe  Fe16  1  0.24764590  0.24224259  0.49847441  1
  Fe  Fe17  1  0.75181408  0.75227465  0.24949908  1
  Fe  Fe18  1  0.87801641  0.37572658  0.37815548  1
  Fe  Fe19  1  0.62347579  0.37444557  0.87491745  1
  Fe  Fe20  1  0.87148984  0.61903498  0.62426632  1
  Fe  Fe21  1  0.12608514  0.12440513  0.12652268  1
  Fe  Fe22  1  0.62289466  0.37295938  0.37327788  1
  Fe  Fe23  1  0.49938950  -0.00024862  0.74821138  1
  Fe  Fe24  1  0.87573796  0.12646263  0.87433064  1
  Fe  Fe25  1  0.49911509  0.24578907  0.50049394  1
  Fe  Fe26  1  0.12911801  0.62471132  0.13088828  1
  Fe  Fe27  1  0.49946948  0.24956866  0.00072258  1
  Fe  Fe28  1  0.36891707  0.62865299  0.12326903  1
  Fe  Fe29  1  -0.00146053  0.75098326  0.74548540  1
  Fe  Fe30  1  0.24984600  0.24835025  0.75038815  1
  Fe  Fe31  1  0.49682993  0.50038082  0.24983649  1
  Fe  Fe32  1  0.87542645  0.37728260  0.12547734  1
  Fe  Fe33  1  0.37818458  0.87887819  0.37678805  1
  Fe  Fe34  1  0.37451224  0.62492573  0.62359775  1
  Fe  Fe35  1  0.75038932  0.74969134  0.00150033  1
  Fe  Fe36  1  0.25073127  0.75273865  0.74986806  1
  Fe  Fe37  1  0.62679303  0.62408040  0.12598848  1
  Fe  Fe38  1  0.37439346  0.37254511  0.37714629  1
  Fe  Fe39  1  0.12510800  0.11626991  0.62988207  1
  Fe  Fe40  1  0.00068690  0.24946340  0.00099849  1
  Fe  Fe41  1  0.87145279  0.87723616  0.37852629  1
  Fe  Fe42  1  -0.00077149  0.75214720  0.50350662  1
  Fe  Fe43  1  0.12570715  0.37499726  0.62324923  1
  Fe  Fe44  1  0.37437969  0.62661166  0.37601381  1
  Fe  Fe45  1  -0.00214589  0.75021267  0.24942921  1
  Fe  Fe46  1  0.87544751  0.62389829  0.37580574  1
  Fe  Fe47  1  0.62726048  0.12550940  0.87361474  1
  Fe  Fe48  1  0.62538481  0.87498950  0.87532010  1
  Fe  Fe49  1  0.75307386  0.00071270  0.74783789  1
  Fe  Fe50  1  0.37770817  0.87269800  0.87958067  1
  Fe  Fe51  1  0.37443081  0.12583267  0.87591817  1
  Fe  Fe52  1  0.75070624  -0.00006857  0.00203167  1
  Fe  Fe53  1  0.87512868  0.62128379  0.87319367  1
  Fe  Fe54  1  0.25025247  0.49911424  0.75003868  1
  Fe  Fe55  1  0.00497648  0.50115891  0.49772783  1
  Fe  Fe56  1  -0.00004595  0.00146198  -0.00099985  1
  Fe  Fe57  1  0.49794052  0.75057278  0.24815409  1
  Fe  Fe58  1  0.62444212  0.62508415  0.87333270  1
  Fe  Fe59  1  0.25207210  -0.00025855  0.25098060  1
  Fe  Fe60  1  0.75121613  0.74833675  0.74830014  1
  Fe  Fe61  1  0.12710016  0.62674488  0.62430025  1
  Fe  Fe62  1  0.49756362  0.24974013  0.74976580  1
  Fe  Fe63  1  0.62512108  0.37390957  0.12738964  1
  Fe  Fe64  1  0.87376329  0.12401417  0.12665351  1
  Fe  Fe65  1  0.49935751  0.75122090  0.74759083  1
  Fe  Fe66  1  0.24867049  0.25105512  -0.00195721  1
  Fe  Fe67  1  0.62479270  0.87427387  0.12542556  1
  Fe  Fe68  1  -0.00282964  -0.00124063  0.25005215  1
  Fe  Fe69  1  0.49734821  0.50037988  0.00089526  1
  Fe  Fe70  1  0.62875333  0.87353072  0.62211977  1
  Fe  Fe71  1  0.24934282  -0.00078435  -0.00130985  1
  Fe  Fe72  1  0.75158907  0.49829864  0.25284304  1
  Fe  Fe73  1  0.62642639  0.12760493  0.62679617  1
  Fe  Fe74  1  0.12280570  0.37595624  0.87430599  1
  Fe  Fe75  1  -0.00087684  0.25034077  0.74869373  1
  Fe  Fe76  1  0.62693242  0.12839022  0.12768090  1
  Fe  Fe77  1  0.37201096  0.88030423  0.62122988  1
  Fe  Fe78  1  0.50072291  0.49947301  0.74781262  1
  Fe  Fe79  1  0.75434353  0.25617884  0.74851593  1
  Fe  Fe80  1  0.50250782  0.50049480  0.50078901  1
  Fe  Fe81  1  0.12690514  0.37716926  0.12947126  1
  Fe  Fe82  1  0.75089100  0.25111568  0.50076088  1
  Fe  Fe83  1  0.75081866  0.49908280  -0.00145548  1
  Fe  Fe84  1  0.00200041  0.50199660  0.00247603  1
  Fe  Fe85  1  0.37462172  0.62669713  0.87701303  1
  Fe  Fe86  1  0.12184043  0.87624787  0.87134135  1
  Fe  Fe87  1  0.62491025  0.62720265  0.37475432  1
  Fe  Fe88  1  0.00079668  0.74760185  0.00160960  1
  Fe  Fe89  1  0.50050716  0.00176844  0.00212864  1
  Co  Co90  1  0.74543323  0.49784810  0.49869628  1
  Co  Co91  1  0.24698288  0.00380964  0.49544721  1
  Co  Co92  1  0.25138182  0.75360418  0.25440927  1
  Co  Co93  1  0.87126231  0.87600174  0.62233870  1
  Co  Co94  1  0.37354808  0.12237008  0.62501738  1
  Co  Co95  1  0.49698558  0.24976660  0.24961220  1
  Co  Co96  1  0.25393399  -0.00213161  0.75518638  1
  Co  Co97  1  0.62603914  0.62617270  0.62480886  1
  Co  Co98  1  0.87900446  0.37854543  0.62090896  1
  Co  Co99  1  0.12397387  0.62923518  0.37337926  1
  Co  Co100  1  0.37530457  0.37455237  0.87311818  1
  Co  Co101  1  0.12360644  0.12432618  0.87298517  1
  Co  Co102  1  0.00067838  0.49968999  0.25227609  1
  Co  Co103  1  0.75056936  0.74774855  0.49905729  1
  Co  Co104  1  0.00296695  0.50039471  0.74749087  1
  Co  Co105  1  0.87439513  0.62407868  0.12626484  1
  Co  Co106  1  0.24482867  0.75213223  -0.00196558  1
  Co  Co107  1  0.74709539  0.49500944  0.74847468  1
  Co  Co108  1  0.74735522  0.00327826  0.50066619  1
  Co  Co109  1  0.87952790  0.37740051  0.87537795  1
  Co  Co110  1  0.37834167  0.12209383  0.37575452  1
  Co  Co111  1  0.62195428  0.37246903  0.62356825  1
  Co  Co112  1  -0.00592682  -0.00207605  0.74943670  1
  Co  Co113  1  0.50540664  0.00204177  0.50249992  1
  Co  Co114  1  0.25141632  0.50023191  0.25584580  1
  Co  Co115  1  0.37250030  0.12643905  0.12357278  1
  Co  Co116  1  0.87664400  0.87495168  0.12266654  1
  Co  Co117  1  0.62438501  0.87435792  0.37473134  1
  Co  Co118  1  0.74995301  -0.00163449  0.24936479  1
  Co  Co119  1  0.12070086  0.12236507  0.37080685  1
  Co  Co120  1  0.87538125  0.12633084  0.62388578  1
  Co  Co121  1  0.37410643  0.87281525  0.12272815  1
  Co  Co122  1  0.75351214  0.25156090  0.25150442  1
  Co  Co123  1  -0.00064372  -0.00102697  0.50274069  1
  Co  Co124  1  0.24916901  0.49893292  -0.00161428  1
  Co  Co125  1  0.12515018  0.37158422  0.37437672  1
  Co  Co126  1  0.12780529  0.87909058  0.62588302  1
  Co  Co127  1  0.50317855  0.74830190  0.00178166  1
