# generated using pymatgen
data_Fe45Co19
_symmetry_space_group_name_H-M   'P 1'
_cell_length_a   11.41532679
_cell_length_b   11.41614590
_cell_length_c   11.41480014
_cell_angle_alpha   90.00385067
_cell_angle_beta   90.01055074
_cell_angle_gamma   90.00215357
_symmetry_Int_Tables_number   1
_chemical_formula_structural   Fe45Co19
_chemical_formula_sum   'Fe90 Co38'
_cell_volume   1487.56572191
_cell_formula_units_Z   2
loop_
 _symmetry_equiv_pos_site_id
 _symmetry_equiv_pos_as_xyz
  1  'x, y, z'
loop_
 _atom_site_type_symbol
 _atom_site_label
 _atom_site_symmetry_multiplicity
 _atom_site_fract_x
 _atom_site_fract_y
 _atom_site_fract_z
 _atom_site_occupancy
  Fe  Fe0  1  0.37200660  0.62384155  0.37061479  1
  Fe  Fe1  1  0.49699539  0.74873129  0.00095552  1
  Fe  Fe2  1  0.12807689  0.62475087  0.87949920  1
  Fe  Fe3  1  0.12447195  0.12423174  0.87556989  1
  Fe  Fe4  1  0.12700062  0.37213692  0.37154497  1
  Fe  Fe5  1  0.00069104  0.49886091  0.49921351  1
  Fe  Fe6  1  0.24820054  -0.00047836  0.00290818  1
  Fe  Fe7  1  0.24906998  0.50091078  0.49962288  1
  Fe  Fe8  1  0.37077942  0.87523115  0.62067276  1
  Fe  Fe9  1  0.24928499  0.00125678  0.74580435  1
  Fe  Fe10  1  0.49947506  0.25249847  0.75373152  1
  Fe  Fe11  1  0.75362215  0.00053847  0.24943050  1
  Fe  Fe12  1  0.12879949  0.87948317  0.37690708  1
  Fe  Fe13  1  0.37352763  0.12289800  0.37622341  1
  Fe  Fe14  1  0.49720126  0.75300966  0.25145538  1
  Fe  Fe15  1  0.25103828  0.49886785  0.75217466  1
  Fe  Fe16  1  0.25004552  0.75414410  0.24704023  1
  Fe  Fe17  1  0.37431969  0.87616549  0.87793585  1
  Fe  Fe18  1  0.00196146  0.24886799  0.49779835  1
  Fe  Fe19  1  0.87689875  0.87060237  0.62756304  1
  Fe  Fe20  1  0.87376200  0.37713138  0.87587550  1
  Fe  Fe21  1  0.49669189  0.74994300  0.49685910  1
  Fe  Fe22  1  0.75130096  0.49863061  0.24846084  1
  Fe  Fe23  1  -0.00208144  0.00515150  0.24758757  1
  Fe  Fe24  1  -0.00062384  0.75252411  0.25219630  1
  Fe  Fe25  1  0.75098376  -0.00030412  0.50239841  1
  Fe  Fe26  1  0.37778706  0.12049561  0.87530667  1
  Fe  Fe27  1  0.62451356  0.62658992  0.62522720  1
  Fe  Fe28  1  0.75230904  0.75017043  0.49678903  1
  Fe  Fe29  1  0.49855028  -0.00050889  0.50146909  1
  Fe  Fe30  1  0.75003655  0.50023781  0.74928564  1
  Fe  Fe31  1  0.75019570  0.25171148  0.75078048  1
  Fe  Fe32  1  0.62177914  0.37357591  0.12218680  1
  Fe  Fe33  1  0.49897589  0.75305360  0.74868703  1
  Fe  Fe34  1  0.37361620  0.37313935  0.62404204  1
  Fe  Fe35  1  0.24882358  0.49532895  0.24093291  1
  Fe  Fe36  1  0.87391017  0.12216246  0.87448979  1
  Fe  Fe37  1  0.75335839  0.75193863  0.25412522  1
  Fe  Fe38  1  0.74929826  -0.00441810  0.74854929  1
  Fe  Fe39  1  0.62659123  0.12406686  0.37442688  1
  Fe  Fe40  1  0.87432419  0.37197259  0.37329355  1
  Fe  Fe41  1  0.75237535  0.49953876  0.49987594  1
  Fe  Fe42  1  0.00110837  0.50002867  0.75043136  1
  Fe  Fe43  1  0.25017997  0.00165308  0.24629002  1
  Fe  Fe44  1  -0.00084601  0.25181469  0.75386797  1
  Fe  Fe45  1  0.12598271  0.62497666  0.62585917  1
  Fe  Fe46  1  0.74886695  0.24990439  0.50115116  1
  Fe  Fe47  1  0.87640249  0.62782628  0.12634602  1
  Fe  Fe48  1  0.62331563  0.12118174  0.87239544  1
  Fe  Fe49  1  0.00262301  0.74904689  0.49747779  1
  Fe  Fe50  1  0.49765732  0.49950982  0.24604623  1
  Fe  Fe51  1  0.12588688  0.37595163  0.87933567  1
  Fe  Fe52  1  0.62531772  0.87404188  0.12526369  1
  Fe  Fe53  1  0.74794281  0.24964066  -0.00239402  1
  Fe  Fe54  1  0.62488564  0.87678082  0.37564920  1
  Fe  Fe55  1  0.12489778  0.87585413  0.87641836  1
  Fe  Fe56  1  0.37359488  0.62460856  0.62718241  1
  Fe  Fe57  1  0.87706354  0.36862163  0.12463622  1
  Fe  Fe58  1  0.24855794  0.24570725  0.49974312  1
  Fe  Fe59  1  0.37477228  0.12681544  0.12132415  1
  Fe  Fe60  1  0.12633314  0.62343229  0.37081761  1
  Fe  Fe61  1  0.00259095  0.49877162  0.00383831  1
  Fe  Fe62  1  0.62270864  0.87652086  0.87575927  1
  Fe  Fe63  1  0.87641423  0.62696708  0.62689869  1
  Fe  Fe64  1  0.00066225  0.75293134  -0.00032607  1
  Fe  Fe65  1  0.37915472  0.38056018  0.88257915  1
  Fe  Fe66  1  0.50023086  0.24974917  0.49854628  1
  Fe  Fe67  1  0.00193699  0.49702204  0.24649729  1
  Fe  Fe68  1  0.49763393  0.50090215  0.50004678  1
  Fe  Fe69  1  0.74891762  0.50122796  0.00156371  1
  Fe  Fe70  1  0.62136401  0.62296570  0.87264297  1
  Fe  Fe71  1  0.75146611  0.75096653  -0.00283575  1
  Fe  Fe72  1  0.87663314  0.62591618  0.87439599  1
  Fe  Fe73  1  0.49831882  -0.00124166  0.24883569  1
  Fe  Fe74  1  0.37334181  0.37512897  0.37424094  1
  Fe  Fe75  1  -0.00148008  0.00151685  0.00336221  1
  Fe  Fe76  1  0.25222590  0.24989403  0.75463756  1
  Fe  Fe77  1  0.87707770  0.12738946  0.62583705  1
  Fe  Fe78  1  0.62506008  0.62310330  0.37387546  1
  Fe  Fe79  1  0.62618155  0.62800253  0.12730996  1
  Fe  Fe80  1  0.62611719  0.12468803  0.12514436  1
  Fe  Fe81  1  0.12559357  0.37258035  0.62661053  1
  Fe  Fe82  1  0.62407552  0.37584488  0.62621576  1
  Fe  Fe83  1  0.24811857  0.75090144  0.75125287  1
  Fe  Fe84  1  0.62132930  0.12395068  0.62787731  1
  Fe  Fe85  1  0.00177485  -0.00194389  0.74819284  1
  Fe  Fe86  1  0.49850435  0.24931132  0.24971344  1
  Fe  Fe87  1  0.75127777  -0.00213530  0.00093765  1
  Fe  Fe88  1  0.62442321  0.37610676  0.37395642  1
  Fe  Fe89  1  0.00318102  0.00232972  0.50181381  1
  Co  Co90  1  0.12223628  0.87642500  0.12620548  1
  Co  Co91  1  0.12479120  0.36464832  0.12243995  1
  Co  Co92  1  0.37629129  0.87629077  0.12263679  1
  Co  Co93  1  0.87193464  0.12628816  0.37702578  1
  Co  Co94  1  0.74776765  0.75103873  0.75308433  1
  Co  Co95  1  -0.00204489  0.24778940  -0.00482014  1
  Co  Co96  1  0.24904634  0.74589030  0.49835168  1
  Co  Co97  1  0.87352956  0.12915697  0.12398055  1
  Co  Co98  1  0.25225589  0.24860836  -0.00488503  1
  Co  Co99  1  0.87702009  0.37436309  0.62541943  1
  Co  Co100  1  0.12643044  0.87277024  0.62267794  1
  Co  Co101  1  0.87674549  0.62170745  0.37322241  1
  Co  Co102  1  0.36993949  0.87852406  0.37729323  1
  Co  Co103  1  0.12319347  0.62921844  0.12511492  1
  Co  Co104  1  0.87764062  0.87940274  0.37621252  1
  Co  Co105  1  0.62534180  0.87314612  0.62168554  1
  Co  Co106  1  0.50277235  0.24542429  -0.00252158  1
  Co  Co107  1  0.24755982  0.00672058  0.50597309  1
  Co  Co108  1  0.25036212  0.75198866  0.00238979  1
  Co  Co109  1  0.37240564  0.62732611  0.12546247  1
  Co  Co110  1  0.49840545  -0.00510448  0.74735350  1
  Co  Co111  1  0.50015892  0.50649632  0.00521989  1
  Co  Co112  1  0.87476044  0.87332680  0.12512621  1
  Co  Co113  1  0.87721795  0.87538838  0.87358766  1
  Co  Co114  1  0.62367395  0.37910827  0.87658752  1
  Co  Co115  1  0.37656786  0.37039719  0.11945463  1
  Co  Co116  1  0.12766058  0.12200334  0.37258187  1
  Co  Co117  1  0.12313844  0.13047760  0.62991861  1
  Co  Co118  1  0.74734670  0.25033733  0.24948451  1
  Co  Co119  1  0.00065667  0.24424026  0.25255899  1
  Co  Co120  1  0.50162130  0.00004595  0.00270656  1
  Co  Co121  1  0.37371974  0.62469539  0.87449039  1
  Co  Co122  1  0.24915004  0.50086164  0.00626087  1
  Co  Co123  1  0.37810622  0.12763072  0.62706956  1
  Co  Co124  1  0.00488481  0.74916728  0.75275845  1
  Co  Co125  1  0.25345596  0.24874930  0.25050212  1
  Co  Co126  1  0.12633940  0.13105019  0.12277341  1
  Co  Co127  1  0.49859394  0.49839488  0.74784272  1
