# generated using pymatgen
data_Fe45Co19
_symmetry_space_group_name_H-M   'P 1'
_cell_length_a   11.41501932
_cell_length_b   11.41632429
_cell_length_c   11.41452171
_cell_angle_alpha   90.00112576
_cell_angle_beta   89.98971553
_cell_angle_gamma   90.00820914
_symmetry_Int_Tables_number   1
_chemical_formula_structural   Fe45Co19
_chemical_formula_sum   'Fe90 Co38'
_cell_volume   1487.51260422
_cell_formula_units_Z   2
loop_
 _symmetry_equiv_pos_site_id
 _symmetry_equiv_pos_as_xyz
  1  'x, y, z'
loop_
 _atom_site_type_symbol
 _atom_site_label
 _atom_site_symmetry_multiplicity
 _atom_site_fract_x
 _atom_site_fract_y
 _atom_site_fract_z
 _atom_site_occupancy
  Fe  Fe0  1  0.24936269  0.74938231  0.00022988  1
  Fe  Fe1  1  0.74984981  0.25038324  0.24848587  1
  Fe  Fe2  1  0.50388287  0.74816149  0.49569677  1
  Fe  Fe3  1  0.75003119  -0.00119179  0.00555514  1
  Fe  Fe4  1  0.74952369  0.49538262  0.74634905  1
  Fe  Fe5  1  0.12133977  0.37651659  0.62523043  1
  Fe  Fe6  1  -0.00054220  0.00076522  0.75071018  1
  Fe  Fe7  1  0.74913935  -0.00132048  0.74902227  1
  Fe  Fe8  1  0.25162586  -0.00167002  0.24950954  1
  Fe  Fe9  1  0.75020722  0.49800869  0.24854858  1
  Fe  Fe10  1  0.37540483  0.12752951  0.12320051  1
  Fe  Fe11  1  0.87551578  0.87293060  0.62474866  1
  Fe  Fe12  1  -0.00175351  0.50069678  0.25092771  1
  Fe  Fe13  1  0.86951504  0.62420877  0.37821551  1
  Fe  Fe14  1  0.12442024  0.87532048  0.62319293  1
  Fe  Fe15  1  0.62386034  0.37634247  0.12363237  1
  Fe  Fe16  1  0.25232164  0.49911217  0.50244874  1
  Fe  Fe17  1  0.25089031  0.25163667  0.24860890  1
  Fe  Fe18  1  0.37717101  0.87386550  0.87262102  1
  Fe  Fe19  1  0.00065338  0.24859302  0.75322322  1
  Fe  Fe20  1  0.12925945  0.62278168  0.37408111  1
  Fe  Fe21  1  0.25007769  -0.00136475  0.75020757  1
  Fe  Fe22  1  0.74763143  0.75116121  0.00300078  1
  Fe  Fe23  1  0.25101762  0.75027625  0.49968144  1
  Fe  Fe24  1  -0.00335053  -0.00022951  0.00225078  1
  Fe  Fe25  1  0.00186838  0.74815904  0.25156964  1
  Fe  Fe26  1  0.50016354  -0.00073545  -0.00214920  1
  Fe  Fe27  1  0.62580848  0.12288541  0.37472224  1
  Fe  Fe28  1  0.62762873  0.12362706  0.87279468  1
  Fe  Fe29  1  0.62788377  0.62244082  0.87517583  1
  Fe  Fe30  1  0.49881809  0.25154775  0.25027565  1
  Fe  Fe31  1  -0.00086340  0.50270335  -0.00139511  1
  Fe  Fe32  1  0.24765727  0.25140871  0.75035338  1
  Fe  Fe33  1  0.87319009  0.87264067  0.87679491  1
  Fe  Fe34  1  0.50316590  0.74988700  -0.00365649  1
  Fe  Fe35  1  0.62808122  0.62263619  0.62029912  1
  Fe  Fe36  1  -0.00007610  0.74854531  0.75122977  1
  Fe  Fe37  1  0.87402313  0.37357962  0.12211815  1
  Fe  Fe38  1  0.24889763  0.74933004  0.74963775  1
  Fe  Fe39  1  0.62340592  0.37737978  0.37487330  1
  Fe  Fe40  1  0.12724216  0.12341550  0.37501568  1
  Fe  Fe41  1  0.62330387  0.87660215  0.62408873  1
  Fe  Fe42  1  0.25158668  0.25221313  0.50320219  1
  Fe  Fe43  1  -0.00072321  0.00127853  0.49935945  1
  Fe  Fe44  1  0.87550769  0.87553741  0.37229828  1
  Fe  Fe45  1  0.74817863  0.75020019  0.74730465  1
  Fe  Fe46  1  0.25885091  0.49987224  0.24571358  1
  Fe  Fe47  1  0.87366782  0.62811281  0.12654943  1
  Fe  Fe48  1  0.62171089  0.62347843  0.12803985  1
  Fe  Fe49  1  0.49852061  0.24852165  0.50313258  1
  Fe  Fe50  1  0.74902513  0.25352472  0.50316991  1
  Fe  Fe51  1  0.87411090  0.12483489  0.37204092  1
  Fe  Fe52  1  0.37630171  0.62427215  0.62592301  1
  Fe  Fe53  1  0.12527362  0.12464395  0.12416865  1
  Fe  Fe54  1  0.74254216  0.75354583  0.25366015  1
  Fe  Fe55  1  0.87004425  0.37311886  0.87774580  1
  Fe  Fe56  1  0.12720840  0.37810585  0.37402651  1
  Fe  Fe57  1  0.49663738  0.49990642  0.49715475  1
  Fe  Fe58  1  0.00097572  0.25049479  0.25001468  1
  Fe  Fe59  1  0.49583051  0.00363870  0.50214652  1
  Fe  Fe60  1  0.37189002  0.62299198  0.87415404  1
  Fe  Fe61  1  0.12351033  0.87473240  0.87626382  1
  Fe  Fe62  1  0.12631002  0.62437131  0.12430582  1
  Fe  Fe63  1  0.50455136  0.24981993  0.74841407  1
  Fe  Fe64  1  -0.00070523  0.50139929  0.75171180  1
  Fe  Fe65  1  0.62372739  0.12356962  0.12730425  1
  Fe  Fe66  1  0.12513250  0.87552390  0.37587452  1
  Fe  Fe67  1  0.87218959  0.62616657  0.87473248  1
  Fe  Fe68  1  0.12701584  0.12288959  0.62426913  1
  Fe  Fe69  1  0.12319412  0.62495392  0.62494904  1
  Fe  Fe70  1  0.50273393  0.25083103  -0.00300690  1
  Fe  Fe71  1  0.12269501  0.87366539  0.12475540  1
  Fe  Fe72  1  0.75145860  -0.00103703  0.49986938  1
  Fe  Fe73  1  0.87135594  0.12710566  0.87560673  1
  Fe  Fe74  1  0.00115471  0.24948343  0.49780272  1
  Fe  Fe75  1  0.25286560  -0.00099296  -0.00009035  1
  Fe  Fe76  1  0.50308150  0.74822573  0.75096345  1
  Fe  Fe77  1  0.00109360  0.24941591  -0.00089692  1
  Fe  Fe78  1  0.37716005  0.87446729  0.62631492  1
  Fe  Fe79  1  0.87286547  0.12783477  0.62624143  1
  Fe  Fe80  1  0.37553691  0.37842155  0.87117663  1
  Fe  Fe81  1  0.37275150  0.12721369  0.37496614  1
  Fe  Fe82  1  -0.00214270  0.74696239  0.49918669  1
  Fe  Fe83  1  0.49796169  0.50016385  0.00048931  1
  Fe  Fe84  1  0.37710306  0.87262773  0.37291364  1
  Fe  Fe85  1  0.12595588  0.37705993  0.12381106  1
  Fe  Fe86  1  0.87595311  0.37544974  0.37645214  1
  Fe  Fe87  1  0.37542895  0.12500198  0.87191851  1
  Fe  Fe88  1  0.38065337  0.87001667  0.12763024  1
  Fe  Fe89  1  0.24862453  0.25188502  -0.00367995  1
  Co  Co90  1  0.49490489  0.49890151  0.24939860  1
  Co  Co91  1  0.62886063  0.61714261  0.37709900  1
  Co  Co92  1  0.12745996  0.62508303  0.87598195  1
  Co  Co93  1  0.75322085  0.49370404  0.50376952  1
  Co  Co94  1  0.62631635  0.37744860  0.87785614  1
  Co  Co95  1  0.37787951  0.37679662  0.62909679  1
  Co  Co96  1  0.12524461  0.12178329  0.87671170  1
  Co  Co97  1  0.74774296  0.75461314  0.49773731  1
  Co  Co98  1  0.62739955  0.12281531  0.62448682  1
  Co  Co99  1  0.61921415  0.87561404  0.12710077  1
  Co  Co100  1  0.37259860  0.12524645  0.62909714  1
  Co  Co101  1  0.74634402  0.24708223  0.00231090  1
  Co  Co102  1  -0.00024337  0.50270170  0.49768399  1
  Co  Co103  1  0.62717651  0.87567890  0.87493412  1
  Co  Co104  1  0.50636862  0.74628103  0.25694671  1
  Co  Co105  1  0.61894049  0.37812576  0.62270107  1
  Co  Co106  1  0.37884390  0.63181062  0.12515629  1
  Co  Co107  1  0.24737267  0.50082642  0.74730300  1
  Co  Co108  1  0.37481600  0.37283709  0.37653194  1
  Co  Co109  1  0.24837336  0.75098288  0.24921377  1
  Co  Co110  1  -0.00044036  0.74727044  -0.00074523  1
  Co  Co111  1  0.62107497  0.88304490  0.37574788  1
  Co  Co112  1  0.74642539  0.25533878  0.74669453  1
  Co  Co113  1  0.37631050  0.37049089  0.12122548  1
  Co  Co114  1  0.87623241  0.12751264  0.12690798  1
  Co  Co115  1  0.12548464  0.37818551  0.87580760  1
  Co  Co116  1  0.25293809  0.50042102  0.00222409  1
  Co  Co117  1  0.25329389  -0.00197326  0.49931683  1
  Co  Co118  1  0.50390876  0.50380940  0.75085794  1
  Co  Co119  1  0.00127364  0.00047152  0.24945580  1
  Co  Co120  1  0.37345442  0.62722778  0.37346166  1
  Co  Co121  1  0.88117740  0.37327998  0.62498969  1
  Co  Co122  1  0.87290329  0.62507453  0.62382812  1
  Co  Co123  1  0.75069376  -0.00108730  0.24738594  1
  Co  Co124  1  0.49576072  0.00381460  0.24993424  1
  Co  Co125  1  0.75005773  0.50267978  0.00237748  1
  Co  Co126  1  0.50139758  -0.00020261  0.75014645  1
  Co  Co127  1  0.87560878  0.87031365  0.12808485  1
