# generated using pymatgen
data_Fe45Co19
_symmetry_space_group_name_H-M   'P 1'
_cell_length_a   11.41536374
_cell_length_b   11.41518200
_cell_length_c   11.41511800
_cell_angle_alpha   89.99154174
_cell_angle_beta   89.99841614
_cell_angle_gamma   90.00102818
_symmetry_Int_Tables_number   1
_chemical_formula_structural   Fe45Co19
_chemical_formula_sum   'Fe90 Co38'
_cell_volume   1487.48636960
_cell_formula_units_Z   2
loop_
 _symmetry_equiv_pos_site_id
 _symmetry_equiv_pos_as_xyz
  1  'x, y, z'
loop_
 _atom_site_type_symbol
 _atom_site_label
 _atom_site_symmetry_multiplicity
 _atom_site_fract_x
 _atom_site_fract_y
 _atom_site_fract_z
 _atom_site_occupancy
  Fe  Fe0  1  0.74948543  0.24826293  0.50022031  1
  Fe  Fe1  1  0.62464825  0.87514032  0.37514163  1
  Fe  Fe2  1  0.50125338  0.50307783  0.49954410  1
  Fe  Fe3  1  0.87805904  0.37407683  0.62155178  1
  Fe  Fe4  1  0.12598631  0.37593716  0.87522527  1
  Fe  Fe5  1  0.24854103  0.50393544  0.50248318  1
  Fe  Fe6  1  0.12333007  0.87200785  0.12737633  1
  Fe  Fe7  1  0.87711497  0.87508923  0.62513184  1
  Fe  Fe8  1  0.74961080  0.49952000  0.50012420  1
  Fe  Fe9  1  0.37287999  0.62460913  0.37406067  1
  Fe  Fe10  1  0.25068922  0.50106786  0.00170794  1
  Fe  Fe11  1  0.00091300  0.74655428  0.49845252  1
  Fe  Fe12  1  0.37748905  0.86987130  0.62543766  1
  Fe  Fe13  1  -0.00011707  0.25123754  -0.00045941  1
  Fe  Fe14  1  0.50108427  0.25153285  0.00049731  1
  Fe  Fe15  1  0.74990404  -0.00177816  0.00209185  1
  Fe  Fe16  1  0.75010333  0.25132501  0.24938448  1
  Fe  Fe17  1  -0.00177256  0.50024642  0.75120258  1
  Fe  Fe18  1  0.87373634  0.62457844  0.12248710  1
  Fe  Fe19  1  0.74780316  0.75340822  0.00025218  1
  Fe  Fe20  1  0.50058324  0.50154722  0.75127018  1
  Fe  Fe21  1  0.87307016  0.62476829  0.37578971  1
  Fe  Fe22  1  0.74817832  0.75002692  0.50025487  1
  Fe  Fe23  1  0.62505371  0.12492494  0.87344800  1
  Fe  Fe24  1  0.25122732  -0.00181314  0.74953082  1
  Fe  Fe25  1  0.25055256  0.74637580  0.50328154  1
  Fe  Fe26  1  0.12383217  0.37849566  0.37628954  1
  Fe  Fe27  1  0.37445222  0.37512098  0.87489234  1
  Fe  Fe28  1  0.74785386  0.75122832  0.75117398  1
  Fe  Fe29  1  0.74884068  0.75020774  0.24824612  1
  Fe  Fe30  1  0.37840415  0.87515324  0.12340746  1
  Fe  Fe31  1  0.37621255  0.37603843  0.12508921  1
  Fe  Fe32  1  0.24914927  0.24980916  0.49779563  1
  Fe  Fe33  1  0.87566603  0.62522798  0.62468204  1
  Fe  Fe34  1  0.62343781  0.62662676  0.62529333  1
  Fe  Fe35  1  0.37486323  0.37547467  0.62318621  1
  Fe  Fe36  1  0.74908493  0.00212809  0.50136839  1
  Fe  Fe37  1  0.50375988  0.75034893  -0.00430491  1
  Fe  Fe38  1  0.37553867  0.12543107  0.12843977  1
  Fe  Fe39  1  0.87505524  0.12558279  0.37614127  1
  Fe  Fe40  1  0.49795712  -0.00110357  0.75113737  1
  Fe  Fe41  1  0.49949327  0.00132100  0.49636637  1
  Fe  Fe42  1  0.87282516  0.62417168  0.87637048  1
  Fe  Fe43  1  0.87638713  0.37649414  0.12529200  1
  Fe  Fe44  1  0.75042698  0.24963522  0.74869405  1
  Fe  Fe45  1  0.12760639  0.87601028  0.87524376  1
  Fe  Fe46  1  0.37639315  0.62464506  0.12492819  1
  Fe  Fe47  1  -0.00033307  0.25055611  0.25260081  1
  Fe  Fe48  1  0.12480583  0.12523931  0.62544732  1
  Fe  Fe49  1  0.37489210  0.62725678  0.87309061  1
  Fe  Fe50  1  0.62210360  0.87472295  0.62484269  1
  Fe  Fe51  1  0.12659746  0.87028394  0.37274382  1
  Fe  Fe52  1  0.74993807  -0.00166950  0.24908647  1
  Fe  Fe53  1  0.62273005  0.37340422  0.62569048  1
  Fe  Fe54  1  0.49732046  0.24880034  0.75021184  1
  Fe  Fe55  1  0.74914076  0.25193816  0.00028605  1
  Fe  Fe56  1  0.87630838  0.12414007  0.12514279  1
  Fe  Fe57  1  0.00153989  0.00127874  0.49881623  1
  Fe  Fe58  1  0.12603775  0.12521440  0.12798598  1
  Fe  Fe59  1  0.12436824  0.87296070  0.62575856  1
  Fe  Fe60  1  0.00161134  0.50465708  0.25005704  1
  Fe  Fe61  1  0.87551871  0.87365794  0.37487286  1
  Fe  Fe62  1  0.00001802  0.24954556  0.75035632  1
  Fe  Fe63  1  0.00046820  -0.00133438  0.00071361  1
  Fe  Fe64  1  0.87613863  0.12330307  0.87448121  1
  Fe  Fe65  1  0.74946664  0.49801381  0.74970664  1
  Fe  Fe66  1  0.37141124  0.12408185  0.87668386  1
  Fe  Fe67  1  0.25177695  0.25359729  0.25300274  1
  Fe  Fe68  1  0.74685532  0.49612273  -0.00065377  1
  Fe  Fe69  1  -0.00003455  0.75062832  0.75222436  1
  Fe  Fe70  1  0.12550000  0.62461309  0.87644956  1
  Fe  Fe71  1  0.50007018  0.24744224  0.49611058  1
  Fe  Fe72  1  0.25068585  0.75096308  0.00124748  1
  Fe  Fe73  1  0.12377043  0.37621351  0.62415780  1
  Fe  Fe74  1  0.37355552  0.12554321  0.62321193  1
  Fe  Fe75  1  0.62178926  0.12498853  0.12928112  1
  Fe  Fe76  1  0.12748175  0.12356262  0.87490559  1
  Fe  Fe77  1  0.62517811  0.37454772  0.37410362  1
  Fe  Fe78  1  0.74838029  0.50046502  0.24956404  1
  Fe  Fe79  1  -0.00181267  0.75074994  0.00059313  1
  Fe  Fe80  1  0.12454524  0.37726814  0.12414270  1
  Fe  Fe81  1  0.50110744  0.49935815  0.24981267  1
  Fe  Fe82  1  0.25017117  -0.00077647  0.49837308  1
  Fe  Fe83  1  0.50083451  0.75060809  0.25231353  1
  Fe  Fe84  1  0.75152041  0.00062743  0.74733972  1
  Fe  Fe85  1  0.50009267  -0.00037118  -0.00063820  1
  Fe  Fe86  1  0.25069009  0.50223082  0.74764027  1
  Fe  Fe87  1  -0.00074408  -0.00122684  0.25145335  1
  Fe  Fe88  1  0.24971765  0.24981779  0.00084393  1
  Fe  Fe89  1  0.25269548  -0.00357184  0.24991577  1
  Co  Co90  1  0.37903181  0.62768493  0.62709999  1
  Co  Co91  1  0.49792619  0.25307758  0.25268030  1
  Co  Co92  1  0.12920122  0.62796362  0.37210285  1
  Co  Co93  1  0.62341876  0.37540374  0.12579533  1
  Co  Co94  1  0.37315647  0.12450568  0.37287024  1
  Co  Co95  1  0.62732599  0.62276880  0.87615026  1
  Co  Co96  1  0.50090136  0.74762681  0.49699779  1
  Co  Co97  1  0.24975883  -0.00055121  0.00402461  1
  Co  Co98  1  0.00158530  -0.00073014  0.74990476  1
  Co  Co99  1  0.25059979  0.25048133  0.74928793  1
  Co  Co100  1  0.00053753  0.49957275  0.00016939  1
  Co  Co101  1  0.12619350  0.62656708  0.12423613  1
  Co  Co102  1  0.12148800  0.62460351  0.62744487  1
  Co  Co103  1  0.00018463  0.50409486  0.49765065  1
  Co  Co104  1  -0.00328024  0.74587769  0.24972238  1
  Co  Co105  1  0.87606067  0.87480702  0.12604818  1
  Co  Co106  1  0.87542519  0.37593926  0.37520561  1
  Co  Co107  1  0.62416058  0.62483337  0.12300816  1
  Co  Co108  1  0.37320607  0.87231328  0.37808192  1
  Co  Co109  1  0.37302024  0.87432926  0.87541678  1
  Co  Co110  1  0.24887818  0.74941198  0.74872156  1
  Co  Co111  1  0.24972379  0.49910383  0.24811211  1
  Co  Co112  1  0.50337947  0.75039958  0.75402797  1
  Co  Co113  1  0.12740325  0.12352853  0.37233699  1
  Co  Co114  1  0.87385583  0.87660350  0.87440347  1
  Co  Co115  1  0.62549887  0.12477690  0.37155621  1
  Co  Co116  1  0.00170681  0.24798770  0.49766256  1
  Co  Co117  1  0.62278999  0.87546951  0.12586487  1
  Co  Co118  1  0.62233009  0.12470403  0.62631658  1
  Co  Co119  1  0.49930164  0.49939413  -0.00141855  1
  Co  Co120  1  0.87433029  0.37476742  0.87510322  1
  Co  Co121  1  0.49778116  -0.00277445  0.25346357  1
  Co  Co122  1  0.25374529  0.75070030  0.24672534  1
  Co  Co123  1  0.62608565  0.62508069  0.37431627  1
  Co  Co124  1  0.62333994  0.37386062  0.87338704  1
  Co  Co125  1  0.62649862  0.87852396  0.87405300  1
  Co  Co126  1  0.87807335  0.12504078  0.62397294  1
  Co  Co127  1  0.37481936  0.37922107  0.37830531  1
