# generated using pymatgen
data_Fe45Co19
_symmetry_space_group_name_H-M   'P 1'
_cell_length_a   11.41663208
_cell_length_b   11.41569689
_cell_length_c   11.41440676
_cell_angle_alpha   89.99884560
_cell_angle_beta   90.00313849
_cell_angle_gamma   90.00211811
_symmetry_Int_Tables_number   1
_chemical_formula_structural   Fe45Co19
_chemical_formula_sum   'Fe90 Co38'
_cell_volume   1487.62606031
_cell_formula_units_Z   2
loop_
 _symmetry_equiv_pos_site_id
 _symmetry_equiv_pos_as_xyz
  1  'x, y, z'
loop_
 _atom_site_type_symbol
 _atom_site_label
 _atom_site_symmetry_multiplicity
 _atom_site_fract_x
 _atom_site_fract_y
 _atom_site_fract_z
 _atom_site_occupancy
  Fe  Fe0  1  0.37311597  0.62454370  0.12636195  1
  Fe  Fe1  1  0.37260173  0.37582331  0.62732042  1
  Fe  Fe2  1  0.87729147  0.62461708  0.12372084  1
  Fe  Fe3  1  0.37467839  0.87725832  0.12973671  1
  Fe  Fe4  1  0.12857875  0.37059298  0.87443455  1
  Fe  Fe5  1  0.12292345  0.87402445  0.87289145  1
  Fe  Fe6  1  0.12383577  0.62617835  0.37696307  1
  Fe  Fe7  1  0.24983580  0.75040354  0.50193226  1
  Fe  Fe8  1  0.37311268  0.37529081  0.37169537  1
  Fe  Fe9  1  0.62532742  0.87255524  0.87276702  1
  Fe  Fe10  1  0.49836019  0.50103106  0.74964769  1
  Fe  Fe11  1  0.87250705  0.87688232  0.12978608  1
  Fe  Fe12  1  -0.00076854  0.74934083  0.25005073  1
  Fe  Fe13  1  0.62431919  0.62528133  0.12386528  1
  Fe  Fe14  1  0.00559772  0.49726790  0.74865967  1
  Fe  Fe15  1  0.24990974  -0.00030134  0.00133543  1
  Fe  Fe16  1  0.37401617  0.12472459  0.87624046  1
  Fe  Fe17  1  0.37188089  0.37334101  0.87397606  1
  Fe  Fe18  1  0.37843801  0.12455470  0.37320501  1
  Fe  Fe19  1  0.24803050  0.00052529  0.49547237  1
  Fe  Fe20  1  0.12274489  0.87591093  0.62478327  1
  Fe  Fe21  1  0.37732911  0.12309004  0.62224869  1
  Fe  Fe22  1  0.62566842  0.62169328  0.37853890  1
  Fe  Fe23  1  0.49872015  0.24841653  0.74938454  1
  Fe  Fe24  1  0.00026348  0.00071724  0.49608755  1
  Fe  Fe25  1  0.50126590  -0.00209625  0.00041262  1
  Fe  Fe26  1  0.87593005  0.87715614  0.62676535  1
  Fe  Fe27  1  0.24903378  0.75221787  0.00131588  1
  Fe  Fe28  1  0.75237786  0.75080693  -0.00002349  1
  Fe  Fe29  1  0.62331679  0.62247578  0.62367833  1
  Fe  Fe30  1  0.12647433  0.37064372  0.37680801  1
  Fe  Fe31  1  0.12235787  0.13102854  0.62034723  1
  Fe  Fe32  1  0.75016530  0.50039589  0.74949373  1
  Fe  Fe33  1  0.24914905  0.75052784  0.25168164  1
  Fe  Fe34  1  0.49944187  0.49995045  0.25110600  1
  Fe  Fe35  1  0.87471013  0.12579453  0.87621276  1
  Fe  Fe36  1  0.12556971  0.62370010  0.12567292  1
  Fe  Fe37  1  0.75112530  0.50403735  0.25021491  1
  Fe  Fe38  1  0.87788790  0.62603036  0.87481601  1
  Fe  Fe39  1  0.49854598  0.75037491  0.50043815  1
  Fe  Fe40  1  0.50196013  0.00045535  0.74995748  1
  Fe  Fe41  1  0.49889198  0.75110435  0.00092856  1
  Fe  Fe42  1  0.62460311  0.12650054  0.62288996  1
  Fe  Fe43  1  -0.00204723  -0.00264496  -0.00001457  1
  Fe  Fe44  1  0.87538382  0.12658157  0.37612805  1
  Fe  Fe45  1  0.87205319  0.37550783  0.37254384  1
  Fe  Fe46  1  0.74545130  0.24574320  0.24908680  1
  Fe  Fe47  1  0.87797592  0.62267447  0.62521130  1
  Fe  Fe48  1  0.37487253  0.87610586  0.62557721  1
  Fe  Fe49  1  0.37253368  0.62764088  0.87179739  1
  Fe  Fe50  1  0.50147014  0.75140543  0.25258066  1
  Fe  Fe51  1  0.62639365  0.12618203  0.87877516  1
  Fe  Fe52  1  0.00246969  0.49906553  0.25153319  1
  Fe  Fe53  1  0.12409900  0.87898199  0.12893075  1
  Fe  Fe54  1  0.24729932  0.00311492  0.74770988  1
  Fe  Fe55  1  0.00190569  0.49848482  -0.00058408  1
  Fe  Fe56  1  0.37758779  0.12158995  0.12791718  1
  Fe  Fe57  1  0.50083352  0.25650945  0.49886866  1
  Fe  Fe58  1  0.62666691  0.87423575  0.62470888  1
  Fe  Fe59  1  0.24922674  0.49991317  0.50211212  1
  Fe  Fe60  1  0.24957246  0.50000434  -0.00033274  1
  Fe  Fe61  1  0.37431018  0.62435722  0.37615826  1
  Fe  Fe62  1  0.49932414  0.25111675  0.00330630  1
  Fe  Fe63  1  0.75098938  0.25048193  0.75061735  1
  Fe  Fe64  1  0.24735039  0.24686713  0.24661880  1
  Fe  Fe65  1  0.62904310  0.87710498  0.12869379  1
  Fe  Fe66  1  0.87246630  0.12281205  0.12284778  1
  Fe  Fe67  1  -0.00137766  0.75079899  0.50014395  1
  Fe  Fe68  1  -0.00097558  0.25219596  0.00101230  1
  Fe  Fe69  1  0.62496762  0.37458878  0.87430936  1
  Fe  Fe70  1  0.49813780  0.50042635  -0.00031721  1
  Fe  Fe71  1  0.87528956  0.37581893  0.12577847  1
  Fe  Fe72  1  0.62476295  0.62698006  0.87444855  1
  Fe  Fe73  1  0.75049576  0.49854532  -0.00029962  1
  Fe  Fe74  1  0.75017054  0.00049707  0.75083949  1
  Fe  Fe75  1  0.87788659  0.87232111  0.87094252  1
  Fe  Fe76  1  0.87665930  0.37402874  0.62721072  1
  Fe  Fe77  1  0.62575089  0.37556755  0.12620484  1
  Fe  Fe78  1  0.00059024  0.49666041  0.49949870  1
  Fe  Fe79  1  0.75274436  0.74689231  0.50043573  1
  Fe  Fe80  1  0.74865589  0.00132316  0.49713556  1
  Fe  Fe81  1  0.12578394  0.12707249  0.87762075  1
  Fe  Fe82  1  0.37215005  0.37693906  0.12654828  1
  Fe  Fe83  1  0.50234739  -0.00379884  0.49576363  1
  Fe  Fe84  1  0.37418488  0.87470270  0.87170222  1
  Fe  Fe85  1  0.12514188  0.62920932  0.87337703  1
  Fe  Fe86  1  0.00192450  0.24778778  0.24875896  1
  Fe  Fe87  1  0.87306416  0.87413683  0.37253170  1
  Fe  Fe88  1  0.87639524  0.12571683  0.62474849  1
  Fe  Fe89  1  0.74853217  0.25395041  0.50033406  1
  Co  Co90  1  0.62468786  0.37587264  0.62730936  1
  Co  Co91  1  0.50486979  -0.00199891  0.25381226  1
  Co  Co92  1  0.62833063  0.37803873  0.37282565  1
  Co  Co93  1  0.12416111  0.12849133  0.37783226  1
  Co  Co94  1  0.24894473  0.75209995  0.74644580  1
  Co  Co95  1  0.12602633  0.36871857  0.62233964  1
  Co  Co96  1  0.75141843  0.74831592  0.74753673  1
  Co  Co97  1  0.12521591  0.37592811  0.12414168  1
  Co  Co98  1  0.75054426  0.74444973  0.25107296  1
  Co  Co99  1  0.62575383  0.12184918  0.12032241  1
  Co  Co100  1  0.25153923  0.24865155  0.00520457  1
  Co  Co101  1  0.75153683  -0.00430868  -0.00329208  1
  Co  Co102  1  0.24694453  0.50025859  0.25232713  1
  Co  Co103  1  0.00165682  0.00413233  0.74919031  1
  Co  Co104  1  0.74706944  0.00564337  0.25535313  1
  Co  Co105  1  0.75091394  0.25413018  0.00037994  1
  Co  Co106  1  0.24647999  0.49942985  0.74748957  1
  Co  Co107  1  0.24760894  0.00279109  0.25423362  1
  Co  Co108  1  0.75280696  0.49785469  0.50140525  1
  Co  Co109  1  0.00030969  0.74925715  0.74659092  1
  Co  Co110  1  0.62042361  0.12828837  0.37889691  1
  Co  Co111  1  0.00028786  0.75192998  0.00342522  1
  Co  Co112  1  0.37531447  0.62429747  0.62587105  1
  Co  Co113  1  0.87563542  0.37764622  0.87406396  1
  Co  Co114  1  0.12229356  0.12124777  0.12272509  1
  Co  Co115  1  0.12350455  0.87329161  0.37412600  1
  Co  Co116  1  0.62993730  0.87118670  0.37534438  1
  Co  Co117  1  -0.00490969  0.25245149  0.49800665  1
  Co  Co118  1  0.49724650  0.49576573  0.49940436  1
  Co  Co119  1  0.25560909  0.24877124  0.49922188  1
  Co  Co120  1  0.50229802  0.25151834  0.24862170  1
  Co  Co121  1  0.49939863  0.75030986  0.74772798  1
  Co  Co122  1  0.25140197  0.24573045  0.74716566  1
  Co  Co123  1  0.87753691  0.62350856  0.37602454  1
  Co  Co124  1  -0.00112468  0.00318824  0.25356839  1
  Co  Co125  1  0.37305956  0.87472590  0.37487801  1
  Co  Co126  1  0.12378890  0.62595455  0.62346808  1
  Co  Co127  1  -0.00016077  0.24951661  0.75159719  1
