# generated using pymatgen
data_Fe45Co19
_symmetry_space_group_name_H-M   'P 1'
_cell_length_a   11.41631580
_cell_length_b   11.41436058
_cell_length_c   11.41508439
_cell_angle_alpha   89.98108600
_cell_angle_beta   89.99327611
_cell_angle_gamma   89.99989448
_symmetry_Int_Tables_number   1
_chemical_formula_structural   Fe45Co19
_chemical_formula_sum   'Fe90 Co38'
_cell_volume   1487.49892823
_cell_formula_units_Z   2
loop_
 _symmetry_equiv_pos_site_id
 _symmetry_equiv_pos_as_xyz
  1  'x, y, z'
loop_
 _atom_site_type_symbol
 _atom_site_label
 _atom_site_symmetry_multiplicity
 _atom_site_fract_x
 _atom_site_fract_y
 _atom_site_fract_z
 _atom_site_occupancy
  Fe  Fe0  1  0.12481530  0.37524368  0.12474103  1
  Fe  Fe1  1  0.87471670  0.37584768  0.12404264  1
  Fe  Fe2  1  0.62548826  0.12554243  0.12304607  1
  Fe  Fe3  1  0.37542923  0.62364632  0.62605406  1
  Fe  Fe4  1  0.25061173  0.74925940  -0.00028161  1
  Fe  Fe5  1  0.12437486  0.12533441  0.12521506  1
  Fe  Fe6  1  0.62139398  0.37497112  0.62212506  1
  Fe  Fe7  1  0.12469802  0.12453819  0.37561067  1
  Fe  Fe8  1  -0.00009767  0.50166705  0.24947924  1
  Fe  Fe9  1  -0.00015665  0.00020354  0.50071413  1
  Fe  Fe10  1  -0.00040857  0.74992291  0.74802452  1
  Fe  Fe11  1  0.87380730  0.62214656  0.37802000  1
  Fe  Fe12  1  0.75194607  0.25010594  0.50026652  1
  Fe  Fe13  1  0.25142217  0.50081708  0.24756656  1
  Fe  Fe14  1  0.87602525  0.37771814  0.62192559  1
  Fe  Fe15  1  0.37440361  0.37545411  0.37520317  1
  Fe  Fe16  1  -0.00195468  0.74764221  0.50253552  1
  Fe  Fe17  1  0.12249661  0.37515046  0.87398888  1
  Fe  Fe18  1  0.12251621  0.12410406  0.87462893  1
  Fe  Fe19  1  0.25337510  0.75407878  0.49899909  1
  Fe  Fe20  1  -0.00300275  0.74543226  0.00094951  1
  Fe  Fe21  1  0.37607387  0.12126492  0.37669117  1
  Fe  Fe22  1  0.24940749  0.00116150  0.74864434  1
  Fe  Fe23  1  0.12502626  0.62468463  0.87461923  1
  Fe  Fe24  1  0.50190148  -0.00114633  0.24931332  1
  Fe  Fe25  1  0.87261503  0.87692148  0.87412988  1
  Fe  Fe26  1  0.62494734  0.87750024  0.62777339  1
  Fe  Fe27  1  0.62523757  0.37247780  0.87483830  1
  Fe  Fe28  1  0.62723774  0.62772273  0.12517485  1
  Fe  Fe29  1  0.62518510  0.37532697  0.37663262  1
  Fe  Fe30  1  0.87545822  0.12547735  0.12549443  1
  Fe  Fe31  1  0.24986933  0.24947847  0.25101508  1
  Fe  Fe32  1  0.49818189  0.75314139  0.50026754  1
  Fe  Fe33  1  0.75147498  0.25051806  0.25231268  1
  Fe  Fe34  1  0.24818541  0.75076309  0.25089255  1
  Fe  Fe35  1  0.12409677  0.87509687  0.87566971  1
  Fe  Fe36  1  0.49984955  0.49866286  0.24743162  1
  Fe  Fe37  1  0.62387752  0.62556021  0.37577593  1
  Fe  Fe38  1  0.24832597  0.49680100  0.50368745  1
  Fe  Fe39  1  0.37621317  0.62601904  0.37331873  1
  Fe  Fe40  1  0.25010667  0.49983000  0.00084983  1
  Fe  Fe41  1  0.50000834  0.25158635  0.25017631  1
  Fe  Fe42  1  0.12255299  0.12575777  0.62446128  1
  Fe  Fe43  1  0.24834787  0.25021023  -0.00108080  1
  Fe  Fe44  1  0.24904266  0.49766788  0.74737199  1
  Fe  Fe45  1  -0.00105133  0.25196712  0.25201434  1
  Fe  Fe46  1  0.74876068  0.50016271  0.25080574  1
  Fe  Fe47  1  0.25048522  -0.00071896  0.00088872  1
  Fe  Fe48  1  0.75060959  0.50104415  -0.00020239  1
  Fe  Fe49  1  0.24731585  -0.00232162  0.25225540  1
  Fe  Fe50  1  0.74684123  0.00815839  0.75310929  1
  Fe  Fe51  1  0.74880511  0.74875539  0.75092576  1
  Fe  Fe52  1  0.62963386  0.87237553  0.12399335  1
  Fe  Fe53  1  0.87608859  0.87433274  0.37477958  1
  Fe  Fe54  1  0.37767821  0.87790937  0.87317291  1
  Fe  Fe55  1  0.12564981  0.62520320  0.37635489  1
  Fe  Fe56  1  0.49902098  0.25252413  0.00345257  1
  Fe  Fe57  1  -0.00194285  0.25176918  0.49620043  1
  Fe  Fe58  1  0.74994224  0.74961868  0.50087992  1
  Fe  Fe59  1  0.25066002  0.25188724  0.50129288  1
  Fe  Fe60  1  0.62428449  0.62435852  0.87446109  1
  Fe  Fe61  1  0.37481545  0.12488103  0.12522395  1
  Fe  Fe62  1  0.37534717  0.87322141  0.12743994  1
  Fe  Fe63  1  0.50116187  0.24802468  0.74788252  1
  Fe  Fe64  1  0.75102675  -0.00027261  0.25002281  1
  Fe  Fe65  1  0.62543788  0.87386771  0.37354288  1
  Fe  Fe66  1  0.62365488  0.62399021  0.62434663  1
  Fe  Fe67  1  0.75260579  0.24789156  -0.00209191  1
  Fe  Fe68  1  0.75006089  0.00107851  0.49945256  1
  Fe  Fe69  1  0.12632975  0.87413498  0.62456361  1
  Fe  Fe70  1  0.87280183  0.87071252  0.12550693  1
  Fe  Fe71  1  0.50021485  0.49810458  0.00308494  1
  Fe  Fe72  1  0.62505102  0.12500615  0.37704757  1
  Fe  Fe73  1  -0.00362855  0.24854860  0.75078390  1
  Fe  Fe74  1  0.87282285  0.87750769  0.62777741  1
  Fe  Fe75  1  0.25252123  0.24920874  0.74785486  1
  Fe  Fe76  1  0.37917473  0.12090459  0.62065045  1
  Fe  Fe77  1  0.37646703  0.62296519  0.87542823  1
  Fe  Fe78  1  0.50182275  0.75218587  -0.00041864  1
  Fe  Fe79  1  0.74773192  0.49799965  0.74722831  1
  Fe  Fe80  1  0.49985509  0.75087291  0.75007187  1
  Fe  Fe81  1  -0.00207075  0.00060415  -0.00045762  1
  Fe  Fe82  1  0.25158095  0.75099105  0.75104929  1
  Fe  Fe83  1  0.37636551  0.37525770  0.87366332  1
  Fe  Fe84  1  -0.00010441  -0.00133852  0.25121951  1
  Fe  Fe85  1  0.12215114  0.87186634  0.12503711  1
  Fe  Fe86  1  0.87608011  0.37584738  0.87522483  1
  Fe  Fe87  1  0.87438379  0.62312837  0.87188793  1
  Fe  Fe88  1  0.00238720  0.50292388  0.74485711  1
  Fe  Fe89  1  0.37837689  0.12308327  0.87766636  1
  Co  Co90  1  0.37883713  0.37636855  0.62541649  1
  Co  Co91  1  0.75088015  0.00181325  -0.00061705  1
  Co  Co92  1  0.50173041  0.75044535  0.25046889  1
  Co  Co93  1  0.87565557  0.12423107  0.62447779  1
  Co  Co94  1  0.49846582  0.50128683  0.49811588  1
  Co  Co95  1  0.12168754  0.87305825  0.37694706  1
  Co  Co96  1  0.12631187  0.37626152  0.37391183  1
  Co  Co97  1  0.00474809  0.50190975  0.50203130  1
  Co  Co98  1  -0.00062974  0.50268522  0.00165613  1
  Co  Co99  1  0.62181109  0.12747526  0.87934884  1
  Co  Co100  1  0.87443754  0.12351995  0.37452595  1
  Co  Co101  1  0.12690475  0.62559088  0.12496358  1
  Co  Co102  1  0.37236620  0.37376144  0.12550790  1
  Co  Co103  1  0.75111778  0.74820378  -0.00440785  1
  Co  Co104  1  0.87412946  0.37946820  0.37659973  1
  Co  Co105  1  0.74954894  0.25004128  0.74751916  1
  Co  Co106  1  0.87059051  0.62569248  0.12668635  1
  Co  Co107  1  0.50155187  0.49968389  0.75019171  1
  Co  Co108  1  0.37608827  0.62742976  0.12436932  1
  Co  Co109  1  0.12918563  0.62968047  0.62445775  1
  Co  Co110  1  0.24813354  -0.00147630  0.49938602  1
  Co  Co111  1  0.75136989  0.74885196  0.25418621  1
  Co  Co112  1  0.37545749  0.87814874  0.62700070  1
  Co  Co113  1  0.87193638  0.62387231  0.62520449  1
  Co  Co114  1  0.00075970  0.24948347  0.00002983  1
  Co  Co115  1  0.50251029  -0.00488594  0.49815248  1
  Co  Co116  1  0.00128405  -0.00116442  0.75008285  1
  Co  Co117  1  0.62602490  0.87743609  0.87385680  1
  Co  Co118  1  0.37587715  0.87703027  0.37232453  1
  Co  Co119  1  0.62393389  0.12570196  0.62034007  1
  Co  Co120  1  -0.00090863  0.74636670  0.25117968  1
  Co  Co121  1  0.62880720  0.37347368  0.12498333  1
  Co  Co122  1  0.74687626  0.50082645  0.50149070  1
  Co  Co123  1  0.50239436  0.00287801  0.75017370  1
  Co  Co124  1  0.50093095  -0.00338663  0.00292567  1
  Co  Co125  1  0.49873235  0.25130788  0.49749592  1
  Co  Co126  1  0.12177052  0.37043856  0.62612359  1
  Co  Co127  1  0.87636025  0.12495584  0.87464545  1
