# generated using pymatgen
data_Fe45Co19
_symmetry_space_group_name_H-M   'P 1'
_cell_length_a   11.41595200
_cell_length_b   11.41529414
_cell_length_c   11.41439841
_cell_angle_alpha   90.00011630
_cell_angle_beta   89.99091496
_cell_angle_gamma   90.00420162
_symmetry_Int_Tables_number   1
_chemical_formula_structural   Fe45Co19
_chemical_formula_sum   'Fe90 Co38'
_cell_volume   1487.48385687
_cell_formula_units_Z   2
loop_
 _symmetry_equiv_pos_site_id
 _symmetry_equiv_pos_as_xyz
  1  'x, y, z'
loop_
 _atom_site_type_symbol
 _atom_site_label
 _atom_site_symmetry_multiplicity
 _atom_site_fract_x
 _atom_site_fract_y
 _atom_site_fract_z
 _atom_site_occupancy
  Fe  Fe0  1  0.62321308  0.62601442  0.62464516  1
  Fe  Fe1  1  0.00067688  0.74933683  0.25743606  1
  Fe  Fe2  1  0.62533124  0.37537880  0.87656211  1
  Fe  Fe3  1  -0.00047818  0.00067995  -0.00117772  1
  Fe  Fe4  1  0.25005697  0.49880302  0.74918725  1
  Fe  Fe5  1  0.87556725  0.37756006  0.87824162  1
  Fe  Fe6  1  0.12732703  0.62692086  0.12576954  1
  Fe  Fe7  1  0.49806168  0.74912845  0.25150471  1
  Fe  Fe8  1  0.12189397  0.87560466  0.62029701  1
  Fe  Fe9  1  0.49981371  0.00149558  0.74825855  1
  Fe  Fe10  1  0.87876570  0.87504961  0.62101270  1
  Fe  Fe11  1  0.37226300  0.62138740  0.37728994  1
  Fe  Fe12  1  0.62519653  0.62497732  0.12706839  1
  Fe  Fe13  1  0.12742299  0.37672002  0.37482421  1
  Fe  Fe14  1  0.87592557  0.87517017  0.87403404  1
  Fe  Fe15  1  0.12379639  0.87515704  0.87438754  1
  Fe  Fe16  1  0.12522271  0.87262350  0.12556982  1
  Fe  Fe17  1  0.49975161  0.50031759  0.25009238  1
  Fe  Fe18  1  0.74915775  0.25465789  0.24570418  1
  Fe  Fe19  1  0.12422430  0.62375281  0.87403760  1
  Fe  Fe20  1  0.37544166  0.87300675  0.12268105  1
  Fe  Fe21  1  0.62805097  0.12541803  0.87447872  1
  Fe  Fe22  1  0.37731001  0.87505400  0.87450163  1
  Fe  Fe23  1  0.37458204  0.37386162  0.62432233  1
  Fe  Fe24  1  0.49964830  0.50274072  0.00035214  1
  Fe  Fe25  1  0.74945199  -0.00171401  0.74879242  1
  Fe  Fe26  1  -0.00090977  0.24940588  0.75417971  1
  Fe  Fe27  1  0.62155554  0.87363865  0.62437731  1
  Fe  Fe28  1  0.25179725  0.49996090  0.24806980  1
  Fe  Fe29  1  0.12322629  0.62304588  0.62301010  1
  Fe  Fe30  1  -0.00026081  0.00247821  0.74975463  1
  Fe  Fe31  1  0.37291231  0.87861703  0.37615806  1
  Fe  Fe32  1  0.74914464  -0.00061444  0.49979705  1
  Fe  Fe33  1  0.49996658  0.24856214  0.75113311  1
  Fe  Fe34  1  0.37400435  0.37541756  0.37672809  1
  Fe  Fe35  1  0.24940225  0.49907581  0.00000531  1
  Fe  Fe36  1  0.25154722  -0.00170728  0.74782922  1
  Fe  Fe37  1  0.37408808  0.12581022  0.12362640  1
  Fe  Fe38  1  0.87535774  0.62261467  0.87577656  1
  Fe  Fe39  1  0.87731056  0.37430807  0.62389565  1
  Fe  Fe40  1  0.62747747  0.62164246  0.37567359  1
  Fe  Fe41  1  0.87773534  0.62416327  0.62082491  1
  Fe  Fe42  1  0.87316323  0.37779208  0.37526517  1
  Fe  Fe43  1  0.49818951  0.24804160  -0.00253590  1
  Fe  Fe44  1  0.74969005  0.75086122  -0.00095724  1
  Fe  Fe45  1  0.13154753  0.12080642  0.37649813  1
  Fe  Fe46  1  0.49875059  0.50146040  0.74804479  1
  Fe  Fe47  1  0.75026509  0.75120612  0.74897012  1
  Fe  Fe48  1  0.62466185  0.12625997  0.12485605  1
  Fe  Fe49  1  0.87325509  0.12684449  0.62595065  1
  Fe  Fe50  1  -0.00017876  0.74904584  0.74895770  1
  Fe  Fe51  1  0.74835155  -0.00268841  0.25166025  1
  Fe  Fe52  1  0.62413928  0.87357275  0.12539825  1
  Fe  Fe53  1  0.00256996  -0.00034352  0.25189259  1
  Fe  Fe54  1  0.49768516  0.74790429  0.49956447  1
  Fe  Fe55  1  0.49845350  0.00026718  0.24926158  1
  Fe  Fe56  1  0.25112609  0.25241815  0.75742665  1
  Fe  Fe57  1  0.87359625  0.62400320  0.12673280  1
  Fe  Fe58  1  0.74974339  -0.00086086  0.00016284  1
  Fe  Fe59  1  0.37628253  0.37472158  0.12338730  1
  Fe  Fe60  1  0.75130698  0.49890413  0.74776884  1
  Fe  Fe61  1  0.87500689  0.12560091  0.12614008  1
  Fe  Fe62  1  0.62352182  0.37401456  0.62506953  1
  Fe  Fe63  1  0.74848099  0.25053226  0.50127883  1
  Fe  Fe64  1  0.12410139  0.37398312  0.62569375  1
  Fe  Fe65  1  0.00064599  0.24942666  0.25205790  1
  Fe  Fe66  1  0.12653963  0.12663679  0.12273368  1
  Fe  Fe67  1  0.49899227  0.24985428  0.25173844  1
  Fe  Fe68  1  0.25059783  0.75108982  0.25148443  1
  Fe  Fe69  1  0.25041819  0.75055668  0.74830208  1
  Fe  Fe70  1  0.25099070  0.24916771  0.24964831  1
  Fe  Fe71  1  -0.00013858  0.50126748  0.25120454  1
  Fe  Fe72  1  0.75090791  0.75161034  0.49766928  1
  Fe  Fe73  1  0.50070404  0.74929912  -0.00191619  1
  Fe  Fe74  1  0.12403559  0.37313758  0.12331561  1
  Fe  Fe75  1  0.24994795  0.74982889  0.50080973  1
  Fe  Fe76  1  0.00208630  0.24839874  0.49768789  1
  Fe  Fe77  1  0.87267077  0.12473999  0.37407438  1
  Fe  Fe78  1  0.00051690  0.74905746  -0.00038954  1
  Fe  Fe79  1  0.49808649  0.24758980  0.49981722  1
  Fe  Fe80  1  0.49561484  0.00416235  0.50292210  1
  Fe  Fe81  1  0.00021860  0.24772644  -0.00313321  1
  Fe  Fe82  1  0.62445108  0.12449268  0.37495679  1
  Fe  Fe83  1  0.75034525  0.75277447  0.25490966  1
  Fe  Fe84  1  0.37353716  0.62533707  0.87395188  1
  Fe  Fe85  1  0.62534544  0.37698423  0.37584412  1
  Fe  Fe86  1  0.24999307  -0.00035938  -0.00001843  1
  Fe  Fe87  1  0.12812316  0.12762377  0.62654894  1
  Fe  Fe88  1  0.87610601  0.87436466  0.12730533  1
  Fe  Fe89  1  0.62693190  0.62487794  0.87325531  1
  Co  Co90  1  0.87826492  0.87801044  0.37692251  1
  Co  Co91  1  0.87137502  0.12462214  0.87404054  1
  Co  Co92  1  0.00110949  0.74703041  0.49397879  1
  Co  Co93  1  0.24951539  0.49798470  0.50337616  1
  Co  Co94  1  0.12783853  0.87931945  0.37792535  1
  Co  Co95  1  0.49989287  0.74837295  0.75184859  1
  Co  Co96  1  -0.00114183  0.49980874  0.74874434  1
  Co  Co97  1  0.37477272  0.62453920  0.62552447  1
  Co  Co98  1  0.75043776  0.25360273  0.75024971  1
  Co  Co99  1  0.37206149  0.12356030  0.37383185  1
  Co  Co100  1  0.25419566  0.00070966  0.50627301  1
  Co  Co101  1  0.37154433  0.13097956  0.62849218  1
  Co  Co102  1  0.75083215  0.25170906  0.00265716  1
  Co  Co103  1  0.37770515  0.37802019  0.87556101  1
  Co  Co104  1  0.12204953  0.37775295  0.87631065  1
  Co  Co105  1  0.37420696  0.62559189  0.12341802  1
  Co  Co106  1  0.37462806  0.12189590  0.87439412  1
  Co  Co107  1  0.50162536  0.00030330  0.00073531  1
  Co  Co108  1  0.88068487  0.37513595  0.12267485  1
  Co  Co109  1  0.25042006  -0.00069880  0.24499398  1
  Co  Co110  1  0.24940846  0.75043272  -0.00251517  1
  Co  Co111  1  0.74819833  0.49909887  0.00321337  1
  Co  Co112  1  0.00197178  0.49832624  0.49766051  1
  Co  Co113  1  0.74848878  0.49837524  0.50452791  1
  Co  Co114  1  0.61884247  0.37428922  0.12251418  1
  Co  Co115  1  0.00276942  0.50373319  0.00233204  1
  Co  Co116  1  0.12737058  0.12314517  0.87422438  1
  Co  Co117  1  0.62012058  0.87639193  0.37708139  1
  Co  Co118  1  0.37808915  0.87163759  0.62627597  1
  Co  Co119  1  0.24966029  0.25082304  0.49784358  1
  Co  Co120  1  0.12919826  0.62249288  0.37527875  1
  Co  Co121  1  0.62667376  0.12578509  0.62567057  1
  Co  Co122  1  0.62420871  0.87524809  0.87353298  1
  Co  Co123  1  0.25101816  0.25140509  -0.00315825  1
  Co  Co124  1  0.49926217  0.49971387  0.50114800  1
  Co  Co125  1  0.74853853  0.49522261  0.24489502  1
  Co  Co126  1  0.87011345  0.61998813  0.37572280  1
  Co  Co127  1  0.00064001  0.00612512  0.49981901  1
