# generated using pymatgen
data_Fe45Co19
_symmetry_space_group_name_H-M   'P 1'
_cell_length_a   11.41453717
_cell_length_b   11.41596390
_cell_length_c   11.41490351
_cell_angle_alpha   90.00134443
_cell_angle_beta   90.00513624
_cell_angle_gamma   90.00140030
_symmetry_Int_Tables_number   1
_chemical_formula_structural   Fe45Co19
_chemical_formula_sum   'Fe90 Co38'
_cell_volume   1487.45260415
_cell_formula_units_Z   2
loop_
 _symmetry_equiv_pos_site_id
 _symmetry_equiv_pos_as_xyz
  1  'x, y, z'
loop_
 _atom_site_type_symbol
 _atom_site_label
 _atom_site_symmetry_multiplicity
 _atom_site_fract_x
 _atom_site_fract_y
 _atom_site_fract_z
 _atom_site_occupancy
  Fe  Fe0  1  0.37603036  0.87735702  0.37428555  1
  Fe  Fe1  1  0.87946735  0.37638802  0.88102442  1
  Fe  Fe2  1  0.24980963  0.25028170  0.49850778  1
  Fe  Fe3  1  0.62692610  0.12449569  0.12706962  1
  Fe  Fe4  1  0.12788669  0.62829454  0.12714663  1
  Fe  Fe5  1  0.50288437  0.00162269  0.49887664  1
  Fe  Fe6  1  0.87672356  0.37574030  0.62417196  1
  Fe  Fe7  1  0.49843667  0.75080430  0.00064870  1
  Fe  Fe8  1  0.87511542  0.62726874  0.37384118  1
  Fe  Fe9  1  0.75083830  0.24984486  0.50069807  1
  Fe  Fe10  1  -0.00049452  0.24840885  0.75020184  1
  Fe  Fe11  1  0.62881868  0.62581858  0.12522610  1
  Fe  Fe12  1  0.87603568  0.87553914  0.12735070  1
  Fe  Fe13  1  0.12472782  0.62827865  0.62621087  1
  Fe  Fe14  1  0.25458377  0.24835181  0.24959397  1
  Fe  Fe15  1  0.62505964  0.87462552  0.62638092  1
  Fe  Fe16  1  0.62552352  0.62719583  0.87670646  1
  Fe  Fe17  1  0.87647429  0.62651148  0.62354296  1
  Fe  Fe18  1  0.87631632  0.87550184  0.62395251  1
  Fe  Fe19  1  0.75347645  0.24883910  0.74995918  1
  Fe  Fe20  1  0.62574428  0.37562006  0.62693888  1
  Fe  Fe21  1  0.50223762  0.49870824  0.00037991  1
  Fe  Fe22  1  -0.00276542  0.49979530  0.24760107  1
  Fe  Fe23  1  0.24853292  0.24947365  0.74978442  1
  Fe  Fe24  1  -0.00438159  0.25041219  0.24732284  1
  Fe  Fe25  1  0.49887598  0.49825738  0.24943620  1
  Fe  Fe26  1  0.49991742  0.00316452  -0.00310394  1
  Fe  Fe27  1  0.62467299  0.37274329  0.87373940  1
  Fe  Fe28  1  0.24884190  -0.00216771  -0.00067982  1
  Fe  Fe29  1  0.37435145  0.37415523  0.87810986  1
  Fe  Fe30  1  0.12342290  0.37357498  0.12535543  1
  Fe  Fe31  1  0.24921154  0.75098227  0.49718902  1
  Fe  Fe32  1  0.24922171  0.75391708  -0.00080833  1
  Fe  Fe33  1  0.37368335  0.62327987  0.12452982  1
  Fe  Fe34  1  0.49887139  0.24643455  0.75133465  1
  Fe  Fe35  1  0.24982901  0.24775767  0.00274730  1
  Fe  Fe36  1  0.74862333  -0.00001303  0.49751006  1
  Fe  Fe37  1  0.87484473  0.12325131  0.87717538  1
  Fe  Fe38  1  0.49545232  0.24893922  0.25023004  1
  Fe  Fe39  1  0.87678843  0.62459230  0.87951085  1
  Fe  Fe40  1  0.49931691  0.00350338  0.75235566  1
  Fe  Fe41  1  0.62881298  0.12419108  0.62661051  1
  Fe  Fe42  1  0.00126144  0.50150489  0.74996150  1
  Fe  Fe43  1  0.25212483  0.74983272  0.75412307  1
  Fe  Fe44  1  -0.00064096  0.00107174  0.74930252  1
  Fe  Fe45  1  0.87008299  0.62428858  0.12214934  1
  Fe  Fe46  1  0.12423516  0.12064779  0.12766519  1
  Fe  Fe47  1  0.12249503  0.37531762  0.87716434  1
  Fe  Fe48  1  0.37497764  0.87903075  0.12649754  1
  Fe  Fe49  1  0.25048273  0.50131932  0.75130110  1
  Fe  Fe50  1  0.49965045  0.50000633  0.50027988  1
  Fe  Fe51  1  0.87370511  0.12526639  0.37392416  1
  Fe  Fe52  1  0.24603137  -0.00037433  0.49603733  1
  Fe  Fe53  1  0.12233643  0.87172288  0.36674045  1
  Fe  Fe54  1  0.87520554  0.87279202  0.37173050  1
  Fe  Fe55  1  0.00179733  0.50037920  0.49964635  1
  Fe  Fe56  1  0.37414767  0.37592817  0.62434094  1
  Fe  Fe57  1  0.74992248  0.49944121  0.49783347  1
  Fe  Fe58  1  0.75211649  0.75073403  0.75129284  1
  Fe  Fe59  1  0.62630459  0.62663220  0.37302486  1
  Fe  Fe60  1  0.50042758  0.75156649  0.24930099  1
  Fe  Fe61  1  0.62596556  0.62519569  0.62541176  1
  Fe  Fe62  1  0.49882058  0.24719752  0.00074776  1
  Fe  Fe63  1  0.49628332  0.74767521  0.75000845  1
  Fe  Fe64  1  0.00220344  -0.00085668  0.49573376  1
  Fe  Fe65  1  0.49767810  0.50218127  0.75051356  1
  Fe  Fe66  1  0.87383045  0.12251104  0.12550805  1
  Fe  Fe67  1  0.74922536  -0.00269461  0.00069634  1
  Fe  Fe68  1  0.37240264  0.12348817  0.62360490  1
  Fe  Fe69  1  0.12367547  0.87300399  0.62801959  1
  Fe  Fe70  1  0.12379585  0.12505027  0.62340343  1
  Fe  Fe71  1  0.75181732  0.50012893  0.75271284  1
  Fe  Fe72  1  0.37377166  0.87634957  0.62578902  1
  Fe  Fe73  1  0.12436641  0.37352920  0.37262329  1
  Fe  Fe74  1  0.24776483  0.49968485  0.00111309  1
  Fe  Fe75  1  0.75080092  0.25128234  0.00119324  1
  Fe  Fe76  1  0.37308593  0.62293467  0.37317152  1
  Fe  Fe77  1  0.24787534  0.49956637  0.49924937  1
  Fe  Fe78  1  0.62424152  0.87501979  0.87483277  1
  Fe  Fe79  1  -0.00022717  0.25030572  0.50045708  1
  Fe  Fe80  1  0.12491936  0.12165427  0.87590164  1
  Fe  Fe81  1  0.74984817  0.75072845  0.49951636  1
  Fe  Fe82  1  0.50405468  0.00074006  0.25268804  1
  Fe  Fe83  1  0.87766674  0.87575335  0.87531115  1
  Fe  Fe84  1  0.62746795  0.37424408  0.12746038  1
  Fe  Fe85  1  0.49828402  0.74905908  0.50043129  1
  Fe  Fe86  1  0.12473391  0.62689667  0.37077386  1
  Fe  Fe87  1  0.49970204  0.24938538  0.49928457  1
  Fe  Fe88  1  0.62663999  0.37274371  0.37284773  1
  Fe  Fe89  1  0.00299178  0.75234276  0.00142134  1
  Co  Co90  1  -0.00112731  0.00128508  0.25171732  1
  Co  Co91  1  0.00173467  0.75124091  0.49873626  1
  Co  Co92  1  0.87626109  0.37404709  0.37720452  1
  Co  Co93  1  0.37623757  0.87661064  0.87430794  1
  Co  Co94  1  0.25423473  0.75191057  0.24932123  1
  Co  Co95  1  0.75127333  -0.00147130  0.75078532  1
  Co  Co96  1  0.37402143  0.37621886  0.37553721  1
  Co  Co97  1  0.12282547  0.87601706  0.87303007  1
  Co  Co98  1  0.62233090  0.87616044  0.12277738  1
  Co  Co99  1  0.74794768  0.75261358  0.24861037  1
  Co  Co100  1  0.37215007  0.62509999  0.62280668  1
  Co  Co101  1  0.00444548  0.50371586  0.00470324  1
  Co  Co102  1  0.12554078  0.87688559  0.12921254  1
  Co  Co103  1  0.87610429  0.37729990  0.11931113  1
  Co  Co104  1  -0.00231741  0.74942616  0.75155588  1
  Co  Co105  1  0.24953077  0.00136442  0.25344243  1
  Co  Co106  1  0.37444800  0.62382957  0.88000019  1
  Co  Co107  1  0.37089440  0.12586489  0.87593933  1
  Co  Co108  1  0.62707086  0.12887448  0.37248389  1
  Co  Co109  1  0.00065001  -0.00186315  0.00182334  1
  Co  Co110  1  0.24923957  0.00072051  0.74937613  1
  Co  Co111  1  0.37553406  0.12038207  0.12553910  1
  Co  Co112  1  0.12418340  0.62615570  0.87509141  1
  Co  Co113  1  0.74610351  0.49709472  -0.00169588  1
  Co  Co114  1  0.75491120  0.25228405  0.24801533  1
  Co  Co115  1  -0.00240705  0.74699462  0.24533864  1
  Co  Co116  1  0.37468471  0.37651359  0.12256860  1
  Co  Co117  1  0.74730060  -0.00318374  0.25074249  1
  Co  Co118  1  0.00130430  0.24547674  0.00160596  1
  Co  Co119  1  0.24918203  0.49772781  0.24843785  1
  Co  Co120  1  0.12416093  0.37467795  0.62557430  1
  Co  Co121  1  0.12337470  0.12987229  0.37216730  1
  Co  Co122  1  0.75019756  0.75401867  -0.00029160  1
  Co  Co123  1  0.62980112  0.12504437  0.87605514  1
  Co  Co124  1  0.62467794  0.87249213  0.37694581  1
  Co  Co125  1  0.87594631  0.12302764  0.62229396  1
  Co  Co126  1  0.75305373  0.49867854  0.25074999  1
  Co  Co127  1  0.37539823  0.12294114  0.37677142  1
