# generated using pymatgen
data_Fe45Co19
_symmetry_space_group_name_H-M   'P 1'
_cell_length_a   11.41526875
_cell_length_b   11.41509960
_cell_length_c   11.41534036
_cell_angle_alpha   89.99913406
_cell_angle_beta   89.99432436
_cell_angle_gamma   90.00172913
_symmetry_Int_Tables_number   1
_chemical_formula_structural   Fe45Co19
_chemical_formula_sum   'Fe90 Co38'
_cell_volume   1487.49223873
_cell_formula_units_Z   2
loop_
 _symmetry_equiv_pos_site_id
 _symmetry_equiv_pos_as_xyz
  1  'x, y, z'
loop_
 _atom_site_type_symbol
 _atom_site_label
 _atom_site_symmetry_multiplicity
 _atom_site_fract_x
 _atom_site_fract_y
 _atom_site_fract_z
 _atom_site_occupancy
  Fe  Fe0  1  0.49950878  0.25040492  0.24939656  1
  Fe  Fe1  1  0.87710869  0.87756041  0.37833053  1
  Fe  Fe2  1  0.62665096  0.37719789  0.37417506  1
  Fe  Fe3  1  0.24643493  -0.00079725  0.50015868  1
  Fe  Fe4  1  0.37410882  0.87357536  0.37570503  1
  Fe  Fe5  1  0.37479707  0.12560730  0.62493031  1
  Fe  Fe6  1  0.87385121  0.37472810  0.62808286  1
  Fe  Fe7  1  0.49572763  0.74770045  0.00354273  1
  Fe  Fe8  1  0.12192152  0.37617499  0.37489270  1
  Fe  Fe9  1  0.37726937  0.12321229  0.87565887  1
  Fe  Fe10  1  0.62397309  0.62651648  0.87391378  1
  Fe  Fe11  1  0.75158606  0.24954424  0.24780723  1
  Fe  Fe12  1  0.24374855  0.50050106  0.24540742  1
  Fe  Fe13  1  0.62615574  0.37635484  0.12425639  1
  Fe  Fe14  1  0.12399345  0.12512410  0.12395671  1
  Fe  Fe15  1  0.13174118  0.62898004  0.87028944  1
  Fe  Fe16  1  0.49698533  0.75018740  0.74825093  1
  Fe  Fe17  1  0.37209579  0.37836935  0.87977027  1
  Fe  Fe18  1  0.62550254  0.87377857  0.37593843  1
  Fe  Fe19  1  -0.00156894  0.24734269  -0.00073311  1
  Fe  Fe20  1  0.49955538  0.74776688  0.50115303  1
  Fe  Fe21  1  0.62701997  0.62581841  0.37407659  1
  Fe  Fe22  1  0.12693071  0.37251315  0.87901926  1
  Fe  Fe23  1  0.87429119  0.62660145  0.87415205  1
  Fe  Fe24  1  0.87829094  0.87385239  0.62608531  1
  Fe  Fe25  1  0.75204756  -0.00133841  0.24988813  1
  Fe  Fe26  1  0.74998245  0.24955611  0.50093591  1
  Fe  Fe27  1  0.24997589  0.74920940  0.24860188  1
  Fe  Fe28  1  0.75043602  0.00174639  -0.00421789  1
  Fe  Fe29  1  0.62514765  0.87495592  0.12398065  1
  Fe  Fe30  1  -0.00008528  0.24804352  0.49951006  1
  Fe  Fe31  1  0.75218846  0.50101918  0.50196830  1
  Fe  Fe32  1  0.24885433  -0.00169686  0.00100560  1
  Fe  Fe33  1  0.49906560  0.74965969  0.24736660  1
  Fe  Fe34  1  0.12182451  0.87635880  0.37542709  1
  Fe  Fe35  1  0.12277456  0.87292363  0.12497401  1
  Fe  Fe36  1  0.37456300  0.37714597  0.37393179  1
  Fe  Fe37  1  0.49985534  -0.00160535  0.25024483  1
  Fe  Fe38  1  0.12670412  0.37852772  0.62401532  1
  Fe  Fe39  1  0.74943744  -0.00154467  0.75201957  1
  Fe  Fe40  1  0.62956405  0.37170967  0.87400217  1
  Fe  Fe41  1  0.74952158  0.74998236  -0.00135284  1
  Fe  Fe42  1  0.62420631  0.12263780  0.62678817  1
  Fe  Fe43  1  0.37522236  0.87601896  0.62285105  1
  Fe  Fe44  1  0.37351986  0.12465925  0.37553576  1
  Fe  Fe45  1  0.37485363  0.87418730  0.87639249  1
  Fe  Fe46  1  0.87824660  0.37749470  0.12343692  1
  Fe  Fe47  1  0.87781278  0.87579861  0.12101954  1
  Fe  Fe48  1  0.50131668  0.50219690  0.24772428  1
  Fe  Fe49  1  0.74891748  0.50105706  -0.00075680  1
  Fe  Fe50  1  0.37543157  0.12216122  0.12377624  1
  Fe  Fe51  1  0.50145376  -0.00094174  0.49930903  1
  Fe  Fe52  1  0.50043218  0.25165452  0.49917940  1
  Fe  Fe53  1  0.87605870  0.37670856  0.37419715  1
  Fe  Fe54  1  0.87727514  0.62761899  0.62738958  1
  Fe  Fe55  1  0.00466318  0.50296954  0.00026492  1
  Fe  Fe56  1  0.75404356  0.50426053  0.24815405  1
  Fe  Fe57  1  0.00129591  0.75069864  -0.00467896  1
  Fe  Fe58  1  0.00087145  0.50017267  0.75138805  1
  Fe  Fe59  1  -0.00103504  -0.00113595  0.75422217  1
  Fe  Fe60  1  0.25123885  0.25201590  0.75102338  1
  Fe  Fe61  1  0.12560635  0.12403893  0.62633296  1
  Fe  Fe62  1  0.24785793  -0.00085177  0.24973946  1
  Fe  Fe63  1  0.87340602  0.37296215  0.87464671  1
  Fe  Fe64  1  0.49825713  0.50105724  0.49973187  1
  Fe  Fe65  1  0.62786204  0.12410145  0.37489265  1
  Fe  Fe66  1  0.25190567  -0.00167360  0.74981462  1
  Fe  Fe67  1  0.12053066  0.62218798  0.37737508  1
  Fe  Fe68  1  0.12765551  0.87304052  0.87343829  1
  Fe  Fe69  1  0.36958617  0.62081131  0.62823268  1
  Fe  Fe70  1  0.87592537  0.12403483  0.62604091  1
  Fe  Fe71  1  0.25041973  0.25248576  0.49975330  1
  Fe  Fe72  1  0.75345722  0.74847868  0.24887348  1
  Fe  Fe73  1  0.50092958  0.25005580  0.00008141  1
  Fe  Fe74  1  0.12498847  0.12560312  0.87467573  1
  Fe  Fe75  1  0.62532329  0.37641118  0.62689465  1
  Fe  Fe76  1  0.75045746  0.75108475  0.50165365  1
  Fe  Fe77  1  0.24991804  0.25061647  0.24815379  1
  Fe  Fe78  1  0.49859715  0.49901747  0.75256284  1
  Fe  Fe79  1  0.24461723  0.74898050  0.50361206  1
  Fe  Fe80  1  0.37273606  0.37891891  0.12115338  1
  Fe  Fe81  1  0.00120861  0.25138056  0.75030990  1
  Fe  Fe82  1  0.49910579  0.25107711  0.75063408  1
  Fe  Fe83  1  0.62186090  0.87440255  0.87358361  1
  Fe  Fe84  1  -0.00448956  0.74774932  0.25194192  1
  Fe  Fe85  1  0.62616311  0.62544195  0.62732897  1
  Fe  Fe86  1  0.87734415  0.12176814  0.12302936  1
  Fe  Fe87  1  -0.00046585  0.24720618  0.25126434  1
  Fe  Fe88  1  0.62443163  0.12412455  0.12319978  1
  Fe  Fe89  1  0.37282369  0.62472743  0.37319433  1
  Co  Co90  1  0.50060175  -0.00126763  0.00042770  1
  Co  Co91  1  0.49903898  -0.00173999  0.74908371  1
  Co  Co92  1  0.00107577  0.00304291  0.49873725  1
  Co  Co93  1  0.62437751  0.87407860  0.62606854  1
  Co  Co94  1  0.87512131  0.87292463  0.87512251  1
  Co  Co95  1  0.00058949  0.50290211  0.24678893  1
  Co  Co96  1  0.12065817  0.87830827  0.62703364  1
  Co  Co97  1  0.87594581  0.62460144  0.37839404  1
  Co  Co98  1  0.25316519  0.74981679  0.00287999  1
  Co  Co99  1  0.00033172  0.00170534  0.25115712  1
  Co  Co100  1  0.24321105  0.50434275  0.00276160  1
  Co  Co101  1  0.12718827  0.12624209  0.37539200  1
  Co  Co102  1  0.37434383  0.62104589  0.12489595  1
  Co  Co103  1  0.75003370  0.75170935  0.75101285  1
  Co  Co104  1  0.25151809  0.75415177  0.74505543  1
  Co  Co105  1  0.87581100  0.12755558  0.87385724  1
  Co  Co106  1  0.50340841  0.50071556  -0.00209948  1
  Co  Co107  1  0.62666397  0.62617614  0.12498634  1
  Co  Co108  1  0.75118770  0.50236402  0.75071334  1
  Co  Co109  1  0.62380668  0.12578018  0.87426162  1
  Co  Co110  1  0.25159632  0.24643923  -0.00006048  1
  Co  Co111  1  -0.00280827  0.49927121  0.50320393  1
  Co  Co112  1  0.12127602  0.63185864  0.12524663  1
  Co  Co113  1  0.75163580  0.24859611  0.00232899  1
  Co  Co114  1  0.24924394  0.49484239  0.75292798  1
  Co  Co115  1  0.25094944  0.50013400  0.49833665  1
  Co  Co116  1  0.00190521  0.74942052  0.75086406  1
  Co  Co117  1  0.00242412  -0.00103350  -0.00373498  1
  Co  Co118  1  0.87210558  0.12438111  0.37585556  1
  Co  Co119  1  0.87645631  0.62658542  0.11935098  1
  Co  Co120  1  0.37399509  0.87650957  0.12650793  1
  Co  Co121  1  0.00323848  0.74949576  0.50211579  1
  Co  Co122  1  0.37177620  0.62422867  0.87441276  1
  Co  Co123  1  0.37505034  0.37563401  0.62490284  1
  Co  Co124  1  0.75019868  0.24694686  0.74853285  1
  Co  Co125  1  0.12312509  0.37068259  0.12253877  1
  Co  Co126  1  0.75043936  -0.00198924  0.50235771  1
  Co  Co127  1  0.12593212  0.62079939  0.62790125  1
