# generated using pymatgen
data_Fe45Co19
_symmetry_space_group_name_H-M   'P 1'
_cell_length_a   11.41467818
_cell_length_b   11.41429511
_cell_length_c   11.41570483
_cell_angle_alpha   90.00151197
_cell_angle_beta   89.99695159
_cell_angle_gamma   89.99921092
_symmetry_Int_Tables_number   1
_chemical_formula_structural   Fe45Co19
_chemical_formula_sum   'Fe90 Co38'
_cell_volume   1487.35794751
_cell_formula_units_Z   2
loop_
 _symmetry_equiv_pos_site_id
 _symmetry_equiv_pos_as_xyz
  1  'x, y, z'
loop_
 _atom_site_type_symbol
 _atom_site_label
 _atom_site_symmetry_multiplicity
 _atom_site_fract_x
 _atom_site_fract_y
 _atom_site_fract_z
 _atom_site_occupancy
  Fe  Fe0  1  0.74960244  -0.00003484  0.25016869  1
  Fe  Fe1  1  0.50181344  0.50106917  0.75036960  1
  Fe  Fe2  1  0.62716592  0.12316168  0.62380535  1
  Fe  Fe3  1  0.87674829  0.37438656  0.12670213  1
  Fe  Fe4  1  0.00123350  0.24733655  0.00034890  1
  Fe  Fe5  1  0.37309602  0.62562705  0.12532494  1
  Fe  Fe6  1  0.11766612  0.87253516  0.88328900  1
  Fe  Fe7  1  0.87719628  0.12238691  0.62792212  1
  Fe  Fe8  1  0.50078920  0.74940430  0.24939499  1
  Fe  Fe9  1  0.12472108  0.37517448  0.62495552  1
  Fe  Fe10  1  0.62599455  0.37519871  0.62324245  1
  Fe  Fe11  1  0.37422177  0.62782906  0.87296095  1
  Fe  Fe12  1  0.87506303  0.12568994  0.12788690  1
  Fe  Fe13  1  0.12543319  0.37413862  0.37769294  1
  Fe  Fe14  1  0.49613503  0.24733859  0.00335927  1
  Fe  Fe15  1  0.62565884  0.12554754  0.12483725  1
  Fe  Fe16  1  0.24895392  0.49859297  0.24939463  1
  Fe  Fe17  1  0.37457673  0.87427100  0.37385044  1
  Fe  Fe18  1  0.50135189  0.24739334  0.75008833  1
  Fe  Fe19  1  0.49832388  0.24619426  0.49886142  1
  Fe  Fe20  1  0.62486993  0.87838286  0.87470293  1
  Fe  Fe21  1  0.87464156  0.37540946  0.62440391  1
  Fe  Fe22  1  0.75394093  0.75324317  0.49970752  1
  Fe  Fe23  1  0.87533044  0.62605796  0.37172431  1
  Fe  Fe24  1  0.87124628  0.62495395  0.87254760  1
  Fe  Fe25  1  0.49951805  0.50182229  0.49881570  1
  Fe  Fe26  1  0.74908768  0.49772267  0.25105603  1
  Fe  Fe27  1  0.62439596  0.87617788  0.12448246  1
  Fe  Fe28  1  0.12547872  0.37507775  0.12284071  1
  Fe  Fe29  1  -0.00044619  0.50316329  0.00066143  1
  Fe  Fe30  1  0.37582084  0.12207801  0.87414588  1
  Fe  Fe31  1  0.75127450  0.75076794  -0.00148557  1
  Fe  Fe32  1  0.37624013  0.87767477  0.12391619  1
  Fe  Fe33  1  0.37132992  0.12086214  0.62830020  1
  Fe  Fe34  1  0.36902752  0.12433782  0.37282969  1
  Fe  Fe35  1  0.62549189  0.37458442  0.87702307  1
  Fe  Fe36  1  0.62516170  0.87736719  0.37502055  1
  Fe  Fe37  1  0.24617855  0.75518210  0.24593744  1
  Fe  Fe38  1  0.75191883  0.24973261  0.00104286  1
  Fe  Fe39  1  0.49906687  0.00329574  0.24938752  1
  Fe  Fe40  1  0.24518311  0.75711175  0.74946216  1
  Fe  Fe41  1  0.37622919  0.37305618  0.37294319  1
  Fe  Fe42  1  0.87433479  0.62281570  0.12782677  1
  Fe  Fe43  1  0.25115554  0.49985635  -0.00032874  1
  Fe  Fe44  1  0.37419576  0.37406410  0.87465358  1
  Fe  Fe45  1  0.87435233  0.12513659  0.37205775  1
  Fe  Fe46  1  0.24859234  0.24939281  0.74996773  1
  Fe  Fe47  1  0.74960782  0.24935031  0.75067198  1
  Fe  Fe48  1  0.12485689  0.62719689  0.37456825  1
  Fe  Fe49  1  0.50027568  0.75062812  -0.00082167  1
  Fe  Fe50  1  0.37866239  0.87679351  0.87253325  1
  Fe  Fe51  1  0.49663108  -0.00011354  0.50008740  1
  Fe  Fe52  1  0.00220126  0.24678627  0.50131608  1
  Fe  Fe53  1  0.50421758  0.74971803  0.74944830  1
  Fe  Fe54  1  0.24978637  0.75488060  0.50293379  1
  Fe  Fe55  1  0.49992765  0.75120440  0.50107284  1
  Fe  Fe56  1  0.62656521  0.62622651  0.37534872  1
  Fe  Fe57  1  0.75021449  0.24881980  0.49738261  1
  Fe  Fe58  1  0.00012628  0.50127049  0.75003318  1
  Fe  Fe59  1  0.37530558  0.37435113  0.62575234  1
  Fe  Fe60  1  0.24995299  -0.00101349  -0.00148438  1
  Fe  Fe61  1  0.62904243  0.62395184  0.62490091  1
  Fe  Fe62  1  0.12529886  0.11894492  0.62487441  1
  Fe  Fe63  1  0.49893450  0.50121237  0.00024692  1
  Fe  Fe64  1  -0.00159364  0.50282963  0.49934467  1
  Fe  Fe65  1  0.74944307  0.75286996  0.24877659  1
  Fe  Fe66  1  0.25105150  0.49995336  0.50111342  1
  Fe  Fe67  1  0.62590866  0.87740086  0.62505896  1
  Fe  Fe68  1  0.87784044  0.87738192  0.12254292  1
  Fe  Fe69  1  0.37428709  0.62763798  0.62671330  1
  Fe  Fe70  1  0.00351206  0.24947642  0.25053236  1
  Fe  Fe71  1  0.12395201  0.37398399  0.87457262  1
  Fe  Fe72  1  0.75060535  0.00184543  -0.00197626  1
  Fe  Fe73  1  0.87685194  0.37347854  0.37444212  1
  Fe  Fe74  1  0.12646772  0.62805545  0.87796266  1
  Fe  Fe75  1  0.87662591  0.37453198  0.87518139  1
  Fe  Fe76  1  0.12315718  0.62851360  0.62455087  1
  Fe  Fe77  1  0.75557507  -0.00265128  0.49958244  1
  Fe  Fe78  1  0.24946170  0.50090095  0.74935357  1
  Fe  Fe79  1  0.12926155  0.12425921  0.12542767  1
  Fe  Fe80  1  0.00424085  -0.00212522  0.25021643  1
  Fe  Fe81  1  0.87595814  0.12493807  0.87241146  1
  Fe  Fe82  1  0.62562593  0.62509795  0.12348393  1
  Fe  Fe83  1  0.62218826  0.37319122  0.37333102  1
  Fe  Fe84  1  0.12969940  0.12196555  0.37694667  1
  Fe  Fe85  1  0.62266661  0.37438176  0.12718487  1
  Fe  Fe86  1  0.37289062  0.62752016  0.37448036  1
  Fe  Fe87  1  0.00353942  0.75255556  0.24685765  1
  Fe  Fe88  1  0.12407252  0.12523148  0.87274346  1
  Fe  Fe89  1  0.87314578  0.62700987  0.62764321  1
  Co  Co90  1  0.75152325  0.49992649  0.49725748  1
  Co  Co91  1  0.37759896  0.87543066  0.62964336  1
  Co  Co92  1  0.37523429  0.37571213  0.12646799  1
  Co  Co93  1  -0.00147660  0.00723461  0.00039577  1
  Co  Co94  1  0.36931323  0.12214786  0.12454909  1
  Co  Co95  1  0.12735103  0.62518460  0.12346743  1
  Co  Co96  1  0.87950790  0.87415095  0.62836811  1
  Co  Co97  1  0.00066219  -0.00334986  0.75320587  1
  Co  Co98  1  0.75083305  -0.00032823  0.75166153  1
  Co  Co99  1  0.87739498  0.87699913  0.87856098  1
  Co  Co100  1  0.50368267  0.00259281  0.74850401  1
  Co  Co101  1  0.25314509  -0.00559479  0.50205713  1
  Co  Co102  1  0.24978234  0.25237430  0.24869592  1
  Co  Co103  1  0.74918653  0.75422934  0.75202694  1
  Co  Co104  1  0.75082597  0.49879030  0.00161142  1
  Co  Co105  1  0.25438803  0.75295217  0.00053068  1
  Co  Co106  1  0.11707362  0.87683491  0.61922730  1
  Co  Co107  1  0.24672154  -0.00623687  0.24873837  1
  Co  Co108  1  0.12420254  0.87497028  0.37933721  1
  Co  Co109  1  0.50097557  0.00114034  0.00186046  1
  Co  Co110  1  0.74907090  0.49730107  0.75090858  1
  Co  Co111  1  0.00255600  0.49911545  0.25035626  1
  Co  Co112  1  0.25006993  0.24978643  0.50279907  1
  Co  Co113  1  0.12112679  0.87515170  0.11669073  1
  Co  Co114  1  0.24437778  -0.00683771  0.75242321  1
  Co  Co115  1  -0.00418914  0.74916704  0.49782089  1
  Co  Co116  1  0.62658068  0.62382244  0.87646071  1
  Co  Co117  1  0.87615934  0.87459171  0.36974756  1
  Co  Co118  1  0.00085224  0.24988885  0.74788586  1
  Co  Co119  1  0.49949271  0.50391354  0.25060521  1
  Co  Co120  1  0.00105312  0.75108941  0.75322254  1
  Co  Co121  1  -0.00592193  0.74332650  0.00239606  1
  Co  Co122  1  0.49818580  0.24362965  0.24878097  1
  Co  Co123  1  0.62455471  0.12631746  0.87703371  1
  Co  Co124  1  0.62685590  0.12176264  0.37616185  1
  Co  Co125  1  -0.00486797  0.00059974  0.49605917  1
  Co  Co126  1  0.74876938  0.25010370  0.25069047  1
  Co  Co127  1  0.24994309  0.24909810  -0.00165184  1
