# generated using pymatgen
data_Fe45Co19
_symmetry_space_group_name_H-M   'P 1'
_cell_length_a   11.41437178
_cell_length_b   11.41415312
_cell_length_c   11.41542228
_cell_angle_alpha   90.00720926
_cell_angle_beta   90.00527502
_cell_angle_gamma   89.99699121
_symmetry_Int_Tables_number   1
_chemical_formula_structural   Fe45Co19
_chemical_formula_sum   'Fe90 Co38'
_cell_volume   1487.26269217
_cell_formula_units_Z   2
loop_
 _symmetry_equiv_pos_site_id
 _symmetry_equiv_pos_as_xyz
  1  'x, y, z'
loop_
 _atom_site_type_symbol
 _atom_site_label
 _atom_site_symmetry_multiplicity
 _atom_site_fract_x
 _atom_site_fract_y
 _atom_site_fract_z
 _atom_site_occupancy
  Fe  Fe0  1  0.62606050  0.87527147  0.87314398  1
  Fe  Fe1  1  0.37410725  0.12352833  0.37541194  1
  Fe  Fe2  1  0.75079221  0.49897331  0.49962425  1
  Fe  Fe3  1  0.37178256  0.37424601  0.12416224  1
  Fe  Fe4  1  0.63035686  0.37150101  0.12472576  1
  Fe  Fe5  1  0.00276095  0.49916329  0.74898396  1
  Fe  Fe6  1  0.49999265  0.00113244  0.24780092  1
  Fe  Fe7  1  0.87614299  0.12729573  0.62612869  1
  Fe  Fe8  1  0.87964481  0.62442661  0.37612017  1
  Fe  Fe9  1  0.25348845  0.50301515  0.00042309  1
  Fe  Fe10  1  0.75020222  0.00153726  -0.00098398  1
  Fe  Fe11  1  0.62131426  0.62269365  0.87652166  1
  Fe  Fe12  1  0.49800676  0.00241120  0.74910343  1
  Fe  Fe13  1  0.37347078  0.62434023  0.62416096  1
  Fe  Fe14  1  0.75174443  0.49949096  0.24837961  1
  Fe  Fe15  1  0.25075096  0.75020660  0.75364597  1
  Fe  Fe16  1  0.24878302  0.24970310  0.24983884  1
  Fe  Fe17  1  0.87851641  0.62197986  0.12221943  1
  Fe  Fe18  1  0.12470981  0.12471335  0.37310891  1
  Fe  Fe19  1  0.12550726  0.62697123  0.87695936  1
  Fe  Fe20  1  0.12797258  0.37427320  0.87530745  1
  Fe  Fe21  1  0.49691207  -0.00197082  0.50094079  1
  Fe  Fe22  1  0.00058540  0.75249953  0.00110150  1
  Fe  Fe23  1  0.62329767  0.12651542  0.62400298  1
  Fe  Fe24  1  0.24919793  0.74932570  0.49821679  1
  Fe  Fe25  1  0.49939720  0.25288954  0.49880398  1
  Fe  Fe26  1  0.37175594  0.87571170  0.37301579  1
  Fe  Fe27  1  0.12601929  0.87380655  0.12445146  1
  Fe  Fe28  1  0.87669538  0.62337858  0.87575159  1
  Fe  Fe29  1  0.87617670  0.37456004  0.62608329  1
  Fe  Fe30  1  0.00211048  -0.00133418  0.50211077  1
  Fe  Fe31  1  0.62490156  0.62449927  0.62440136  1
  Fe  Fe32  1  0.12695423  0.37606651  0.12351307  1
  Fe  Fe33  1  0.87678193  0.37432536  0.37344825  1
  Fe  Fe34  1  0.87212237  0.87509937  0.12577959  1
  Fe  Fe35  1  0.49979757  -0.00066504  0.00203622  1
  Fe  Fe36  1  0.24924777  0.25043055  0.49963070  1
  Fe  Fe37  1  0.00038813  0.00073165  0.24704534  1
  Fe  Fe38  1  0.87096499  0.87374205  0.62838227  1
  Fe  Fe39  1  0.49958086  0.25320684  -0.00031818  1
  Fe  Fe40  1  0.12129783  0.12303549  0.87457991  1
  Fe  Fe41  1  0.87594269  0.87556515  0.37353811  1
  Fe  Fe42  1  0.49812376  0.74995149  0.00044529  1
  Fe  Fe43  1  0.49876068  0.74917500  0.74931811  1
  Fe  Fe44  1  0.37275674  0.87356202  0.12512330  1
  Fe  Fe45  1  0.00076080  0.75018760  0.50268473  1
  Fe  Fe46  1  0.25125210  0.50090021  0.75163562  1
  Fe  Fe47  1  0.37341966  0.12620776  0.12344472  1
  Fe  Fe48  1  0.87472898  0.37707558  0.87583736  1
  Fe  Fe49  1  0.49861211  0.49890914  0.24801109  1
  Fe  Fe50  1  -0.00010014  0.74965307  0.74846344  1
  Fe  Fe51  1  0.37564765  0.12664989  0.87697058  1
  Fe  Fe52  1  0.37392891  0.37774823  0.37327655  1
  Fe  Fe53  1  0.24759997  0.49938106  0.49780519  1
  Fe  Fe54  1  0.87877142  0.12292778  0.87415578  1
  Fe  Fe55  1  0.62296078  0.62462549  0.12307928  1
  Fe  Fe56  1  0.62354289  0.12524365  0.87664150  1
  Fe  Fe57  1  0.00020103  0.25220280  0.00013643  1
  Fe  Fe58  1  0.74853205  0.00581440  0.25167056  1
  Fe  Fe59  1  0.37155608  0.87766720  0.62632767  1
  Fe  Fe60  1  0.00448874  0.49865840  0.50265918  1
  Fe  Fe61  1  0.37350242  0.87489988  0.87637431  1
  Fe  Fe62  1  0.25179499  0.24765787  0.75175791  1
  Fe  Fe63  1  0.62656819  0.87502948  0.12512122  1
  Fe  Fe64  1  0.50244393  0.24915071  0.25099023  1
  Fe  Fe65  1  0.00335625  0.25173320  0.50102302  1
  Fe  Fe66  1  0.74989578  0.50203534  0.75013473  1
  Fe  Fe67  1  0.75034251  0.74780792  -0.00118729  1
  Fe  Fe68  1  0.12863751  0.87643095  0.62846828  1
  Fe  Fe69  1  0.24834914  0.74371533  0.24840558  1
  Fe  Fe70  1  0.37448191  0.37427093  0.62776194  1
  Fe  Fe71  1  0.87521949  0.87674678  0.87306564  1
  Fe  Fe72  1  0.62413702  0.37477734  0.62586001  1
  Fe  Fe73  1  0.24654734  0.00035777  0.00008667  1
  Fe  Fe74  1  0.74935692  0.25012452  0.49438807  1
  Fe  Fe75  1  0.62774511  0.87443438  0.62731648  1
  Fe  Fe76  1  0.00083843  0.25156914  0.24763496  1
  Fe  Fe77  1  0.12637097  0.12498245  0.62785587  1
  Fe  Fe78  1  0.62280622  0.62171149  0.37592424  1
  Fe  Fe79  1  0.00385476  0.49959468  0.24909468  1
  Fe  Fe80  1  0.49972557  0.74958170  0.25178339  1
  Fe  Fe81  1  0.75003265  0.24923849  0.75259772  1
  Fe  Fe82  1  0.75135523  0.74676446  0.25063625  1
  Fe  Fe83  1  0.87244382  0.12894982  0.12414074  1
  Fe  Fe84  1  0.75144485  0.00247967  0.49943805  1
  Fe  Fe85  1  0.62294267  0.37700960  0.87466834  1
  Fe  Fe86  1  0.62618753  0.87660657  0.37453939  1
  Fe  Fe87  1  0.12475963  0.87411578  0.37189913  1
  Fe  Fe88  1  0.75121290  0.74801505  0.49886311  1
  Fe  Fe89  1  0.49864825  0.75018639  0.49891988  1
  Co  Co90  1  0.00024820  0.25332585  0.75161041  1
  Co  Co91  1  0.24807309  0.24865620  -0.00124470  1
  Co  Co92  1  0.00175541  0.49621525  -0.00207100  1
  Co  Co93  1  0.25119411  0.00231723  0.75413852  1
  Co  Co94  1  0.87613549  0.62322583  0.62482942  1
  Co  Co95  1  0.24775715  0.00044478  0.49847464  1
  Co  Co96  1  0.00045222  -0.00083994  0.00461141  1
  Co  Co97  1  0.37395782  0.12585880  0.62329300  1
  Co  Co98  1  0.12311420  0.87542764  0.87493352  1
  Co  Co99  1  0.12270286  0.62361603  0.12115150  1
  Co  Co100  1  0.12541624  0.12713117  0.12500606  1
  Co  Co101  1  0.87372675  0.37375351  0.12570251  1
  Co  Co102  1  0.74952458  0.50041782  0.00065825  1
  Co  Co103  1  0.62604240  0.12817468  0.12198527  1
  Co  Co104  1  0.12709832  0.62518396  0.62612362  1
  Co  Co105  1  0.74856811  0.24766653  0.25625767  1
  Co  Co106  1  0.62029708  0.12286714  0.37757818  1
  Co  Co107  1  0.24808091  0.50275575  0.24972432  1
  Co  Co108  1  -0.00084793  0.74947818  0.24694713  1
  Co  Co109  1  0.37695845  0.62514632  0.87584914  1
  Co  Co110  1  0.37559516  0.62267331  0.37508461  1
  Co  Co111  1  0.74950049  0.00395095  0.75045547  1
  Co  Co112  1  0.25004927  0.74916614  0.00042188  1
  Co  Co113  1  0.49816529  0.49861152  0.50233300  1
  Co  Co114  1  -0.00036592  -0.00213938  0.74616595  1
  Co  Co115  1  0.62447988  0.37872625  0.37346582  1
  Co  Co116  1  0.49836514  0.50051172  0.74851645  1
  Co  Co117  1  0.49931060  0.24940691  0.75073247  1
  Co  Co118  1  0.37479703  0.37434635  0.87428363  1
  Co  Co119  1  0.12276257  0.62644632  0.37622128  1
  Co  Co120  1  0.49781073  0.49636125  0.00235985  1
  Co  Co121  1  0.88066274  0.12564644  0.37565442  1
  Co  Co122  1  0.12544647  0.37385333  0.37335310  1
  Co  Co123  1  0.37709125  0.62555684  0.12500604  1
  Co  Co124  1  0.12756742  0.37365390  0.62826641  1
  Co  Co125  1  0.24943436  0.00116604  0.24821438  1
  Co  Co126  1  0.75235021  0.25092736  -0.00489759  1
  Co  Co127  1  0.74993999  0.74550033  0.75225279  1
