# generated using pymatgen
data_Fe45Co19
_symmetry_space_group_name_H-M   'P 1'
_cell_length_a   11.41518817
_cell_length_b   11.41521796
_cell_length_c   11.41528772
_cell_angle_alpha   90.00923104
_cell_angle_beta   89.99003890
_cell_angle_gamma   89.99323769
_symmetry_Int_Tables_number   1
_chemical_formula_structural   Fe45Co19
_chemical_formula_sum   'Fe90 Co38'
_cell_volume   1487.49025817
_cell_formula_units_Z   2
loop_
 _symmetry_equiv_pos_site_id
 _symmetry_equiv_pos_as_xyz
  1  'x, y, z'
loop_
 _atom_site_type_symbol
 _atom_site_label
 _atom_site_symmetry_multiplicity
 _atom_site_fract_x
 _atom_site_fract_y
 _atom_site_fract_z
 _atom_site_occupancy
  Fe  Fe0  1  0.12411244  0.62342465  0.12750281  1
  Fe  Fe1  1  0.12378271  0.87432378  0.62515619  1
  Fe  Fe2  1  0.87351550  0.62227982  0.12415718  1
  Fe  Fe3  1  0.37213088  0.37588794  0.12222785  1
  Fe  Fe4  1  -0.00051843  0.00072805  0.49801188  1
  Fe  Fe5  1  -0.00034056  0.49509805  0.25011936  1
  Fe  Fe6  1  0.12366294  0.12799045  0.87311021  1
  Fe  Fe7  1  0.37115235  0.37549529  0.87670776  1
  Fe  Fe8  1  0.50394533  0.24740816  0.49986173  1
  Fe  Fe9  1  0.74913897  0.75074760  0.24922016  1
  Fe  Fe10  1  0.25269164  -0.00021991  0.24909169  1
  Fe  Fe11  1  0.24998991  0.00209996  0.00065695  1
  Fe  Fe12  1  0.87553536  0.12591309  0.12209961  1
  Fe  Fe13  1  -0.00086409  0.49756524  0.74882041  1
  Fe  Fe14  1  0.37504535  0.62293251  0.12403430  1
  Fe  Fe15  1  0.87538308  0.87753263  0.12293376  1
  Fe  Fe16  1  0.37627939  0.12558022  0.62570327  1
  Fe  Fe17  1  0.74524569  0.00343099  0.50242589  1
  Fe  Fe18  1  -0.00148522  0.00064119  0.75029601  1
  Fe  Fe19  1  0.25023389  0.74941123  0.49924730  1
  Fe  Fe20  1  0.74875293  0.50097272  0.75366657  1
  Fe  Fe21  1  0.74875345  0.00099543  0.24783760  1
  Fe  Fe22  1  0.37688589  0.37540459  0.37868126  1
  Fe  Fe23  1  0.25000494  0.49702355  0.74794991  1
  Fe  Fe24  1  0.50169243  0.49833066  0.24896301  1
  Fe  Fe25  1  0.87361858  0.62488043  0.37399244  1
  Fe  Fe26  1  0.74875508  0.25107867  0.24802530  1
  Fe  Fe27  1  0.12358258  0.87533507  0.87478037  1
  Fe  Fe28  1  0.12517532  0.12777050  0.37343410  1
  Fe  Fe29  1  0.37563423  0.12557531  0.87472698  1
  Fe  Fe30  1  0.00011677  0.74989102  0.00075851  1
  Fe  Fe31  1  0.87692292  0.87688735  0.87826431  1
  Fe  Fe32  1  0.50154076  0.25269835  -0.00084890  1
  Fe  Fe33  1  0.50219051  -0.00033667  0.74882844  1
  Fe  Fe34  1  0.50168749  0.75198648  0.24769633  1
  Fe  Fe35  1  0.87217048  0.12592060  0.37534543  1
  Fe  Fe36  1  0.37720110  0.87661814  0.37517189  1
  Fe  Fe37  1  0.87216799  0.37371661  0.62280519  1
  Fe  Fe38  1  0.37780051  0.62442285  0.37466466  1
  Fe  Fe39  1  0.87412842  0.37268304  0.87749660  1
  Fe  Fe40  1  0.50351885  0.50098637  0.50063749  1
  Fe  Fe41  1  0.62496907  0.87591111  0.87680194  1
  Fe  Fe42  1  0.50129758  0.25131060  0.25006098  1
  Fe  Fe43  1  0.49892808  0.25196292  0.75106788  1
  Fe  Fe44  1  0.87528989  0.62574386  0.62372258  1
  Fe  Fe45  1  0.74997721  0.00326323  0.75433813  1
  Fe  Fe46  1  0.37602455  0.87618816  0.62443796  1
  Fe  Fe47  1  0.62596253  0.37317543  0.62601039  1
  Fe  Fe48  1  0.37402994  0.87563093  0.87540801  1
  Fe  Fe49  1  0.37940542  0.12216319  0.37455753  1
  Fe  Fe50  1  0.00267939  0.49617538  0.00167251  1
  Fe  Fe51  1  0.74802764  0.50047605  0.49841331  1
  Fe  Fe52  1  0.87379733  0.37217193  0.37672296  1
  Fe  Fe53  1  0.24959485  0.74946948  0.74929308  1
  Fe  Fe54  1  0.24950518  0.74802780  -0.00011817  1
  Fe  Fe55  1  0.62261817  0.12416015  0.12263617  1
  Fe  Fe56  1  0.49917769  0.75007422  0.00032672  1
  Fe  Fe57  1  0.87470248  0.62424302  0.87809680  1
  Fe  Fe58  1  0.74913000  0.24670845  0.75422748  1
  Fe  Fe59  1  0.74847695  0.49761012  0.25025754  1
  Fe  Fe60  1  0.00211454  0.25232503  0.00323263  1
  Fe  Fe61  1  0.37708946  0.12488683  0.12491060  1
  Fe  Fe62  1  0.12247336  0.62476389  0.62395559  1
  Fe  Fe63  1  -0.00279720  0.75247838  0.49715129  1
  Fe  Fe64  1  -0.00108057  0.00003295  0.25154389  1
  Fe  Fe65  1  0.12362988  0.62470693  0.37568884  1
  Fe  Fe66  1  0.62566394  0.87671383  0.37607037  1
  Fe  Fe67  1  0.25022468  0.49774894  0.25193682  1
  Fe  Fe68  1  0.62527905  0.87827873  0.12036441  1
  Fe  Fe69  1  0.50068808  0.75012387  0.75033421  1
  Fe  Fe70  1  0.37500342  0.62287486  0.62471740  1
  Fe  Fe71  1  0.24999520  0.00113585  0.75043736  1
  Fe  Fe72  1  0.50322925  0.75022009  0.50109119  1
  Fe  Fe73  1  0.50160689  0.49874406  0.75247762  1
  Fe  Fe74  1  0.12721917  0.37343323  0.62064176  1
  Fe  Fe75  1  0.12583550  0.12865136  0.12892827  1
  Fe  Fe76  1  0.12483487  0.37055515  0.37603261  1
  Fe  Fe77  1  0.12627133  0.12675894  0.62494919  1
  Fe  Fe78  1  0.25044469  0.00092127  0.49976188  1
  Fe  Fe79  1  0.37494392  0.62290527  0.87549522  1
  Fe  Fe80  1  0.25096123  0.75057829  0.25096133  1
  Fe  Fe81  1  0.12549153  0.87525147  0.12642038  1
  Fe  Fe82  1  0.62685541  0.62652595  0.62663941  1
  Fe  Fe83  1  0.00041043  0.25190155  0.74742481  1
  Fe  Fe84  1  0.62587321  0.62167844  0.12162104  1
  Fe  Fe85  1  0.87346750  0.12654176  0.62529909  1
  Fe  Fe86  1  0.87250996  0.87500501  0.62402621  1
  Fe  Fe87  1  0.12342020  0.62350221  0.87261302  1
  Fe  Fe88  1  -0.00239676  0.75309228  0.25207194  1
  Fe  Fe89  1  0.75129067  0.74993079  0.75279624  1
  Co  Co90  1  0.50419590  0.00145763  0.50286074  1
  Co  Co91  1  0.49715513  -0.00118162  0.00002077  1
  Co  Co92  1  -0.00173491  0.49848942  0.49922241  1
  Co  Co93  1  0.74887763  0.74769260  0.49829026  1
  Co  Co94  1  0.62559280  0.37595444  0.12437605  1
  Co  Co95  1  0.37708173  0.37500511  0.62198900  1
  Co  Co96  1  0.74705918  0.24877977  0.49904293  1
  Co  Co97  1  0.24681473  0.50111110  0.00079582  1
  Co  Co98  1  0.62510662  0.12837772  0.62934908  1
  Co  Co99  1  0.62488107  0.37420794  0.37472617  1
  Co  Co100  1  0.12672256  0.37312509  0.87473017  1
  Co  Co101  1  -0.00191602  0.24813711  0.50073785  1
  Co  Co102  1  0.12653718  0.87651167  0.37393389  1
  Co  Co103  1  0.25594358  0.25052814  0.25238023  1
  Co  Co104  1  0.75087856  0.75109704  0.00119049  1
  Co  Co105  1  0.62405883  0.62467576  0.37251469  1
  Co  Co106  1  0.25324955  0.24781029  0.49912122  1
  Co  Co107  1  0.74768321  0.49761954  -0.00259857  1
  Co  Co108  1  0.25149834  0.25137581  0.74810581  1
  Co  Co109  1  0.87003140  0.87802690  0.37538870  1
  Co  Co110  1  0.37291135  0.87416537  0.12440723  1
  Co  Co111  1  0.75085714  0.00419473  -0.00316988  1
  Co  Co112  1  0.62525910  0.62704692  0.87731156  1
  Co  Co113  1  0.87233931  0.37590348  0.12294499  1
  Co  Co114  1  0.88024528  0.12874263  0.87726060  1
  Co  Co115  1  0.62517614  0.12439541  0.37111796  1
  Co  Co116  1  0.24942491  0.24733041  0.00010191  1
  Co  Co117  1  0.50061433  -0.00263107  0.24812968  1
  Co  Co118  1  0.62711455  0.37304674  0.87399180  1
  Co  Co119  1  0.24988706  0.50048353  0.49865419  1
  Co  Co120  1  -0.00432808  0.25087333  0.24960143  1
  Co  Co121  1  0.12828083  0.37254191  0.12853263  1
  Co  Co122  1  0.62774240  0.87382998  0.62720851  1
  Co  Co123  1  0.50105520  0.49829133  -0.00272201  1
  Co  Co124  1  0.74773959  0.24800068  -0.00004589  1
  Co  Co125  1  -0.00268182  0.75043193  0.75033397  1
  Co  Co126  1  0.62078503  0.12484638  0.87664410  1
  Co  Co127  1  0.00277546  0.00185961  0.00172927  1
