# generated using pymatgen
data_Fe45Co19
_symmetry_space_group_name_H-M   'P 1'
_cell_length_a   11.41430191
_cell_length_b   11.41497732
_cell_length_c   11.41501301
_cell_angle_alpha   89.99457132
_cell_angle_beta   89.98707696
_cell_angle_gamma   89.99436432
_symmetry_Int_Tables_number   1
_chemical_formula_structural   Fe45Co19
_chemical_formula_sum   'Fe90 Co38'
_cell_volume   1487.30762406
_cell_formula_units_Z   2
loop_
 _symmetry_equiv_pos_site_id
 _symmetry_equiv_pos_as_xyz
  1  'x, y, z'
loop_
 _atom_site_type_symbol
 _atom_site_label
 _atom_site_symmetry_multiplicity
 _atom_site_fract_x
 _atom_site_fract_y
 _atom_site_fract_z
 _atom_site_occupancy
  Fe  Fe0  1  0.25084949  0.24874340  0.50165728  1
  Fe  Fe1  1  0.87655285  0.87289007  0.12287527  1
  Fe  Fe2  1  -0.00039654  0.74935954  0.75447342  1
  Fe  Fe3  1  0.49971023  0.50229276  0.75151560  1
  Fe  Fe4  1  0.12511394  0.37515556  0.62481354  1
  Fe  Fe5  1  0.87509694  0.12583438  0.62556980  1
  Fe  Fe6  1  0.87465202  0.62580446  0.62699217  1
  Fe  Fe7  1  0.12545873  0.12285912  0.87624755  1
  Fe  Fe8  1  0.62376984  0.12434259  0.37757061  1
  Fe  Fe9  1  0.24648679  -0.00056863  0.24709783  1
  Fe  Fe10  1  0.87258793  0.87407493  0.37568925  1
  Fe  Fe11  1  0.00124763  -0.00111215  0.24727716  1
  Fe  Fe12  1  0.50101233  0.74627738  0.49383405  1
  Fe  Fe13  1  0.00005889  0.50023747  0.75143970  1
  Fe  Fe14  1  0.62303278  0.62665847  0.62479182  1
  Fe  Fe15  1  0.24708114  0.25297979  0.24678894  1
  Fe  Fe16  1  0.37651421  0.87073038  0.62640236  1
  Fe  Fe17  1  0.37693361  0.12408363  0.62554718  1
  Fe  Fe18  1  0.00314373  0.49806443  0.24915654  1
  Fe  Fe19  1  0.37868782  0.37561196  0.87788604  1
  Fe  Fe20  1  0.87574987  0.12602916  0.37440999  1
  Fe  Fe21  1  0.75235297  -0.00006016  -0.00010424  1
  Fe  Fe22  1  0.00437044  0.25381930  0.24877921  1
  Fe  Fe23  1  0.37387836  0.37845695  0.37472006  1
  Fe  Fe24  1  0.37735132  0.37685898  0.62486844  1
  Fe  Fe25  1  0.12527087  0.62482713  0.62724034  1
  Fe  Fe26  1  0.25247834  0.24764859  0.00187521  1
  Fe  Fe27  1  0.00167407  -0.00112155  0.50128131  1
  Fe  Fe28  1  0.62241260  0.37389950  0.62272982  1
  Fe  Fe29  1  0.74888885  -0.00073388  0.50044420  1
  Fe  Fe30  1  -0.00291032  0.50084651  -0.00154399  1
  Fe  Fe31  1  0.62220651  0.12620028  0.62229836  1
  Fe  Fe32  1  0.37503648  0.12391059  0.37323290  1
  Fe  Fe33  1  0.87872830  0.12661242  0.12109422  1
  Fe  Fe34  1  0.12709999  0.37697631  0.87731261  1
  Fe  Fe35  1  -0.00106589  -0.00055392  0.75400614  1
  Fe  Fe36  1  0.25228471  0.50183618  0.75096302  1
  Fe  Fe37  1  0.25054990  0.74689385  0.75386310  1
  Fe  Fe38  1  0.00039392  0.75174682  -0.00564465  1
  Fe  Fe39  1  0.50018896  0.50360306  0.25176755  1
  Fe  Fe40  1  0.37574436  0.62619618  0.12586980  1
  Fe  Fe41  1  0.87221322  0.37648499  0.87394298  1
  Fe  Fe42  1  -0.00081566  0.25163175  0.50138053  1
  Fe  Fe43  1  0.49819166  0.00230721  -0.00068514  1
  Fe  Fe44  1  0.75181284  0.50036225  0.24559250  1
  Fe  Fe45  1  0.37704582  0.37642786  0.12383839  1
  Fe  Fe46  1  0.62795876  0.62470700  0.87731125  1
  Fe  Fe47  1  0.12544627  0.87447586  0.62905434  1
  Fe  Fe48  1  0.00000510  0.74935286  0.50018341  1
  Fe  Fe49  1  0.37202716  0.87544965  0.87514689  1
  Fe  Fe50  1  0.74930436  -0.00031964  0.74973374  1
  Fe  Fe51  1  0.00005219  0.25047782  0.75215583  1
  Fe  Fe52  1  0.62460469  0.12601154  0.87545129  1
  Fe  Fe53  1  0.50132381  -0.00176472  0.25073503  1
  Fe  Fe54  1  -0.00008326  0.49998879  0.50067457  1
  Fe  Fe55  1  0.62278340  0.87245704  0.62363522  1
  Fe  Fe56  1  0.49961600  0.24977521  0.24966337  1
  Fe  Fe57  1  0.74858209  0.49958446  0.74973179  1
  Fe  Fe58  1  0.12386346  0.62609270  0.12333713  1
  Fe  Fe59  1  0.62185729  0.37526698  0.12238135  1
  Fe  Fe60  1  0.12477914  0.12559327  0.37489910  1
  Fe  Fe61  1  0.87430106  0.87290784  0.62699269  1
  Fe  Fe62  1  0.87676901  0.37395727  0.12362397  1
  Fe  Fe63  1  0.49910207  0.74920349  -0.00137552  1
  Fe  Fe64  1  0.37535493  0.87400655  0.12516559  1
  Fe  Fe65  1  0.62791227  0.87340125  0.87612119  1
  Fe  Fe66  1  0.87404582  0.37499002  0.37552733  1
  Fe  Fe67  1  0.24768646  0.00012443  0.00350400  1
  Fe  Fe68  1  0.37530231  0.87460944  0.37445446  1
  Fe  Fe69  1  0.74896950  0.24941397  0.24967821  1
  Fe  Fe70  1  0.24904748  0.74906448  0.50041319  1
  Fe  Fe71  1  -0.00105030  0.74951320  0.25143355  1
  Fe  Fe72  1  0.62367663  0.12508151  0.12395150  1
  Fe  Fe73  1  0.74997441  0.49980113  0.50200235  1
  Fe  Fe74  1  0.12496458  0.87455536  0.37427965  1
  Fe  Fe75  1  0.12693022  0.62341071  0.37427170  1
  Fe  Fe76  1  0.25004924  0.74960014  0.24851016  1
  Fe  Fe77  1  0.49925690  0.24953654  0.75254510  1
  Fe  Fe78  1  0.62466653  0.87337814  0.12521235  1
  Fe  Fe79  1  0.75073892  -0.00073954  0.24854881  1
  Fe  Fe80  1  0.49910111  -0.00177820  0.75090360  1
  Fe  Fe81  1  0.24917275  -0.00032516  0.50311730  1
  Fe  Fe82  1  0.25280237  0.50405480  -0.00000834  1
  Fe  Fe83  1  0.62472712  0.37598911  0.37685091  1
  Fe  Fe84  1  0.25173158  0.50231569  0.50217697  1
  Fe  Fe85  1  0.25015707  0.24877670  0.75090305  1
  Fe  Fe86  1  0.87180158  0.62516341  0.37397037  1
  Fe  Fe87  1  0.62616423  0.62685636  0.12559996  1
  Fe  Fe88  1  0.74938716  0.25086169  0.74961695  1
  Fe  Fe89  1  0.74843412  0.25261336  -0.00124280  1
  Co  Co90  1  0.87778375  0.62644768  0.12456882  1
  Co  Co91  1  0.12708955  0.37616620  0.37934636  1
  Co  Co92  1  0.37099749  0.62336483  0.37303468  1
  Co  Co93  1  -0.00009136  0.25234750  -0.00340958  1
  Co  Co94  1  0.12389839  0.87077983  0.12481526  1
  Co  Co95  1  0.87015909  0.87379542  0.87381894  1
  Co  Co96  1  0.25049650  0.74829591  -0.00100388  1
  Co  Co97  1  0.37400290  0.12290340  0.87501598  1
  Co  Co98  1  0.75049336  0.24998318  0.50020814  1
  Co  Co99  1  0.50084512  0.50356876  0.00044387  1
  Co  Co100  1  0.63110694  0.62485613  0.37184273  1
  Co  Co101  1  0.13009702  0.87694228  0.87295078  1
  Co  Co102  1  0.49984227  0.50380613  0.49801586  1
  Co  Co103  1  0.50139228  0.75002518  0.75459356  1
  Co  Co104  1  0.24729890  0.49880297  0.24662366  1
  Co  Co105  1  0.49734925  0.25102935  0.49827619  1
  Co  Co106  1  0.49902799  0.24705594  0.00029635  1
  Co  Co107  1  0.00052187  -0.00474062  -0.00265243  1
  Co  Co108  1  0.12104163  0.12585360  0.12334417  1
  Co  Co109  1  0.75110067  0.74887459  0.00201766  1
  Co  Co110  1  0.75072391  0.49870943  0.00259487  1
  Co  Co111  1  0.12592069  0.37718248  0.11822466  1
  Co  Co112  1  0.74845016  0.74950117  0.74889789  1
  Co  Co113  1  0.87347684  0.12516545  0.87663469  1
  Co  Co114  1  0.37740559  0.62518627  0.87461291  1
  Co  Co115  1  0.37674529  0.62800968  0.62584398  1
  Co  Co116  1  0.62246713  0.37617031  0.87611890  1
  Co  Co117  1  0.62717866  0.87441618  0.37392848  1
  Co  Co118  1  0.49814418  -0.00185323  0.50006185  1
  Co  Co119  1  0.37571824  0.12365892  0.12820660  1
  Co  Co120  1  0.75008709  0.74985853  0.50169194  1
  Co  Co121  1  0.75120835  0.75212843  0.24732462  1
  Co  Co122  1  0.50012266  0.74897097  0.25217428  1
  Co  Co123  1  0.87528659  0.37539813  0.62626097  1
  Co  Co124  1  0.12547735  0.62268223  0.87600252  1
  Co  Co125  1  0.87062775  0.62470647  0.87423799  1
  Co  Co126  1  0.12280294  0.12543827  0.62649609  1
  Co  Co127  1  0.25167852  0.00159366  0.74653834  1
