# generated using pymatgen
data_Fe45Co19
_symmetry_space_group_name_H-M   'P 1'
_cell_length_a   11.41505725
_cell_length_b   11.41599053
_cell_length_c   11.41393943
_cell_angle_alpha   90.00111323
_cell_angle_beta   90.01750280
_cell_angle_gamma   89.99366750
_symmetry_Int_Tables_number   1
_chemical_formula_structural   Fe45Co19
_chemical_formula_sum   'Fe90 Co38'
_cell_volume   1487.39814100
_cell_formula_units_Z   2
loop_
 _symmetry_equiv_pos_site_id
 _symmetry_equiv_pos_as_xyz
  1  'x, y, z'
loop_
 _atom_site_type_symbol
 _atom_site_label
 _atom_site_symmetry_multiplicity
 _atom_site_fract_x
 _atom_site_fract_y
 _atom_site_fract_z
 _atom_site_occupancy
  Fe  Fe0  1  0.50143529  0.24658593  0.50253449  1
  Fe  Fe1  1  -0.00121023  0.25068278  0.74995473  1
  Fe  Fe2  1  0.62469738  0.62357640  0.12786664  1
  Fe  Fe3  1  0.00183726  0.24754572  0.00094473  1
  Fe  Fe4  1  0.74679965  0.50325555  0.50037530  1
  Fe  Fe5  1  0.25247828  0.49553715  0.74478531  1
  Fe  Fe6  1  0.12754009  0.12662876  0.62963020  1
  Fe  Fe7  1  0.00233963  0.50306747  0.50017082  1
  Fe  Fe8  1  0.49588377  0.25308069  0.74876983  1
  Fe  Fe9  1  0.37536975  0.37563621  0.12184226  1
  Fe  Fe10  1  0.25097283  0.25035816  0.50294236  1
  Fe  Fe11  1  0.12695061  0.37368759  0.87275857  1
  Fe  Fe12  1  0.37185338  0.62490909  0.12080168  1
  Fe  Fe13  1  0.87325363  0.37470498  0.12197837  1
  Fe  Fe14  1  0.87407264  0.62702305  0.37264216  1
  Fe  Fe15  1  0.12752641  0.62137884  0.87258631  1
  Fe  Fe16  1  0.50302835  0.25144799  -0.00077773  1
  Fe  Fe17  1  0.49811124  0.25155162  0.24984151  1
  Fe  Fe18  1  0.87518262  0.87427258  0.62414915  1
  Fe  Fe19  1  0.87653985  0.12299292  0.87432034  1
  Fe  Fe20  1  0.00291790  0.50130278  0.00126915  1
  Fe  Fe21  1  0.62525653  0.87183845  0.62777843  1
  Fe  Fe22  1  0.49731847  0.74719983  0.75241594  1
  Fe  Fe23  1  0.00459511  0.00488727  0.00029881  1
  Fe  Fe24  1  0.12522172  0.87284519  0.62569177  1
  Fe  Fe25  1  0.62191532  0.37746110  0.37287905  1
  Fe  Fe26  1  0.75075243  -0.00337632  0.75242369  1
  Fe  Fe27  1  0.87535339  0.12511896  0.12678884  1
  Fe  Fe28  1  0.24919657  0.74893019  0.50021800  1
  Fe  Fe29  1  0.37392764  0.12329112  0.12384859  1
  Fe  Fe30  1  0.25132245  0.49922355  0.24910404  1
  Fe  Fe31  1  0.50398493  0.49809454  -0.00107799  1
  Fe  Fe32  1  0.75249722  0.49912712  0.75067749  1
  Fe  Fe33  1  0.62379530  0.37604884  0.62725208  1
  Fe  Fe34  1  0.50333939  0.50705138  0.50261294  1
  Fe  Fe35  1  0.12399576  0.37498653  0.37413946  1
  Fe  Fe36  1  0.12228916  0.87799378  0.87666891  1
  Fe  Fe37  1  0.12671629  0.12480973  0.37096951  1
  Fe  Fe38  1  0.00325770  0.74580447  -0.00126385  1
  Fe  Fe39  1  0.74966307  0.74914433  -0.00285091  1
  Fe  Fe40  1  0.50287594  0.74627749  0.50123806  1
  Fe  Fe41  1  0.00073644  -0.00388270  0.25149836  1
  Fe  Fe42  1  0.62702911  0.62259657  0.87152852  1
  Fe  Fe43  1  0.25005816  -0.00129815  0.50022900  1
  Fe  Fe44  1  0.37468832  0.12292748  0.37539235  1
  Fe  Fe45  1  0.75116178  0.75286280  0.24937311  1
  Fe  Fe46  1  0.87280377  0.12554544  0.62398228  1
  Fe  Fe47  1  0.00166000  0.00001626  0.50037635  1
  Fe  Fe48  1  0.75237236  0.25136185  0.74969401  1
  Fe  Fe49  1  0.37664059  0.37786004  0.37903079  1
  Fe  Fe50  1  0.75394030  0.75298101  0.75509451  1
  Fe  Fe51  1  0.62555726  0.12713334  0.87191302  1
  Fe  Fe52  1  -0.00156114  0.75030242  0.75275860  1
  Fe  Fe53  1  0.75098937  0.49855975  0.24950468  1
  Fe  Fe54  1  0.87710779  0.87500666  0.12072478  1
  Fe  Fe55  1  0.25191411  0.75128008  0.75341340  1
  Fe  Fe56  1  0.62540615  0.12502377  0.37385757  1
  Fe  Fe57  1  0.12366286  0.62717263  0.36925198  1
  Fe  Fe58  1  0.24638088  0.24845965  0.00052835  1
  Fe  Fe59  1  0.00081497  0.24817506  0.49883004  1
  Fe  Fe60  1  0.25138661  0.75505966  0.24557920  1
  Fe  Fe61  1  0.37491555  0.62565704  0.37452877  1
  Fe  Fe62  1  0.49934073  -0.00009356  0.75076622  1
  Fe  Fe63  1  0.37155590  0.61972639  0.87749603  1
  Fe  Fe64  1  0.87725806  0.62502921  0.12504866  1
  Fe  Fe65  1  0.49818708  -0.00272378  0.24872471  1
  Fe  Fe66  1  0.87288817  0.12405790  0.37496970  1
  Fe  Fe67  1  0.24650614  0.50254402  0.50301133  1
  Fe  Fe68  1  0.74737040  0.00064776  -0.00224719  1
  Fe  Fe69  1  0.25243097  -0.00627750  0.24675664  1
  Fe  Fe70  1  0.62442327  0.87285413  0.37532119  1
  Fe  Fe71  1  0.62519074  0.12701860  0.12633085  1
  Fe  Fe72  1  0.37221968  0.12732338  0.87530264  1
  Fe  Fe73  1  0.49676889  0.75059329  0.24824551  1
  Fe  Fe74  1  0.25194042  0.25171320  0.25039236  1
  Fe  Fe75  1  0.37856852  0.87551876  0.88395453  1
  Fe  Fe76  1  0.12292643  0.37457093  0.12846072  1
  Fe  Fe77  1  0.50113534  0.00045899  0.50163136  1
  Fe  Fe78  1  0.87568186  0.37528722  0.62166442  1
  Fe  Fe79  1  0.74738919  -0.00043540  0.50149425  1
  Fe  Fe80  1  0.87277033  0.37648649  0.87963885  1
  Fe  Fe81  1  0.62036859  0.87383982  0.11886377  1
  Fe  Fe82  1  -0.00067683  0.49928958  0.74886107  1
  Fe  Fe83  1  0.37557549  0.87369601  0.62384851  1
  Fe  Fe84  1  0.87471788  0.62649201  0.62603172  1
  Fe  Fe85  1  0.25116148  -0.00157183  0.75247244  1
  Fe  Fe86  1  -0.00070784  0.75029842  0.49779841  1
  Fe  Fe87  1  0.74848687  -0.00304456  0.24840701  1
  Fe  Fe88  1  0.75097155  0.25174269  0.25074480  1
  Fe  Fe89  1  0.87543423  0.37480766  0.37722266  1
  Co  Co90  1  -0.00011924  -0.00013596  0.74667341  1
  Co  Co91  1  0.50143084  0.74172409  -0.00276037  1
  Co  Co92  1  0.74984749  0.24608464  -0.00028566  1
  Co  Co93  1  0.50233171  0.00625926  -0.00143418  1
  Co  Co94  1  0.62795788  0.37443224  0.87365534  1
  Co  Co95  1  0.37323710  0.62579976  0.62569086  1
  Co  Co96  1  0.24654496  0.75057411  -0.00143576  1
  Co  Co97  1  0.37394667  0.12251585  0.62557277  1
  Co  Co98  1  -0.00150632  0.75465883  0.25058801  1
  Co  Co99  1  0.12280844  0.87471384  0.12153185  1
  Co  Co100  1  0.12625764  0.87407651  0.37570421  1
  Co  Co101  1  0.24782438  0.00165397  -0.00055201  1
  Co  Co102  1  -0.00212241  0.49867351  0.24974656  1
  Co  Co103  1  0.12247370  0.37352914  0.62469435  1
  Co  Co104  1  0.62607700  0.12519285  0.62916975  1
  Co  Co105  1  -0.00253056  0.25078846  0.25065255  1
  Co  Co106  1  0.74881589  0.74790683  0.49901270  1
  Co  Co107  1  0.12483611  0.62570474  0.12940190  1
  Co  Co108  1  0.62827076  0.62706032  0.63261641  1
  Co  Co109  1  0.37909527  0.87498074  0.11583631  1
  Co  Co110  1  0.24525387  0.49818997  0.00293296  1
  Co  Co111  1  0.62674484  0.37411537  0.12584144  1
  Co  Co112  1  0.87545494  0.62212953  0.87612940  1
  Co  Co113  1  0.37669651  0.87342335  0.37809049  1
  Co  Co114  1  0.74696879  0.50304069  0.00095602  1
  Co  Co115  1  0.62526926  0.62579753  0.36890838  1
  Co  Co116  1  0.12624016  0.12690857  0.86967941  1
  Co  Co117  1  0.49584247  0.50044378  0.24684545  1
  Co  Co118  1  0.87994948  0.87775085  0.87983532  1
  Co  Co119  1  0.49719786  0.49944353  0.75189719  1
  Co  Co120  1  0.25442511  0.25440049  0.74656208  1
  Co  Co121  1  0.12628718  0.12477116  0.13070973  1
  Co  Co122  1  0.37853838  0.37820858  0.61916370  1
  Co  Co123  1  0.37248686  0.37611848  0.87881819  1
  Co  Co124  1  0.62128833  0.87367647  0.87701464  1
  Co  Co125  1  0.12439373  0.62841382  0.62886186  1
  Co  Co126  1  0.74639785  0.25163950  0.49946358  1
  Co  Co127  1  0.87268357  0.87670030  0.37670927  1
