# generated using pymatgen
data_Fe45Co19
_symmetry_space_group_name_H-M   'P 1'
_cell_length_a   11.41689465
_cell_length_b   11.41558196
_cell_length_c   11.41756241
_cell_angle_alpha   90.00189578
_cell_angle_beta   89.99395716
_cell_angle_gamma   90.00331014
_symmetry_Int_Tables_number   1
_chemical_formula_structural   Fe45Co19
_chemical_formula_sum   'Fe90 Co38'
_cell_volume   1488.05656778
_cell_formula_units_Z   2
loop_
 _symmetry_equiv_pos_site_id
 _symmetry_equiv_pos_as_xyz
  1  'x, y, z'
loop_
 _atom_site_type_symbol
 _atom_site_label
 _atom_site_symmetry_multiplicity
 _atom_site_fract_x
 _atom_site_fract_y
 _atom_site_fract_z
 _atom_site_occupancy
  Fe  Fe0  1  0.74999005  0.25088066  0.25076437  1
  Fe  Fe1  1  0.37547888  0.87812394  0.12629057  1
  Fe  Fe2  1  0.87337636  0.87406578  0.12598813  1
  Fe  Fe3  1  0.62548480  0.12520691  0.62434188  1
  Fe  Fe4  1  0.24915878  0.50028002  0.00053370  1
  Fe  Fe5  1  0.50005624  0.75184496  0.74694699  1
  Fe  Fe6  1  0.87377417  0.62815647  0.62945643  1
  Fe  Fe7  1  0.87421087  0.12279606  0.62667078  1
  Fe  Fe8  1  0.49563423  0.00182962  0.50323205  1
  Fe  Fe9  1  0.24982202  0.24678189  0.24855144  1
  Fe  Fe10  1  0.12549093  0.87551988  0.12522417  1
  Fe  Fe11  1  0.37506495  0.62338798  0.13001670  1
  Fe  Fe12  1  0.50328160  0.75406932  0.24863792  1
  Fe  Fe13  1  -0.00014025  0.00018800  0.49986163  1
  Fe  Fe14  1  0.12615898  0.12634957  0.87848493  1
  Fe  Fe15  1  0.75060627  0.24841878  0.49948676  1
  Fe  Fe16  1  0.12431230  0.37453768  0.37557232  1
  Fe  Fe17  1  0.50052082  0.50042327  0.00056605  1
  Fe  Fe18  1  0.62672536  0.62792763  0.12438336  1
  Fe  Fe19  1  0.37492711  0.37620900  0.12511303  1
  Fe  Fe20  1  0.62571273  0.37629817  0.37680706  1
  Fe  Fe21  1  0.62629325  0.37486993  0.12254832  1
  Fe  Fe22  1  0.74692640  -0.00429229  0.75158369  1
  Fe  Fe23  1  0.25318248  0.24611892  0.49710859  1
  Fe  Fe24  1  0.87347945  0.87363387  0.62547442  1
  Fe  Fe25  1  0.50141697  0.25131353  0.24896542  1
  Fe  Fe26  1  0.12448270  0.37367660  0.12343255  1
  Fe  Fe27  1  0.12734578  0.37528905  0.62297036  1
  Fe  Fe28  1  0.12884998  0.12442676  0.62237674  1
  Fe  Fe29  1  0.25012429  0.00411910  0.25151327  1
  Fe  Fe30  1  0.49762654  0.25033478  0.75140210  1
  Fe  Fe31  1  0.12279464  0.62823295  0.87588038  1
  Fe  Fe32  1  0.75033579  0.49839355  0.24949220  1
  Fe  Fe33  1  -0.00162080  0.24903689  0.50066587  1
  Fe  Fe34  1  0.00097664  0.49894281  0.75120373  1
  Fe  Fe35  1  0.13078189  0.87556603  0.61975056  1
  Fe  Fe36  1  -0.00100164  -0.00110857  0.00041030  1
  Fe  Fe37  1  0.12382688  0.62675132  0.12856779  1
  Fe  Fe38  1  0.87403873  0.12283359  0.12678101  1
  Fe  Fe39  1  0.74985318  0.49977949  0.75292668  1
  Fe  Fe40  1  0.12675726  0.62753717  0.37102420  1
  Fe  Fe41  1  0.75271246  0.50016115  -0.00327042  1
  Fe  Fe42  1  0.37654472  0.87843912  0.87172367  1
  Fe  Fe43  1  0.00409206  -0.00119231  0.74932851  1
  Fe  Fe44  1  0.62321427  0.62683697  0.37455353  1
  Fe  Fe45  1  0.87447509  0.37510883  0.62455078  1
  Fe  Fe46  1  0.62336782  0.12241910  0.12570186  1
  Fe  Fe47  1  0.75049290  -0.00260659  -0.00312023  1
  Fe  Fe48  1  0.50127790  0.49902159  0.75065592  1
  Fe  Fe49  1  0.62408239  0.62702083  0.87462222  1
  Fe  Fe50  1  0.62486528  0.37655790  0.62404385  1
  Fe  Fe51  1  -0.00186368  0.50098514  -0.00090504  1
  Fe  Fe52  1  0.62271713  0.12344899  0.87423522  1
  Fe  Fe53  1  0.25159599  0.74985535  0.00199294  1
  Fe  Fe54  1  0.00088895  -0.00223710  0.25104079  1
  Fe  Fe55  1  0.49721576  0.50304835  0.49954448  1
  Fe  Fe56  1  0.62194854  0.12262067  0.37555556  1
  Fe  Fe57  1  0.12738212  0.62522590  0.62436489  1
  Fe  Fe58  1  0.37350872  0.37701551  0.62557102  1
  Fe  Fe59  1  0.87535029  0.12340251  0.87312685  1
  Fe  Fe60  1  0.87494267  0.12369074  0.37403463  1
  Fe  Fe61  1  0.37588266  0.37643352  0.37207032  1
  Fe  Fe62  1  0.49673918  0.24951725  -0.00239740  1
  Fe  Fe63  1  -0.00219397  0.25013587  0.00000137  1
  Fe  Fe64  1  0.00062719  0.74955251  0.50022595  1
  Fe  Fe65  1  0.74367832  -0.00506962  0.25230744  1
  Fe  Fe66  1  0.49758600  0.24912853  0.50188002  1
  Fe  Fe67  1  0.37449780  0.87405890  0.37630873  1
  Fe  Fe68  1  0.12333898  0.87238771  0.87770488  1
  Fe  Fe69  1  0.25317495  0.50389570  0.49637194  1
  Fe  Fe70  1  0.24940580  0.75123368  0.74939576  1
  Fe  Fe71  1  -0.00221866  0.25211105  0.25020116  1
  Fe  Fe72  1  0.00175525  0.25032324  0.74954387  1
  Fe  Fe73  1  0.25151100  0.25067346  0.75474836  1
  Fe  Fe74  1  0.49321799  0.74544714  0.50370015  1
  Fe  Fe75  1  0.75061467  0.50288922  0.50025108  1
  Fe  Fe76  1  0.37446396  0.62454553  0.87313288  1
  Fe  Fe77  1  0.87186940  0.87326752  0.37686762  1
  Fe  Fe78  1  0.50022354  0.00040319  0.00109335  1
  Fe  Fe79  1  0.12931588  0.87374018  0.37719088  1
  Fe  Fe80  1  0.75071302  0.24965239  -0.00160314  1
  Fe  Fe81  1  0.49696729  0.74985033  0.00086341  1
  Fe  Fe82  1  0.25032006  0.00299294  0.00052991  1
  Fe  Fe83  1  0.74882075  0.25116532  0.75125891  1
  Fe  Fe84  1  0.24792355  0.49898230  0.75273739  1
  Fe  Fe85  1  0.75268896  0.75204147  -0.00487634  1
  Fe  Fe86  1  0.87621447  0.62641153  0.37085262  1
  Fe  Fe87  1  0.62718603  0.87172553  0.61975963  1
  Fe  Fe88  1  -0.00024218  0.50133998  0.49891300  1
  Fe  Fe89  1  0.87546520  0.62765965  0.12831271  1
  Co  Co90  1  0.38004744  0.12468069  0.37055728  1
  Co  Co91  1  0.61960449  0.87391423  0.87774099  1
  Co  Co92  1  0.24470262  -0.00064464  0.75271557  1
  Co  Co93  1  0.88029652  0.87333321  0.87224709  1
  Co  Co94  1  0.62543227  0.87346703  0.11907643  1
  Co  Co95  1  0.87846335  0.62909816  0.87163774  1
  Co  Co96  1  0.74615840  0.75345399  0.25169898  1
  Co  Co97  1  0.36972844  0.87816882  0.62576798  1
  Co  Co98  1  0.74659223  0.75369166  0.75300047  1
  Co  Co99  1  0.75232696  0.74491728  0.49963563  1
  Co  Co100  1  0.12107492  0.12562150  0.37466502  1
  Co  Co101  1  0.25433320  0.74433845  0.50082306  1
  Co  Co102  1  0.25378076  0.24882449  -0.00010786  1
  Co  Co103  1  0.75078888  0.00263825  0.49984930  1
  Co  Co104  1  0.62290257  0.87245120  0.38476649  1
  Co  Co105  1  0.37097727  0.12351175  0.63016478  1
  Co  Co106  1  0.25327644  0.00578756  0.49546477  1
  Co  Co107  1  0.50417885  0.49882557  0.24853419  1
  Co  Co108  1  0.50436306  -0.00132371  0.74427967  1
  Co  Co109  1  0.50373236  -0.00605770  0.25116384  1
  Co  Co110  1  0.62554546  0.62498601  0.62678720  1
  Co  Co111  1  0.24806102  0.49811881  0.24956215  1
  Co  Co112  1  0.00133044  0.75413071  0.25058787  1
  Co  Co113  1  0.00464274  0.75242669  0.74546274  1
  Co  Co114  1  0.37594390  0.62606750  0.36698667  1
  Co  Co115  1  0.25114186  0.75242853  0.24707038  1
  Co  Co116  1  0.12381278  0.37445655  0.87737795  1
  Co  Co117  1  0.87395988  0.37483446  0.12306154  1
  Co  Co118  1  0.62460059  0.37495039  0.87630986  1
  Co  Co119  1  0.87612109  0.37345888  0.87384086  1
  Co  Co120  1  0.87413789  0.37527907  0.37760873  1
  Co  Co121  1  0.37605451  0.11954028  0.87302521  1
  Co  Co122  1  -0.00030897  0.75034594  0.00430100  1
  Co  Co123  1  0.37472321  0.37869738  0.87642468  1
  Co  Co124  1  -0.00038804  0.49749139  0.25022574  1
  Co  Co125  1  0.37280239  0.62146847  0.63045549  1
  Co  Co126  1  0.12247340  0.12526082  0.12503954  1
  Co  Co127  1  0.37810871  0.12329058  0.12648510  1
