# generated using pymatgen
data_Fe45Co19
_symmetry_space_group_name_H-M   'P 1'
_cell_length_a   11.41541426
_cell_length_b   11.41557172
_cell_length_c   11.41566672
_cell_angle_alpha   89.99264884
_cell_angle_beta   90.00188588
_cell_angle_gamma   89.99247696
_symmetry_Int_Tables_number   1
_chemical_formula_structural   Fe45Co19
_chemical_formula_sum   'Fe90 Co38'
_cell_volume   1487.61523290
_cell_formula_units_Z   2
loop_
 _symmetry_equiv_pos_site_id
 _symmetry_equiv_pos_as_xyz
  1  'x, y, z'
loop_
 _atom_site_type_symbol
 _atom_site_label
 _atom_site_symmetry_multiplicity
 _atom_site_fract_x
 _atom_site_fract_y
 _atom_site_fract_z
 _atom_site_occupancy
  Fe  Fe0  1  0.62304292  0.62533777  0.62311957  1
  Fe  Fe1  1  0.87903742  0.38001039  0.87203714  1
  Fe  Fe2  1  0.00194572  0.75063801  0.24931686  1
  Fe  Fe3  1  0.00248838  0.25042769  0.75021152  1
  Fe  Fe4  1  -0.00109147  0.25326156  0.50014337  1
  Fe  Fe5  1  -0.00071264  -0.00107290  0.74791149  1
  Fe  Fe6  1  0.62262281  0.12493246  0.62941119  1
  Fe  Fe7  1  0.74761601  0.25060982  0.25051831  1
  Fe  Fe8  1  0.00012649  0.50089256  0.24821420  1
  Fe  Fe9  1  0.24879992  0.24844958  0.25133633  1
  Fe  Fe10  1  0.62528268  0.37493279  0.62528306  1
  Fe  Fe11  1  0.62578651  0.37718371  0.87455666  1
  Fe  Fe12  1  0.87583481  0.12716668  0.62534414  1
  Fe  Fe13  1  0.87418457  0.12470048  0.12497129  1
  Fe  Fe14  1  0.37500115  0.62629364  0.12286812  1
  Fe  Fe15  1  0.12526308  0.12066690  0.38072403  1
  Fe  Fe16  1  0.50175046  0.25175701  -0.00219196  1
  Fe  Fe17  1  0.62508358  0.62476461  0.87435414  1
  Fe  Fe18  1  0.62369033  0.87624780  0.37621967  1
  Fe  Fe19  1  0.62774558  0.87087775  0.12575797  1
  Fe  Fe20  1  0.87399382  0.87098623  0.86991572  1
  Fe  Fe21  1  0.25021940  0.49980206  0.75375149  1
  Fe  Fe22  1  0.37496690  0.87603716  0.37493509  1
  Fe  Fe23  1  0.62108428  0.62390567  0.37771199  1
  Fe  Fe24  1  0.74787006  0.50246169  0.24880341  1
  Fe  Fe25  1  0.75424645  0.49790850  0.50157321  1
  Fe  Fe26  1  0.12626622  0.87852321  0.12000811  1
  Fe  Fe27  1  0.50090552  0.50050562  0.00069032  1
  Fe  Fe28  1  0.87758263  0.62430071  0.37713893  1
  Fe  Fe29  1  0.00114424  0.75150137  -0.00366567  1
  Fe  Fe30  1  0.75019016  0.25115944  0.50038342  1
  Fe  Fe31  1  0.49840817  0.50015226  0.74957198  1
  Fe  Fe32  1  0.12653940  0.87546921  0.62522947  1
  Fe  Fe33  1  0.24922923  0.74895022  0.25136003  1
  Fe  Fe34  1  0.25213364  0.24665931  0.50149566  1
  Fe  Fe35  1  0.00350544  0.74739926  0.50268843  1
  Fe  Fe36  1  0.50028275  0.75074364  -0.00450120  1
  Fe  Fe37  1  0.87556831  0.12479056  0.37597473  1
  Fe  Fe38  1  0.75101641  0.50207427  0.00127060  1
  Fe  Fe39  1  0.50050238  0.49955977  0.24726238  1
  Fe  Fe40  1  0.37561348  0.37290549  0.62615640  1
  Fe  Fe41  1  0.24764472  0.25094653  0.75214417  1
  Fe  Fe42  1  0.24880724  0.75021048  -0.00487111  1
  Fe  Fe43  1  0.25067415  0.00120460  0.74940296  1
  Fe  Fe44  1  0.25128875  0.74816305  0.49705994  1
  Fe  Fe45  1  0.49964692  -0.00163079  -0.00202383  1
  Fe  Fe46  1  0.62583065  0.12591584  0.12269357  1
  Fe  Fe47  1  0.75103545  0.00072665  0.50290862  1
  Fe  Fe48  1  0.37785047  0.37255186  0.37574063  1
  Fe  Fe49  1  0.25139621  0.50165788  0.25145350  1
  Fe  Fe50  1  0.12396041  0.12179948  0.12135084  1
  Fe  Fe51  1  0.75390015  0.50392511  0.74796437  1
  Fe  Fe52  1  0.12567980  0.37449207  0.12404077  1
  Fe  Fe53  1  0.12278796  0.12102238  0.87637347  1
  Fe  Fe54  1  0.37457839  0.37378926  0.12369309  1
  Fe  Fe55  1  0.37854695  0.12571079  0.87159691  1
  Fe  Fe56  1  0.87571341  0.87418135  0.37673911  1
  Fe  Fe57  1  0.37568083  0.87211319  0.62886349  1
  Fe  Fe58  1  0.25230822  0.50241064  0.49757885  1
  Fe  Fe59  1  0.12484008  0.37720711  0.62545958  1
  Fe  Fe60  1  0.62306127  0.37479541  0.37663038  1
  Fe  Fe61  1  0.74898844  0.24974903  0.75221529  1
  Fe  Fe62  1  0.87405043  0.87057068  0.62686306  1
  Fe  Fe63  1  0.50005385  0.74896151  0.25072493  1
  Fe  Fe64  1  0.24884278  0.49858274  -0.00276927  1
  Fe  Fe65  1  0.49563500  0.00204926  0.50328799  1
  Fe  Fe66  1  0.24874057  0.25020738  -0.00335998  1
  Fe  Fe67  1  0.87475431  0.12363459  0.87442538  1
  Fe  Fe68  1  0.12355530  0.37847162  0.37648749  1
  Fe  Fe69  1  0.62432319  0.87439970  0.62750304  1
  Fe  Fe70  1  0.74740097  0.75008344  0.49949189  1
  Fe  Fe71  1  0.24931497  0.00042524  0.24966122  1
  Fe  Fe72  1  0.87148861  0.87210586  0.12578881  1
  Fe  Fe73  1  0.00168706  0.24924631  0.25127239  1
  Fe  Fe74  1  -0.00033537  0.25148492  -0.00038903  1
  Fe  Fe75  1  0.62608341  0.87554019  0.86965651  1
  Fe  Fe76  1  0.50010587  0.00007403  0.24828654  1
  Fe  Fe77  1  0.75062244  0.25130568  -0.00257384  1
  Fe  Fe78  1  0.37510146  0.62675769  0.62542761  1
  Fe  Fe79  1  0.12547319  0.87717017  0.37804368  1
  Fe  Fe80  1  0.37360740  0.87412171  0.12262639  1
  Fe  Fe81  1  0.75059374  -0.00206203  -0.00227195  1
  Fe  Fe82  1  0.37591061  0.12617428  0.12603756  1
  Fe  Fe83  1  0.62191319  0.12502634  0.37515864  1
  Fe  Fe84  1  0.24706649  0.74763235  0.75549062  1
  Fe  Fe85  1  0.75005568  -0.00113562  0.25056004  1
  Fe  Fe86  1  -0.00013417  -0.00099514  0.24956127  1
  Fe  Fe87  1  0.12629726  0.62527020  0.12353205  1
  Fe  Fe88  1  0.87323462  0.37403569  0.12703493  1
  Fe  Fe89  1  0.87201393  0.62942885  0.12323447  1
  Co  Co90  1  0.50053278  0.74715689  0.75152747  1
  Co  Co91  1  0.74860630  0.75061724  -0.00564662  1
  Co  Co92  1  0.87787301  0.62485662  0.87541161  1
  Co  Co93  1  0.50243400  0.25456570  0.75104098  1
  Co  Co94  1  0.74743940  0.74550195  0.74896126  1
  Co  Co95  1  0.49748608  0.49835926  0.50300224  1
  Co  Co96  1  -0.00183380  0.49978434  0.00500891  1
  Co  Co97  1  0.37641766  0.12819314  0.63100029  1
  Co  Co98  1  0.37838452  0.62542392  0.37465426  1
  Co  Co99  1  -0.00264011  0.49874371  0.50493196  1
  Co  Co100  1  0.00504721  0.74729530  0.74990202  1
  Co  Co101  1  0.49902549  0.75155298  0.50117161  1
  Co  Co102  1  -0.00317041  -0.00190521  0.50370971  1
  Co  Co103  1  0.50075280  0.25187835  0.24879819  1
  Co  Co104  1  0.87414279  0.62981345  0.62318230  1
  Co  Co105  1  0.75216282  0.00132294  0.74850088  1
  Co  Co106  1  0.13058579  0.62304589  0.62374479  1
  Co  Co107  1  0.12118087  0.61944472  0.87604647  1
  Co  Co108  1  0.12371660  0.12419056  0.62342755  1
  Co  Co109  1  0.25550509  0.00041951  0.50425673  1
  Co  Co110  1  0.87495822  0.37171287  0.62888752  1
  Co  Co111  1  0.49970819  0.24799188  0.50266880  1
  Co  Co112  1  0.37404502  0.87504903  0.87289888  1
  Co  Co113  1  0.37543238  0.12480400  0.37304493  1
  Co  Co114  1  0.87458459  0.37571372  0.37230631  1
  Co  Co115  1  0.37641903  0.37518780  0.87552429  1
  Co  Co116  1  0.12246107  0.62330877  0.37567489  1
  Co  Co117  1  0.49902912  -0.00159572  0.74972656  1
  Co  Co118  1  0.62441467  0.12358916  0.87450255  1
  Co  Co119  1  0.62503562  0.62978490  0.12366613  1
  Co  Co120  1  0.62632491  0.37421197  0.12332795  1
  Co  Co121  1  0.12023237  0.37935014  0.87439984  1
  Co  Co122  1  0.74885234  0.74819717  0.25570627  1
  Co  Co123  1  0.25519470  0.00253601  -0.00217656  1
  Co  Co124  1  0.37520619  0.62391712  0.87603446  1
  Co  Co125  1  -0.00177758  0.50558925  0.74266900  1
  Co  Co126  1  0.12557286  0.87968816  0.87565768  1
  Co  Co127  1  -0.00578703  -0.00268106  -0.00082069  1
