# generated using pymatgen
data_Fe45Co19
_symmetry_space_group_name_H-M   'P 1'
_cell_length_a   11.41618370
_cell_length_b   11.41513158
_cell_length_c   11.41584214
_cell_angle_alpha   90.00067089
_cell_angle_beta   89.98900938
_cell_angle_gamma   89.99776008
_symmetry_Int_Tables_number   1
_chemical_formula_structural   Fe45Co19
_chemical_formula_sum   'Fe90 Co38'
_cell_volume   1487.68100209
_cell_formula_units_Z   2
loop_
 _symmetry_equiv_pos_site_id
 _symmetry_equiv_pos_as_xyz
  1  'x, y, z'
loop_
 _atom_site_type_symbol
 _atom_site_label
 _atom_site_symmetry_multiplicity
 _atom_site_fract_x
 _atom_site_fract_y
 _atom_site_fract_z
 _atom_site_occupancy
  Fe  Fe0  1  0.24984039  0.25250434  0.24906297  1
  Fe  Fe1  1  0.87290337  0.12975200  0.12443053  1
  Fe  Fe2  1  0.25438748  0.50285787  0.49609236  1
  Fe  Fe3  1  0.62506399  0.87460572  0.62432535  1
  Fe  Fe4  1  0.49705506  0.00139069  0.49986990  1
  Fe  Fe5  1  0.00256570  0.75118611  0.24884039  1
  Fe  Fe6  1  -0.00040351  0.49965039  0.49915768  1
  Fe  Fe7  1  0.62534698  0.12653835  0.37433864  1
  Fe  Fe8  1  0.24942736  0.50109905  -0.00179645  1
  Fe  Fe9  1  0.49998916  0.74900716  0.74976564  1
  Fe  Fe10  1  0.12869101  0.12716574  0.12262015  1
  Fe  Fe11  1  0.87398594  0.87403159  0.12562419  1
  Fe  Fe12  1  0.00014969  0.00137903  0.49927311  1
  Fe  Fe13  1  0.63060443  0.37326641  0.12001684  1
  Fe  Fe14  1  0.87327016  0.37662986  0.87893226  1
  Fe  Fe15  1  0.74967532  0.50141311  0.50035300  1
  Fe  Fe16  1  0.49978950  0.49609729  0.24806459  1
  Fe  Fe17  1  0.12678931  0.87437087  0.62332790  1
  Fe  Fe18  1  0.37441358  0.87209701  0.37424796  1
  Fe  Fe19  1  0.49910763  0.24844013  0.00123674  1
  Fe  Fe20  1  0.62403396  0.37576972  0.62298975  1
  Fe  Fe21  1  0.62561916  0.87451079  0.87738751  1
  Fe  Fe22  1  0.00108717  0.00059113  0.24749758  1
  Fe  Fe23  1  0.24648268  0.74645622  0.75258749  1
  Fe  Fe24  1  0.87574858  0.87239283  0.87668914  1
  Fe  Fe25  1  0.62331073  0.37572966  0.37798388  1
  Fe  Fe26  1  0.87583879  0.12786454  0.37422404  1
  Fe  Fe27  1  -0.00100601  0.49905403  0.00125140  1
  Fe  Fe28  1  0.37297596  0.87426242  0.62653020  1
  Fe  Fe29  1  0.12377625  0.62367467  0.12567385  1
  Fe  Fe30  1  0.87552474  0.87512331  0.37346934  1
  Fe  Fe31  1  0.49910007  0.75273573  0.24793217  1
  Fe  Fe32  1  0.62410966  0.87490167  0.37614680  1
  Fe  Fe33  1  0.00172310  -0.00282434  0.75056100  1
  Fe  Fe34  1  0.37599560  0.37503191  0.87545383  1
  Fe  Fe35  1  0.75049004  0.74722648  0.50006014  1
  Fe  Fe36  1  0.74947418  0.49919879  0.75342055  1
  Fe  Fe37  1  0.25313896  -0.00148402  0.24809272  1
  Fe  Fe38  1  0.87656567  0.12725223  0.62529364  1
  Fe  Fe39  1  0.00056187  0.74900455  0.50049225  1
  Fe  Fe40  1  0.37369843  0.87542193  0.87835990  1
  Fe  Fe41  1  0.62260854  0.12509014  0.87442357  1
  Fe  Fe42  1  0.13009682  0.87313992  0.12294249  1
  Fe  Fe43  1  0.75071525  -0.00013322  0.75094906  1
  Fe  Fe44  1  0.12509403  0.12668335  0.62552629  1
  Fe  Fe45  1  0.37433399  0.12912460  0.37460254  1
  Fe  Fe46  1  0.62456121  0.12516648  0.62474838  1
  Fe  Fe47  1  0.87809848  0.62392522  0.62936463  1
  Fe  Fe48  1  0.87385318  0.37371317  0.37462370  1
  Fe  Fe49  1  0.00353614  0.25346618  0.00071570  1
  Fe  Fe50  1  0.24926107  0.00213279  0.75377220  1
  Fe  Fe51  1  0.87910212  0.12482308  0.87519780  1
  Fe  Fe52  1  0.37400276  0.37487348  0.62270939  1
  Fe  Fe53  1  0.00164644  0.25409383  0.75118415  1
  Fe  Fe54  1  0.25057085  0.74460861  0.49821836  1
  Fe  Fe55  1  0.12531085  0.87290476  0.87957537  1
  Fe  Fe56  1  0.00057756  0.25450775  0.24801319  1
  Fe  Fe57  1  0.12490917  0.12631961  0.37401798  1
  Fe  Fe58  1  0.24698045  0.50097684  0.75229450  1
  Fe  Fe59  1  0.75116894  0.74417149  0.00272532  1
  Fe  Fe60  1  0.50048689  0.49925862  0.00129708  1
  Fe  Fe61  1  0.12652095  0.37563344  0.37558516  1
  Fe  Fe62  1  0.87518226  0.87471096  0.62494372  1
  Fe  Fe63  1  0.25044937  0.50158946  0.25255214  1
  Fe  Fe64  1  0.49842357  0.74888494  0.00050281  1
  Fe  Fe65  1  0.75149016  0.00136032  0.49990875  1
  Fe  Fe66  1  0.74934171  0.25156560  0.75258257  1
  Fe  Fe67  1  0.12604646  0.87465319  0.37456649  1
  Fe  Fe68  1  0.37561339  0.62337335  0.87428726  1
  Fe  Fe69  1  0.49854188  0.25020902  0.74878708  1
  Fe  Fe70  1  0.24942967  0.24976755  0.75337923  1
  Fe  Fe71  1  0.00115937  -0.00109621  0.00207113  1
  Fe  Fe72  1  0.25097665  0.00242561  0.49936633  1
  Fe  Fe73  1  0.62226878  0.87884068  0.12405539  1
  Fe  Fe74  1  0.12656091  0.37625876  0.62302650  1
  Fe  Fe75  1  0.74804510  0.74861677  0.24819866  1
  Fe  Fe76  1  0.50058957  0.50047217  0.74799764  1
  Fe  Fe77  1  0.74989178  0.00128372  0.24980613  1
  Fe  Fe78  1  0.37568373  0.62514001  0.12694175  1
  Fe  Fe79  1  0.75061177  0.49928015  0.24572784  1
  Fe  Fe80  1  0.62414359  0.62330470  0.87523640  1
  Fe  Fe81  1  0.87440096  0.37423723  0.62411701  1
  Fe  Fe82  1  0.74954548  0.00265756  -0.00024579  1
  Fe  Fe83  1  0.62229085  0.62258726  0.37329024  1
  Fe  Fe84  1  0.50099124  0.24997277  0.24780052  1
  Fe  Fe85  1  0.75034649  0.74898635  0.75054035  1
  Fe  Fe86  1  0.87723052  0.62413819  0.37040550  1
  Fe  Fe87  1  0.49895020  0.74489221  0.50320896  1
  Fe  Fe88  1  0.37098437  0.37329200  0.12438556  1
  Fe  Fe89  1  0.49788214  -0.00087323  0.75096919  1
  Co  Co90  1  0.11972264  0.62472741  0.87605722  1
  Co  Co91  1  0.38006245  0.62560759  0.37016452  1
  Co  Co92  1  0.87076260  0.37333927  0.12117887  1
  Co  Co93  1  0.25059074  0.00189503  -0.00114774  1
  Co  Co94  1  0.74798404  0.24670760  -0.00504164  1
  Co  Co95  1  0.87902866  0.62555742  0.87236590  1
  Co  Co96  1  0.25210155  0.74533181  -0.00015948  1
  Co  Co97  1  0.37643184  0.37298358  0.37452312  1
  Co  Co98  1  0.00132322  0.49577585  0.75075835  1
  Co  Co99  1  0.37253546  0.12487930  0.62612477  1
  Co  Co100  1  0.25005575  0.25160617  -0.00329311  1
  Co  Co101  1  0.75071702  0.50622071  0.00036339  1
  Co  Co102  1  0.74917491  0.25030676  0.50058265  1
  Co  Co103  1  0.12192169  0.62425520  0.37377948  1
  Co  Co104  1  -0.00008470  0.49422183  0.24921529  1
  Co  Co105  1  0.37294925  0.12562053  0.12456873  1
  Co  Co106  1  0.49644475  0.50234469  0.50143293  1
  Co  Co107  1  0.49905491  0.00245290  -0.00051184  1
  Co  Co108  1  0.00362600  0.75291994  0.74880748  1
  Co  Co109  1  0.74899523  0.25234606  0.25140234  1
  Co  Co110  1  0.49708241  0.00140060  0.25215555  1
  Co  Co111  1  0.12601419  0.37628461  0.87634824  1
  Co  Co112  1  0.24974469  0.25046576  0.49988213  1
  Co  Co113  1  0.12859270  0.37741797  0.12474497  1
  Co  Co114  1  0.37220924  0.62434369  0.62857083  1
  Co  Co115  1  0.62612118  0.12387272  0.12616587  1
  Co  Co116  1  0.24994377  0.74845924  0.24899106  1
  Co  Co117  1  -0.00085257  0.74999840  0.00269858  1
  Co  Co118  1  0.12238628  0.12561164  0.87635920  1
  Co  Co119  1  0.49912141  0.24950676  0.50086758  1
  Co  Co120  1  0.87899585  0.62371009  0.12889667  1
  Co  Co121  1  0.37540241  0.87583172  0.12256108  1
  Co  Co122  1  0.62629490  0.62347255  0.62670123  1
  Co  Co123  1  0.12416495  0.62182451  0.62410940  1
  Co  Co124  1  0.62095372  0.62402504  0.12634509  1
  Co  Co125  1  0.62268136  0.37635213  0.87716406  1
  Co  Co126  1  0.37512039  0.12664511  0.87646793  1
  Co  Co127  1  0.00121527  0.25128962  0.49902216  1
