# generated using pymatgen
data_Fe45Co19
_symmetry_space_group_name_H-M   'P 1'
_cell_length_a   11.41555415
_cell_length_b   11.41507049
_cell_length_c   11.41499204
_cell_angle_alpha   89.99649081
_cell_angle_beta   90.00538163
_cell_angle_gamma   90.00019894
_symmetry_Int_Tables_number   1
_chemical_formula_structural   Fe45Co19
_chemical_formula_sum   'Fe90 Co38'
_cell_volume   1487.48024327
_cell_formula_units_Z   2
loop_
 _symmetry_equiv_pos_site_id
 _symmetry_equiv_pos_as_xyz
  1  'x, y, z'
loop_
 _atom_site_type_symbol
 _atom_site_label
 _atom_site_symmetry_multiplicity
 _atom_site_fract_x
 _atom_site_fract_y
 _atom_site_fract_z
 _atom_site_occupancy
  Fe  Fe0  1  0.37594641  0.37602308  0.62393367  1
  Fe  Fe1  1  0.24801548  0.24940982  -0.00134472  1
  Fe  Fe2  1  -0.00918843  0.75360097  0.75142571  1
  Fe  Fe3  1  0.74761741  0.00087772  0.50044710  1
  Fe  Fe4  1  0.86940624  0.12116119  0.87904930  1
  Fe  Fe5  1  0.12349060  0.62577367  0.12643074  1
  Fe  Fe6  1  0.24994704  0.50080197  0.74935007  1
  Fe  Fe7  1  0.12547237  0.37571807  0.37573422  1
  Fe  Fe8  1  0.62463362  0.37310579  0.37386524  1
  Fe  Fe9  1  0.87339718  0.62455400  0.37572594  1
  Fe  Fe10  1  0.00469288  -0.00100326  0.50363366  1
  Fe  Fe11  1  0.74987090  0.24860386  0.75233470  1
  Fe  Fe12  1  0.12690696  0.12152115  0.37321762  1
  Fe  Fe13  1  0.00057941  0.00012218  -0.00089333  1
  Fe  Fe14  1  0.12432153  0.37285082  0.62604162  1
  Fe  Fe15  1  0.12514519  0.62565957  0.37550414  1
  Fe  Fe16  1  -0.00234645  0.25007769  0.75430094  1
  Fe  Fe17  1  0.12099630  0.62428807  0.87055129  1
  Fe  Fe18  1  0.74958212  0.25008443  0.49909216  1
  Fe  Fe19  1  0.25190556  0.50001871  0.24996245  1
  Fe  Fe20  1  -0.00245610  0.75160833  0.25114723  1
  Fe  Fe21  1  0.49780314  -0.00090221  0.25005876  1
  Fe  Fe22  1  0.12413599  0.37311804  0.12422025  1
  Fe  Fe23  1  0.50232571  0.50350337  0.00200890  1
  Fe  Fe24  1  0.24781950  0.50201149  -0.00106528  1
  Fe  Fe25  1  0.37557984  0.62600480  0.37415063  1
  Fe  Fe26  1  0.75100983  0.24734130  0.24723971  1
  Fe  Fe27  1  0.37237493  0.87526491  0.87214870  1
  Fe  Fe28  1  0.24813231  0.74828476  -0.00188842  1
  Fe  Fe29  1  0.87383144  0.87684601  0.37820760  1
  Fe  Fe30  1  0.12456415  0.87581472  0.12610584  1
  Fe  Fe31  1  0.12557906  0.12340605  0.87239231  1
  Fe  Fe32  1  0.12282935  0.12412090  0.12595933  1
  Fe  Fe33  1  0.87534757  0.87608284  0.12230594  1
  Fe  Fe34  1  0.87527236  0.12326922  0.37561032  1
  Fe  Fe35  1  0.37608199  0.12320114  0.62328442  1
  Fe  Fe36  1  -0.00088023  0.75243010  0.50032487  1
  Fe  Fe37  1  0.62698526  0.87312578  0.37170575  1
  Fe  Fe38  1  0.87237690  0.37756708  0.87815423  1
  Fe  Fe39  1  0.50039867  0.25156705  0.74982328  1
  Fe  Fe40  1  0.37214041  0.87802904  0.37811129  1
  Fe  Fe41  1  0.00151675  0.49884791  -0.00067796  1
  Fe  Fe42  1  0.62496002  0.37564596  0.12515194  1
  Fe  Fe43  1  0.50228385  -0.00296608  0.75043056  1
  Fe  Fe44  1  0.74939780  0.50202574  0.75003357  1
  Fe  Fe45  1  -0.00246834  0.49783297  0.49962933  1
  Fe  Fe46  1  0.37576064  0.37587410  0.87696890  1
  Fe  Fe47  1  0.24960700  0.75171145  0.50498166  1
  Fe  Fe48  1  0.87303330  0.37465047  0.62402328  1
  Fe  Fe49  1  0.25023314  0.50203748  0.50145410  1
  Fe  Fe50  1  0.75220837  0.00039395  0.24744047  1
  Fe  Fe51  1  0.37733725  0.12436945  0.12360953  1
  Fe  Fe52  1  0.75079423  0.50158815  0.24752511  1
  Fe  Fe53  1  0.37775023  0.12334375  0.87475803  1
  Fe  Fe54  1  0.87444646  0.37318526  0.12156660  1
  Fe  Fe55  1  0.12541205  0.87595586  0.86966925  1
  Fe  Fe56  1  0.62574084  0.62552430  0.87202165  1
  Fe  Fe57  1  0.62618896  0.37574647  0.62455485  1
  Fe  Fe58  1  0.87104937  0.62500654  0.62262946  1
  Fe  Fe59  1  0.50058054  0.74904201  -0.00084321  1
  Fe  Fe60  1  0.37446189  0.87345509  0.12230615  1
  Fe  Fe61  1  0.25171660  0.75089021  0.24858477  1
  Fe  Fe62  1  -0.00084381  0.49902766  0.25155268  1
  Fe  Fe63  1  0.63224026  0.87569373  0.87516270  1
  Fe  Fe64  1  0.62604868  0.37553657  0.87588329  1
  Fe  Fe65  1  0.38088105  0.62740868  0.62827592  1
  Fe  Fe66  1  0.50268992  0.75083516  0.49990373  1
  Fe  Fe67  1  0.62579088  0.87064103  0.12708287  1
  Fe  Fe68  1  0.12171345  0.62657791  0.62640287  1
  Fe  Fe69  1  0.25294700  0.24799711  0.25026116  1
  Fe  Fe70  1  0.87581453  0.12401215  0.62407382  1
  Fe  Fe71  1  0.37841424  0.37353221  0.37608676  1
  Fe  Fe72  1  0.50179291  -0.00136904  0.50139354  1
  Fe  Fe73  1  -0.00189519  0.24900462  0.25109737  1
  Fe  Fe74  1  0.50451961  0.24764778  -0.00035930  1
  Fe  Fe75  1  0.25115447  0.24995796  0.75155316  1
  Fe  Fe76  1  0.75358676  0.74474217  0.00050000  1
  Fe  Fe77  1  0.62645546  0.62816990  0.37030715  1
  Fe  Fe78  1  0.25022342  0.24731578  0.49939473  1
  Fe  Fe79  1  0.12757550  0.87656375  0.37369983  1
  Fe  Fe80  1  -0.00084581  0.25112410  0.49760941  1
  Fe  Fe81  1  0.24920065  0.00001937  -0.00041150  1
  Fe  Fe82  1  0.62545326  0.12600352  0.62703874  1
  Fe  Fe83  1  -0.00181802  0.75021351  -0.00280078  1
  Fe  Fe84  1  0.37599026  0.37635525  0.12334066  1
  Fe  Fe85  1  0.50424219  -0.00089434  -0.00098875  1
  Fe  Fe86  1  0.62932059  0.87088600  0.62715586  1
  Fe  Fe87  1  0.37680261  0.62507204  0.87337230  1
  Fe  Fe88  1  0.62200463  0.12673647  0.37304446  1
  Fe  Fe89  1  0.50451436  0.50146480  0.50026298  1
  Co  Co90  1  0.87238461  0.87719486  0.62099350  1
  Co  Co91  1  0.12538646  0.37697923  0.87296216  1
  Co  Co92  1  0.37657506  0.87395407  0.62679858  1
  Co  Co93  1  -0.00204309  0.49763211  0.74653931  1
  Co  Co94  1  -0.00410678  -0.00007049  0.75049069  1
  Co  Co95  1  0.50283312  0.75398329  0.75297192  1
  Co  Co96  1  0.62235664  0.12383066  0.12829315  1
  Co  Co97  1  0.37472324  0.62579365  0.12415311  1
  Co  Co98  1  0.62589404  0.12293492  0.87176284  1
  Co  Co99  1  0.75157437  -0.00027949  0.74712314  1
  Co  Co100  1  0.25096666  0.74748507  0.74958662  1
  Co  Co101  1  0.87883034  0.62335402  0.12444286  1
  Co  Co102  1  0.12214766  0.12939230  0.62794380  1
  Co  Co103  1  0.74589415  0.24691614  0.00071082  1
  Co  Co104  1  0.62545964  0.62769646  0.62832316  1
  Co  Co105  1  0.25315593  0.00020702  0.24748801  1
  Co  Co106  1  0.74753938  0.50392714  0.00176162  1
  Co  Co107  1  0.24567208  -0.00102902  0.50623621  1
  Co  Co108  1  0.87213838  0.37491673  0.37373829  1
  Co  Co109  1  0.49522717  0.75192666  0.25066649  1
  Co  Co110  1  0.75646349  0.75108388  0.24899675  1
  Co  Co111  1  0.74711693  0.50016472  0.49864828  1
  Co  Co112  1  0.75530094  0.74968013  0.75212986  1
  Co  Co113  1  0.74550918  0.00299723  0.00672652  1
  Co  Co114  1  0.49822523  0.25001813  0.24824572  1
  Co  Co115  1  -0.00275985  -0.00144788  0.24968645  1
  Co  Co116  1  0.50123732  0.49742238  0.75023615  1
  Co  Co117  1  0.50169871  0.25034864  0.50248692  1
  Co  Co118  1  0.00091794  0.24937783  -0.00476439  1
  Co  Co119  1  0.87693793  0.62006855  0.87535028  1
  Co  Co120  1  0.74813460  0.74999575  0.49886105  1
  Co  Co121  1  0.49971559  0.50083836  0.24984034  1
  Co  Co122  1  0.62385176  0.62956650  0.12882757  1
  Co  Co123  1  0.86971763  0.88071281  0.87906439  1
  Co  Co124  1  0.25015393  0.00138336  0.74615182  1
  Co  Co125  1  0.12337957  0.87258330  0.63199312  1
  Co  Co126  1  0.37644214  0.12310753  0.37845026  1
  Co  Co127  1  0.87771866  0.12597228  0.12200078  1
