# generated using pymatgen
data_Fe45Co19
_symmetry_space_group_name_H-M   'P 1'
_cell_length_a   11.41508691
_cell_length_b   11.41621972
_cell_length_c   11.41424633
_cell_angle_alpha   89.99871835
_cell_angle_beta   90.01002645
_cell_angle_gamma   89.98766036
_symmetry_Int_Tables_number   1
_chemical_formula_structural   Fe45Co19
_chemical_formula_sum   'Fe90 Co38'
_cell_volume   1487.47188279
_cell_formula_units_Z   2
loop_
 _symmetry_equiv_pos_site_id
 _symmetry_equiv_pos_as_xyz
  1  'x, y, z'
loop_
 _atom_site_type_symbol
 _atom_site_label
 _atom_site_symmetry_multiplicity
 _atom_site_fract_x
 _atom_site_fract_y
 _atom_site_fract_z
 _atom_site_occupancy
  Fe  Fe0  1  0.75080969  0.00060583  0.00012275  1
  Fe  Fe1  1  0.24899608  0.00578316  -0.00594805  1
  Fe  Fe2  1  0.00139780  0.49996209  0.24752087  1
  Fe  Fe3  1  0.87669421  0.62444914  0.37550515  1
  Fe  Fe4  1  0.62232436  0.87366858  0.62331056  1
  Fe  Fe5  1  0.87635903  0.62459253  0.62608763  1
  Fe  Fe6  1  0.37182155  0.37346306  0.62841826  1
  Fe  Fe7  1  0.37549521  0.87734046  0.62573592  1
  Fe  Fe8  1  0.00056643  0.25072050  0.24784238  1
  Fe  Fe9  1  0.62707529  0.37494054  0.62580845  1
  Fe  Fe10  1  0.62475398  0.87440019  0.87419159  1
  Fe  Fe11  1  0.74978864  0.49912103  0.24901545  1
  Fe  Fe12  1  0.00234239  0.74869588  0.24688596  1
  Fe  Fe13  1  0.49582364  0.25162960  -0.00081285  1
  Fe  Fe14  1  0.75065059  0.24983093  0.24970616  1
  Fe  Fe15  1  0.37345143  0.12696827  0.12462499  1
  Fe  Fe16  1  0.12597936  0.87595051  0.37734028  1
  Fe  Fe17  1  0.62514652  0.62525009  0.12334787  1
  Fe  Fe18  1  0.00187065  0.74977414  0.75168673  1
  Fe  Fe19  1  0.75278549  0.24922819  0.50380673  1
  Fe  Fe20  1  0.62360093  0.37443441  0.12514441  1
  Fe  Fe21  1  0.00466214  0.49602979  0.50370046  1
  Fe  Fe22  1  0.24833601  0.24906026  0.49918172  1
  Fe  Fe23  1  0.75026505  0.25049209  -0.00246736  1
  Fe  Fe24  1  0.00321332  0.24660909  0.00067464  1
  Fe  Fe25  1  0.49851511  0.24983896  0.50189328  1
  Fe  Fe26  1  0.25157994  0.75087389  0.75194817  1
  Fe  Fe27  1  0.24966388  0.49973872  0.24871730  1
  Fe  Fe28  1  0.87700730  0.37530838  0.37672692  1
  Fe  Fe29  1  0.62395676  0.62463036  0.87488509  1
  Fe  Fe30  1  0.12189382  0.12500627  0.37622591  1
  Fe  Fe31  1  0.74939602  0.75060778  0.24933941  1
  Fe  Fe32  1  0.37504605  0.12238825  0.62886358  1
  Fe  Fe33  1  0.00004084  0.75090087  0.50165203  1
  Fe  Fe34  1  0.49585128  0.49781141  -0.00029606  1
  Fe  Fe35  1  0.37260532  0.87659468  0.12192147  1
  Fe  Fe36  1  0.24871777  0.25036633  0.25031512  1
  Fe  Fe37  1  0.87485260  0.87416959  0.12385988  1
  Fe  Fe38  1  0.37619969  0.12495278  0.37499355  1
  Fe  Fe39  1  0.75176522  0.74780380  -0.00066879  1
  Fe  Fe40  1  0.50267997  0.24911733  0.74912217  1
  Fe  Fe41  1  0.12600027  0.87718333  0.87570223  1
  Fe  Fe42  1  0.87411288  0.37514737  0.12174376  1
  Fe  Fe43  1  0.75315270  0.00031446  0.50392358  1
  Fe  Fe44  1  0.62382281  0.12593372  0.87339503  1
  Fe  Fe45  1  0.87623831  0.12517976  0.87251484  1
  Fe  Fe46  1  0.24836113  0.75013933  0.24920614  1
  Fe  Fe47  1  0.62377381  0.37546713  0.87444393  1
  Fe  Fe48  1  0.87834386  0.12534520  0.37722691  1
  Fe  Fe49  1  0.24754792  0.49915265  0.50292776  1
  Fe  Fe50  1  0.49691575  0.50146896  0.75042918  1
  Fe  Fe51  1  0.62295944  0.37314208  0.37567364  1
  Fe  Fe52  1  0.62435061  0.12545596  0.12465889  1
  Fe  Fe53  1  0.49859428  0.75142773  0.24893872  1
  Fe  Fe54  1  0.62352724  0.62660965  0.37589893  1
  Fe  Fe55  1  0.12546259  0.62475567  0.37655913  1
  Fe  Fe56  1  0.37475570  0.37515424  0.37444753  1
  Fe  Fe57  1  0.24723292  0.24790914  0.75700661  1
  Fe  Fe58  1  0.75000779  0.74978565  0.74881053  1
  Fe  Fe59  1  -0.00050206  0.00238264  0.00152903  1
  Fe  Fe60  1  0.12664062  0.87754191  0.12340373  1
  Fe  Fe61  1  0.49852665  0.49940996  0.24885363  1
  Fe  Fe62  1  0.62452990  0.12531859  0.37775962  1
  Fe  Fe63  1  0.00135387  0.49783438  0.74955546  1
  Fe  Fe64  1  0.12850265  0.37502062  0.12089638  1
  Fe  Fe65  1  0.25014369  0.00037886  0.25204802  1
  Fe  Fe66  1  0.74922958  0.00236315  0.74765295  1
  Fe  Fe67  1  -0.00065946  0.00065366  0.24805766  1
  Fe  Fe68  1  0.12779795  0.87461067  0.62323449  1
  Fe  Fe69  1  0.50117455  -0.00039161  0.24974462  1
  Fe  Fe70  1  0.12989628  0.62178625  0.87617025  1
  Fe  Fe71  1  -0.00272924  0.25515904  0.74894134  1
  Fe  Fe72  1  0.74951487  0.00005848  0.24801576  1
  Fe  Fe73  1  0.37376957  0.62494527  0.37671753  1
  Fe  Fe74  1  0.62427870  0.62512961  0.62536204  1
  Fe  Fe75  1  0.49900691  0.49901149  0.50155473  1
  Fe  Fe76  1  0.37144675  0.62635301  0.12141696  1
  Fe  Fe77  1  0.87494863  0.87444387  0.37645198  1
  Fe  Fe78  1  0.87477250  0.87447783  0.87404161  1
  Fe  Fe79  1  0.00092766  0.74747262  0.00064719  1
  Fe  Fe80  1  -0.00252522  0.50375352  -0.00028046  1
  Fe  Fe81  1  0.62428834  0.87445162  0.37829853  1
  Fe  Fe82  1  0.12234420  0.12598579  0.62513278  1
  Fe  Fe83  1  0.49982931  -0.00070948  -0.00198687  1
  Fe  Fe84  1  0.74941459  0.50119086  0.49907771  1
  Fe  Fe85  1  0.37383794  0.62636261  0.62536475  1
  Fe  Fe86  1  0.75276382  0.49705826  0.75411686  1
  Fe  Fe87  1  0.00009570  -0.00280388  0.74709095  1
  Fe  Fe88  1  0.37442111  0.87506110  0.37843739  1
  Fe  Fe89  1  0.49753541  0.75199957  -0.00329932  1
  Co  Co90  1  0.37511497  0.37363636  0.86952561  1
  Co  Co91  1  0.87327494  0.12551338  0.12475328  1
  Co  Co92  1  0.37243998  0.62518228  0.87646052  1
  Co  Co93  1  0.25017649  0.74965347  0.50090233  1
  Co  Co94  1  0.24977332  0.24767176  -0.00565629  1
  Co  Co95  1  0.25618469  0.49373208  -0.00248907  1
  Co  Co96  1  0.87281386  0.62589465  0.12679915  1
  Co  Co97  1  0.50351383  -0.00112612  0.75032889  1
  Co  Co98  1  0.13023421  0.37202484  0.62921347  1
  Co  Co99  1  0.24733871  0.00086812  0.75097312  1
  Co  Co100  1  0.87505710  0.62605222  0.87208456  1
  Co  Co101  1  0.25020627  0.50148588  0.74979070  1
  Co  Co102  1  0.12852894  0.12419258  0.12703194  1
  Co  Co103  1  0.12933432  0.62286947  0.12208342  1
  Co  Co104  1  0.75136615  0.25045425  0.75065981  1
  Co  Co105  1  0.37931251  0.12384167  0.87114581  1
  Co  Co106  1  0.00040268  -0.00252278  0.50256916  1
  Co  Co107  1  0.62507308  0.87422677  0.12298245  1
  Co  Co108  1  0.37400553  0.87848318  0.87317127  1
  Co  Co109  1  0.49884248  0.74863446  0.50042227  1
  Co  Co110  1  0.24852352  0.75260017  -0.00245240  1
  Co  Co111  1  0.87752457  0.37384693  0.87907554  1
  Co  Co112  1  0.00189631  0.25483322  0.50182542  1
  Co  Co113  1  0.24900972  0.00289270  0.50090921  1
  Co  Co114  1  0.12623195  0.37526315  0.37344440  1
  Co  Co115  1  0.74980917  0.50032818  -0.00158607  1
  Co  Co116  1  0.12514681  0.62708646  0.62667883  1
  Co  Co117  1  0.12341713  0.37776399  0.87732903  1
  Co  Co118  1  0.50081143  0.24827544  0.25105852  1
  Co  Co119  1  0.49812118  0.74969774  0.75146348  1
  Co  Co120  1  0.37325478  0.37103773  0.12774572  1
  Co  Co121  1  0.87517388  0.87255966  0.62693759  1
  Co  Co122  1  0.87965937  0.12619430  0.62612446  1
  Co  Co123  1  0.75112080  0.74836553  0.50169898  1
  Co  Co124  1  0.62418041  0.12601148  0.62423198  1
  Co  Co125  1  0.87227514  0.37754668  0.62382663  1
  Co  Co126  1  0.11866348  0.12424306  0.87111094  1
  Co  Co127  1  0.49846915  0.00169296  0.50038104  1
