# generated using pymatgen
data_Fe45Co19
_symmetry_space_group_name_H-M   'P 1'
_cell_length_a   11.41473549
_cell_length_b   11.41615835
_cell_length_c   11.41538888
_cell_angle_alpha   90.00266162
_cell_angle_beta   90.00137700
_cell_angle_gamma   90.00406311
_symmetry_Int_Tables_number   1
_chemical_formula_structural   Fe45Co19
_chemical_formula_sum   'Fe90 Co38'
_cell_volume   1487.56703290
_cell_formula_units_Z   2
loop_
 _symmetry_equiv_pos_site_id
 _symmetry_equiv_pos_as_xyz
  1  'x, y, z'
loop_
 _atom_site_type_symbol
 _atom_site_label
 _atom_site_symmetry_multiplicity
 _atom_site_fract_x
 _atom_site_fract_y
 _atom_site_fract_z
 _atom_site_occupancy
  Fe  Fe0  1  0.75016689  -0.00343085  0.49934424  1
  Fe  Fe1  1  0.62307289  0.37764103  0.87473068  1
  Fe  Fe2  1  0.49766686  -0.00168685  0.00314238  1
  Fe  Fe3  1  0.00120422  0.24948938  0.49970737  1
  Fe  Fe4  1  0.12194664  0.37744337  0.87514107  1
  Fe  Fe5  1  0.62509543  0.87396200  0.62845026  1
  Fe  Fe6  1  0.37681672  0.37660282  0.87605417  1
  Fe  Fe7  1  0.50118170  0.50303822  0.50039048  1
  Fe  Fe8  1  -0.00252434  0.24804500  0.00081326  1
  Fe  Fe9  1  0.87243100  0.62678483  0.12114626  1
  Fe  Fe10  1  0.49973718  0.24915971  0.00207916  1
  Fe  Fe11  1  -0.00103507  0.50391491  0.24825004  1
  Fe  Fe12  1  -0.00206891  0.74961017  0.24829989  1
  Fe  Fe13  1  0.37573543  0.62892648  0.12287165  1
  Fe  Fe14  1  0.00008767  0.50370649  0.50211411  1
  Fe  Fe15  1  0.12380226  0.37683227  0.37491376  1
  Fe  Fe16  1  0.37367115  0.62727945  0.37705932  1
  Fe  Fe17  1  0.62794824  0.12382637  0.12545288  1
  Fe  Fe18  1  -0.00041183  -0.00080035  0.50121807  1
  Fe  Fe19  1  0.24679478  0.75079929  0.75015846  1
  Fe  Fe20  1  0.25171647  0.25218683  0.24763090  1
  Fe  Fe21  1  0.50155552  0.50646240  -0.00082276  1
  Fe  Fe22  1  0.37396234  0.87307182  0.62551194  1
  Fe  Fe23  1  0.25065339  0.50077163  0.24928972  1
  Fe  Fe24  1  0.50110518  -0.00083361  0.50005351  1
  Fe  Fe25  1  0.49843959  0.00119243  0.74950036  1
  Fe  Fe26  1  0.62503980  0.12316511  0.87548926  1
  Fe  Fe27  1  0.37683173  0.37549248  0.37477770  1
  Fe  Fe28  1  0.37404585  0.37535357  0.62519784  1
  Fe  Fe29  1  0.75584880  -0.00130833  -0.00081812  1
  Fe  Fe30  1  0.75046720  0.25218059  0.49684289  1
  Fe  Fe31  1  0.74671457  0.75101624  -0.00648656  1
  Fe  Fe32  1  0.87253067  0.62757957  0.37883113  1
  Fe  Fe33  1  0.63051371  0.62703968  0.62787670  1
  Fe  Fe34  1  0.00000541  0.24953736  0.25021787  1
  Fe  Fe35  1  0.49965829  0.24812088  0.49900079  1
  Fe  Fe36  1  0.50313914  0.74743148  0.75508348  1
  Fe  Fe37  1  0.49913648  0.24928734  0.24736436  1
  Fe  Fe38  1  0.62617397  0.12405339  0.37292885  1
  Fe  Fe39  1  0.50243428  0.50570175  0.25059259  1
  Fe  Fe40  1  0.25097610  -0.00323959  0.24614530  1
  Fe  Fe41  1  0.12607704  0.37923585  0.62533256  1
  Fe  Fe42  1  0.74858012  0.49799447  0.49901198  1
  Fe  Fe43  1  0.12634149  0.62066524  0.87338591  1
  Fe  Fe44  1  0.87625228  0.37611247  0.12651750  1
  Fe  Fe45  1  0.87025372  0.62054399  0.87290837  1
  Fe  Fe46  1  0.75098079  0.25193769  -0.00051589  1
  Fe  Fe47  1  0.49877512  0.50238819  0.75013286  1
  Fe  Fe48  1  -0.00381465  -0.00233357  0.24586441  1
  Fe  Fe49  1  0.24979937  -0.00217209  0.75141871  1
  Fe  Fe50  1  0.75468845  -0.00682412  0.24812632  1
  Fe  Fe51  1  0.24944666  0.25247031  0.75073116  1
  Fe  Fe52  1  0.37476360  0.12503138  0.87651881  1
  Fe  Fe53  1  0.12655581  0.62589687  0.37556521  1
  Fe  Fe54  1  -0.00197151  0.00239845  0.75111832  1
  Fe  Fe55  1  0.24951849  0.50106406  0.00102564  1
  Fe  Fe56  1  0.37423169  0.87382741  0.37651920  1
  Fe  Fe57  1  0.50137474  0.74919699  0.50037676  1
  Fe  Fe58  1  0.24947299  0.75143994  0.24917122  1
  Fe  Fe59  1  0.11868317  0.87602340  0.87695595  1
  Fe  Fe60  1  0.62630035  0.87020455  0.37315419  1
  Fe  Fe61  1  0.75022967  0.25349386  0.25281164  1
  Fe  Fe62  1  0.37309284  0.12553844  0.62433650  1
  Fe  Fe63  1  0.37254398  0.12379047  0.37476046  1
  Fe  Fe64  1  0.74866121  0.50251290  0.25118289  1
  Fe  Fe65  1  0.87528265  0.12363931  0.37373493  1
  Fe  Fe66  1  0.49874970  -0.00344391  0.24769383  1
  Fe  Fe67  1  0.12613230  0.12372681  0.12326878  1
  Fe  Fe68  1  0.87803883  0.37527248  0.62551738  1
  Fe  Fe69  1  0.24671750  0.75004987  -0.00052328  1
  Fe  Fe70  1  0.62192141  0.37348969  0.62500989  1
  Fe  Fe71  1  0.62621688  0.12543711  0.62647333  1
  Fe  Fe72  1  0.37586050  0.87272298  0.87723179  1
  Fe  Fe73  1  0.12046395  0.87432329  0.11977250  1
  Fe  Fe74  1  0.12736702  0.12381956  0.62469975  1
  Fe  Fe75  1  0.74865522  0.25266330  0.75136129  1
  Fe  Fe76  1  0.12369877  0.87541635  0.37653004  1
  Fe  Fe77  1  0.12328671  0.37779555  0.12447627  1
  Fe  Fe78  1  0.62447690  0.86921954  0.12412604  1
  Fe  Fe79  1  0.12673926  0.12328397  0.37514034  1
  Fe  Fe80  1  -0.00061985  0.74338132  0.74825454  1
  Fe  Fe81  1  0.87610531  0.87215769  0.62698417  1
  Fe  Fe82  1  0.25243799  0.25147739  0.00204641  1
  Fe  Fe83  1  0.62347203  0.37766628  0.12597817  1
  Fe  Fe84  1  0.87322730  0.12660818  0.62647780  1
  Fe  Fe85  1  0.37004540  0.62565049  0.62610886  1
  Fe  Fe86  1  0.00259332  0.74825772  0.50435325  1
  Fe  Fe87  1  0.87823953  0.37689159  0.87346100  1
  Fe  Fe88  1  0.75241205  -0.00301955  0.75342490  1
  Fe  Fe89  1  0.12432026  0.12460651  0.87642069  1
  Co  Co90  1  0.63064481  0.61957442  0.87121456  1
  Co  Co91  1  0.12286435  0.87595452  0.62798978  1
  Co  Co92  1  0.75416302  0.75028346  0.24997259  1
  Co  Co93  1  0.37766236  0.37983796  0.12440582  1
  Co  Co94  1  0.25144304  0.49779795  0.75286481  1
  Co  Co95  1  0.62636256  0.62926037  0.12493568  1
  Co  Co96  1  0.62814996  0.62826030  0.37659094  1
  Co  Co97  1  0.37378530  0.12307941  0.12505695  1
  Co  Co98  1  0.50462617  0.74647992  -0.00587949  1
  Co  Co99  1  0.75002573  0.49743087  0.00214775  1
  Co  Co100  1  0.62149261  0.37579046  0.37420685  1
  Co  Co101  1  0.87819418  0.37755894  0.37456214  1
  Co  Co102  1  0.87815977  0.87247221  0.37783421  1
  Co  Co103  1  0.87772490  0.86869697  0.11765752  1
  Co  Co104  1  0.25017518  -0.00252827  -0.00048858  1
  Co  Co105  1  0.00225653  0.24997427  0.74850955  1
  Co  Co106  1  0.75008221  0.49428025  0.74662336  1
  Co  Co107  1  0.87200937  0.12798772  0.12876131  1
  Co  Co108  1  0.13128654  0.62126967  0.62495949  1
  Co  Co109  1  -0.00540029  0.00625248  0.00126080  1
  Co  Co110  1  -0.00094741  0.50418977  0.74794772  1
  Co  Co111  1  0.86774424  0.62637466  0.62500901  1
  Co  Co112  1  0.25109263  0.49919530  0.49687089  1
  Co  Co113  1  0.24702034  0.75269207  0.50086072  1
  Co  Co114  1  0.37607832  0.86907095  0.12159187  1
  Co  Co115  1  0.24876230  0.25167836  0.49987038  1
  Co  Co116  1  0.00194275  0.74044234  -0.00275677  1
  Co  Co117  1  0.25007119  -0.00273991  0.50134917  1
  Co  Co118  1  0.12692042  0.62508519  0.12658409  1
  Co  Co119  1  0.88235710  0.87237708  0.87692479  1
  Co  Co120  1  0.74968067  0.75498536  0.75580554  1
  Co  Co121  1  0.37151992  0.62676666  0.87485875  1
  Co  Co122  1  0.49907028  0.74883126  0.25157701  1
  Co  Co123  1  0.87360912  0.12826029  0.87183946  1
  Co  Co124  1  0.49976182  0.24888016  0.75141518  1
  Co  Co125  1  0.62191638  0.88014112  0.87527971  1
  Co  Co126  1  0.74907594  0.75444060  0.50103106  1
  Co  Co127  1  -0.00033003  0.50267747  0.00077675  1
