# generated using pymatgen
data_Fe45Co19
_symmetry_space_group_name_H-M   'P 1'
_cell_length_a   11.40547282
_cell_length_b   11.40701025
_cell_length_c   11.40657480
_cell_angle_alpha   89.99306167
_cell_angle_beta   89.99474896
_cell_angle_gamma   90.00009727
_symmetry_Int_Tables_number   1
_chemical_formula_structural   Fe45Co19
_chemical_formula_sum   'Fe90 Co38'
_cell_volume   1484.02211662
_cell_formula_units_Z   2
loop_
 _symmetry_equiv_pos_site_id
 _symmetry_equiv_pos_as_xyz
  1  'x, y, z'
loop_
 _atom_site_type_symbol
 _atom_site_label
 _atom_site_symmetry_multiplicity
 _atom_site_fract_x
 _atom_site_fract_y
 _atom_site_fract_z
 _atom_site_occupancy
  Fe  Fe0  1  0.62283188  0.37515629  0.87441691  1
  Fe  Fe1  1  0.37708233  0.87640158  0.37391948  1
  Fe  Fe2  1  0.62598663  0.12465358  0.62597206  1
  Fe  Fe3  1  0.37113506  0.37586777  0.37396726  1
  Fe  Fe4  1  -0.00398970  0.74633920  0.49973690  1
  Fe  Fe5  1  0.12513470  0.12728360  0.62498604  1
  Fe  Fe6  1  0.37192080  0.12373467  0.62505691  1
  Fe  Fe7  1  0.36733264  0.12166343  0.12205828  1
  Fe  Fe8  1  0.75057634  0.25348114  -0.00203622  1
  Fe  Fe9  1  0.62730140  0.87691581  0.37509256  1
  Fe  Fe10  1  0.00752817  0.25002514  -0.00155066  1
  Fe  Fe11  1  0.62753049  0.62426993  0.87445140  1
  Fe  Fe12  1  0.12244437  0.87135649  0.87543796  1
  Fe  Fe13  1  0.24826070  0.74971107  0.75011033  1
  Fe  Fe14  1  0.62633720  0.87615083  0.87238283  1
  Fe  Fe15  1  0.75640231  0.74755602  0.74880375  1
  Fe  Fe16  1  0.75091735  0.74960233  -0.00011140  1
  Fe  Fe17  1  0.49770253  0.50269149  0.74873022  1
  Fe  Fe18  1  0.62282523  0.37388499  0.12641386  1
  Fe  Fe19  1  0.24767387  0.50237573  0.74835772  1
  Fe  Fe20  1  0.62507268  0.12522727  0.37561003  1
  Fe  Fe21  1  0.87690740  0.12491498  0.87725251  1
  Fe  Fe22  1  0.37263291  0.37374236  0.62540144  1
  Fe  Fe23  1  0.24875810  -0.00369885  0.74976016  1
  Fe  Fe24  1  0.24694100  -0.00492286  0.49988920  1
  Fe  Fe25  1  0.24686203  0.24478316  0.25394558  1
  Fe  Fe26  1  0.25116873  0.75420158  0.24791307  1
  Fe  Fe27  1  0.88044239  0.87459025  0.12835119  1
  Fe  Fe28  1  0.88101800  0.38065436  0.87747089  1
  Fe  Fe29  1  -0.00046158  0.50069181  0.25271022  1
  Fe  Fe30  1  0.87638821  0.12895173  0.12384098  1
  Fe  Fe31  1  0.12208389  0.86925387  0.62583467  1
  Fe  Fe32  1  0.62650562  0.12612388  0.12457875  1
  Fe  Fe33  1  0.49826210  0.24748593  0.75087490  1
  Fe  Fe34  1  0.49959249  0.75022598  0.74862571  1
  Fe  Fe35  1  0.62307768  0.37458273  0.62567058  1
  Fe  Fe36  1  0.24496875  0.49722308  0.50267056  1
  Fe  Fe37  1  0.11728258  0.87501728  0.36822191  1
  Fe  Fe38  1  0.87245525  0.62078434  0.12334527  1
  Fe  Fe39  1  0.37527739  0.87352943  0.87652568  1
  Fe  Fe40  1  0.87647142  0.12707712  0.62223012  1
  Fe  Fe41  1  0.74896665  0.25402679  0.49913399  1
  Fe  Fe42  1  0.87723322  0.12711463  0.37637262  1
  Fe  Fe43  1  0.37358644  0.37577426  0.87549974  1
  Fe  Fe44  1  0.24753821  0.49952034  0.00094289  1
  Fe  Fe45  1  0.87745694  0.87419412  0.87456403  1
  Fe  Fe46  1  0.75186079  0.49914663  0.74960589  1
  Fe  Fe47  1  0.12667225  0.37393160  0.12967096  1
  Fe  Fe48  1  0.62724060  0.62440783  0.37619744  1
  Fe  Fe49  1  0.75388327  0.00093722  0.25062877  1
  Fe  Fe50  1  0.75112173  -0.00205373  0.00227514  1
  Fe  Fe51  1  0.00473058  0.00218647  0.00222844  1
  Fe  Fe52  1  0.62621623  0.12458269  0.87461788  1
  Fe  Fe53  1  0.62446879  0.62614134  0.12607516  1
  Fe  Fe54  1  -0.00035237  0.74556456  -0.00026994  1
  Fe  Fe55  1  0.37195662  0.62583789  0.37756023  1
  Fe  Fe56  1  0.12756271  0.62563571  0.37432087  1
  Fe  Fe57  1  0.74973109  0.49596497  0.25293932  1
  Fe  Fe58  1  0.75355269  0.00210743  0.74854998  1
  Fe  Fe59  1  0.24691067  0.25148850  0.75167725  1
  Fe  Fe60  1  0.88037333  0.37995097  0.62110070  1
  Fe  Fe61  1  0.00708086  0.25549358  0.49557716  1
  Fe  Fe62  1  0.49878978  0.00118805  0.24848597  1
  Fe  Fe63  1  0.62201863  0.87269429  0.12659879  1
  Fe  Fe64  1  0.36987457  0.12288870  0.87666143  1
  Fe  Fe65  1  0.75470599  0.25271205  0.75032785  1
  Fe  Fe66  1  0.75160252  0.25259376  0.25224514  1
  Fe  Fe67  1  0.37211533  0.62722095  0.87807297  1
  Fe  Fe68  1  -0.00209917  -0.00224985  0.50017281  1
  Fe  Fe69  1  0.49738239  0.24992576  0.49953786  1
  Fe  Fe70  1  0.12576654  0.62750102  0.12519441  1
  Fe  Fe71  1  0.75497018  0.75204820  0.50038958  1
  Fe  Fe72  1  0.75304039  0.74995520  0.25174646  1
  Fe  Fe73  1  0.50053884  0.50103470  0.00043149  1
  Fe  Fe74  1  0.00001782  0.00071694  0.74865042  1
  Fe  Fe75  1  0.49955030  0.49934690  0.49974182  1
  Fe  Fe76  1  0.37779009  0.63113662  0.12272806  1
  Fe  Fe77  1  0.50026012  0.75187559  0.50014756  1
  Fe  Fe78  1  0.49740125  0.24839144  0.00038564  1
  Fe  Fe79  1  0.49655642  0.24739515  0.25025017  1
  Fe  Fe80  1  0.49779810  0.50209041  0.25140995  1
  Fe  Fe81  1  0.49946889  -0.00029463  -0.00106865  1
  Fe  Fe82  1  0.87792350  0.37498532  0.12423946  1
  Fe  Fe83  1  0.37062533  0.62917444  0.62184279  1
  Fe  Fe84  1  0.37204295  0.37356337  0.12593213  1
  Fe  Fe85  1  0.00428871  0.50827013  0.74816322  1
  Fe  Fe86  1  0.62750430  0.62427998  0.62374648  1
  Fe  Fe87  1  0.37109075  0.12152534  0.37725752  1
  Fe  Fe88  1  0.50010892  -0.00093226  0.50368086  1
  Fe  Fe89  1  0.62764863  0.87737386  0.62635490  1
  Co  Co90  1  0.87434016  0.61934643  0.62031767  1
  Co  Co91  1  0.87566227  0.87532442  0.62652264  1
  Co  Co92  1  0.24665159  -0.00748383  0.00181197  1
  Co  Co93  1  0.24737945  0.75440925  0.00478020  1
  Co  Co94  1  0.12300484  0.37839012  0.87135756  1
  Co  Co95  1  0.87789951  0.37646571  0.37727067  1
  Co  Co96  1  0.74672298  0.49799013  0.00074626  1
  Co  Co97  1  0.25187780  0.50571220  0.24629077  1
  Co  Co98  1  0.24822828  -0.00553499  0.24912234  1
  Co  Co99  1  -0.00220968  0.24860928  0.75205104  1
  Co  Co100  1  0.24775466  0.75608506  0.49475244  1
  Co  Co101  1  0.24729919  0.25196739  0.49925230  1
  Co  Co102  1  0.74614582  0.49540680  0.49863818  1
  Co  Co103  1  0.37388425  0.87299200  0.62526488  1
  Co  Co104  1  0.49948972  0.74835931  0.25555972  1
  Co  Co105  1  0.75311716  -0.00026718  0.49820349  1
  Co  Co106  1  0.87224224  0.62037956  0.37824791  1
  Co  Co107  1  0.12698218  0.12326748  0.87293723  1
  Co  Co108  1  0.24514699  0.25337386  -0.00323004  1
  Co  Co109  1  0.87881683  0.87557548  0.37108373  1
  Co  Co110  1  0.00306262  0.24867615  0.25167746  1
  Co  Co111  1  0.13010684  0.37845813  0.36908915  1
  Co  Co112  1  0.50430869  0.75003534  -0.00449702  1
  Co  Co113  1  0.12267709  0.37386187  0.62939858  1
  Co  Co114  1  -0.00103819  0.00846760  0.24734409  1
  Co  Co115  1  -0.00319763  0.74433120  0.74942748  1
  Co  Co116  1  0.00808267  0.50126893  0.49668324  1
  Co  Co117  1  0.87469072  0.62107037  0.87813099  1
  Co  Co118  1  0.12764237  0.62682932  0.87743814  1
  Co  Co119  1  0.62013292  0.37303718  0.37320583  1
  Co  Co120  1  0.11767155  0.87395202  0.12914899  1
  Co  Co121  1  0.38051513  0.87312396  0.12446842  1
  Co  Co122  1  0.13008262  0.12437778  0.12464201  1
  Co  Co123  1  0.49831109  -0.00003817  0.75022185  1
  Co  Co124  1  0.12799448  0.63043423  0.62182285  1
  Co  Co125  1  0.12470359  0.12100062  0.37723053  1
  Co  Co126  1  -0.00306833  0.74161201  0.25034019  1
  Co  Co127  1  0.00567079  0.50120725  0.00373101  1
