# generated using pymatgen
data_Fe45Co19
_symmetry_space_group_name_H-M   'P 1'
_cell_length_a   11.41625690
_cell_length_b   11.41593748
_cell_length_c   11.41410426
_cell_angle_alpha   90.00792161
_cell_angle_beta   89.99199650
_cell_angle_gamma   89.99657488
_symmetry_Int_Tables_number   1
_chemical_formula_structural   Fe45Co19
_chemical_formula_sum   'Fe90 Co38'
_cell_volume   1487.56907413
_cell_formula_units_Z   2
loop_
 _symmetry_equiv_pos_site_id
 _symmetry_equiv_pos_as_xyz
  1  'x, y, z'
loop_
 _atom_site_type_symbol
 _atom_site_label
 _atom_site_symmetry_multiplicity
 _atom_site_fract_x
 _atom_site_fract_y
 _atom_site_fract_z
 _atom_site_occupancy
  Fe  Fe0  1  0.62375835  0.37618487  0.37603593  1
  Fe  Fe1  1  0.00279332  0.75120120  0.74615342  1
  Fe  Fe2  1  0.62342311  0.12185054  0.12638335  1
  Fe  Fe3  1  0.50317178  0.24958590  0.74591020  1
  Fe  Fe4  1  0.50301822  0.75087301  0.25287434  1
  Fe  Fe5  1  0.12334259  0.37878801  0.37774281  1
  Fe  Fe6  1  0.25290267  0.50215860  -0.00081195  1
  Fe  Fe7  1  0.49439869  -0.00152397  0.25676327  1
  Fe  Fe8  1  0.00182469  0.25047380  0.74818709  1
  Fe  Fe9  1  0.25278374  0.00091767  0.75108178  1
  Fe  Fe10  1  0.75079890  0.50037412  0.24985380  1
  Fe  Fe11  1  0.25104855  0.25190072  0.50027630  1
  Fe  Fe12  1  0.74568317  0.24849344  0.24940374  1
  Fe  Fe13  1  0.87340088  0.62831996  0.62393492  1
  Fe  Fe14  1  0.12701534  0.87439695  0.87609343  1
  Fe  Fe15  1  0.00067091  0.74913390  0.25169337  1
  Fe  Fe16  1  0.87509196  0.37432011  0.12638740  1
  Fe  Fe17  1  0.50425367  0.75073380  0.49749647  1
  Fe  Fe18  1  0.87582180  0.62659728  0.37575920  1
  Fe  Fe19  1  0.12379101  0.62186380  0.37933110  1
  Fe  Fe20  1  0.12703173  0.12364004  0.12614815  1
  Fe  Fe21  1  -0.00021748  0.24994660  0.50053314  1
  Fe  Fe22  1  0.87399150  0.87152201  0.62099619  1
  Fe  Fe23  1  0.37606182  0.37369768  0.87500538  1
  Fe  Fe24  1  0.37787245  0.62561798  0.12414983  1
  Fe  Fe25  1  0.12473026  0.12546441  0.87553281  1
  Fe  Fe26  1  0.62655698  0.62717655  0.87686306  1
  Fe  Fe27  1  0.50077788  0.50145511  0.75118455  1
  Fe  Fe28  1  0.87578238  0.12592700  0.12541526  1
  Fe  Fe29  1  0.87190478  0.63085183  0.87434744  1
  Fe  Fe30  1  0.24821167  0.74810751  0.74571790  1
  Fe  Fe31  1  0.00017632  -0.00190734  0.25146795  1
  Fe  Fe32  1  0.74731737  0.75091757  0.25299805  1
  Fe  Fe33  1  0.75083737  -0.00188572  0.74848481  1
  Fe  Fe34  1  0.00212043  0.25045563  0.25037942  1
  Fe  Fe35  1  0.25118224  0.24815654  0.00037972  1
  Fe  Fe36  1  0.37725899  0.12392838  0.62347917  1
  Fe  Fe37  1  0.62331169  0.87687136  0.12704657  1
  Fe  Fe38  1  0.37523055  0.62703325  0.37631089  1
  Fe  Fe39  1  -0.00266085  -0.00139254  0.49861567  1
  Fe  Fe40  1  0.12608220  0.12118302  0.62331737  1
  Fe  Fe41  1  0.12422951  0.37918421  0.62331103  1
  Fe  Fe42  1  0.87464236  0.37373095  0.37502636  1
  Fe  Fe43  1  0.24835190  0.74792055  0.24883644  1
  Fe  Fe44  1  0.74777339  0.24997852  0.00175242  1
  Fe  Fe45  1  0.62480462  0.87938412  0.61966176  1
  Fe  Fe46  1  0.74550580  0.24908727  0.50317750  1
  Fe  Fe47  1  0.25280197  0.50215626  0.74712800  1
  Fe  Fe48  1  0.62464772  0.12290646  0.87388439  1
  Fe  Fe49  1  0.74592039  0.25025997  0.74685812  1
  Fe  Fe50  1  0.50421689  0.75233596  0.74994141  1
  Fe  Fe51  1  0.37252705  0.12578897  0.13099217  1
  Fe  Fe52  1  0.25617382  -0.00230318  0.49666482  1
  Fe  Fe53  1  0.37237844  0.87360709  0.12513030  1
  Fe  Fe54  1  0.37834015  0.37160006  0.37525899  1
  Fe  Fe55  1  0.87425829  0.37278935  0.87421622  1
  Fe  Fe56  1  0.87473058  0.87219271  0.12683361  1
  Fe  Fe57  1  0.87443876  0.12679903  0.62577648  1
  Fe  Fe58  1  -0.00172573  -0.00144769  0.74946794  1
  Fe  Fe59  1  0.62467757  0.11937565  0.37804837  1
  Fe  Fe60  1  0.87447412  0.12674672  0.87494080  1
  Fe  Fe61  1  0.49657881  -0.00037953  -0.00142919  1
  Fe  Fe62  1  0.37777891  0.37466737  0.12639125  1
  Fe  Fe63  1  0.24811195  0.74737242  0.50570499  1
  Fe  Fe64  1  0.12841201  0.12459718  0.37432492  1
  Fe  Fe65  1  0.12526989  0.37595063  0.87545461  1
  Fe  Fe66  1  0.25036939  0.49924744  0.25175819  1
  Fe  Fe67  1  0.12771474  0.87478701  0.12231980  1
  Fe  Fe68  1  0.75059688  0.50002630  0.50141087  1
  Fe  Fe69  1  0.37392294  0.87248993  0.87574101  1
  Fe  Fe70  1  0.50101301  0.24983122  0.00171489  1
  Fe  Fe71  1  0.12611313  0.87313577  0.37719537  1
  Fe  Fe72  1  0.87192079  0.87103444  0.87578041  1
  Fe  Fe73  1  0.49902270  -0.00178062  0.75065809  1
  Fe  Fe74  1  -0.00050850  -0.00129220  -0.00082946  1
  Fe  Fe75  1  0.62535556  0.37652331  0.87502567  1
  Fe  Fe76  1  0.62506616  0.62254105  0.62410125  1
  Fe  Fe77  1  0.74999861  -0.00159177  0.00110235  1
  Fe  Fe78  1  0.12300795  0.37725670  0.12333392  1
  Fe  Fe79  1  0.50026129  0.49997292  0.25124373  1
  Fe  Fe80  1  0.62421921  0.62404299  0.12467968  1
  Fe  Fe81  1  0.12300921  0.62390911  0.12402654  1
  Fe  Fe82  1  0.37936330  0.37768227  0.62268538  1
  Fe  Fe83  1  0.37726076  0.62816374  0.87553282  1
  Fe  Fe84  1  -0.00434806  0.49981135  0.74757469  1
  Fe  Fe85  1  -0.00411588  0.50272972  0.00040306  1
  Fe  Fe86  1  0.12387694  0.62513953  0.87432502  1
  Fe  Fe87  1  0.25056879  0.24977694  0.74768505  1
  Fe  Fe88  1  0.75084611  0.50153634  0.00071013  1
  Fe  Fe89  1  0.87318380  0.12461119  0.37341535  1
  Co  Co90  1  0.12664352  0.87993018  0.62437771  1
  Co  Co91  1  0.37596453  0.87230837  0.62576402  1
  Co  Co92  1  0.74551813  0.75245308  0.74655263  1
  Co  Co93  1  0.37219377  0.86618245  0.37564460  1
  Co  Co94  1  0.74622910  0.75179585  0.00326366  1
  Co  Co95  1  0.62486365  0.37816892  0.12553071  1
  Co  Co96  1  0.50029449  0.50051818  -0.00119156  1
  Co  Co97  1  0.25261483  0.00281525  -0.00162601  1
  Co  Co98  1  0.38025505  0.62701159  0.62469505  1
  Co  Co99  1  -0.00581438  0.49913687  0.50208751  1
  Co  Co100  1  0.25514840  0.50054828  0.50018285  1
  Co  Co101  1  0.75179909  0.00039407  0.24836643  1
  Co  Co102  1  0.87344171  0.62851265  0.12732495  1
  Co  Co103  1  0.75517628  0.00066019  0.50115913  1
  Co  Co104  1  0.00055088  0.24981660  0.00051981  1
  Co  Co105  1  0.00229181  0.75093126  0.50135159  1
  Co  Co106  1  0.87326453  0.87337076  0.37481617  1
  Co  Co107  1  0.75142513  0.50137946  0.74989464  1
  Co  Co108  1  0.62865441  0.88119003  0.37643041  1
  Co  Co109  1  0.24588121  0.25519269  0.25001601  1
  Co  Co110  1  0.74579662  0.74851774  0.49640178  1
  Co  Co111  1  0.62323901  0.11760842  0.62355248  1
  Co  Co112  1  0.12299757  0.61936428  0.62365241  1
  Co  Co113  1  0.49957427  0.50216798  0.49750211  1
  Co  Co114  1  0.25104246  -0.00355801  0.25360433  1
  Co  Co115  1  0.62629831  0.87726415  0.87605175  1
  Co  Co116  1  0.00038073  0.75014709  -0.00002857  1
  Co  Co117  1  0.37233653  0.13176279  0.37249550  1
  Co  Co118  1  0.25047617  0.74672829  -0.00009913  1
  Co  Co119  1  0.50349483  0.24789551  0.50175737  1
  Co  Co120  1  0.49219444  -0.00158848  0.49444454  1
  Co  Co121  1  0.50148093  0.75243495  0.00013971  1
  Co  Co122  1  -0.00079364  0.50075181  0.25033528  1
  Co  Co123  1  0.50537435  0.24871884  0.25057428  1
  Co  Co124  1  0.87296014  0.37193370  0.62545522  1
  Co  Co125  1  0.37808266  0.12824859  0.87264709  1
  Co  Co126  1  0.62354001  0.38046280  0.62477052  1
  Co  Co127  1  0.62553678  0.62152648  0.37371217  1
