# generated using pymatgen
data_Fe45Co19
_symmetry_space_group_name_H-M   'P 1'
_cell_length_a   11.41666895
_cell_length_b   11.41646868
_cell_length_c   11.41611134
_cell_angle_alpha   89.99429061
_cell_angle_beta   89.98979273
_cell_angle_gamma   89.99123654
_symmetry_Int_Tables_number   1
_chemical_formula_structural   Fe45Co19
_chemical_formula_sum   'Fe90 Co38'
_cell_volume   1487.95356901
_cell_formula_units_Z   2
loop_
 _symmetry_equiv_pos_site_id
 _symmetry_equiv_pos_as_xyz
  1  'x, y, z'
loop_
 _atom_site_type_symbol
 _atom_site_label
 _atom_site_symmetry_multiplicity
 _atom_site_fract_x
 _atom_site_fract_y
 _atom_site_fract_z
 _atom_site_occupancy
  Fe  Fe0  1  0.37389485  0.62486641  0.12549533  1
  Fe  Fe1  1  0.75186729  0.24704198  0.49801457  1
  Fe  Fe2  1  0.25000025  0.00247164  0.49841020  1
  Fe  Fe3  1  0.87304470  0.87782492  0.37328270  1
  Fe  Fe4  1  0.62385258  0.12716712  0.37148242  1
  Fe  Fe5  1  0.62516474  0.37304797  0.62506982  1
  Fe  Fe6  1  0.25337749  0.24755768  0.24871788  1
  Fe  Fe7  1  0.87448842  0.62430044  0.12452728  1
  Fe  Fe8  1  0.62666028  0.87551624  0.62363095  1
  Fe  Fe9  1  0.87634952  0.12094747  0.36877721  1
  Fe  Fe10  1  0.12633603  0.87417653  0.37459218  1
  Fe  Fe11  1  0.49966699  0.00117219  0.75023215  1
  Fe  Fe12  1  0.24943437  0.00120224  0.75178143  1
  Fe  Fe13  1  0.37652106  0.37554800  0.37458963  1
  Fe  Fe14  1  0.74992115  -0.00403460  0.00214744  1
  Fe  Fe15  1  0.12530895  0.87458185  0.62598819  1
  Fe  Fe16  1  0.37762642  0.37491935  0.87561198  1
  Fe  Fe17  1  0.75133028  0.75155790  0.24867858  1
  Fe  Fe18  1  0.37540242  0.62396675  0.62430812  1
  Fe  Fe19  1  0.62612539  0.12615356  0.62592803  1
  Fe  Fe20  1  0.00038170  0.00129498  0.49896251  1
  Fe  Fe21  1  0.12540815  0.12658012  0.12576154  1
  Fe  Fe22  1  0.50106373  0.49917688  0.74990497  1
  Fe  Fe23  1  0.50468768  0.50178342  0.49625930  1
  Fe  Fe24  1  -0.00155453  0.24821378  0.49734495  1
  Fe  Fe25  1  0.49895387  0.75145870  0.75158956  1
  Fe  Fe26  1  0.74916494  0.75095606  0.74981792  1
  Fe  Fe27  1  0.74947334  0.75189337  -0.00001062  1
  Fe  Fe28  1  0.50148928  -0.00072171  -0.00006063  1
  Fe  Fe29  1  0.00106370  0.50097387  0.74987588  1
  Fe  Fe30  1  0.12436507  0.12643281  0.62467490  1
  Fe  Fe31  1  0.49989276  0.25215345  0.00252510  1
  Fe  Fe32  1  -0.00053304  0.00175740  0.75316628  1
  Fe  Fe33  1  -0.00305263  0.24815959  0.75233416  1
  Fe  Fe34  1  0.49651472  0.74978519  -0.00321985  1
  Fe  Fe35  1  0.50159942  0.74760125  0.49906715  1
  Fe  Fe36  1  0.24831231  -0.00047229  -0.00194567  1
  Fe  Fe37  1  0.12523875  0.37351685  0.37329296  1
  Fe  Fe38  1  0.12325591  0.37259774  0.62519378  1
  Fe  Fe39  1  0.74589984  0.49735710  0.00057583  1
  Fe  Fe40  1  -0.00108046  0.74950055  0.74963574  1
  Fe  Fe41  1  0.62328359  0.62402978  0.12761934  1
  Fe  Fe42  1  -0.00016490  0.75133300  0.00005904  1
  Fe  Fe43  1  0.25111628  0.24813548  0.49983957  1
  Fe  Fe44  1  0.75217606  0.25115915  0.75249579  1
  Fe  Fe45  1  0.25255692  0.75081965  0.75292252  1
  Fe  Fe46  1  0.37526815  0.12545086  0.87757847  1
  Fe  Fe47  1  0.62258028  0.87239224  0.12515866  1
  Fe  Fe48  1  0.24883631  0.50356196  0.25092757  1
  Fe  Fe49  1  0.75142766  0.00051502  0.75091108  1
  Fe  Fe50  1  0.62477279  0.12724785  0.12716497  1
  Fe  Fe51  1  0.12838298  0.87114927  0.12442633  1
  Fe  Fe52  1  0.49897804  0.24882975  0.50066743  1
  Fe  Fe53  1  0.00018241  -0.00226535  -0.00079980  1
  Fe  Fe54  1  0.49874333  0.00044255  0.24974112  1
  Fe  Fe55  1  0.00252605  0.50141530  0.50104315  1
  Fe  Fe56  1  0.74858808  0.49779684  0.75141478  1
  Fe  Fe57  1  0.12456388  0.37248673  0.87603901  1
  Fe  Fe58  1  0.37687069  0.37739512  0.12604117  1
  Fe  Fe59  1  0.87362865  0.37611910  0.12592385  1
  Fe  Fe60  1  0.37316876  0.87541845  0.12464587  1
  Fe  Fe61  1  0.25049610  0.74804081  0.49786951  1
  Fe  Fe62  1  0.12582066  0.37438496  0.12580654  1
  Fe  Fe63  1  0.24709969  0.50143823  0.50058914  1
  Fe  Fe64  1  0.87355323  0.62414315  0.87638277  1
  Fe  Fe65  1  0.25061204  0.50039481  -0.00059402  1
  Fe  Fe66  1  0.87269604  0.62382274  0.62420851  1
  Fe  Fe67  1  0.25108304  0.00104930  0.25185173  1
  Fe  Fe68  1  0.62609207  0.87425756  0.37580016  1
  Fe  Fe69  1  0.74946806  0.25302574  0.00084039  1
  Fe  Fe70  1  0.87427685  0.62511207  0.37413124  1
  Fe  Fe71  1  0.74560528  0.50220529  0.49747082  1
  Fe  Fe72  1  0.00161671  0.75034924  0.24861691  1
  Fe  Fe73  1  0.24918853  0.49937479  0.74946138  1
  Fe  Fe74  1  0.87300204  0.87732905  0.62364146  1
  Fe  Fe75  1  0.87572052  0.12167949  0.12733190  1
  Fe  Fe76  1  0.49545807  0.75001839  0.25252793  1
  Fe  Fe77  1  0.62319171  0.62417100  0.87513834  1
  Fe  Fe78  1  0.50046799  0.00154780  0.50031086  1
  Fe  Fe79  1  -0.00081982  0.74956819  0.50069708  1
  Fe  Fe80  1  0.87341628  0.37632044  0.37382417  1
  Fe  Fe81  1  0.12689205  0.62667356  0.87635877  1
  Fe  Fe82  1  -0.00083613  0.25020952  0.00074367  1
  Fe  Fe83  1  0.00167876  0.49999099  0.00055010  1
  Fe  Fe84  1  0.25210036  0.24927907  0.75050818  1
  Fe  Fe85  1  0.62599203  0.12599222  0.87585695  1
  Fe  Fe86  1  0.37520257  0.87631097  0.62337061  1
  Fe  Fe87  1  0.00078360  0.50036173  0.24887817  1
  Fe  Fe88  1  0.37653858  0.37522237  0.62406346  1
  Fe  Fe89  1  0.87495193  0.37561960  0.62434366  1
  Co  Co90  1  0.37516752  0.12221318  0.12248853  1
  Co  Co91  1  0.62510638  0.87543890  0.87514914  1
  Co  Co92  1  0.74563073  -0.00191395  0.24766061  1
  Co  Co93  1  0.49576536  0.24929507  0.24742877  1
  Co  Co94  1  0.62469405  0.37046165  0.37160492  1
  Co  Co95  1  0.50131355  0.50098677  0.25292609  1
  Co  Co96  1  0.12492329  0.12738525  0.87722990  1
  Co  Co97  1  0.12646951  0.62680480  0.12370126  1
  Co  Co98  1  0.37608587  0.62159895  0.87422945  1
  Co  Co99  1  0.00491201  -0.00290315  0.24800232  1
  Co  Co100  1  0.12306366  0.62512576  0.37411988  1
  Co  Co101  1  0.87554512  0.87574059  0.12630144  1
  Co  Co102  1  0.75299094  0.24982080  0.24900923  1
  Co  Co103  1  0.62479828  0.62533221  0.62743882  1
  Co  Co104  1  0.37445900  0.62282118  0.37623901  1
  Co  Co105  1  0.25370923  0.74988574  -0.00292532  1
  Co  Co106  1  0.12415777  0.87313604  0.87437629  1
  Co  Co107  1  0.74947648  0.00291444  0.49821935  1
  Co  Co108  1  0.62685771  0.62853429  0.37015183  1
  Co  Co109  1  0.12648967  0.62725849  0.62532822  1
  Co  Co110  1  0.50108465  0.49968728  0.00176149  1
  Co  Co111  1  0.49837615  0.24807455  0.74971833  1
  Co  Co112  1  0.87573128  0.12459899  0.62541927  1
  Co  Co113  1  0.37408351  0.12365846  0.62437930  1
  Co  Co114  1  0.62381056  0.37471917  0.13026394  1
  Co  Co115  1  0.87309064  0.12398987  0.87926667  1
  Co  Co116  1  -0.00124067  0.25197126  0.24882078  1
  Co  Co117  1  0.37686334  0.12466850  0.37523158  1
  Co  Co118  1  0.74939839  0.49987607  0.25012118  1
  Co  Co119  1  0.12484614  0.12698629  0.37301939  1
  Co  Co120  1  0.62190300  0.37404548  0.87448911  1
  Co  Co121  1  0.25183537  0.25198489  0.00180970  1
  Co  Co122  1  0.74994451  0.74918506  0.50008246  1
  Co  Co123  1  0.87641577  0.37625007  0.87641742  1
  Co  Co124  1  0.87428588  0.87465090  0.87509027  1
  Co  Co125  1  0.25093752  0.74879238  0.25247522  1
  Co  Co126  1  0.37540878  0.87646445  0.37640592  1
  Co  Co127  1  0.37585647  0.87914871  0.87613603  1
