# generated using pymatgen
data_Fe45Co19
_symmetry_space_group_name_H-M   'P 1'
_cell_length_a   11.41513583
_cell_length_b   11.41481644
_cell_length_c   11.41633040
_cell_angle_alpha   90.00216423
_cell_angle_beta   89.99481134
_cell_angle_gamma   90.00947495
_symmetry_Int_Tables_number   1
_chemical_formula_structural   Fe45Co19
_chemical_formula_sum   'Fe90 Co38'
_cell_volume   1487.56700524
_cell_formula_units_Z   2
loop_
 _symmetry_equiv_pos_site_id
 _symmetry_equiv_pos_as_xyz
  1  'x, y, z'
loop_
 _atom_site_type_symbol
 _atom_site_label
 _atom_site_symmetry_multiplicity
 _atom_site_fract_x
 _atom_site_fract_y
 _atom_site_fract_z
 _atom_site_occupancy
  Fe  Fe0  1  0.37866311  0.87266140  0.37057139  1
  Fe  Fe1  1  0.87260178  0.37828463  0.62537566  1
  Fe  Fe2  1  0.24869455  -0.00144002  0.00013443  1
  Fe  Fe3  1  0.37657223  0.87437551  0.87426762  1
  Fe  Fe4  1  0.25086878  0.74890499  0.75209852  1
  Fe  Fe5  1  0.12780722  0.62204569  0.62298054  1
  Fe  Fe6  1  0.12561061  0.87557949  0.62663211  1
  Fe  Fe7  1  -0.00286624  0.00031212  0.74949221  1
  Fe  Fe8  1  0.37797924  0.62755662  0.37331508  1
  Fe  Fe9  1  0.37585799  0.87485072  0.62775925  1
  Fe  Fe10  1  0.50132026  0.24792545  0.00286580  1
  Fe  Fe11  1  0.24998365  0.25224761  0.74960153  1
  Fe  Fe12  1  0.12622483  0.12400432  0.62234929  1
  Fe  Fe13  1  0.12344854  0.12582794  0.87395283  1
  Fe  Fe14  1  0.00046617  0.25148470  0.74517035  1
  Fe  Fe15  1  0.50108508  0.24783058  0.74936083  1
  Fe  Fe16  1  0.74673287  0.49969788  0.49678958  1
  Fe  Fe17  1  0.87149785  0.12225634  0.62109792  1
  Fe  Fe18  1  0.87047904  0.62537899  0.87800132  1
  Fe  Fe19  1  0.62823545  0.12488540  0.87670033  1
  Fe  Fe20  1  0.87539067  0.37453520  0.87126942  1
  Fe  Fe21  1  -0.00083490  0.25139521  0.00105847  1
  Fe  Fe22  1  -0.00094655  0.50278907  0.25075765  1
  Fe  Fe23  1  0.24690209  0.75199653  0.00166114  1
  Fe  Fe24  1  0.87163694  0.12777502  0.12425874  1
  Fe  Fe25  1  0.62468989  0.87423247  0.62569971  1
  Fe  Fe26  1  0.74896170  0.75060898  0.49697094  1
  Fe  Fe27  1  0.87459188  0.37388180  0.37460409  1
  Fe  Fe28  1  0.24998588  -0.00188477  0.49888141  1
  Fe  Fe29  1  0.87222456  0.37395098  0.12935951  1
  Fe  Fe30  1  0.75086865  0.00214220  0.25500811  1
  Fe  Fe31  1  -0.00232665  0.49908523  -0.00027172  1
  Fe  Fe32  1  0.00081726  0.74434491  0.24841421  1
  Fe  Fe33  1  0.87197210  0.87692304  0.62503589  1
  Fe  Fe34  1  0.63116209  0.62306173  0.12134115  1
  Fe  Fe35  1  0.24675042  0.74834777  0.24724846  1
  Fe  Fe36  1  0.12471054  0.12448916  0.12449557  1
  Fe  Fe37  1  0.12965544  0.37981004  0.62484071  1
  Fe  Fe38  1  0.37790719  0.37541351  0.87278436  1
  Fe  Fe39  1  0.24954351  0.25247384  -0.00042595  1
  Fe  Fe40  1  0.62317339  0.37455937  0.37220967  1
  Fe  Fe41  1  0.75092807  0.74454323  0.25105751  1
  Fe  Fe42  1  0.37632127  0.87644911  0.12726211  1
  Fe  Fe43  1  0.37218498  0.62385859  0.12221601  1
  Fe  Fe44  1  -0.00162475  0.00325645  0.25235916  1
  Fe  Fe45  1  0.50249878  0.50702043  0.75314525  1
  Fe  Fe46  1  0.12296538  0.12799096  0.37937211  1
  Fe  Fe47  1  0.37422909  0.12390651  0.62513065  1
  Fe  Fe48  1  0.50208095  0.24474912  0.24557062  1
  Fe  Fe49  1  0.49763475  0.49975108  0.49899283  1
  Fe  Fe50  1  0.12193635  0.87353159  0.37321761  1
  Fe  Fe51  1  0.49715836  0.25306020  0.50226631  1
  Fe  Fe52  1  0.37542529  0.37453802  0.12698623  1
  Fe  Fe53  1  0.49963819  -0.00319147  0.49863650  1
  Fe  Fe54  1  0.62586568  0.37567634  0.87369756  1
  Fe  Fe55  1  -0.00118463  0.74595277  0.74819325  1
  Fe  Fe56  1  -0.00312868  -0.00045473  -0.00179153  1
  Fe  Fe57  1  0.24895260  0.50135959  0.25283858  1
  Fe  Fe58  1  0.12515205  0.37420438  0.37765515  1
  Fe  Fe59  1  0.62616968  0.87821865  0.12827007  1
  Fe  Fe60  1  -0.00076684  0.75182828  0.50103850  1
  Fe  Fe61  1  0.50082758  0.00039628  0.75017545  1
  Fe  Fe62  1  0.87204192  0.62269492  0.62243787  1
  Fe  Fe63  1  0.37515921  0.62438505  0.62629541  1
  Fe  Fe64  1  0.24928369  0.00013416  0.25058348  1
  Fe  Fe65  1  0.00040703  0.74955294  0.00210569  1
  Fe  Fe66  1  0.24976655  0.49699100  -0.00297594  1
  Fe  Fe67  1  0.37536487  0.12689331  0.37495078  1
  Fe  Fe68  1  0.50214638  0.74910782  0.00139092  1
  Fe  Fe69  1  0.12405145  0.37646562  0.12583268  1
  Fe  Fe70  1  0.49982390  0.00232926  0.00335892  1
  Fe  Fe71  1  0.50186161  0.50327600  0.24767013  1
  Fe  Fe72  1  0.24862733  0.25026249  0.25015062  1
  Fe  Fe73  1  0.87625828  0.87360519  0.12794977  1
  Fe  Fe74  1  0.62468340  0.87409067  0.87375235  1
  Fe  Fe75  1  0.62763410  0.12257057  0.62259349  1
  Fe  Fe76  1  0.62071671  0.87097623  0.37166314  1
  Fe  Fe77  1  0.87590775  0.12865183  0.38137260  1
  Fe  Fe78  1  0.74774547  0.74765967  0.75003859  1
  Fe  Fe79  1  0.62490843  0.12659120  0.37861759  1
  Fe  Fe80  1  0.12214944  0.87561745  0.87325681  1
  Fe  Fe81  1  0.12486734  0.62264556  0.87538866  1
  Fe  Fe82  1  0.75472496  -0.00285388  -0.00400317  1
  Fe  Fe83  1  0.37393438  0.12473097  0.87521643  1
  Fe  Fe84  1  0.74955482  0.24939939  0.74856870  1
  Fe  Fe85  1  0.62331402  0.37756897  0.62679070  1
  Fe  Fe86  1  0.62909019  0.37355151  0.12716480  1
  Fe  Fe87  1  0.50166435  0.50057316  -0.00039335  1
  Fe  Fe88  1  0.00036542  0.49968170  0.49987489  1
  Fe  Fe89  1  0.25133024  0.75009356  0.49882706  1
  Co  Co90  1  0.37634627  0.37866873  0.63023548  1
  Co  Co91  1  0.74918766  0.75557313  0.00222892  1
  Co  Co92  1  0.87667543  0.86992286  0.87221312  1
  Co  Co93  1  0.63254010  0.12295366  0.12113256  1
  Co  Co94  1  0.12208699  0.37511018  0.87356624  1
  Co  Co95  1  0.74938196  0.24733846  0.25312127  1
  Co  Co96  1  0.75037181  0.50339345  0.25284422  1
  Co  Co97  1  0.37862333  0.37316594  0.36917384  1
  Co  Co98  1  0.87755040  0.87156080  0.37238927  1
  Co  Co99  1  0.12121348  0.87790905  0.12666568  1
  Co  Co100  1  -0.00025700  0.25363973  0.50465541  1
  Co  Co101  1  0.74858648  0.50214484  0.75061676  1
  Co  Co102  1  0.25089032  0.50123860  0.75415128  1
  Co  Co103  1  0.24973144  -0.00043956  0.75067048  1
  Co  Co104  1  0.62536106  0.62494808  0.62113801  1
  Co  Co105  1  0.87275654  0.62460681  0.12186947  1
  Co  Co106  1  0.63039627  0.62569120  0.87991934  1
  Co  Co107  1  0.75164177  0.49415103  -0.00013136  1
  Co  Co108  1  0.00019336  0.24943967  0.24999784  1
  Co  Co109  1  0.12386396  0.62564861  0.37867629  1
  Co  Co110  1  0.75070819  0.25344454  -0.00231019  1
  Co  Co111  1  0.62155413  0.62631382  0.37702487  1
  Co  Co112  1  0.75067644  0.00008334  0.75288179  1
  Co  Co113  1  0.50145225  0.74508020  0.24258702  1
  Co  Co114  1  0.12542387  0.62045751  0.12266370  1
  Co  Co115  1  0.74859638  0.25467788  0.50141635  1
  Co  Co116  1  0.74845983  -0.00491743  0.49508996  1
  Co  Co117  1  0.37120657  0.12499557  0.12473527  1
  Co  Co118  1  -0.00132997  0.50265320  0.74972330  1
  Co  Co119  1  -0.00018618  -0.00360864  0.50057347  1
  Co  Co120  1  0.87612357  0.12892144  0.87320460  1
  Co  Co121  1  0.37407146  0.62662857  0.87893625  1
  Co  Co122  1  0.50121649  0.00538781  0.24897345  1
  Co  Co123  1  0.50163568  0.74670245  0.75215857  1
  Co  Co124  1  0.25604015  0.49920106  0.49591170  1
  Co  Co125  1  0.49833778  0.75103011  0.50283670  1
  Co  Co126  1  0.25333871  0.25306858  0.50155774  1
  Co  Co127  1  0.87678648  0.62472134  0.37841365  1
