# generated using pymatgen
data_Fe45Co19
_symmetry_space_group_name_H-M   'P 1'
_cell_length_a   11.41380065
_cell_length_b   11.41491138
_cell_length_c   11.41418432
_cell_angle_alpha   89.99998370
_cell_angle_beta   90.00092262
_cell_angle_gamma   90.00567390
_symmetry_Int_Tables_number   1
_chemical_formula_structural   Fe45Co19
_chemical_formula_sum   'Fe90 Co38'
_cell_volume   1487.12579461
_cell_formula_units_Z   2
loop_
 _symmetry_equiv_pos_site_id
 _symmetry_equiv_pos_as_xyz
  1  'x, y, z'
loop_
 _atom_site_type_symbol
 _atom_site_label
 _atom_site_symmetry_multiplicity
 _atom_site_fract_x
 _atom_site_fract_y
 _atom_site_fract_z
 _atom_site_occupancy
  Fe  Fe0  1  0.87541342  0.62141538  0.87553324  1
  Fe  Fe1  1  -0.00136570  0.49841965  0.50226855  1
  Fe  Fe2  1  0.24775029  -0.00052702  0.74787281  1
  Fe  Fe3  1  0.25327960  0.74968323  0.49822839  1
  Fe  Fe4  1  0.62702220  0.37420980  0.87645917  1
  Fe  Fe5  1  0.11904348  0.12640598  0.37429219  1
  Fe  Fe6  1  0.50309682  0.49994951  0.50115330  1
  Fe  Fe7  1  0.62648194  0.12981076  0.12893356  1
  Fe  Fe8  1  0.24965507  0.50107481  0.25156734  1
  Fe  Fe9  1  0.24841565  0.50004152  0.75048799  1
  Fe  Fe10  1  0.12169113  0.62870402  0.62477942  1
  Fe  Fe11  1  0.25129042  0.24970788  0.75162479  1
  Fe  Fe12  1  0.62983315  0.37224303  0.62209606  1
  Fe  Fe13  1  0.37818991  0.12143340  0.87431807  1
  Fe  Fe14  1  0.24730691  0.00164632  0.25037050  1
  Fe  Fe15  1  0.62841953  0.37404702  0.37588536  1
  Fe  Fe16  1  0.75272515  0.75244366  0.75161552  1
  Fe  Fe17  1  0.49998872  0.24815277  0.00087065  1
  Fe  Fe18  1  0.25209200  0.24818049  0.25218836  1
  Fe  Fe19  1  0.00072306  0.49812302  0.00034820  1
  Fe  Fe20  1  0.62408307  0.62976488  0.62515642  1
  Fe  Fe21  1  0.87258444  0.37682610  0.87526854  1
  Fe  Fe22  1  0.87176796  0.87961040  0.87697376  1
  Fe  Fe23  1  0.37589594  0.12324569  0.62428312  1
  Fe  Fe24  1  0.87574221  0.62018549  0.37499328  1
  Fe  Fe25  1  0.87568052  0.62706844  0.62493068  1
  Fe  Fe26  1  0.50015868  0.24937055  0.49838481  1
  Fe  Fe27  1  0.87283590  0.12121947  0.87389471  1
  Fe  Fe28  1  -0.00592268  0.24836798  0.50014497  1
  Fe  Fe29  1  0.12675381  0.37297919  0.12383033  1
  Fe  Fe30  1  0.75095398  0.24790286  0.75062106  1
  Fe  Fe31  1  0.12343118  0.87487249  0.37616037  1
  Fe  Fe32  1  0.75420478  0.24339341  0.49437007  1
  Fe  Fe33  1  0.25225346  0.75028797  0.75072025  1
  Fe  Fe34  1  0.12173992  0.87041969  0.62384669  1
  Fe  Fe35  1  0.00049905  0.49800935  0.74756271  1
  Fe  Fe36  1  0.74844857  0.00073729  0.25245834  1
  Fe  Fe37  1  0.12258603  0.12428850  0.87370838  1
  Fe  Fe38  1  0.87469390  0.12481821  0.12928665  1
  Fe  Fe39  1  0.37478094  0.37646438  0.37607265  1
  Fe  Fe40  1  0.24953405  0.50201954  -0.00197519  1
  Fe  Fe41  1  0.50630547  -0.00260485  0.50153748  1
  Fe  Fe42  1  0.50465604  -0.00341820  0.74567283  1
  Fe  Fe43  1  0.74838190  0.50201043  0.24874260  1
  Fe  Fe44  1  0.74732344  0.50080814  0.74782932  1
  Fe  Fe45  1  0.87101758  0.37530602  0.12421599  1
  Fe  Fe46  1  0.37645014  0.37768163  0.87469606  1
  Fe  Fe47  1  0.25296736  0.74889308  -0.00179899  1
  Fe  Fe48  1  0.50271290  -0.00164818  0.24833161  1
  Fe  Fe49  1  0.50094383  0.25127179  0.74869882  1
  Fe  Fe50  1  0.50365285  -0.00108735  0.00407282  1
  Fe  Fe51  1  0.24971973  0.00096428  0.00033976  1
  Fe  Fe52  1  0.37702201  0.87625792  0.87500834  1
  Fe  Fe53  1  0.63162498  0.86756337  0.12594903  1
  Fe  Fe54  1  0.12297906  0.87497085  0.87544941  1
  Fe  Fe55  1  0.87580615  0.88317504  0.37945230  1
  Fe  Fe56  1  0.37479614  0.37526633  0.62375853  1
  Fe  Fe57  1  0.62711162  0.87418620  0.87749138  1
  Fe  Fe58  1  0.25154603  0.24760008  -0.00257425  1
  Fe  Fe59  1  0.12547615  0.37072938  0.62377408  1
  Fe  Fe60  1  0.24643056  0.00154554  0.50102749  1
  Fe  Fe61  1  0.37879857  0.12171787  0.37408826  1
  Fe  Fe62  1  -0.00508916  0.75307990  0.25093277  1
  Fe  Fe63  1  0.37656778  0.62463954  0.12536196  1
  Fe  Fe64  1  0.50316941  0.50251875  0.00084086  1
  Fe  Fe65  1  0.49692789  0.75189080  0.25162878  1
  Fe  Fe66  1  0.50218037  0.49909658  0.25013409  1
  Fe  Fe67  1  0.75238048  0.75070871  0.49628691  1
  Fe  Fe68  1  -0.00129488  -0.00041353  0.00368295  1
  Fe  Fe69  1  0.12269836  0.62623915  0.87494231  1
  Fe  Fe70  1  0.37480220  0.37403970  0.12472543  1
  Fe  Fe71  1  0.12291422  0.62532607  0.37487052  1
  Fe  Fe72  1  0.62761212  0.37190027  0.12477991  1
  Fe  Fe73  1  0.62149936  0.62781610  0.87430569  1
  Fe  Fe74  1  0.62394250  0.62793401  0.37364273  1
  Fe  Fe75  1  -0.00529399  0.75135796  0.00063353  1
  Fe  Fe76  1  0.12448783  0.37327355  0.37734362  1
  Fe  Fe77  1  0.12368390  0.12732820  0.12533832  1
  Fe  Fe78  1  0.37833051  0.62453625  0.62756896  1
  Fe  Fe79  1  -0.00040819  -0.00155082  0.74490112  1
  Fe  Fe80  1  0.49722824  0.75406100  0.49921194  1
  Fe  Fe81  1  -0.00251338  0.24998821  -0.00046537  1
  Fe  Fe82  1  0.24967439  0.50225905  0.50034722  1
  Fe  Fe83  1  0.12522076  0.87253505  0.12470293  1
  Fe  Fe84  1  0.12231684  0.62696565  0.12580026  1
  Fe  Fe85  1  0.37307028  0.87662202  0.12608197  1
  Fe  Fe86  1  0.00007201  0.49671656  0.24967725  1
  Fe  Fe87  1  0.25206314  0.74925218  0.25314508  1
  Fe  Fe88  1  0.62576710  0.12336412  0.87375602  1
  Fe  Fe89  1  -0.00332495  0.25032199  0.74825747  1
  Co  Co90  1  0.49841990  0.25267665  0.25129717  1
  Co  Co91  1  0.62217634  0.12577932  0.37261144  1
  Co  Co92  1  0.74633481  0.50345513  0.00074362  1
  Co  Co93  1  0.74440348  0.00303850  0.49921527  1
  Co  Co94  1  0.86937109  0.87652212  0.12417917  1
  Co  Co95  1  0.12398395  0.37359022  0.87455761  1
  Co  Co96  1  0.49949984  0.75542840  0.74928020  1
  Co  Co97  1  0.37586546  0.12418988  0.12595673  1
  Co  Co98  1  0.00224147  -0.00424529  0.24593925  1
  Co  Co99  1  0.74877763  0.50442844  0.50137900  1
  Co  Co100  1  0.00351338  0.00341179  0.50590094  1
  Co  Co101  1  0.75336385  0.74595760  -0.00190740  1
  Co  Co102  1  0.74685614  -0.00236542  0.74651758  1
  Co  Co103  1  0.75319249  0.24930675  0.25444627  1
  Co  Co104  1  0.87040792  0.37503364  0.62412629  1
  Co  Co105  1  0.87196646  0.37900340  0.37655309  1
  Co  Co106  1  -0.00328141  0.74948782  0.49560789  1
  Co  Co107  1  0.62982969  0.87044413  0.62263256  1
  Co  Co108  1  0.87572137  0.62263200  0.12565814  1
  Co  Co109  1  0.62593361  0.87222548  0.37324620  1
  Co  Co110  1  0.87384455  0.87553141  0.62097636  1
  Co  Co111  1  0.74717019  0.00379661  0.00371745  1
  Co  Co112  1  0.75097802  0.24648077  -0.00111388  1
  Co  Co113  1  0.87114398  0.12092985  0.62563767  1
  Co  Co114  1  0.50462589  0.49656933  0.74764503  1
  Co  Co115  1  0.37781731  0.62302955  0.37546973  1
  Co  Co116  1  0.37482676  0.88061325  0.37503696  1
  Co  Co117  1  -0.00424832  0.75219995  0.75306028  1
  Co  Co118  1  0.25226478  0.24671502  0.49709878  1
  Co  Co119  1  0.37868944  0.62378105  0.87201896  1
  Co  Co120  1  0.88007677  0.11807421  0.37210550  1
  Co  Co121  1  0.62630393  0.12871749  0.62506575  1
  Co  Co122  1  0.75814932  0.74889362  0.25460998  1
  Co  Co123  1  0.37365851  0.87768102  0.62392262  1
  Co  Co124  1  -0.00239606  0.25450903  0.25084849  1
  Co  Co125  1  0.12572798  0.13019895  0.62668551  1
  Co  Co126  1  0.62579115  0.63103357  0.12829457  1
  Co  Co127  1  0.49883223  0.75123128  0.00119499  1
