# generated using pymatgen
data_Fe45Co19
_symmetry_space_group_name_H-M   'P 1'
_cell_length_a   11.41688404
_cell_length_b   11.41485908
_cell_length_c   11.41560460
_cell_angle_alpha   89.99652055
_cell_angle_beta   90.00297998
_cell_angle_gamma   90.00542732
_symmetry_Int_Tables_number   1
_chemical_formula_structural   Fe45Co19
_chemical_formula_sum   'Fe90 Co38'
_cell_volume   1487.70580913
_cell_formula_units_Z   2
loop_
 _symmetry_equiv_pos_site_id
 _symmetry_equiv_pos_as_xyz
  1  'x, y, z'
loop_
 _atom_site_type_symbol
 _atom_site_label
 _atom_site_symmetry_multiplicity
 _atom_site_fract_x
 _atom_site_fract_y
 _atom_site_fract_z
 _atom_site_occupancy
  Fe  Fe0  1  0.74638404  0.00135512  0.75101941  1
  Fe  Fe1  1  0.00049948  0.49786725  0.25002755  1
  Fe  Fe2  1  0.49958293  0.24926360  0.00033756  1
  Fe  Fe3  1  0.37460206  0.37332231  0.87460003  1
  Fe  Fe4  1  0.00129174  0.00017504  0.49779215  1
  Fe  Fe5  1  0.12472075  0.87590891  0.37215242  1
  Fe  Fe6  1  0.25171018  0.00725648  0.00069547  1
  Fe  Fe7  1  0.50160592  0.49737493  0.74885660  1
  Fe  Fe8  1  0.62468765  0.62410693  0.87588754  1
  Fe  Fe9  1  0.87597057  0.62476347  0.37540273  1
  Fe  Fe10  1  0.87639600  0.12437074  0.62325725  1
  Fe  Fe11  1  0.37524124  0.37518822  0.12539022  1
  Fe  Fe12  1  0.12447738  0.62116830  0.12503205  1
  Fe  Fe13  1  0.37685859  0.62211963  0.12592535  1
  Fe  Fe14  1  0.25045861  0.75026630  0.00185697  1
  Fe  Fe15  1  0.75106524  0.25048754  0.74637472  1
  Fe  Fe16  1  0.75086334  0.74902656  0.75031972  1
  Fe  Fe17  1  0.37370031  0.87557075  0.37535244  1
  Fe  Fe18  1  0.12761862  0.12375702  0.37254014  1
  Fe  Fe19  1  0.87963953  0.62253953  0.62328606  1
  Fe  Fe20  1  0.50044973  0.74926598  0.25140226  1
  Fe  Fe21  1  0.49879033  0.74963986  -0.00251401  1
  Fe  Fe22  1  0.12142276  0.62170726  0.62226550  1
  Fe  Fe23  1  0.62668569  0.37374627  0.87446124  1
  Fe  Fe24  1  0.75024984  0.74972638  0.00141673  1
  Fe  Fe25  1  0.87469764  0.12624469  0.12723751  1
  Fe  Fe26  1  0.25225181  0.49779008  0.00129183  1
  Fe  Fe27  1  0.87511649  0.87533597  0.62483544  1
  Fe  Fe28  1  0.00063665  0.75034113  0.75024686  1
  Fe  Fe29  1  0.00030551  0.00040762  0.75145132  1
  Fe  Fe30  1  0.87635376  0.62327231  0.87473505  1
  Fe  Fe31  1  0.62354698  0.62508240  0.62355662  1
  Fe  Fe32  1  0.37605921  0.12499851  0.62565412  1
  Fe  Fe33  1  0.74852947  0.00070722  0.25113456  1
  Fe  Fe34  1  0.24866411  0.25067698  0.74941499  1
  Fe  Fe35  1  0.37511590  0.62230678  0.62446460  1
  Fe  Fe36  1  0.87426158  0.12760038  0.87439912  1
  Fe  Fe37  1  0.87580876  0.62415756  0.12643507  1
  Fe  Fe38  1  0.75076909  0.49783070  0.00144344  1
  Fe  Fe39  1  0.25123978  0.25054888  0.50220308  1
  Fe  Fe40  1  0.87677608  0.87259156  0.37242818  1
  Fe  Fe41  1  0.75164071  0.25149698  0.00145701  1
  Fe  Fe42  1  0.25022119  0.74946646  0.24797381  1
  Fe  Fe43  1  0.00165741  0.25089191  0.24880925  1
  Fe  Fe44  1  0.37709932  0.87795272  0.12351143  1
  Fe  Fe45  1  0.37289690  0.12456025  0.37413376  1
  Fe  Fe46  1  0.86988333  0.37640656  0.37295699  1
  Fe  Fe47  1  0.74939296  0.74881939  0.49878991  1
  Fe  Fe48  1  0.62212211  0.62246561  0.12556502  1
  Fe  Fe49  1  0.50273523  0.25068214  0.25393667  1
  Fe  Fe50  1  0.74535211  0.24888311  0.25100323  1
  Fe  Fe51  1  0.37389825  0.37808811  0.37670539  1
  Fe  Fe52  1  -0.00035771  0.75183172  0.00265395  1
  Fe  Fe53  1  0.25045799  0.24985388  0.24517633  1
  Fe  Fe54  1  0.50217441  0.00237590  0.25224506  1
  Fe  Fe55  1  0.50130647  0.74907270  0.49762254  1
  Fe  Fe56  1  0.87732089  0.37754440  0.62442755  1
  Fe  Fe57  1  0.12554402  0.87563470  0.62441337  1
  Fe  Fe58  1  0.25058594  0.00209478  0.75125894  1
  Fe  Fe59  1  -0.00068864  0.25116738  0.75070078  1
  Fe  Fe60  1  0.62456681  0.37647840  0.12691005  1
  Fe  Fe61  1  0.37419670  0.62323790  0.87444385  1
  Fe  Fe62  1  0.62445457  0.12764014  0.62079693  1
  Fe  Fe63  1  0.49985281  0.00133478  0.49872882  1
  Fe  Fe64  1  0.12353023  0.12615899  0.62429827  1
  Fe  Fe65  1  0.12693431  0.87624646  0.87661076  1
  Fe  Fe66  1  0.87329653  0.12659593  0.37488633  1
  Fe  Fe67  1  0.50163245  0.00391009  -0.00556944  1
  Fe  Fe68  1  0.62407126  0.87471225  0.62471602  1
  Fe  Fe69  1  0.74854523  0.74902995  0.24926934  1
  Fe  Fe70  1  0.62476320  0.87660939  0.12430599  1
  Fe  Fe71  1  -0.00422520  0.49415193  0.00107463  1
  Fe  Fe72  1  0.74941823  0.49940699  0.74805536  1
  Fe  Fe73  1  0.12404114  0.37086857  0.87993298  1
  Fe  Fe74  1  0.24872534  0.74970361  0.50015512  1
  Fe  Fe75  1  0.12356674  0.62354945  0.87768693  1
  Fe  Fe76  1  0.50109389  0.25063942  0.74794014  1
  Fe  Fe77  1  -0.00147465  0.00350971  0.00063169  1
  Fe  Fe78  1  0.75026273  -0.00041114  0.49794242  1
  Fe  Fe79  1  0.24652170  0.49745846  0.74854316  1
  Fe  Fe80  1  0.87340140  0.87436432  0.87558206  1
  Fe  Fe81  1  0.12496435  0.62372630  0.37545908  1
  Fe  Fe82  1  0.24927414  0.74902294  0.75053039  1
  Fe  Fe83  1  -0.00050963  0.25158979  0.49773441  1
  Fe  Fe84  1  0.74853329  0.00162585  -0.00124703  1
  Fe  Fe85  1  0.12871416  0.37605749  0.37480634  1
  Fe  Fe86  1  0.37517251  0.62143072  0.37603061  1
  Fe  Fe87  1  0.49863336  0.75223253  0.75314784  1
  Fe  Fe88  1  0.37558880  0.87648164  0.62550671  1
  Fe  Fe89  1  0.12312772  0.87923954  0.12735830  1
  Co  Co90  1  0.87324985  0.37411515  0.87237926  1
  Co  Co91  1  0.50115963  0.49809694  0.50136911  1
  Co  Co92  1  0.49996167  0.49794282  -0.00105356  1
  Co  Co93  1  0.87323469  0.37277521  0.13046996  1
  Co  Co94  1  0.37477372  0.37521154  0.62520396  1
  Co  Co95  1  0.25213228  -0.00036750  0.24801629  1
  Co  Co96  1  0.12322633  0.12563147  0.12698042  1
  Co  Co97  1  0.24946328  0.00058855  0.50034269  1
  Co  Co98  1  0.75373774  0.25182879  0.50142299  1
  Co  Co99  1  0.37634744  0.12772409  0.87216711  1
  Co  Co100  1  0.00080072  0.75251527  0.50000234  1
  Co  Co101  1  0.37286355  0.87643533  0.87541037  1
  Co  Co102  1  0.87414921  0.87657302  0.12607605  1
  Co  Co103  1  0.49677080  0.25125885  0.49746502  1
  Co  Co104  1  0.62841177  0.37638471  0.37794844  1
  Co  Co105  1  0.62486212  0.37196393  0.62126348  1
  Co  Co106  1  0.25270845  0.24604936  0.00291908  1
  Co  Co107  1  0.62496570  0.87489326  0.37462767  1
  Co  Co108  1  0.12567102  0.37462495  0.12272790  1
  Co  Co109  1  -0.00038026  0.49539447  0.49549800  1
  Co  Co110  1  0.50328576  0.00071538  0.75192023  1
  Co  Co111  1  -0.00363643  0.24970291  0.00266772  1
  Co  Co112  1  0.12279294  0.37366371  0.62300422  1
  Co  Co113  1  0.24957509  0.49918359  0.50283329  1
  Co  Co114  1  0.74875475  0.50202695  0.24859274  1
  Co  Co115  1  0.00243611  0.49797597  0.75249035  1
  Co  Co116  1  0.62499653  0.62159937  0.37482977  1
  Co  Co117  1  -0.00273090  0.00261746  0.25188084  1
  Co  Co118  1  0.50031196  0.49774595  0.25204538  1
  Co  Co119  1  0.74965590  0.50123701  0.50283358  1
  Co  Co120  1  0.62638969  0.13086422  0.87423071  1
  Co  Co121  1  0.62617739  0.87255006  0.87538709  1
  Co  Co122  1  0.62616212  0.12700190  0.37944513  1
  Co  Co123  1  0.00133531  0.74863395  0.24745500  1
  Co  Co124  1  0.62444455  0.12523340  0.12473574  1
  Co  Co125  1  0.37893504  0.12558240  0.12748248  1
  Co  Co126  1  0.12345086  0.12815975  0.87496212  1
  Co  Co127  1  0.25053125  0.50010751  0.24828806  1
