# generated using pymatgen
data_Fe45Co19
_symmetry_space_group_name_H-M   'P 1'
_cell_length_a   11.41659128
_cell_length_b   11.41415917
_cell_length_c   11.41558672
_cell_angle_alpha   90.00267964
_cell_angle_beta   90.00065535
_cell_angle_gamma   89.98927162
_symmetry_Int_Tables_number   1
_chemical_formula_structural   Fe45Co19
_chemical_formula_sum   'Fe90 Co38'
_cell_volume   1487.57409627
_cell_formula_units_Z   2
loop_
 _symmetry_equiv_pos_site_id
 _symmetry_equiv_pos_as_xyz
  1  'x, y, z'
loop_
 _atom_site_type_symbol
 _atom_site_label
 _atom_site_symmetry_multiplicity
 _atom_site_fract_x
 _atom_site_fract_y
 _atom_site_fract_z
 _atom_site_occupancy
  Fe  Fe0  1  0.24725761  0.74761905  0.25129632  1
  Fe  Fe1  1  0.00155620  0.25076700  -0.00165725  1
  Fe  Fe2  1  0.74996357  0.50036750  0.74951658  1
  Fe  Fe3  1  0.75053557  0.24920007  0.49728301  1
  Fe  Fe4  1  0.75211655  0.00107677  0.00045931  1
  Fe  Fe5  1  0.24966419  0.00066083  0.25022598  1
  Fe  Fe6  1  0.25784518  0.49603545  0.00329306  1
  Fe  Fe7  1  0.75142854  0.75094391  -0.00031163  1
  Fe  Fe8  1  0.49951751  0.50300951  0.24564813  1
  Fe  Fe9  1  0.74878328  0.75049890  0.74970109  1
  Fe  Fe10  1  0.50105877  0.25214219  -0.00522061  1
  Fe  Fe11  1  0.12201345  0.87490642  0.37829033  1
  Fe  Fe12  1  0.25033839  0.75251372  -0.00125811  1
  Fe  Fe13  1  0.62655575  0.12244127  0.62451244  1
  Fe  Fe14  1  0.24776288  -0.00069401  0.74804392  1
  Fe  Fe15  1  0.12205599  0.62902567  0.62336913  1
  Fe  Fe16  1  0.87585707  0.87612243  0.37320397  1
  Fe  Fe17  1  -0.00318839  0.49926502  -0.00000444  1
  Fe  Fe18  1  0.74738326  0.24904903  0.25119926  1
  Fe  Fe19  1  0.62390725  0.37547559  0.12138931  1
  Fe  Fe20  1  0.37331668  0.12657748  0.62648688  1
  Fe  Fe21  1  0.25121259  0.75172828  0.49997649  1
  Fe  Fe22  1  0.25210070  0.00016501  0.00056673  1
  Fe  Fe23  1  -0.00299451  0.24723054  0.49969396  1
  Fe  Fe24  1  0.50330600  0.74909076  0.25064281  1
  Fe  Fe25  1  0.12679862  0.62186770  0.87806974  1
  Fe  Fe26  1  0.00673146  0.24941566  0.75203875  1
  Fe  Fe27  1  0.87423840  0.62465740  0.87378199  1
  Fe  Fe28  1  0.37619785  0.12309922  0.37642469  1
  Fe  Fe29  1  0.74708267  0.74704213  0.25079568  1
  Fe  Fe30  1  0.37519948  0.62354337  0.37459450  1
  Fe  Fe31  1  0.25130027  0.25192722  0.49926449  1
  Fe  Fe32  1  0.87445961  0.37315008  0.12643583  1
  Fe  Fe33  1  0.37551987  0.37109306  0.62906111  1
  Fe  Fe34  1  0.62509058  0.37566521  0.62431177  1
  Fe  Fe35  1  0.75237398  0.49833041  -0.00023014  1
  Fe  Fe36  1  0.12503177  0.87470685  0.12439039  1
  Fe  Fe37  1  0.50163901  0.75257590  0.74887879  1
  Fe  Fe38  1  0.75589657  0.00298170  0.50089163  1
  Fe  Fe39  1  0.74512267  0.25033796  0.75466165  1
  Fe  Fe40  1  0.50106962  0.00003178  0.25103366  1
  Fe  Fe41  1  0.12430273  0.37704554  0.37606207  1
  Fe  Fe42  1  0.37645805  0.62662782  0.62556019  1
  Fe  Fe43  1  0.75187009  0.50112317  0.50063648  1
  Fe  Fe44  1  0.50084405  -0.00158945  0.74809270  1
  Fe  Fe45  1  0.12386820  0.87746924  0.87412713  1
  Fe  Fe46  1  0.62530947  0.87743591  0.87534235  1
  Fe  Fe47  1  0.87801961  0.87189993  0.62619653  1
  Fe  Fe48  1  0.62514630  0.12488904  0.12310022  1
  Fe  Fe49  1  0.49721891  -0.00032840  -0.00084310  1
  Fe  Fe50  1  0.62582525  0.87901728  0.37831149  1
  Fe  Fe51  1  0.75270943  0.74694801  0.49944007  1
  Fe  Fe52  1  0.50240979  0.24789793  0.25275058  1
  Fe  Fe53  1  0.49853246  0.75329047  0.50021217  1
  Fe  Fe54  1  0.37449010  0.87374675  0.12726911  1
  Fe  Fe55  1  -0.00026417  0.74914352  -0.00088676  1
  Fe  Fe56  1  0.87434785  0.12635128  0.87325235  1
  Fe  Fe57  1  0.87622180  0.37534577  0.37269026  1
  Fe  Fe58  1  0.24928356  0.49931027  0.74783046  1
  Fe  Fe59  1  0.00018790  0.50042117  0.75052589  1
  Fe  Fe60  1  0.00240522  0.74497642  0.25038929  1
  Fe  Fe61  1  0.87483846  0.87328659  0.12758712  1
  Fe  Fe62  1  0.00016880  0.00123316  0.24996307  1
  Fe  Fe63  1  -0.00297460  0.50295714  0.50149456  1
  Fe  Fe64  1  0.12571800  0.12563710  0.12395033  1
  Fe  Fe65  1  0.37483342  0.12853611  0.12481711  1
  Fe  Fe66  1  -0.00148042  0.00067138  0.00132882  1
  Fe  Fe67  1  0.37300327  0.12880813  0.87161515  1
  Fe  Fe68  1  0.62402459  0.62262919  0.87798209  1
  Fe  Fe69  1  0.50034918  0.49813586  0.75076079  1
  Fe  Fe70  1  0.87459757  0.37243126  0.62836664  1
  Fe  Fe71  1  0.25223501  0.49967927  0.50155574  1
  Fe  Fe72  1  0.37579508  0.62515705  0.87483572  1
  Fe  Fe73  1  0.62406559  0.62485420  0.62244191  1
  Fe  Fe74  1  0.87620379  0.87652450  0.87287377  1
  Fe  Fe75  1  0.62282526  0.37781197  0.37670929  1
  Fe  Fe76  1  0.12376617  0.37405579  0.62329499  1
  Fe  Fe77  1  0.25019653  -0.00341111  0.50080983  1
  Fe  Fe78  1  0.00139346  0.00293666  0.74584552  1
  Fe  Fe79  1  0.12301638  0.12481384  0.37733950  1
  Fe  Fe80  1  0.24845057  0.75150981  0.75059116  1
  Fe  Fe81  1  0.37656589  0.37696617  0.37303351  1
  Fe  Fe82  1  0.50107840  0.24899640  0.50072359  1
  Fe  Fe83  1  0.87440125  0.12748510  0.12781422  1
  Fe  Fe84  1  0.12684512  0.37517950  0.12414708  1
  Fe  Fe85  1  0.00325977  0.50311548  0.24843869  1
  Fe  Fe86  1  0.24828184  0.25074479  0.25137305  1
  Fe  Fe87  1  0.62560013  0.87599157  0.12388084  1
  Fe  Fe88  1  0.49900171  0.75021530  0.00004570  1
  Fe  Fe89  1  0.74690329  0.50242387  0.24963670  1
  Co  Co90  1  -0.00426453  0.00315302  0.50195880  1
  Co  Co91  1  0.50557556  0.24999631  0.75048364  1
  Co  Co92  1  0.87285848  0.13022482  0.63011841  1
  Co  Co93  1  0.62733839  0.87592049  0.62184397  1
  Co  Co94  1  0.87503400  0.37240481  0.87207026  1
  Co  Co95  1  0.62537639  0.12155817  0.37732888  1
  Co  Co96  1  0.12629306  0.12168202  0.87755044  1
  Co  Co97  1  0.37324835  0.37168662  0.86963625  1
  Co  Co98  1  0.49401906  0.49805996  0.00135019  1
  Co  Co99  1  0.87382003  0.62583113  0.12569566  1
  Co  Co100  1  0.12764409  0.12556652  0.61973632  1
  Co  Co101  1  0.49701191  0.49799308  0.50316202  1
  Co  Co102  1  0.37695564  0.36867624  0.12813650  1
  Co  Co103  1  0.24255189  0.25039788  0.75000898  1
  Co  Co104  1  0.74961841  0.24917704  -0.00155181  1
  Co  Co105  1  0.37393260  0.63000607  0.12605326  1
  Co  Co106  1  0.00098378  0.74796373  0.75442385  1
  Co  Co107  1  0.62269427  0.62319564  0.37926551  1
  Co  Co108  1  0.49766325  -0.00042674  0.50224973  1
  Co  Co109  1  0.62526221  0.12013593  0.87547539  1
  Co  Co110  1  0.24871014  0.25118161  -0.00071722  1
  Co  Co111  1  0.12681996  0.62277349  0.37888172  1
  Co  Co112  1  0.12740219  0.37962056  0.87695682  1
  Co  Co113  1  0.74897304  0.00109003  0.24847001  1
  Co  Co114  1  0.87559808  0.62587963  0.62765238  1
  Co  Co115  1  0.37491649  0.87546236  0.87341312  1
  Co  Co116  1  0.62598004  0.62438944  0.11990632  1
  Co  Co117  1  0.62511895  0.37949013  0.87769945  1
  Co  Co118  1  -0.00366072  0.74756868  0.49657527  1
  Co  Co119  1  0.24998822  0.49942010  0.24841242  1
  Co  Co120  1  0.12688122  0.62370296  0.11986687  1
  Co  Co121  1  0.87446585  0.62189783  0.37176679  1
  Co  Co122  1  0.00329639  0.25090656  0.24956219  1
  Co  Co123  1  0.37359726  0.87541404  0.62679118  1
  Co  Co124  1  0.87569120  0.12662595  0.37009633  1
  Co  Co125  1  0.75065147  -0.00197731  0.74953852  1
  Co  Co126  1  0.12121022  0.87195844  0.62376778  1
  Co  Co127  1  0.37548651  0.87535107  0.37229662  1
