# generated using pymatgen
data_Fe45Co19
_symmetry_space_group_name_H-M   'P 1'
_cell_length_a   11.41567703
_cell_length_b   11.41513749
_cell_length_c   11.41695401
_cell_angle_alpha   90.00705999
_cell_angle_beta   90.00201171
_cell_angle_gamma   89.99190751
_symmetry_Int_Tables_number   1
_chemical_formula_structural   Fe45Co19
_chemical_formula_sum   'Fe90 Co38'
_cell_volume   1487.76063510
_cell_formula_units_Z   2
loop_
 _symmetry_equiv_pos_site_id
 _symmetry_equiv_pos_as_xyz
  1  'x, y, z'
loop_
 _atom_site_type_symbol
 _atom_site_label
 _atom_site_symmetry_multiplicity
 _atom_site_fract_x
 _atom_site_fract_y
 _atom_site_fract_z
 _atom_site_occupancy
  Fe  Fe0  1  0.74882028  0.24958924  0.25085789  1
  Fe  Fe1  1  0.74735453  0.24840065  0.50197631  1
  Fe  Fe2  1  0.37468267  0.62973617  0.87618987  1
  Fe  Fe3  1  0.12223557  0.37908099  0.37789183  1
  Fe  Fe4  1  0.49726394  -0.00039689  0.25111801  1
  Fe  Fe5  1  0.87707418  0.87904918  0.87410906  1
  Fe  Fe6  1  0.87597943  0.87644921  0.37660557  1
  Fe  Fe7  1  0.37147229  0.87131913  0.62713743  1
  Fe  Fe8  1  0.62559205  0.12253416  0.37592321  1
  Fe  Fe9  1  0.24994953  -0.00087916  0.74997702  1
  Fe  Fe10  1  0.24901638  0.50042965  0.75059711  1
  Fe  Fe11  1  0.62626510  0.11892967  0.87078557  1
  Fe  Fe12  1  0.75164420  0.49924653  -0.00226751  1
  Fe  Fe13  1  0.87563158  0.62708358  0.37641799  1
  Fe  Fe14  1  0.12399905  0.87999364  0.87574033  1
  Fe  Fe15  1  0.74843250  0.24825285  0.74884310  1
  Fe  Fe16  1  0.00184361  0.24684719  0.25170701  1
  Fe  Fe17  1  0.87673111  0.37268454  0.87422991  1
  Fe  Fe18  1  0.74851442  0.75416862  -0.00293218  1
  Fe  Fe19  1  0.37406641  0.87236653  0.37490957  1
  Fe  Fe20  1  0.12552479  0.37608905  0.12513181  1
  Fe  Fe21  1  0.00159495  0.00634118  0.49982060  1
  Fe  Fe22  1  0.49950555  0.50103040  0.74914995  1
  Fe  Fe23  1  0.37694227  0.86944916  0.87208197  1
  Fe  Fe24  1  0.62387084  0.62457219  0.37668321  1
  Fe  Fe25  1  0.00006675  0.50221385  0.74545999  1
  Fe  Fe26  1  0.49848445  -0.00248001  -0.00253739  1
  Fe  Fe27  1  0.24583784  0.25198029  0.50120769  1
  Fe  Fe28  1  0.74941581  0.75267956  0.50188469  1
  Fe  Fe29  1  -0.00049955  0.00217170  0.25078537  1
  Fe  Fe30  1  0.74944167  0.75352156  0.75008391  1
  Fe  Fe31  1  0.50187672  0.25084169  0.50161283  1
  Fe  Fe32  1  0.88090297  0.87547719  0.62577037  1
  Fe  Fe33  1  0.25271016  0.50372977  0.25215444  1
  Fe  Fe34  1  0.50086137  0.25019641  -0.00116404  1
  Fe  Fe35  1  0.75166106  0.49808435  0.75040960  1
  Fe  Fe36  1  0.87493434  0.87662880  0.12470551  1
  Fe  Fe37  1  0.24920184  0.25050133  0.25043469  1
  Fe  Fe38  1  0.75202288  0.00150365  0.50392677  1
  Fe  Fe39  1  -0.00146203  0.50187454  0.24985758  1
  Fe  Fe40  1  0.37425877  0.37390423  0.62659822  1
  Fe  Fe41  1  0.62801742  0.62336137  0.62528300  1
  Fe  Fe42  1  0.49850586  0.74811428  0.24890908  1
  Fe  Fe43  1  0.00670201  0.74817028  0.74806343  1
  Fe  Fe44  1  0.62463380  0.87629776  0.37565673  1
  Fe  Fe45  1  0.37622748  0.37372478  0.37437746  1
  Fe  Fe46  1  0.50031588  0.25082419  0.25003924  1
  Fe  Fe47  1  0.37277043  0.12596280  0.37582087  1
  Fe  Fe48  1  0.36865330  0.62799751  0.62332898  1
  Fe  Fe49  1  0.00189094  0.74932900  0.25060635  1
  Fe  Fe50  1  0.00133167  0.24571592  -0.00286164  1
  Fe  Fe51  1  0.24523761  0.25181772  0.74977310  1
  Fe  Fe52  1  0.87315390  0.12269309  0.12452202  1
  Fe  Fe53  1  0.12532852  0.87666408  0.37468735  1
  Fe  Fe54  1  0.75087303  0.75138098  0.25174105  1
  Fe  Fe55  1  0.75307374  0.49818740  0.50063494  1
  Fe  Fe56  1  0.00218781  0.75130463  -0.00042771  1
  Fe  Fe57  1  0.37301029  0.12687875  0.62512957  1
  Fe  Fe58  1  0.37115882  0.87107129  0.12453291  1
  Fe  Fe59  1  -0.00172279  0.50013062  0.00084626  1
  Fe  Fe60  1  0.12696024  0.62587759  0.12358696  1
  Fe  Fe61  1  0.87576981  0.37269576  0.12406298  1
  Fe  Fe62  1  0.37326534  0.12488676  0.12443918  1
  Fe  Fe63  1  0.62486453  0.37519361  0.12402217  1
  Fe  Fe64  1  0.62568839  0.87617460  0.12597578  1
  Fe  Fe65  1  0.62615340  0.62548015  0.12397114  1
  Fe  Fe66  1  0.74897109  0.24806411  -0.00216214  1
  Fe  Fe67  1  0.12291101  0.37685069  0.87459212  1
  Fe  Fe68  1  0.00346257  0.74649893  0.50224264  1
  Fe  Fe69  1  0.50073706  0.75068744  0.50375397  1
  Fe  Fe70  1  0.24953748  -0.00040148  0.50070535  1
  Fe  Fe71  1  0.37615771  0.37373073  0.87486190  1
  Fe  Fe72  1  0.49877928  0.49833773  0.50151244  1
  Fe  Fe73  1  0.25092042  0.49983142  -0.00093322  1
  Fe  Fe74  1  0.50211051  0.24996143  0.74890708  1
  Fe  Fe75  1  0.62411428  0.62695021  0.87450230  1
  Fe  Fe76  1  0.87726660  0.62725670  0.87362854  1
  Fe  Fe77  1  0.87748534  0.37183924  0.37660953  1
  Fe  Fe78  1  0.12838134  0.87685770  0.12505067  1
  Fe  Fe79  1  0.62190206  0.87930680  0.62939630  1
  Fe  Fe80  1  0.49729798  0.50066295  0.24872808  1
  Fe  Fe81  1  0.87422731  0.62742074  0.12345282  1
  Fe  Fe82  1  0.75183381  0.49921134  0.25107066  1
  Fe  Fe83  1  0.49673075  0.00012161  0.50180695  1
  Fe  Fe84  1  0.49867868  0.49910805  0.00045081  1
  Fe  Fe85  1  0.62438312  0.12163884  0.12594017  1
  Fe  Fe86  1  0.12913988  0.12129500  0.12392593  1
  Fe  Fe87  1  0.24864210  0.25116008  -0.00095686  1
  Fe  Fe88  1  0.87962043  0.36869344  0.62476152  1
  Fe  Fe89  1  0.37294202  0.12685302  0.87390117  1
  Co  Co90  1  0.12532659  0.12439591  0.62731102  1
  Co  Co91  1  0.74806479  -0.00240394  -0.00096240  1
  Co  Co92  1  0.24589367  0.75082924  -0.00401945  1
  Co  Co93  1  0.24856893  0.74678668  0.25385796  1
  Co  Co94  1  0.24705216  0.75298929  0.49725557  1
  Co  Co95  1  0.75487183  -0.00065638  0.74502223  1
  Co  Co96  1  0.62187955  0.87782718  0.86890584  1
  Co  Co97  1  0.25415925  0.49629642  0.49820415  1
  Co  Co98  1  0.62480292  0.37658443  0.62609816  1
  Co  Co99  1  0.37776646  0.62766179  0.37905283  1
  Co  Co100  1  0.12276169  0.62159790  0.87633222  1
  Co  Co101  1  0.13112194  0.62185679  0.62017819  1
  Co  Co102  1  0.12971398  0.12286260  0.37390860  1
  Co  Co103  1  0.12239298  0.37697078  0.62348394  1
  Co  Co104  1  0.62174878  0.12172205  0.62629426  1
  Co  Co105  1  0.25243166  -0.00124992  0.25165000  1
  Co  Co106  1  0.12820069  0.12153543  0.87542581  1
  Co  Co107  1  0.87200065  0.12562212  0.37571417  1
  Co  Co108  1  0.49316315  0.00149769  0.74966475  1
  Co  Co109  1  0.87985049  0.12919552  0.62580518  1
  Co  Co110  1  0.87230848  0.62922379  0.62720073  1
  Co  Co111  1  0.50264267  0.75262358  0.00100659  1
  Co  Co112  1  0.00090904  0.00319921  0.75070519  1
  Co  Co113  1  0.12399342  0.62149188  0.37963480  1
  Co  Co114  1  0.00464284  0.24724646  0.75474548  1
  Co  Co115  1  0.62402552  0.37532571  0.87440308  1
  Co  Co116  1  0.62452678  0.37596505  0.37516715  1
  Co  Co117  1  0.24257438  0.74939359  0.75191824  1
  Co  Co118  1  0.00548235  0.24542703  0.49660179  1
  Co  Co119  1  0.37395066  0.37362895  0.12461612  1
  Co  Co120  1  -0.00058329  0.00257094  0.00129411  1
  Co  Co121  1  0.12405954  0.87789893  0.62358588  1
  Co  Co122  1  0.87247720  0.12257912  0.87372333  1
  Co  Co123  1  0.37220284  0.62817249  0.12114863  1
  Co  Co124  1  0.75122541  -0.00135812  0.25140639  1
  Co  Co125  1  0.50092258  0.74666385  0.74564995  1
  Co  Co126  1  -0.00575195  0.50300559  0.50458712  1
  Co  Co127  1  0.25461282  -0.00204763  -0.00292238  1
