# generated using pymatgen
data_Fe45Co19
_symmetry_space_group_name_H-M   'P 1'
_cell_length_a   11.41556089
_cell_length_b   11.41610239
_cell_length_c   11.41434009
_cell_angle_alpha   89.99562841
_cell_angle_beta   90.00334245
_cell_angle_gamma   89.99839098
_symmetry_Int_Tables_number   1
_chemical_formula_structural   Fe45Co19
_chemical_formula_sum   'Fe90 Co38'
_cell_volume   1487.53062678
_cell_formula_units_Z   2
loop_
 _symmetry_equiv_pos_site_id
 _symmetry_equiv_pos_as_xyz
  1  'x, y, z'
loop_
 _atom_site_type_symbol
 _atom_site_label
 _atom_site_symmetry_multiplicity
 _atom_site_fract_x
 _atom_site_fract_y
 _atom_site_fract_z
 _atom_site_occupancy
  Fe  Fe0  1  0.12510108  0.87445707  0.12436387  1
  Fe  Fe1  1  0.75210526  -0.00053626  -0.00029291  1
  Fe  Fe2  1  -0.00057381  0.49711934  0.25339561  1
  Fe  Fe3  1  0.87889434  0.62356622  0.62387856  1
  Fe  Fe4  1  0.12339017  0.62423412  0.12583983  1
  Fe  Fe5  1  0.62687017  0.37641474  0.87943243  1
  Fe  Fe6  1  0.37090395  0.87576516  0.62152983  1
  Fe  Fe7  1  0.62232000  0.87477063  0.12488666  1
  Fe  Fe8  1  0.37466904  0.12535183  0.12550987  1
  Fe  Fe9  1  0.75076962  0.74713453  0.50075667  1
  Fe  Fe10  1  0.87578035  0.12493596  0.87309321  1
  Fe  Fe11  1  0.12559858  0.36926515  0.87377933  1
  Fe  Fe12  1  0.62520606  0.12499075  0.37541652  1
  Fe  Fe13  1  0.62599221  0.12511639  0.12287681  1
  Fe  Fe14  1  0.37574172  0.37577644  0.12310378  1
  Fe  Fe15  1  0.62479013  0.37692414  0.11928732  1
  Fe  Fe16  1  0.50066247  0.25128900  0.75098264  1
  Fe  Fe17  1  0.87431366  0.37451990  0.12292267  1
  Fe  Fe18  1  0.12157197  0.12575314  0.37516941  1
  Fe  Fe19  1  0.37725248  0.12441143  0.37377696  1
  Fe  Fe20  1  0.75189849  0.74822728  0.75020394  1
  Fe  Fe21  1  0.24927661  0.75010643  0.25412828  1
  Fe  Fe22  1  0.75186638  0.50199880  0.75272684  1
  Fe  Fe23  1  0.74981608  0.24976854  0.75055706  1
  Fe  Fe24  1  0.24845573  0.50152442  0.50090822  1
  Fe  Fe25  1  0.50050814  0.50224687  0.75363015  1
  Fe  Fe26  1  0.25172000  0.24644464  0.50343940  1
  Fe  Fe27  1  0.24900978  0.49863199  0.75055072  1
  Fe  Fe28  1  0.62779242  0.37436974  0.37735247  1
  Fe  Fe29  1  0.24311440  0.75091949  0.74488326  1
  Fe  Fe30  1  -0.00181074  0.50012181  -0.00324873  1
  Fe  Fe31  1  0.24958574  0.50015786  -0.00207649  1
  Fe  Fe32  1  0.12069329  0.62334040  0.37819251  1
  Fe  Fe33  1  0.24960455  -0.00214802  0.25247381  1
  Fe  Fe34  1  0.62668793  0.87355457  0.87429598  1
  Fe  Fe35  1  0.00188938  0.00025661  -0.00161393  1
  Fe  Fe36  1  0.00426220  -0.00168071  0.74964046  1
  Fe  Fe37  1  0.50033350  0.74947387  0.74933112  1
  Fe  Fe38  1  0.62433552  0.12352190  0.62598311  1
  Fe  Fe39  1  0.87086918  0.37626725  0.37735592  1
  Fe  Fe40  1  0.49967119  0.74627491  -0.00106290  1
  Fe  Fe41  1  0.62741658  0.87500963  0.62564055  1
  Fe  Fe42  1  0.62619843  0.12380654  0.87463695  1
  Fe  Fe43  1  0.75155405  0.00098965  0.50045660  1
  Fe  Fe44  1  0.24733418  0.00165181  -0.00014399  1
  Fe  Fe45  1  0.37478477  0.37498163  0.37646518  1
  Fe  Fe46  1  0.75076529  0.24964279  0.24758435  1
  Fe  Fe47  1  0.74928616  -0.00090139  0.24893910  1
  Fe  Fe48  1  0.62410892  0.62668759  0.37547341  1
  Fe  Fe49  1  0.49809459  0.00084998  -0.00172155  1
  Fe  Fe50  1  -0.00165759  0.24877391  0.00021160  1
  Fe  Fe51  1  -0.00092526  0.49798855  0.75197071  1
  Fe  Fe52  1  0.87519732  0.87413704  0.37560206  1
  Fe  Fe53  1  0.37609250  0.37523795  0.62527326  1
  Fe  Fe54  1  0.87671524  0.87608933  0.12559317  1
  Fe  Fe55  1  0.87640720  0.12430423  0.37047257  1
  Fe  Fe56  1  0.37331345  0.62405952  0.12541380  1
  Fe  Fe57  1  0.00128395  0.75231340  0.25252420  1
  Fe  Fe58  1  0.37783775  0.62735298  0.37732860  1
  Fe  Fe59  1  0.24873633  0.25168801  0.24942734  1
  Fe  Fe60  1  0.87582953  0.12473836  0.62712536  1
  Fe  Fe61  1  0.24598917  0.00354771  0.74622955  1
  Fe  Fe62  1  0.87220639  0.37588559  0.62392165  1
  Fe  Fe63  1  0.12449143  0.37343107  0.62416092  1
  Fe  Fe64  1  0.50281167  0.50135483  0.50182023  1
  Fe  Fe65  1  0.37315861  0.37178829  0.87697152  1
  Fe  Fe66  1  0.12437427  0.37588717  0.12562969  1
  Fe  Fe67  1  0.74995871  0.50163419  0.24975841  1
  Fe  Fe68  1  0.37156585  0.12729235  0.87398931  1
  Fe  Fe69  1  0.37046354  0.87398984  0.87387299  1
  Fe  Fe70  1  0.37497911  0.62476248  0.62654698  1
  Fe  Fe71  1  0.12384479  0.62633169  0.87331432  1
  Fe  Fe72  1  0.62168399  0.87348991  0.37364819  1
  Fe  Fe73  1  0.74900526  0.74904189  0.24836597  1
  Fe  Fe74  1  0.49927699  -0.00215912  0.50001549  1
  Fe  Fe75  1  0.24898255  0.50017462  0.25250067  1
  Fe  Fe76  1  0.50120224  0.25105053  0.24845256  1
  Fe  Fe77  1  0.12623449  0.87701162  0.38305533  1
  Fe  Fe78  1  0.87627123  0.87379021  0.87330496  1
  Fe  Fe79  1  0.37585221  0.87478822  0.12742678  1
  Fe  Fe80  1  0.87535420  0.62611161  0.12493715  1
  Fe  Fe81  1  0.49947573  -0.00247769  0.75080467  1
  Fe  Fe82  1  0.87640919  0.87529375  0.62538215  1
  Fe  Fe83  1  0.50149947  0.25057934  0.50129147  1
  Fe  Fe84  1  0.24898115  0.74904458  -0.00005283  1
  Fe  Fe85  1  0.00058398  0.75088223  -0.00180283  1
  Fe  Fe86  1  -0.00280047  0.25176002  0.49895524  1
  Fe  Fe87  1  0.62821835  0.37640002  0.62383682  1
  Fe  Fe88  1  0.12090393  0.12513684  0.12862147  1
  Fe  Fe89  1  0.50123216  0.50062375  0.24902426  1
  Co  Co90  1  0.87676862  0.62516747  0.37390580  1
  Co  Co91  1  0.50077756  0.75115262  0.50460813  1
  Co  Co92  1  0.87649704  0.62906434  0.87494777  1
  Co  Co93  1  0.24794356  0.25005151  0.00395857  1
  Co  Co94  1  0.50040475  0.00174179  0.24925437  1
  Co  Co95  1  0.62870757  0.62576566  0.87689405  1
  Co  Co96  1  0.12518700  0.87934057  0.61726442  1
  Co  Co97  1  -0.00471325  0.00139000  0.50002218  1
  Co  Co98  1  0.75292748  0.24733480  0.00002594  1
  Co  Co99  1  0.75488181  0.50102436  -0.00227114  1
  Co  Co100  1  0.24865323  0.74570756  0.50053673  1
  Co  Co101  1  0.75128359  0.75294742  0.00077433  1
  Co  Co102  1  -0.00063988  0.75026678  0.50167014  1
  Co  Co103  1  0.00362616  0.75260346  0.74756083  1
  Co  Co104  1  0.25263597  0.00651345  0.50045901  1
  Co  Co105  1  0.74937445  0.50501362  0.49988917  1
  Co  Co106  1  0.12689464  0.87454058  0.87540569  1
  Co  Co107  1  0.75106367  -0.00018680  0.74965044  1
  Co  Co108  1  0.37693869  0.87372174  0.37574707  1
  Co  Co109  1  0.49639246  0.50442497  -0.00299924  1
  Co  Co110  1  -0.00212314  0.25201275  0.74887293  1
  Co  Co111  1  0.12095529  0.62101476  0.62484395  1
  Co  Co112  1  0.11983659  0.12632786  0.62330115  1
  Co  Co113  1  -0.00080415  0.49600483  0.49829723  1
  Co  Co114  1  0.25120271  0.24832099  0.74459958  1
  Co  Co115  1  -0.00123708  0.25577237  0.25158155  1
  Co  Co116  1  0.37076450  0.62832211  0.87139370  1
  Co  Co117  1  0.12583018  0.12953215  0.87317340  1
  Co  Co118  1  0.62535237  0.62458399  0.62771417  1
  Co  Co119  1  0.87388424  0.37221244  0.87517432  1
  Co  Co120  1  0.87862802  0.12256812  0.12834538  1
  Co  Co121  1  0.49992846  0.74663195  0.24700239  1
  Co  Co122  1  0.00216324  -0.00568262  0.25202508  1
  Co  Co123  1  0.38106150  0.12429280  0.62705284  1
  Co  Co124  1  0.62812851  0.62272481  0.12144136  1
  Co  Co125  1  0.49972828  0.24785782  -0.00082489  1
  Co  Co126  1  0.75138107  0.24610419  0.50149415  1
  Co  Co127  1  0.12819155  0.37332542  0.37759082  1
