# generated using pymatgen
data_Fe45Co19
_symmetry_space_group_name_H-M   'P 1'
_cell_length_a   11.41509120
_cell_length_b   11.41456406
_cell_length_c   11.41436458
_cell_angle_alpha   90.00016075
_cell_angle_beta   90.00593521
_cell_angle_gamma   89.99359084
_symmetry_Int_Tables_number   1
_chemical_formula_structural   Fe45Co19
_chemical_formula_sum   'Fe90 Co38'
_cell_volume   1487.27216591
_cell_formula_units_Z   2
loop_
 _symmetry_equiv_pos_site_id
 _symmetry_equiv_pos_as_xyz
  1  'x, y, z'
loop_
 _atom_site_type_symbol
 _atom_site_label
 _atom_site_symmetry_multiplicity
 _atom_site_fract_x
 _atom_site_fract_y
 _atom_site_fract_z
 _atom_site_occupancy
  Fe  Fe0  1  0.49881768  -0.00234750  -0.00175895  1
  Fe  Fe1  1  0.37501586  0.12709058  0.87392100  1
  Fe  Fe2  1  0.37556964  0.12538369  0.12444389  1
  Fe  Fe3  1  0.62511935  0.12417507  0.37462618  1
  Fe  Fe4  1  0.37413758  0.37492781  0.87392790  1
  Fe  Fe5  1  0.87392240  0.87846264  0.12582642  1
  Fe  Fe6  1  0.75158944  0.50016622  0.75108433  1
  Fe  Fe7  1  0.50391927  0.25114690  0.50278306  1
  Fe  Fe8  1  -0.00139159  0.75222190  0.25036523  1
  Fe  Fe9  1  0.12671803  0.12727743  0.12484410  1
  Fe  Fe10  1  0.62567259  0.37471536  0.37708344  1
  Fe  Fe11  1  0.87335346  0.87491204  0.62638490  1
  Fe  Fe12  1  0.87375389  0.87538646  0.87283779  1
  Fe  Fe13  1  0.87464562  0.37349674  0.38179093  1
  Fe  Fe14  1  0.74918125  0.25027176  -0.00085893  1
  Fe  Fe15  1  0.25010013  0.49893677  0.00239090  1
  Fe  Fe16  1  0.87449364  0.37416551  0.12277950  1
  Fe  Fe17  1  0.75002508  0.49942751  0.25190072  1
  Fe  Fe18  1  0.12256412  0.62456425  0.37332549  1
  Fe  Fe19  1  0.12707394  0.12566426  0.62676384  1
  Fe  Fe20  1  0.24812617  0.25102741  0.49721927  1
  Fe  Fe21  1  0.49808722  0.25330228  -0.00008359  1
  Fe  Fe22  1  0.12427558  0.37694718  0.87443480  1
  Fe  Fe23  1  0.37527535  0.62661661  0.87456135  1
  Fe  Fe24  1  0.74896655  0.00140927  -0.00104574  1
  Fe  Fe25  1  0.25132391  0.00208918  0.25149173  1
  Fe  Fe26  1  0.49996323  0.49962357  0.49898670  1
  Fe  Fe27  1  0.87425554  0.12640449  0.62261390  1
  Fe  Fe28  1  0.87338497  0.87961612  0.37291813  1
  Fe  Fe29  1  0.62520694  0.37652894  0.12443295  1
  Fe  Fe30  1  0.62351462  0.62168758  0.12328820  1
  Fe  Fe31  1  0.62391413  0.37846909  0.87525606  1
  Fe  Fe32  1  0.62477297  0.62600940  0.37447277  1
  Fe  Fe33  1  0.24976237  0.50120212  0.74891006  1
  Fe  Fe34  1  0.62611170  0.87458091  0.63023470  1
  Fe  Fe35  1  0.50195416  0.75135154  0.50174854  1
  Fe  Fe36  1  0.37666013  0.62309112  0.12803075  1
  Fe  Fe37  1  0.00121805  0.00105378  -0.00010406  1
  Fe  Fe38  1  0.49996862  0.75065380  -0.00120631  1
  Fe  Fe39  1  0.87438803  0.37605494  0.62003590  1
  Fe  Fe40  1  0.74932793  0.74787005  -0.00252442  1
  Fe  Fe41  1  0.49820859  0.50088931  0.74949979  1
  Fe  Fe42  1  0.62525786  0.87588574  0.12519939  1
  Fe  Fe43  1  0.62412709  0.12511591  0.12453384  1
  Fe  Fe44  1  0.12696030  0.87628714  0.87330104  1
  Fe  Fe45  1  -0.00395873  0.24607153  0.25245978  1
  Fe  Fe46  1  0.12560637  0.87660852  0.37480616  1
  Fe  Fe47  1  0.87552887  0.62375187  0.12482692  1
  Fe  Fe48  1  0.12341484  0.62289647  0.87560901  1
  Fe  Fe49  1  0.62615900  0.62454661  0.62734622  1
  Fe  Fe50  1  0.25284047  0.74924524  0.25262617  1
  Fe  Fe51  1  0.00066938  0.25193394  0.74872498  1
  Fe  Fe52  1  0.49970703  0.75252846  0.25032300  1
  Fe  Fe53  1  0.37263157  0.37514960  0.13004659  1
  Fe  Fe54  1  0.62137751  0.12343358  0.62951968  1
  Fe  Fe55  1  0.25596783  -0.00138768  0.74650283  1
  Fe  Fe56  1  0.75235393  0.24685308  0.25130791  1
  Fe  Fe57  1  0.37234103  0.62827713  0.62319812  1
  Fe  Fe58  1  0.37580440  0.37283717  0.62396518  1
  Fe  Fe59  1  0.75087800  0.74976974  0.49950741  1
  Fe  Fe60  1  0.12367103  0.37728416  0.62208316  1
  Fe  Fe61  1  0.74807497  0.25235542  0.74854814  1
  Fe  Fe62  1  0.62174844  0.12379934  0.87204149  1
  Fe  Fe63  1  -0.00069299  0.00062355  0.74918434  1
  Fe  Fe64  1  0.37468870  0.87584169  0.38006971  1
  Fe  Fe65  1  0.00189486  0.00047833  0.50097387  1
  Fe  Fe66  1  0.62504943  0.87460581  0.86911251  1
  Fe  Fe67  1  0.12712924  0.87526398  0.12625205  1
  Fe  Fe68  1  0.12823802  0.87272645  0.62428217  1
  Fe  Fe69  1  -0.00162688  0.49874372  0.25163069  1
  Fe  Fe70  1  0.74641019  0.00050146  0.50063640  1
  Fe  Fe71  1  0.25079216  0.75007507  0.00055880  1
  Fe  Fe72  1  0.12487645  0.62439992  0.12714317  1
  Fe  Fe73  1  0.12841407  0.37296668  0.13043111  1
  Fe  Fe74  1  0.49981610  0.25087799  0.24988148  1
  Fe  Fe75  1  0.00051356  0.74864687  0.74970741  1
  Fe  Fe76  1  0.00257968  0.25030096  -0.00189293  1
  Fe  Fe77  1  0.37778624  0.12507507  0.37972797  1
  Fe  Fe78  1  0.87843175  0.62091652  0.87682583  1
  Fe  Fe79  1  -0.00103376  0.74993227  0.49822700  1
  Fe  Fe80  1  0.12535502  0.62480499  0.62355230  1
  Fe  Fe81  1  0.12296104  0.12546803  0.37526147  1
  Fe  Fe82  1  0.50034903  -0.00204888  0.25135270  1
  Fe  Fe83  1  0.24969210  0.25060206  0.75039623  1
  Fe  Fe84  1  0.00020005  0.75113496  0.00030866  1
  Fe  Fe85  1  0.87571277  0.12735887  0.87434616  1
  Fe  Fe86  1  0.87587803  0.62285512  0.62270125  1
  Fe  Fe87  1  0.25054771  0.49918493  0.49366319  1
  Fe  Fe88  1  0.74948284  0.75070760  0.24964173  1
  Fe  Fe89  1  0.25159589  0.00018342  -0.00037784  1
  Co  Co90  1  0.37112022  0.86982444  0.61911342  1
  Co  Co91  1  0.25267227  0.24622840  0.25470393  1
  Co  Co92  1  0.37592811  0.13072205  0.62291478  1
  Co  Co93  1  0.75137589  0.50027226  -0.00041595  1
  Co  Co94  1  0.25022507  0.25196211  -0.00146582  1
  Co  Co95  1  0.37428006  0.87544215  0.12590747  1
  Co  Co96  1  0.37972380  0.62618589  0.37533572  1
  Co  Co97  1  0.00148971  0.00272525  0.24845223  1
  Co  Co98  1  0.87427589  0.62570862  0.37377272  1
  Co  Co99  1  0.24850849  0.74948327  0.75086741  1
  Co  Co100  1  0.87355568  0.12209052  0.37932429  1
  Co  Co101  1  0.87610691  0.37459684  0.87519015  1
  Co  Co102  1  0.74500032  0.24733152  0.50276178  1
  Co  Co103  1  0.87467465  0.12403774  0.12183673  1
  Co  Co104  1  0.50105967  0.25239899  0.75078597  1
  Co  Co105  1  0.62233805  0.62300019  0.87521951  1
  Co  Co106  1  0.75204029  0.00275007  0.74999580  1
  Co  Co107  1  0.00235413  0.49688265  0.00395715  1
  Co  Co108  1  0.24883338  0.00337520  0.50146648  1
  Co  Co109  1  0.12238871  0.37322447  0.37260473  1
  Co  Co110  1  0.74815191  0.50268945  0.49834462  1
  Co  Co111  1  0.74791611  0.00249261  0.24884969  1
  Co  Co112  1  0.00189698  0.50186661  0.49723148  1
  Co  Co113  1  0.50245402  -0.00135079  0.50377468  1
  Co  Co114  1  0.00279538  0.24756016  0.50102038  1
  Co  Co115  1  0.25137165  0.50142881  0.25510579  1
  Co  Co116  1  0.37449822  0.87186608  0.87517817  1
  Co  Co117  1  0.49611620  0.49765109  0.00046834  1
  Co  Co118  1  0.12686924  0.12338039  0.87260971  1
  Co  Co119  1  0.75222386  0.74496513  0.75155298  1
  Co  Co120  1  0.49217421  -0.00307116  0.74696115  1
  Co  Co121  1  0.62613354  0.87443552  0.37494263  1
  Co  Co122  1  0.49823013  0.75029852  0.74817877  1
  Co  Co123  1  -0.00036749  0.49882305  0.74752351  1
  Co  Co124  1  0.50219717  0.49810293  0.25188847  1
  Co  Co125  1  0.24739042  0.74668895  0.49560905  1
  Co  Co126  1  0.37806402  0.37284777  0.37523724  1
  Co  Co127  1  0.62478255  0.37908773  0.62548723  1
