# generated using pymatgen
data_Fe45Co19
_symmetry_space_group_name_H-M   'P 1'
_cell_length_a   11.41619709
_cell_length_b   11.41533688
_cell_length_c   11.41474608
_cell_angle_alpha   89.99238453
_cell_angle_beta   90.00182827
_cell_angle_gamma   90.00518000
_symmetry_Int_Tables_number   1
_chemical_formula_structural   Fe45Co19
_chemical_formula_sum   'Fe90 Co38'
_cell_volume   1487.56667107
_cell_formula_units_Z   2
loop_
 _symmetry_equiv_pos_site_id
 _symmetry_equiv_pos_as_xyz
  1  'x, y, z'
loop_
 _atom_site_type_symbol
 _atom_site_label
 _atom_site_symmetry_multiplicity
 _atom_site_fract_x
 _atom_site_fract_y
 _atom_site_fract_z
 _atom_site_occupancy
  Fe  Fe0  1  0.87374126  0.37412214  0.37425962  1
  Fe  Fe1  1  0.74853746  0.49807779  0.50129349  1
  Fe  Fe2  1  0.12432794  0.37378058  0.12432267  1
  Fe  Fe3  1  0.25231434  0.75150485  0.25242091  1
  Fe  Fe4  1  0.50026793  0.74837898  0.75070674  1
  Fe  Fe5  1  0.37794017  0.87530921  0.12648183  1
  Fe  Fe6  1  0.37629467  0.62217244  0.12758919  1
  Fe  Fe7  1  0.50066759  0.74803717  0.24974225  1
  Fe  Fe8  1  0.87319119  0.87823952  0.87253016  1
  Fe  Fe9  1  0.61894662  0.37290362  0.62864547  1
  Fe  Fe10  1  0.25454498  0.49672849  0.74679060  1
  Fe  Fe11  1  0.87288009  0.37590399  0.87418324  1
  Fe  Fe12  1  0.87372700  0.62516481  0.62557015  1
  Fe  Fe13  1  -0.00178278  0.75198124  0.49861845  1
  Fe  Fe14  1  -0.00015165  0.49799951  0.50111442  1
  Fe  Fe15  1  0.37847620  0.62355366  0.62247352  1
  Fe  Fe16  1  0.62227910  0.87545567  0.62413439  1
  Fe  Fe17  1  0.74967126  0.75277774  0.49943901  1
  Fe  Fe18  1  0.25603509  0.25299654  0.75021137  1
  Fe  Fe19  1  0.49788651  0.00355014  0.49559561  1
  Fe  Fe20  1  0.87518255  0.37550266  0.62733963  1
  Fe  Fe21  1  -0.00051726  0.24914240  0.75052424  1
  Fe  Fe22  1  0.25280728  0.00005172  0.74776723  1
  Fe  Fe23  1  0.62480796  0.62173867  0.37337049  1
  Fe  Fe24  1  0.74885513  0.49924818  0.24737611  1
  Fe  Fe25  1  0.25287909  0.75000569  0.00006661  1
  Fe  Fe26  1  0.25000912  0.49884708  0.00215128  1
  Fe  Fe27  1  0.00017369  0.75053964  0.25146495  1
  Fe  Fe28  1  0.50269840  0.24783226  0.25652538  1
  Fe  Fe29  1  0.74670482  0.75042529  0.74906009  1
  Fe  Fe30  1  0.12956202  0.12395264  0.37261763  1
  Fe  Fe31  1  0.50029819  0.00408576  0.00297883  1
  Fe  Fe32  1  0.87246026  0.12199390  0.87375430  1
  Fe  Fe33  1  -0.00067897  0.75049098  0.75125729  1
  Fe  Fe34  1  0.75177555  -0.00283362  0.50252991  1
  Fe  Fe35  1  0.12757428  0.87611640  0.87497426  1
  Fe  Fe36  1  0.12617795  0.62399014  0.87397771  1
  Fe  Fe37  1  -0.00065575  0.74990425  -0.00143068  1
  Fe  Fe38  1  0.00020651  0.49967217  0.24947010  1
  Fe  Fe39  1  0.12465516  0.62362358  0.62580435  1
  Fe  Fe40  1  0.74921416  0.24735097  0.25063332  1
  Fe  Fe41  1  0.87372794  0.62416107  0.37465964  1
  Fe  Fe42  1  0.25204825  0.75134946  0.49823264  1
  Fe  Fe43  1  0.37665424  0.87701806  0.87575560  1
  Fe  Fe44  1  0.74779278  0.24830582  -0.00066563  1
  Fe  Fe45  1  0.00060548  0.24952474  0.50102132  1
  Fe  Fe46  1  0.50328906  0.50030964  -0.00027869  1
  Fe  Fe47  1  0.12676424  0.12602098  0.62551071  1
  Fe  Fe48  1  0.37686866  0.13068726  0.62074453  1
  Fe  Fe49  1  0.50000151  0.00357924  0.75026974  1
  Fe  Fe50  1  -0.00108982  0.00076371  0.24942424  1
  Fe  Fe51  1  0.87177923  0.12371610  0.37483159  1
  Fe  Fe52  1  0.12548096  0.37452342  0.37491521  1
  Fe  Fe53  1  0.87450992  0.62501868  0.12470519  1
  Fe  Fe54  1  0.62249456  0.12657019  0.62452252  1
  Fe  Fe55  1  0.74680580  0.24764767  0.75060663  1
  Fe  Fe56  1  0.74754686  0.50062751  -0.00010325  1
  Fe  Fe57  1  0.12660900  0.62544509  0.12595033  1
  Fe  Fe58  1  0.25282409  0.75083169  0.74927197  1
  Fe  Fe59  1  0.25059061  0.49684301  0.50177671  1
  Fe  Fe60  1  0.12622228  0.87537634  0.12632447  1
  Fe  Fe61  1  0.12942468  0.12497266  0.87429759  1
  Fe  Fe62  1  0.87505737  0.37255706  0.12442880  1
  Fe  Fe63  1  0.62182162  0.87567822  0.87826923  1
  Fe  Fe64  1  0.62429838  0.88093969  0.37013029  1
  Fe  Fe65  1  0.87446052  0.12243717  0.62757354  1
  Fe  Fe66  1  -0.00123877  0.50090649  -0.00125767  1
  Fe  Fe67  1  0.00130226  0.00207303  0.00028168  1
  Fe  Fe68  1  0.62305888  0.37174551  0.12513794  1
  Fe  Fe69  1  0.00046205  0.24835088  0.24971544  1
  Fe  Fe70  1  0.74745472  0.25126474  0.50024227  1
  Fe  Fe71  1  0.74509589  0.50323541  0.75158672  1
  Fe  Fe72  1  0.50164040  0.49798301  0.49733140  1
  Fe  Fe73  1  0.12766748  0.62414261  0.37450574  1
  Fe  Fe74  1  0.87459428  0.87550407  0.12642468  1
  Fe  Fe75  1  0.37306579  0.37246283  0.37697575  1
  Fe  Fe76  1  0.74723378  0.00162348  0.00463902  1
  Fe  Fe77  1  -0.00137038  -0.00093768  0.49995254  1
  Fe  Fe78  1  0.37659553  0.62344075  0.87575350  1
  Fe  Fe79  1  0.74749306  0.75092482  0.24901185  1
  Fe  Fe80  1  0.37300733  0.12997405  0.12592954  1
  Fe  Fe81  1  0.50101525  0.74944179  0.49698152  1
  Fe  Fe82  1  0.12456986  0.87571395  0.62431591  1
  Fe  Fe83  1  0.37745549  0.37225661  0.12332028  1
  Fe  Fe84  1  0.12624418  0.37581796  0.87290847  1
  Fe  Fe85  1  0.25258334  -0.00166903  0.49746440  1
  Fe  Fe86  1  0.74808441  0.75038377  0.00210217  1
  Fe  Fe87  1  0.00150539  0.24789809  -0.00127192  1
  Fe  Fe88  1  0.37724177  0.87489222  0.62337224  1
  Fe  Fe89  1  0.25042013  0.00110261  0.00341456  1
  Co  Co90  1  0.63080042  0.11949571  0.37581150  1
  Co  Co91  1  0.12752843  0.12458139  0.12708861  1
  Co  Co92  1  0.49902572  0.49630817  0.25101016  1
  Co  Co93  1  0.75006320  0.00229280  0.24342604  1
  Co  Co94  1  0.37187227  0.12229106  0.87746312  1
  Co  Co95  1  0.74450886  -0.00130887  0.74800362  1
  Co  Co96  1  0.62625643  0.12358142  0.87581177  1
  Co  Co97  1  0.62321732  0.62499226  0.62179629  1
  Co  Co98  1  0.87630113  0.12736865  0.12393583  1
  Co  Co99  1  0.36947405  0.12964254  0.37567955  1
  Co  Co100  1  0.62104184  0.87573582  0.12635031  1
  Co  Co101  1  0.49640390  0.24676558  0.75641375  1
  Co  Co102  1  0.87631518  0.87560267  0.62824431  1
  Co  Co103  1  -0.00173666  0.50020008  0.75113075  1
  Co  Co104  1  0.62318515  0.62396149  0.12522187  1
  Co  Co105  1  0.87336574  0.87637267  0.37202953  1
  Co  Co106  1  0.62405153  0.37388785  0.87360931  1
  Co  Co107  1  0.50077900  0.50239868  0.75137770  1
  Co  Co108  1  0.37742682  0.37788858  0.87829898  1
  Co  Co109  1  0.24898582  0.25187744  -0.00062411  1
  Co  Co110  1  0.49984429  0.24753634  -0.00554270  1
  Co  Co111  1  0.37537471  0.62337436  0.37551570  1
  Co  Co112  1  0.50564233  0.24943706  0.49267711  1
  Co  Co113  1  0.24905856  0.25367211  0.24841806  1
  Co  Co114  1  0.37917139  0.87428902  0.37436193  1
  Co  Co115  1  0.49682923  0.74875776  0.00191395  1
  Co  Co116  1  0.12350484  0.37427038  0.62798996  1
  Co  Co117  1  0.62214614  0.12880978  0.12603856  1
  Co  Co118  1  0.00253058  0.00066398  0.75071097  1
  Co  Co119  1  0.87283641  0.62541931  0.87511766  1
  Co  Co120  1  0.62325522  0.62844145  0.87837737  1
  Co  Co121  1  0.25432467  -0.00264818  0.25078628  1
  Co  Co122  1  0.49694048  0.00619016  0.25052498  1
  Co  Co123  1  0.24673438  0.25271567  0.50178422  1
  Co  Co124  1  0.12496883  0.87616096  0.37504740  1
  Co  Co125  1  0.38252711  0.37119816  0.62218060  1
  Co  Co126  1  0.62856873  0.37691883  0.37340809  1
  Co  Co127  1  0.25112049  0.49710156  0.24926193  1
