# generated using pymatgen
data_Fe45Co19
_symmetry_space_group_name_H-M   'P 1'
_cell_length_a   11.41438406
_cell_length_b   11.41564888
_cell_length_c   11.41415624
_cell_angle_alpha   89.99971868
_cell_angle_beta   90.00315374
_cell_angle_gamma   89.99457111
_symmetry_Int_Tables_number   1
_chemical_formula_structural   Fe45Co19
_chemical_formula_sum   'Fe90 Co38'
_cell_volume   1487.29423369
_cell_formula_units_Z   2
loop_
 _symmetry_equiv_pos_site_id
 _symmetry_equiv_pos_as_xyz
  1  'x, y, z'
loop_
 _atom_site_type_symbol
 _atom_site_label
 _atom_site_symmetry_multiplicity
 _atom_site_fract_x
 _atom_site_fract_y
 _atom_site_fract_z
 _atom_site_occupancy
  Fe  Fe0  1  0.24838671  0.24874267  0.00209209  1
  Fe  Fe1  1  0.87383996  0.87677074  0.62260969  1
  Fe  Fe2  1  0.24927860  0.00002599  0.25143115  1
  Fe  Fe3  1  0.62811974  0.87504264  0.12898424  1
  Fe  Fe4  1  0.12659542  0.37387345  0.37716845  1
  Fe  Fe5  1  -0.00085600  0.74878226  0.49910745  1
  Fe  Fe6  1  0.25117220  -0.00173957  0.74913716  1
  Fe  Fe7  1  -0.00471894  0.25087635  0.25219509  1
  Fe  Fe8  1  0.49916565  0.74877133  0.49933447  1
  Fe  Fe9  1  0.75218967  0.75192455  0.00034032  1
  Fe  Fe10  1  0.49921564  0.24926577  0.00260115  1
  Fe  Fe11  1  0.00098090  0.00064038  0.49882538  1
  Fe  Fe12  1  0.87708012  0.12513463  0.87598761  1
  Fe  Fe13  1  -0.00000196  0.00080663  0.74931503  1
  Fe  Fe14  1  0.37619695  0.62665965  0.87537153  1
  Fe  Fe15  1  0.50080148  0.50063504  0.00230913  1
  Fe  Fe16  1  0.87594106  0.12395878  0.12375968  1
  Fe  Fe17  1  0.37505151  0.12500702  0.87620245  1
  Fe  Fe18  1  0.75211493  0.25161959  0.00149124  1
  Fe  Fe19  1  -0.00190303  0.74646139  0.25334749  1
  Fe  Fe20  1  0.62762288  0.37302681  0.37123850  1
  Fe  Fe21  1  -0.00252872  0.75205044  -0.00024906  1
  Fe  Fe22  1  0.00253960  0.49930878  0.74710343  1
  Fe  Fe23  1  0.87495446  0.62469618  0.87320122  1
  Fe  Fe24  1  -0.00106155  0.75119763  0.74828100  1
  Fe  Fe25  1  0.87649930  0.37399614  0.87375886  1
  Fe  Fe26  1  0.37484181  0.12543826  0.37511324  1
  Fe  Fe27  1  -0.00238017  0.00138105  0.25234639  1
  Fe  Fe28  1  0.24768825  0.00146255  0.00122974  1
  Fe  Fe29  1  0.12655245  0.87459002  0.62262842  1
  Fe  Fe30  1  0.74853677  0.49852491  0.74893795  1
  Fe  Fe31  1  0.62700279  0.37496532  0.12803030  1
  Fe  Fe32  1  0.87451002  0.62422225  0.12603629  1
  Fe  Fe33  1  0.62683718  0.12446041  0.12741900  1
  Fe  Fe34  1  0.24961998  0.74888578  0.00269556  1
  Fe  Fe35  1  0.12720229  0.12641878  0.62165454  1
  Fe  Fe36  1  0.62714688  0.62400664  0.37305043  1
  Fe  Fe37  1  0.49764946  0.75264278  0.74868232  1
  Fe  Fe38  1  0.49977435  0.74870397  0.25011808  1
  Fe  Fe39  1  0.50030266  -0.00054490  0.00014817  1
  Fe  Fe40  1  0.62480431  0.12626293  0.87472459  1
  Fe  Fe41  1  0.87239610  0.12641590  0.61882924  1
  Fe  Fe42  1  0.74822660  0.25146888  0.74693523  1
  Fe  Fe43  1  0.62500330  0.87421036  0.87530424  1
  Fe  Fe44  1  0.00180507  0.24921761  0.74734154  1
  Fe  Fe45  1  0.25096174  0.24964927  0.74827917  1
  Fe  Fe46  1  0.49877292  0.25243433  0.49919144  1
  Fe  Fe47  1  0.62531133  0.12644614  0.62194313  1
  Fe  Fe48  1  0.75026025  0.75261391  0.49664071  1
  Fe  Fe49  1  0.00116273  0.49792933  0.50114107  1
  Fe  Fe50  1  0.75304874  -0.00280046  0.00042014  1
  Fe  Fe51  1  0.49882236  0.25001324  0.24990331  1
  Fe  Fe52  1  0.49847255  0.49902966  0.49526999  1
  Fe  Fe53  1  0.50052230  0.49983217  0.75120566  1
  Fe  Fe54  1  0.75005051  0.49867142  -0.00005794  1
  Fe  Fe55  1  0.37391685  0.87362704  0.37557016  1
  Fe  Fe56  1  0.75046669  0.75010230  0.74906999  1
  Fe  Fe57  1  0.12215586  0.12552553  0.12450941  1
  Fe  Fe58  1  0.12449435  0.12786737  0.37649522  1
  Fe  Fe59  1  0.12221361  0.87399177  0.12669211  1
  Fe  Fe60  1  0.25046653  0.24877361  0.25024489  1
  Fe  Fe61  1  0.24880378  0.50129768  0.00024817  1
  Fe  Fe62  1  0.25155068  0.74650903  0.50104531  1
  Fe  Fe63  1  -0.00181939  0.50059674  0.25296201  1
  Fe  Fe64  1  0.50260882  -0.00063865  0.49736088  1
  Fe  Fe65  1  0.74996505  0.49540532  0.50107676  1
  Fe  Fe66  1  0.00038572  0.49938539  -0.00038566  1
  Fe  Fe67  1  0.62397468  0.62373290  0.62381036  1
  Fe  Fe68  1  0.37457201  0.37759574  0.62523791  1
  Fe  Fe69  1  0.24813617  0.50298368  0.25102679  1
  Fe  Fe70  1  0.37542600  0.37388783  0.87486624  1
  Fe  Fe71  1  0.12482591  0.62633059  0.87364573  1
  Fe  Fe72  1  0.37515740  0.62425964  0.12786948  1
  Fe  Fe73  1  0.62387758  0.62712185  0.87568519  1
  Fe  Fe74  1  0.62288584  0.37247289  0.87442908  1
  Fe  Fe75  1  0.12468458  0.87591613  0.87489147  1
  Fe  Fe76  1  0.62506291  0.87534593  0.62371298  1
  Fe  Fe77  1  0.37476775  0.12243470  0.62224807  1
  Fe  Fe78  1  0.87464989  0.62376912  0.62341205  1
  Fe  Fe79  1  0.49868264  -0.00152195  0.75028615  1
  Fe  Fe80  1  0.37482320  0.87573718  0.12514856  1
  Fe  Fe81  1  0.12566342  0.37332659  0.87405720  1
  Fe  Fe82  1  0.37435449  0.37593194  0.12772230  1
  Fe  Fe83  1  0.12285761  0.37559323  0.12629384  1
  Fe  Fe84  1  0.25299833  0.75031107  0.74703502  1
  Fe  Fe85  1  0.12577215  0.87266682  0.37493471  1
  Fe  Fe86  1  0.75034996  0.00036212  0.74890664  1
  Fe  Fe87  1  0.62749386  0.62494174  0.12772008  1
  Fe  Fe88  1  0.50103409  0.00135972  0.25201023  1
  Fe  Fe89  1  0.25053031  0.50269642  0.50022365  1
  Co  Co90  1  0.75465952  0.24802640  0.24900874  1
  Co  Co91  1  0.87502735  0.87618242  0.87208513  1
  Co  Co92  1  0.12848826  0.37407280  0.62329736  1
  Co  Co93  1  0.12424186  0.62553967  0.62536860  1
  Co  Co94  1  0.87629112  0.37432516  0.62613322  1
  Co  Co95  1  0.87277024  0.12607688  0.38104177  1
  Co  Co96  1  0.12206409  0.62456464  0.12575056  1
  Co  Co97  1  0.87540386  0.87513634  0.13020247  1
  Co  Co98  1  0.12472172  0.12460192  0.87492850  1
  Co  Co99  1  0.37482030  0.87698723  0.61995626  1
  Co  Co100  1  0.00107701  0.25113664  0.00036359  1
  Co  Co101  1  0.50091667  0.74997851  0.00353818  1
  Co  Co102  1  0.75284653  0.74934225  0.25400879  1
  Co  Co103  1  0.87338206  0.62207458  0.37866991  1
  Co  Co104  1  0.37201975  0.37569674  0.37239789  1
  Co  Co105  1  0.49860550  0.24850697  0.74750131  1
  Co  Co106  1  0.37412164  0.62607194  0.37230009  1
  Co  Co107  1  0.37517722  0.12414928  0.12591369  1
  Co  Co108  1  0.62666952  0.12977135  0.37557899  1
  Co  Co109  1  0.37772838  0.62205338  0.62556198  1
  Co  Co110  1  0.24917698  0.50081229  0.75093044  1
  Co  Co111  1  -0.00058260  -0.00232725  -0.00062641  1
  Co  Co112  1  0.75282612  0.49956052  0.25012978  1
  Co  Co113  1  0.25253632  0.24969582  0.49956201  1
  Co  Co114  1  0.74694053  -0.00289937  0.49563659  1
  Co  Co115  1  0.87410314  0.37422599  0.37622805  1
  Co  Co116  1  0.37420251  0.87498839  0.87866876  1
  Co  Co117  1  0.00040460  0.25220501  0.50007687  1
  Co  Co118  1  0.87703230  0.87695870  0.37455554  1
  Co  Co119  1  0.50097241  0.50015411  0.25078581  1
  Co  Co120  1  0.62344006  0.87353637  0.37241797  1
  Co  Co121  1  0.74837628  0.25509864  0.50144187  1
  Co  Co122  1  0.24753797  0.00068700  0.49625030  1
  Co  Co123  1  0.24895776  0.74957633  0.24879058  1
  Co  Co124  1  0.12554894  0.62513464  0.37645255  1
  Co  Co125  1  0.87616838  0.37625052  0.12485679  1
  Co  Co126  1  0.62128494  0.37617628  0.62556289  1
  Co  Co127  1  0.75066930  0.00208407  0.25450291  1
