# generated using pymatgen
data_Fe45Co19
_symmetry_space_group_name_H-M   'P 1'
_cell_length_a   11.41422927
_cell_length_b   11.41410864
_cell_length_c   11.41461972
_cell_angle_alpha   90.00488688
_cell_angle_beta   89.99348696
_cell_angle_gamma   89.99902516
_symmetry_Int_Tables_number   1
_chemical_formula_structural   Fe45Co19
_chemical_formula_sum   'Fe90 Co38'
_cell_volume   1487.13377364
_cell_formula_units_Z   2
loop_
 _symmetry_equiv_pos_site_id
 _symmetry_equiv_pos_as_xyz
  1  'x, y, z'
loop_
 _atom_site_type_symbol
 _atom_site_label
 _atom_site_symmetry_multiplicity
 _atom_site_fract_x
 _atom_site_fract_y
 _atom_site_fract_z
 _atom_site_occupancy
  Fe  Fe0  1  0.12654007  0.12451521  0.87219897  1
  Fe  Fe1  1  0.49943690  0.00039959  0.50267950  1
  Fe  Fe2  1  0.25125368  0.74982116  -0.00298965  1
  Fe  Fe3  1  0.49998237  0.49781593  0.74979959  1
  Fe  Fe4  1  0.37544812  0.37452987  0.87910254  1
  Fe  Fe5  1  0.37375872  0.62345302  0.12328254  1
  Fe  Fe6  1  0.25307231  0.25189446  0.24915487  1
  Fe  Fe7  1  0.87781393  0.12808295  0.37654490  1
  Fe  Fe8  1  0.12675888  0.62586393  0.62789312  1
  Fe  Fe9  1  0.62486057  0.62537066  0.62755418  1
  Fe  Fe10  1  0.37446371  0.12303122  0.12267253  1
  Fe  Fe11  1  0.37187387  0.87741862  0.12627491  1
  Fe  Fe12  1  0.74444710  0.49730445  0.49791889  1
  Fe  Fe13  1  0.75003647  0.00038139  0.25171198  1
  Fe  Fe14  1  0.50176127  0.50067099  -0.00037594  1
  Fe  Fe15  1  0.49656626  0.25007473  0.74953500  1
  Fe  Fe16  1  0.62392133  0.87549994  0.37564299  1
  Fe  Fe17  1  0.12624490  0.87714763  0.87367220  1
  Fe  Fe18  1  0.12204993  0.12787944  0.37434055  1
  Fe  Fe19  1  0.24987257  0.74862457  0.49780014  1
  Fe  Fe20  1  0.74752959  0.49941642  0.75530515  1
  Fe  Fe21  1  0.49627040  0.25431586  0.24889609  1
  Fe  Fe22  1  0.87330684  0.87637287  0.62359971  1
  Fe  Fe23  1  0.25422182  0.49537124  0.24820286  1
  Fe  Fe24  1  0.25047991  0.24835601  -0.00199568  1
  Fe  Fe25  1  0.87405281  0.62381204  0.37442142  1
  Fe  Fe26  1  0.87422033  0.12608468  0.62422874  1
  Fe  Fe27  1  0.87367034  0.87735564  0.87745573  1
  Fe  Fe28  1  0.00069734  0.49794547  0.50001490  1
  Fe  Fe29  1  0.74389626  0.00567568  -0.00193794  1
  Fe  Fe30  1  0.62369193  0.12615216  0.62666140  1
  Fe  Fe31  1  0.75189595  0.25094306  0.25030165  1
  Fe  Fe32  1  0.87265119  0.37527930  0.12185552  1
  Fe  Fe33  1  0.00194562  0.00073930  0.50143615  1
  Fe  Fe34  1  0.87517390  0.87656880  0.37727951  1
  Fe  Fe35  1  0.37380309  0.62495369  0.62514092  1
  Fe  Fe36  1  0.74997021  0.75006079  0.75244240  1
  Fe  Fe37  1  0.87362179  0.87702034  0.12235181  1
  Fe  Fe38  1  0.12570789  0.62421003  0.87367568  1
  Fe  Fe39  1  0.74806953  0.00076026  0.75146212  1
  Fe  Fe40  1  0.37790733  0.88001872  0.87511382  1
  Fe  Fe41  1  -0.00017742  0.75193669  0.25012677  1
  Fe  Fe42  1  0.74875013  0.49900309  0.25065635  1
  Fe  Fe43  1  0.12712695  0.62469599  0.12586991  1
  Fe  Fe44  1  0.12640026  0.12430016  0.12480949  1
  Fe  Fe45  1  0.00121113  -0.00043073  0.24948472  1
  Fe  Fe46  1  -0.00198982  0.50300216  0.00044501  1
  Fe  Fe47  1  0.12612594  0.37375152  0.62698068  1
  Fe  Fe48  1  0.37545768  0.37437841  0.61932653  1
  Fe  Fe49  1  0.12550360  0.37492466  0.87550831  1
  Fe  Fe50  1  0.62571653  0.87505068  0.12406029  1
  Fe  Fe51  1  0.87214573  0.37511438  0.62400865  1
  Fe  Fe52  1  0.49989232  0.74843078  0.49918299  1
  Fe  Fe53  1  0.50321924  0.24564918  0.00040601  1
  Fe  Fe54  1  0.87290457  0.37395977  0.87894406  1
  Fe  Fe55  1  0.25590467  0.00288299  0.74741230  1
  Fe  Fe56  1  0.49835937  0.74913319  0.24996189  1
  Fe  Fe57  1  -0.00063525  0.24715960  -0.00025851  1
  Fe  Fe58  1  0.74979663  0.24940310  0.75469214  1
  Fe  Fe59  1  0.87364703  0.62295535  0.62528295  1
  Fe  Fe60  1  0.25242701  0.49824068  0.75135179  1
  Fe  Fe61  1  0.49912192  -0.00089767  0.24852090  1
  Fe  Fe62  1  0.62490774  0.62506822  0.12557231  1
  Fe  Fe63  1  0.49864149  0.75238257  0.75109177  1
  Fe  Fe64  1  0.12603875  0.37450859  0.12276206  1
  Fe  Fe65  1  0.12631682  0.62349792  0.37307525  1
  Fe  Fe66  1  0.62283578  0.12586498  0.37267878  1
  Fe  Fe67  1  0.12977974  0.87578301  0.12830176  1
  Fe  Fe68  1  0.74851679  0.74925747  0.49922190  1
  Fe  Fe69  1  0.12371468  0.37251114  0.37425038  1
  Fe  Fe70  1  -0.00034906  0.74998136  0.00108284  1
  Fe  Fe71  1  0.62689211  0.37382258  0.12244020  1
  Fe  Fe72  1  -0.00092949  0.25004780  0.74951772  1
  Fe  Fe73  1  0.25033145  0.00154316  0.49981420  1
  Fe  Fe74  1  -0.00122609  0.75134947  0.74968138  1
  Fe  Fe75  1  0.62489105  0.87570971  0.62463350  1
  Fe  Fe76  1  0.49902003  0.75122389  -0.00119197  1
  Fe  Fe77  1  0.37782423  0.61792987  0.37614262  1
  Fe  Fe78  1  -0.00109930  0.49861007  0.75025229  1
  Fe  Fe79  1  0.74643250  0.25180148  0.49800491  1
  Fe  Fe80  1  0.37278270  0.87560878  0.37397764  1
  Fe  Fe81  1  0.24796901  0.25013213  0.50158089  1
  Fe  Fe82  1  0.74984406  0.75071790  0.25119947  1
  Fe  Fe83  1  0.00159279  0.75045502  0.49981498  1
  Fe  Fe84  1  0.37642837  0.12760433  0.37756205  1
  Fe  Fe85  1  0.87532595  0.12383841  0.12320444  1
  Fe  Fe86  1  -0.00111445  0.49682174  0.24982620  1
  Fe  Fe87  1  0.75083770  0.74510617  -0.00233116  1
  Fe  Fe88  1  0.12872237  0.87496199  0.62541442  1
  Fe  Fe89  1  -0.00143896  0.00066522  0.74978471  1
  Co  Co90  1  0.49805775  0.49690436  0.24580876  1
  Co  Co91  1  0.25326296  0.74593135  0.25153773  1
  Co  Co92  1  0.25068765  0.00517882  0.25194143  1
  Co  Co93  1  -0.00130528  0.25083849  0.24526610  1
  Co  Co94  1  0.74813577  0.00291959  0.49919696  1
  Co  Co95  1  0.37718002  0.37677246  0.38096878  1
  Co  Co96  1  0.25350611  0.25177483  0.75096743  1
  Co  Co97  1  0.00070340  0.25176428  0.50539477  1
  Co  Co98  1  0.12634479  0.12506475  0.62838090  1
  Co  Co99  1  0.62580862  0.37260601  0.62959703  1
  Co  Co100  1  0.37592395  0.12895523  0.62183255  1
  Co  Co101  1  0.74981234  0.50400281  -0.00203848  1
  Co  Co102  1  0.62374374  0.37358414  0.87815294  1
  Co  Co103  1  0.00304313  -0.00037128  0.00046262  1
  Co  Co104  1  0.62385780  0.12640974  0.13109279  1
  Co  Co105  1  0.62302439  0.62474276  0.37199057  1
  Co  Co106  1  0.61911127  0.12477298  0.87017183  1
  Co  Co107  1  0.37642878  0.62311709  0.87434094  1
  Co  Co108  1  0.37532182  0.37396639  0.11835177  1
  Co  Co109  1  0.50372494  0.00134069  0.00317599  1
  Co  Co110  1  0.87745696  0.62532579  0.87257969  1
  Co  Co111  1  0.62131079  0.62572716  0.87433856  1
  Co  Co112  1  0.87628733  0.37332928  0.37628368  1
  Co  Co113  1  0.87681780  0.12389632  0.87558165  1
  Co  Co114  1  0.49822107  -0.00065423  0.74519961  1
  Co  Co115  1  0.62458042  0.87541475  0.87547660  1
  Co  Co116  1  0.37699840  0.12309516  0.87685882  1
  Co  Co117  1  0.87494485  0.62482877  0.12900136  1
  Co  Co118  1  0.62017577  0.37486272  0.37049002  1
  Co  Co119  1  0.12792701  0.87548224  0.37317882  1
  Co  Co120  1  0.25202725  0.75032395  0.75366795  1
  Co  Co121  1  0.24988197  0.50072118  -0.00138474  1
  Co  Co122  1  0.24670769  0.49915075  0.50156088  1
  Co  Co123  1  0.25001578  -0.00007374  -0.00067031  1
  Co  Co124  1  0.50549146  0.25157065  0.50060757  1
  Co  Co125  1  0.37291605  0.87213682  0.62366372  1
  Co  Co126  1  0.50681036  0.49964918  0.50355334  1
  Co  Co127  1  0.74771110  0.24429665  -0.00104518  1
