# generated using pymatgen
data_Fe45Co19
_symmetry_space_group_name_H-M   'P 1'
_cell_length_a   11.42393516
_cell_length_b   11.42384576
_cell_length_c   11.42312099
_cell_angle_alpha   90.01211898
_cell_angle_beta   90.00092660
_cell_angle_gamma   89.99851184
_symmetry_Int_Tables_number   1
_chemical_formula_structural   Fe45Co19
_chemical_formula_sum   'Fe90 Co38'
_cell_volume   1490.77749236
_cell_formula_units_Z   2
loop_
 _symmetry_equiv_pos_site_id
 _symmetry_equiv_pos_as_xyz
  1  'x, y, z'
loop_
 _atom_site_type_symbol
 _atom_site_label
 _atom_site_symmetry_multiplicity
 _atom_site_fract_x
 _atom_site_fract_y
 _atom_site_fract_z
 _atom_site_occupancy
  Fe  Fe0  1  0.37678317  0.37686936  0.37609088  1
  Fe  Fe1  1  0.25359858  0.49542443  0.74900630  1
  Fe  Fe2  1  0.00189888  0.25128396  0.25192362  1
  Fe  Fe3  1  -0.00002757  0.49948563  0.25173519  1
  Fe  Fe4  1  0.24977332  0.75121650  0.75024144  1
  Fe  Fe5  1  0.87347733  0.62473362  0.37528095  1
  Fe  Fe6  1  -0.00182029  0.74870779  0.75198971  1
  Fe  Fe7  1  0.37456407  0.12735773  0.12791037  1
  Fe  Fe8  1  0.74896097  0.49979836  0.00034929  1
  Fe  Fe9  1  0.87374704  0.12666157  0.87474815  1
  Fe  Fe10  1  0.00246970  0.74921248  0.24856552  1
  Fe  Fe11  1  0.62553610  0.12389237  0.62306123  1
  Fe  Fe12  1  -0.00039474  0.50051967  -0.00271898  1
  Fe  Fe13  1  0.62420865  0.62452576  0.12443127  1
  Fe  Fe14  1  0.12637304  0.12448145  0.62598398  1
  Fe  Fe15  1  0.24862113  0.25297153  0.25228047  1
  Fe  Fe16  1  0.87388114  0.12738627  0.12835506  1
  Fe  Fe17  1  0.12702268  0.37832317  0.12563471  1
  Fe  Fe18  1  0.50070212  0.24871069  0.50000324  1
  Fe  Fe19  1  0.37470110  0.62571321  0.37304190  1
  Fe  Fe20  1  0.25445028  0.50055533  0.00171596  1
  Fe  Fe21  1  0.25078135  -0.00119012  0.49946507  1
  Fe  Fe22  1  0.50124459  0.74784671  -0.00019063  1
  Fe  Fe23  1  0.25090536  0.74952600  0.49980893  1
  Fe  Fe24  1  0.49913640  0.00132436  0.00033793  1
  Fe  Fe25  1  0.50339222  0.25280839  0.25164640  1
  Fe  Fe26  1  0.50198459  -0.00244151  0.25085813  1
  Fe  Fe27  1  0.37542874  0.87308724  0.12484400  1
  Fe  Fe28  1  -0.00247859  0.75004895  0.50008340  1
  Fe  Fe29  1  0.37534915  0.87380975  0.62524011  1
  Fe  Fe30  1  0.49767046  0.50542230  0.50515702  1
  Fe  Fe31  1  0.74967306  -0.00022275  0.00001565  1
  Fe  Fe32  1  0.75354293  0.49905245  0.74655877  1
  Fe  Fe33  1  0.75392035  0.75075024  0.74724585  1
  Fe  Fe34  1  0.62359968  0.37710508  0.62364379  1
  Fe  Fe35  1  0.12454917  0.62363523  0.62722782  1
  Fe  Fe36  1  -0.00276832  0.49831344  0.75203113  1
  Fe  Fe37  1  0.12371622  0.87510431  0.62499914  1
  Fe  Fe38  1  -0.00191947  0.50009515  0.49947843  1
  Fe  Fe39  1  0.74959560  0.74979796  0.00051288  1
  Fe  Fe40  1  0.25183905  0.00195791  -0.00088600  1
  Fe  Fe41  1  0.37528458  0.12488323  0.37379440  1
  Fe  Fe42  1  0.49789281  -0.00117419  0.49844166  1
  Fe  Fe43  1  0.74750865  0.49797833  0.25148466  1
  Fe  Fe44  1  0.62578300  0.12672771  0.12669141  1
  Fe  Fe45  1  0.49945147  0.25178558  0.00140974  1
  Fe  Fe46  1  0.24917416  0.25125704  0.49948665  1
  Fe  Fe47  1  0.75244857  -0.00202086  0.49737219  1
  Fe  Fe48  1  0.37648482  0.87416157  0.87502503  1
  Fe  Fe49  1  0.49986003  0.74583824  0.74603257  1
  Fe  Fe50  1  0.00218384  -0.00082320  0.25271605  1
  Fe  Fe51  1  0.12281302  0.37598533  0.62368519  1
  Fe  Fe52  1  0.62437768  0.87200126  0.62153237  1
  Fe  Fe53  1  0.37386021  0.12690353  0.62712577  1
  Fe  Fe54  1  0.87476990  0.62333866  0.12520087  1
  Fe  Fe55  1  0.37373713  0.12966084  0.87137311  1
  Fe  Fe56  1  0.12576856  0.12492509  0.12658738  1
  Fe  Fe57  1  0.87583343  0.87484937  0.12537789  1
  Fe  Fe58  1  0.37595996  0.62320333  0.87383702  1
  Fe  Fe59  1  0.25032208  0.49992349  0.49978700  1
  Fe  Fe60  1  0.87364768  0.37474097  0.12516656  1
  Fe  Fe61  1  0.00151453  0.24881156  0.49773844  1
  Fe  Fe62  1  0.24818202  -0.00278730  0.25085765  1
  Fe  Fe63  1  0.49986928  0.00071514  0.74932381  1
  Fe  Fe64  1  -0.00038639  0.00205752  -0.00084240  1
  Fe  Fe65  1  0.12489309  0.62395750  0.37541366  1
  Fe  Fe66  1  0.74750728  0.25166249  0.49660233  1
  Fe  Fe67  1  0.12832453  0.12673017  0.87265654  1
  Fe  Fe68  1  0.62425455  0.87352803  0.87417711  1
  Fe  Fe69  1  0.74980562  -0.00135050  0.75019705  1
  Fe  Fe70  1  0.87407705  0.12645355  0.62411022  1
  Fe  Fe71  1  0.00201843  0.25129855  -0.00033900  1
  Fe  Fe72  1  0.24647829  0.74904691  0.24785346  1
  Fe  Fe73  1  0.74846126  0.25122049  0.74980109  1
  Fe  Fe74  1  0.62092036  0.37873491  0.87352682  1
  Fe  Fe75  1  0.50001011  0.49976964  0.24689290  1
  Fe  Fe76  1  0.24834945  0.74691231  0.00119764  1
  Fe  Fe77  1  -0.00078460  0.00035890  0.75157854  1
  Fe  Fe78  1  0.74884892  0.25124562  -0.00025466  1
  Fe  Fe79  1  0.62354455  0.12566473  0.87464401  1
  Fe  Fe80  1  0.62526417  0.62257204  0.87182874  1
  Fe  Fe81  1  0.00058325  0.25206577  0.75172381  1
  Fe  Fe82  1  -0.00057661  0.00054855  0.49672945  1
  Fe  Fe83  1  0.74768508  -0.00115675  0.25233055  1
  Fe  Fe84  1  0.87442348  0.37416804  0.37550826  1
  Fe  Fe85  1  0.00126244  0.74653867  -0.00089924  1
  Fe  Fe86  1  0.50266109  0.75128828  0.25103026  1
  Fe  Fe87  1  0.12518585  0.87522020  0.87636996  1
  Fe  Fe88  1  0.74808584  0.75001531  0.25063755  1
  Fe  Fe89  1  0.62628553  0.62529156  0.38045509  1
  Co  Co90  1  0.50231866  0.25071429  0.74757707  1
  Co  Co91  1  0.36876345  0.62592267  0.62628000  1
  Co  Co92  1  0.87646920  0.37131732  0.62329393  1
  Co  Co93  1  0.74623302  0.25399133  0.25358322  1
  Co  Co94  1  0.25112026  -0.00205833  0.75004468  1
  Co  Co95  1  0.87580243  0.87327513  0.37160104  1
  Co  Co96  1  0.12520978  0.37714802  0.37598284  1
  Co  Co97  1  0.75291255  0.49810221  0.50146702  1
  Co  Co98  1  0.87397439  0.12680856  0.37350994  1
  Co  Co99  1  0.87257896  0.62440909  0.87580794  1
  Co  Co100  1  0.87517075  0.87472763  0.87708492  1
  Co  Co101  1  0.75586013  0.75113028  0.50152120  1
  Co  Co102  1  0.12511898  0.87261733  0.37715143  1
  Co  Co103  1  0.37750009  0.37312265  0.87582203  1
  Co  Co104  1  0.12778110  0.62205836  0.87217633  1
  Co  Co105  1  0.49586012  0.74662718  0.50174743  1
  Co  Co106  1  0.62479191  0.87504231  0.12311815  1
  Co  Co107  1  0.62468818  0.87211898  0.37995599  1
  Co  Co108  1  0.62080409  0.38052669  0.37900620  1
  Co  Co109  1  0.49800746  0.50083946  0.00268139  1
  Co  Co110  1  0.37421158  0.87301488  0.37314447  1
  Co  Co111  1  0.49682855  0.50196337  0.74514091  1
  Co  Co112  1  0.12756287  0.12464141  0.37495535  1
  Co  Co113  1  0.12787470  0.37721284  0.87663331  1
  Co  Co114  1  0.37631631  0.62822195  0.12743000  1
  Co  Co115  1  0.87699022  0.62380111  0.62414232  1
  Co  Co116  1  0.37708551  0.37217647  0.62189556  1
  Co  Co117  1  0.87317280  0.37409950  0.87656053  1
  Co  Co118  1  0.24840612  0.24967540  0.00117914  1
  Co  Co119  1  0.62572213  0.37516476  0.12304649  1
  Co  Co120  1  0.62373705  0.12332182  0.37552523  1
  Co  Co121  1  0.62995810  0.62610326  0.62314148  1
  Co  Co122  1  0.12443171  0.87630583  0.12183357  1
  Co  Co123  1  0.24865166  0.25577009  0.74694911  1
  Co  Co124  1  0.37346997  0.37320533  0.12658061  1
  Co  Co125  1  0.12379278  0.61982137  0.12519030  1
  Co  Co126  1  0.25145647  0.50081686  0.25112658  1
  Co  Co127  1  0.87776666  0.87785346  0.62542707  1
