# generated using pymatgen
data_Fe45Co19
_symmetry_space_group_name_H-M   'P 1'
_cell_length_a   11.41561373
_cell_length_b   11.41502468
_cell_length_c   11.41453806
_cell_angle_alpha   89.99604722
_cell_angle_beta   90.00102811
_cell_angle_gamma   90.00490145
_symmetry_Int_Tables_number   1
_chemical_formula_structural   Fe45Co19
_chemical_formula_sum   'Fe90 Co38'
_cell_volume   1487.42288048
_cell_formula_units_Z   2
loop_
 _symmetry_equiv_pos_site_id
 _symmetry_equiv_pos_as_xyz
  1  'x, y, z'
loop_
 _atom_site_type_symbol
 _atom_site_label
 _atom_site_symmetry_multiplicity
 _atom_site_fract_x
 _atom_site_fract_y
 _atom_site_fract_z
 _atom_site_occupancy
  Fe  Fe0  1  0.62588542  0.12553562  0.62376236  1
  Fe  Fe1  1  0.12372377  0.37221057  0.62481461  1
  Fe  Fe2  1  0.87257931  0.62748913  0.62684210  1
  Fe  Fe3  1  0.87462102  0.12606101  0.37616587  1
  Fe  Fe4  1  0.87230658  0.87183038  0.62752386  1
  Fe  Fe5  1  0.49798129  0.25014797  0.25149201  1
  Fe  Fe6  1  0.50312042  0.50059467  0.49782131  1
  Fe  Fe7  1  0.75064440  0.49771961  0.49780095  1
  Fe  Fe8  1  0.49959723  0.50166263  0.74873215  1
  Fe  Fe9  1  0.12318886  0.87503600  0.87415772  1
  Fe  Fe10  1  -0.00198693  0.49871844  0.50150435  1
  Fe  Fe11  1  0.12650344  0.87874561  0.37189176  1
  Fe  Fe12  1  0.87401307  0.87507156  0.37465694  1
  Fe  Fe13  1  0.62476717  0.12493750  0.37330716  1
  Fe  Fe14  1  0.12510052  0.62585639  0.62551365  1
  Fe  Fe15  1  0.87186634  0.62462645  0.12521121  1
  Fe  Fe16  1  0.12582528  0.62489323  0.12441532  1
  Fe  Fe17  1  0.37428497  0.12684702  0.12424852  1
  Fe  Fe18  1  0.37530544  0.62543156  0.62293132  1
  Fe  Fe19  1  0.00124806  0.74786312  -0.00077801  1
  Fe  Fe20  1  0.24957010  0.74930952  0.25062391  1
  Fe  Fe21  1  0.87103502  0.12370029  0.87894502  1
  Fe  Fe22  1  0.62035304  0.37650122  0.87741104  1
  Fe  Fe23  1  0.37356846  0.37428186  0.12576997  1
  Fe  Fe24  1  0.62424071  0.12297370  0.88117672  1
  Fe  Fe25  1  -0.00116087  0.00062639  0.74975603  1
  Fe  Fe26  1  -0.00189373  0.24901795  0.75085360  1
  Fe  Fe27  1  0.24999382  0.49892087  0.49911600  1
  Fe  Fe28  1  0.49817841  0.25062813  0.49743019  1
  Fe  Fe29  1  0.12498463  0.37331656  0.12281316  1
  Fe  Fe30  1  0.50022383  0.24835629  0.75151521  1
  Fe  Fe31  1  -0.00001501  0.24772517  0.24827062  1
  Fe  Fe32  1  0.12906285  0.12401514  0.12607050  1
  Fe  Fe33  1  0.62807425  0.62825980  0.62590994  1
  Fe  Fe34  1  0.87604979  0.62696027  0.87458511  1
  Fe  Fe35  1  0.37459347  0.62536427  0.12580149  1
  Fe  Fe36  1  0.62495487  0.37453743  0.62484063  1
  Fe  Fe37  1  -0.00002085  0.00016954  0.50044745  1
  Fe  Fe38  1  -0.00107869  0.49909694  0.24657610  1
  Fe  Fe39  1  0.25047702  0.49934896  -0.00028861  1
  Fe  Fe40  1  0.87049100  0.12620424  0.12104302  1
  Fe  Fe41  1  0.74998638  0.49846904  0.00218872  1
  Fe  Fe42  1  0.37485914  0.62376079  0.87572048  1
  Fe  Fe43  1  0.74881515  0.25126674  0.75234951  1
  Fe  Fe44  1  0.12661725  0.12504061  0.62459221  1
  Fe  Fe45  1  0.25034789  0.49884933  0.75030173  1
  Fe  Fe46  1  0.75122621  0.25354524  0.49900969  1
  Fe  Fe47  1  0.87747468  0.37337425  0.87983534  1
  Fe  Fe48  1  0.25254705  0.24994351  0.75333183  1
  Fe  Fe49  1  0.12442881  0.37584961  0.37293978  1
  Fe  Fe50  1  0.12567010  0.12482074  0.87519179  1
  Fe  Fe51  1  0.75043625  0.49859958  0.75114609  1
  Fe  Fe52  1  -0.00078150  0.75040349  0.25001960  1
  Fe  Fe53  1  0.37354922  0.12357581  0.62421115  1
  Fe  Fe54  1  0.00015078  0.50055059  0.75038103  1
  Fe  Fe55  1  0.62331813  0.62309581  0.87790991  1
  Fe  Fe56  1  0.25125331  0.25015731  0.49530809  1
  Fe  Fe57  1  0.74836300  -0.00206889  0.75137933  1
  Fe  Fe58  1  0.24999703  0.75259230  0.49934715  1
  Fe  Fe59  1  0.24972398  0.75108486  -0.00183154  1
  Fe  Fe60  1  0.49985795  0.74908036  0.00048755  1
  Fe  Fe61  1  0.62325214  0.87320713  0.12845985  1
  Fe  Fe62  1  0.37425945  0.62485095  0.37443087  1
  Fe  Fe63  1  0.87379279  0.12712247  0.62427451  1
  Fe  Fe64  1  0.12783325  0.12083673  0.37310218  1
  Fe  Fe65  1  0.74711656  -0.00314445  0.50029320  1
  Fe  Fe66  1  0.62927740  0.62895386  0.36964659  1
  Fe  Fe67  1  0.50128038  -0.00285868  0.49843023  1
  Fe  Fe68  1  0.25166186  -0.00209692  -0.00078295  1
  Fe  Fe69  1  0.37746267  0.12229077  0.87807299  1
  Fe  Fe70  1  0.12339024  0.37475275  0.87844650  1
  Fe  Fe71  1  0.25098803  0.75084299  0.75168948  1
  Fe  Fe72  1  0.62340910  0.37416835  0.12392692  1
  Fe  Fe73  1  0.87728641  0.87604779  0.12245037  1
  Fe  Fe74  1  0.12394830  0.87730067  0.12709732  1
  Fe  Fe75  1  0.50294688  0.75310702  0.49781382  1
  Fe  Fe76  1  0.12591246  0.87648771  0.62685399  1
  Fe  Fe77  1  0.50241004  0.50249880  0.24882161  1
  Fe  Fe78  1  -0.00032052  0.75048309  0.49940379  1
  Fe  Fe79  1  0.37783384  0.87650153  0.62896062  1
  Fe  Fe80  1  0.75101313  -0.00035784  0.24813641  1
  Fe  Fe81  1  0.37503418  0.87253646  0.12558680  1
  Fe  Fe82  1  0.87257785  0.62431422  0.37241794  1
  Fe  Fe83  1  0.61866412  0.87719043  0.87280878  1
  Fe  Fe84  1  0.49752759  -0.00038554  0.25005751  1
  Fe  Fe85  1  0.12497081  0.62394519  0.37443995  1
  Fe  Fe86  1  0.74878641  0.75381935  -0.00164002  1
  Fe  Fe87  1  0.75062969  0.25347610  0.24921340  1
  Fe  Fe88  1  0.37605265  0.37503854  0.62451452  1
  Fe  Fe89  1  0.00003195  0.00257874  0.00077009  1
  Co  Co90  1  0.74619115  0.25295484  0.00027548  1
  Co  Co91  1  0.62634559  0.87523853  0.36960107  1
  Co  Co92  1  0.49801719  0.50058129  0.00382608  1
  Co  Co93  1  0.74826262  0.75185665  0.49871638  1
  Co  Co94  1  0.87874920  0.87584482  0.87583585  1
  Co  Co95  1  0.37786722  0.37646607  0.87506567  1
  Co  Co96  1  0.49967347  0.24988369  0.00051865  1
  Co  Co97  1  0.25487577  -0.00083960  0.24767940  1
  Co  Co98  1  0.00138663  0.74907104  0.74959979  1
  Co  Co99  1  0.74852651  0.49572529  0.24834560  1
  Co  Co100  1  -0.00390917  0.00247061  0.24872826  1
  Co  Co101  1  0.50019027  -0.00029936  0.00590384  1
  Co  Co102  1  0.62397839  0.37313058  0.37502655  1
  Co  Co103  1  0.62526089  0.12619030  0.12726075  1
  Co  Co104  1  0.37518991  0.12263339  0.37517418  1
  Co  Co105  1  -0.00012903  0.50380383  0.00095470  1
  Co  Co106  1  0.87728917  0.37361389  0.12224805  1
  Co  Co107  1  0.25178098  -0.00131816  0.50067181  1
  Co  Co108  1  0.00205253  0.24830774  0.49801738  1
  Co  Co109  1  0.37581035  0.37962879  0.37372969  1
  Co  Co110  1  0.00099350  0.24514401  0.00181868  1
  Co  Co111  1  0.25135527  0.24984473  -0.00194718  1
  Co  Co112  1  0.62374825  0.87352458  0.62894906  1
  Co  Co113  1  0.12687627  0.62466215  0.87457844  1
  Co  Co114  1  0.87493290  0.37368378  0.62528008  1
  Co  Co115  1  0.74736943  0.75136055  0.75540782  1
  Co  Co116  1  0.75356171  0.75287434  0.24669876  1
  Co  Co117  1  0.74646419  -0.00488842  0.00184997  1
  Co  Co118  1  0.24926092  0.50087300  0.24838748  1
  Co  Co119  1  0.87770524  0.37502748  0.37398880  1
  Co  Co120  1  0.37903586  0.87678921  0.87391278  1
  Co  Co121  1  0.49974176  0.74502310  0.75058544  1
  Co  Co122  1  0.62788259  0.62698425  0.12440103  1
  Co  Co123  1  0.25043787  0.25027708  0.25245361  1
  Co  Co124  1  0.49845535  0.74805152  0.25031386  1
  Co  Co125  1  0.37366900  0.87373565  0.37319330  1
  Co  Co126  1  0.50127576  0.00549694  0.74837387  1
  Co  Co127  1  0.25069626  0.00049960  0.75237602  1
