# generated using pymatgen
data_Fe45Co19
_symmetry_space_group_name_H-M   'P 1'
_cell_length_a   11.41555368
_cell_length_b   11.41569344
_cell_length_c   11.41551788
_cell_angle_alpha   90.00306987
_cell_angle_beta   89.99623986
_cell_angle_gamma   89.99826181
_symmetry_Int_Tables_number   1
_chemical_formula_structural   Fe45Co19
_chemical_formula_sum   'Fe90 Co38'
_cell_volume   1487.62988704
_cell_formula_units_Z   2
loop_
 _symmetry_equiv_pos_site_id
 _symmetry_equiv_pos_as_xyz
  1  'x, y, z'
loop_
 _atom_site_type_symbol
 _atom_site_label
 _atom_site_symmetry_multiplicity
 _atom_site_fract_x
 _atom_site_fract_y
 _atom_site_fract_z
 _atom_site_occupancy
  Fe  Fe0  1  0.74690651  0.00122913  0.50091138  1
  Fe  Fe1  1  0.49883908  0.49889063  0.75092750  1
  Fe  Fe2  1  0.62342337  0.62493215  0.12430390  1
  Fe  Fe3  1  0.24996069  -0.00040815  0.24913215  1
  Fe  Fe4  1  0.00274045  0.75186250  0.74902646  1
  Fe  Fe5  1  0.12918315  0.87427780  0.62117611  1
  Fe  Fe6  1  0.00299956  -0.00182599  0.75022893  1
  Fe  Fe7  1  0.74967110  0.50158375  0.25109639  1
  Fe  Fe8  1  0.75167120  -0.00251242  -0.00130489  1
  Fe  Fe9  1  0.00177229  -0.00186362  0.24777740  1
  Fe  Fe10  1  0.87709666  0.62672589  0.87378417  1
  Fe  Fe11  1  -0.00226443  0.75277282  0.00328690  1
  Fe  Fe12  1  0.00032590  0.50059118  0.00125644  1
  Fe  Fe13  1  0.62264242  0.87087092  0.37890074  1
  Fe  Fe14  1  0.87650251  0.12159237  0.87301868  1
  Fe  Fe15  1  0.74976634  0.74696874  0.25182786  1
  Fe  Fe16  1  0.00257946  0.25031467  0.74912195  1
  Fe  Fe17  1  0.12765615  0.37508012  0.87529020  1
  Fe  Fe18  1  0.12698804  0.87239698  0.37539611  1
  Fe  Fe19  1  0.25330085  0.74919208  -0.00015520  1
  Fe  Fe20  1  0.50018078  0.74997404  0.25079752  1
  Fe  Fe21  1  0.62415778  0.87522272  0.87461142  1
  Fe  Fe22  1  0.12584206  0.87741398  0.88052354  1
  Fe  Fe23  1  0.37104816  0.62453578  0.62786699  1
  Fe  Fe24  1  0.74847440  0.25076195  -0.00183723  1
  Fe  Fe25  1  0.50129097  -0.00140153  0.25068508  1
  Fe  Fe26  1  0.49653571  0.75100875  -0.00096666  1
  Fe  Fe27  1  0.49582626  0.49812343  -0.00169787  1
  Fe  Fe28  1  0.24986432  0.49921170  0.25283317  1
  Fe  Fe29  1  0.87384214  0.87547682  0.62516005  1
  Fe  Fe30  1  0.25145196  0.25112256  0.25175174  1
  Fe  Fe31  1  0.62208092  0.62541625  0.87391202  1
  Fe  Fe32  1  0.62445660  0.12573766  0.12388440  1
  Fe  Fe33  1  0.12551702  0.62457900  0.12690506  1
  Fe  Fe34  1  0.62311182  0.87387702  0.62158028  1
  Fe  Fe35  1  0.87723181  0.62759271  0.62452319  1
  Fe  Fe36  1  0.87727458  0.37562193  0.37603903  1
  Fe  Fe37  1  0.74931463  0.75067627  0.74981662  1
  Fe  Fe38  1  0.75080811  0.24948292  0.49967847  1
  Fe  Fe39  1  0.12833645  0.37481310  0.62111462  1
  Fe  Fe40  1  0.49550798  0.75439879  0.74892707  1
  Fe  Fe41  1  0.87534450  0.37618858  0.87295045  1
  Fe  Fe42  1  -0.00024839  0.24975872  -0.00043525  1
  Fe  Fe43  1  0.25419814  0.50222476  -0.00195029  1
  Fe  Fe44  1  0.74899248  0.50266108  0.50017899  1
  Fe  Fe45  1  0.62645213  0.87375022  0.12562827  1
  Fe  Fe46  1  0.62461978  0.37358933  0.62531878  1
  Fe  Fe47  1  0.49889972  0.25198425  0.24942255  1
  Fe  Fe48  1  0.25437148  0.24786485  -0.00182485  1
  Fe  Fe49  1  0.74807663  0.24895144  0.75104601  1
  Fe  Fe50  1  0.12519048  0.12681819  0.37663110  1
  Fe  Fe51  1  0.12540450  0.37408572  0.37979612  1
  Fe  Fe52  1  0.37641341  0.62526276  0.37413310  1
  Fe  Fe53  1  0.62319901  0.62790292  0.62360581  1
  Fe  Fe54  1  0.12445258  0.12427610  0.12363915  1
  Fe  Fe55  1  0.37413436  0.11730634  0.62570851  1
  Fe  Fe56  1  0.87969469  0.62441579  0.37599610  1
  Fe  Fe57  1  0.37422036  0.87464276  0.12639889  1
  Fe  Fe58  1  0.87475312  0.12353860  0.62636807  1
  Fe  Fe59  1  0.62372136  0.12780930  0.37605711  1
  Fe  Fe60  1  0.49906887  0.50195437  0.50043723  1
  Fe  Fe61  1  0.62424046  0.37442046  0.12470730  1
  Fe  Fe62  1  0.62109153  0.12274840  0.87526426  1
  Fe  Fe63  1  0.74912210  0.50214820  0.74969119  1
  Fe  Fe64  1  0.25087919  0.74952895  0.25138740  1
  Fe  Fe65  1  0.00376867  0.50076561  0.74702096  1
  Fe  Fe66  1  0.00076514  0.25173343  0.24986676  1
  Fe  Fe67  1  0.37153764  0.37708854  0.62379103  1
  Fe  Fe68  1  0.87530826  0.37463992  0.62505822  1
  Fe  Fe69  1  0.49657574  0.24875440  0.50145684  1
  Fe  Fe70  1  0.49808029  0.24893414  0.75137476  1
  Fe  Fe71  1  0.00138368  -0.00088801  0.49912984  1
  Fe  Fe72  1  0.74712105  0.00023646  0.25234002  1
  Fe  Fe73  1  0.37784519  0.12555188  0.12381132  1
  Fe  Fe74  1  0.62354825  0.37465731  0.37618613  1
  Fe  Fe75  1  0.87444288  0.87490918  0.37604071  1
  Fe  Fe76  1  0.12587970  0.12187610  0.87733101  1
  Fe  Fe77  1  0.12656214  0.12409469  0.62227693  1
  Fe  Fe78  1  0.25142409  0.24747029  0.74997765  1
  Fe  Fe79  1  0.37525989  0.12297650  0.37525001  1
  Fe  Fe80  1  0.12575897  0.62567848  0.87401105  1
  Fe  Fe81  1  0.87446578  0.37492699  0.12537429  1
  Fe  Fe82  1  0.12834031  0.37501874  0.12369964  1
  Fe  Fe83  1  0.74985801  0.50145840  -0.00161827  1
  Fe  Fe84  1  0.25179606  0.75391370  0.75117619  1
  Fe  Fe85  1  0.87430736  0.12431127  0.12672107  1
  Fe  Fe86  1  0.75223969  0.74989652  -0.00027376  1
  Fe  Fe87  1  -0.00051653  0.75143245  0.24717968  1
  Fe  Fe88  1  0.49861753  0.49906279  0.24992666  1
  Fe  Fe89  1  0.87579693  0.12537305  0.37424030  1
  Co  Co90  1  0.87537064  0.62465677  0.12584113  1
  Co  Co91  1  0.37539614  0.87607025  0.37525806  1
  Co  Co92  1  0.37647569  0.12026891  0.87433421  1
  Co  Co93  1  0.50214918  -0.00269737  0.74898278  1
  Co  Co94  1  0.00222638  0.49741569  0.24885466  1
  Co  Co95  1  0.25326004  0.74766905  0.49842608  1
  Co  Co96  1  0.87587908  0.87510962  0.87161433  1
  Co  Co97  1  0.25264710  0.00079923  0.00353461  1
  Co  Co98  1  0.12176203  0.62779981  0.37335692  1
  Co  Co99  1  0.87161034  0.87598697  0.12850808  1
  Co  Co100  1  0.00287000  0.50209093  0.50352770  1
  Co  Co101  1  0.37268940  0.88021954  0.62158615  1
  Co  Co102  1  0.62341675  0.12671629  0.62506328  1
  Co  Co103  1  0.62182752  0.62611303  0.37607937  1
  Co  Co104  1  0.25340534  0.24715639  0.50048747  1
  Co  Co105  1  -0.00117693  0.24876479  0.50113078  1
  Co  Co106  1  0.37548116  0.62511599  0.12725150  1
  Co  Co107  1  0.37334231  0.37409896  0.12527288  1
  Co  Co108  1  0.24725261  -0.00173019  0.75115293  1
  Co  Co109  1  0.24880034  0.50502759  0.49698551  1
  Co  Co110  1  0.37521051  0.37546350  0.37740425  1
  Co  Co111  1  0.75101270  0.74792862  0.49977393  1
  Co  Co112  1  0.37299135  0.37458551  0.87248228  1
  Co  Co113  1  0.37557293  0.62536011  0.87120745  1
  Co  Co114  1  0.00124242  0.75115322  0.50109233  1
  Co  Co115  1  0.12824189  0.87427987  0.12410854  1
  Co  Co116  1  -0.00222603  -0.00226557  0.00266942  1
  Co  Co117  1  0.24736851  0.49969940  0.75071511  1
  Co  Co118  1  0.12882782  0.62853055  0.62570465  1
  Co  Co119  1  0.74982950  0.25095764  0.25041894  1
  Co  Co120  1  0.49347118  0.74856513  0.50186176  1
  Co  Co121  1  0.49969459  -0.00352131  0.00273769  1
  Co  Co122  1  0.24863552  -0.00057173  0.49619283  1
  Co  Co123  1  0.37371826  0.88051234  0.87532909  1
  Co  Co124  1  0.62421979  0.37658111  0.87297924  1
  Co  Co125  1  0.74623468  -0.00096469  0.74883106  1
  Co  Co126  1  0.49913135  0.25237725  -0.00196195  1
  Co  Co127  1  0.50176296  0.00065444  0.49858824  1
