# generated using pymatgen
data_Fe45Co19
_symmetry_space_group_name_H-M   'P 1'
_cell_length_a   11.41491037
_cell_length_b   11.41659371
_cell_length_c   11.41584137
_cell_angle_alpha   89.99449761
_cell_angle_beta   90.00697093
_cell_angle_gamma   90.00991939
_symmetry_Int_Tables_number   1
_chemical_formula_structural   Fe45Co19
_chemical_formula_sum   'Fe90 Co38'
_cell_volume   1487.70548859
_cell_formula_units_Z   2
loop_
 _symmetry_equiv_pos_site_id
 _symmetry_equiv_pos_as_xyz
  1  'x, y, z'
loop_
 _atom_site_type_symbol
 _atom_site_label
 _atom_site_symmetry_multiplicity
 _atom_site_fract_x
 _atom_site_fract_y
 _atom_site_fract_z
 _atom_site_occupancy
  Fe  Fe0  1  0.87405858  0.12301111  0.62556833  1
  Fe  Fe1  1  0.49675847  0.24982983  0.24848601  1
  Fe  Fe2  1  0.00306314  0.50185312  0.25045330  1
  Fe  Fe3  1  0.87494278  0.62610047  0.87564815  1
  Fe  Fe4  1  0.87282717  0.87609693  0.62518069  1
  Fe  Fe5  1  0.37093993  0.12610200  0.37423387  1
  Fe  Fe6  1  0.87750124  0.62755288  0.37332751  1
  Fe  Fe7  1  0.12371620  0.37336844  0.37667987  1
  Fe  Fe8  1  0.49840224  0.75052113  0.50108836  1
  Fe  Fe9  1  0.87490500  0.37532819  0.87619420  1
  Fe  Fe10  1  0.36762713  0.12142101  0.12577417  1
  Fe  Fe11  1  0.00055590  0.25130867  0.75133975  1
  Fe  Fe12  1  0.62711695  0.12485105  0.62331833  1
  Fe  Fe13  1  0.12569469  0.37416362  0.12343760  1
  Fe  Fe14  1  0.12656386  0.62592219  0.12267701  1
  Fe  Fe15  1  0.24920122  -0.00125374  0.50014453  1
  Fe  Fe16  1  0.49694552  0.75154536  0.00247039  1
  Fe  Fe17  1  0.00327343  0.24831050  0.25036824  1
  Fe  Fe18  1  0.12614505  0.62450028  0.62995773  1
  Fe  Fe19  1  0.37262417  0.12443827  0.62651673  1
  Fe  Fe20  1  0.49831439  0.25010863  0.50164418  1
  Fe  Fe21  1  0.00260157  0.24790555  -0.00185370  1
  Fe  Fe22  1  0.87742865  0.12463016  0.37686081  1
  Fe  Fe23  1  0.74845762  0.49965690  0.24991216  1
  Fe  Fe24  1  0.74925684  0.25038736  0.74931679  1
  Fe  Fe25  1  0.37266198  0.37658616  0.12624208  1
  Fe  Fe26  1  0.74937269  0.75259840  0.75193757  1
  Fe  Fe27  1  0.25222642  0.74996393  0.24869932  1
  Fe  Fe28  1  -0.00232251  0.75050437  0.75144289  1
  Fe  Fe29  1  0.00151167  -0.00063863  0.50077528  1
  Fe  Fe30  1  0.62255189  0.62680343  0.37311936  1
  Fe  Fe31  1  0.12549674  0.62771487  0.37501786  1
  Fe  Fe32  1  0.37320125  0.37597825  0.37300151  1
  Fe  Fe33  1  0.37673269  0.62211191  0.12577809  1
  Fe  Fe34  1  0.74907151  0.75280494  0.25130827  1
  Fe  Fe35  1  0.62427188  0.12454674  0.37496785  1
  Fe  Fe36  1  0.87460556  0.62421350  0.62581071  1
  Fe  Fe37  1  0.87621198  0.12361013  0.12393533  1
  Fe  Fe38  1  0.12636588  0.12493572  0.62738340  1
  Fe  Fe39  1  0.62277353  0.87584758  0.12535918  1
  Fe  Fe40  1  0.24880602  0.25132312  0.50276585  1
  Fe  Fe41  1  0.75168148  0.25035158  0.25033064  1
  Fe  Fe42  1  0.75026830  0.75417910  0.49685643  1
  Fe  Fe43  1  0.75007756  0.24918910  0.00074230  1
  Fe  Fe44  1  0.00513439  0.00049557  0.25145544  1
  Fe  Fe45  1  0.62433261  0.87643896  0.62335332  1
  Fe  Fe46  1  0.62206655  0.87694175  0.87631618  1
  Fe  Fe47  1  0.37668835  0.37542629  0.87177078  1
  Fe  Fe48  1  0.37160819  0.12268437  0.87309061  1
  Fe  Fe49  1  0.49472285  0.74881632  0.74772422  1
  Fe  Fe50  1  0.37554170  0.62315992  0.37453338  1
  Fe  Fe51  1  0.62163036  0.62502105  0.87660346  1
  Fe  Fe52  1  -0.00025443  0.74923250  0.50242616  1
  Fe  Fe53  1  0.87645041  0.37509295  0.12544189  1
  Fe  Fe54  1  0.25283134  0.75099210  -0.00428570  1
  Fe  Fe55  1  0.24961185  0.50100654  -0.00429229  1
  Fe  Fe56  1  0.75043569  0.75244774  0.00007558  1
  Fe  Fe57  1  0.62335399  0.37407320  0.12418879  1
  Fe  Fe58  1  0.62673863  0.12300991  0.87720469  1
  Fe  Fe59  1  0.87344842  0.12196066  0.87533536  1
  Fe  Fe60  1  0.87729371  0.87592280  0.12554452  1
  Fe  Fe61  1  0.50144597  0.49879519  0.50082111  1
  Fe  Fe62  1  0.00442610  -0.00047908  -0.00313425  1
  Fe  Fe63  1  0.49675425  -0.00081209  0.24861350  1
  Fe  Fe64  1  0.62147045  0.37435869  0.87352404  1
  Fe  Fe65  1  0.62441523  0.37276461  0.37510479  1
  Fe  Fe66  1  0.24788045  0.24855560  -0.00241765  1
  Fe  Fe67  1  0.87751828  0.37761443  0.62293359  1
  Fe  Fe68  1  0.00034199  0.75167359  -0.00141455  1
  Fe  Fe69  1  0.37693619  0.37668536  0.62907220  1
  Fe  Fe70  1  0.12449551  0.87211593  0.37558978  1
  Fe  Fe71  1  0.62539855  0.12372642  0.12490353  1
  Fe  Fe72  1  0.49755169  0.24705920  0.00050954  1
  Fe  Fe73  1  0.87454558  0.62559656  0.12543329  1
  Fe  Fe74  1  0.74746870  0.50078034  0.00084163  1
  Fe  Fe75  1  0.37539503  0.87406481  0.37524033  1
  Fe  Fe76  1  0.24800491  0.50011914  0.50073435  1
  Fe  Fe77  1  0.74844988  0.49997108  0.74981285  1
  Fe  Fe78  1  0.00074940  -0.00204436  0.75165607  1
  Fe  Fe79  1  0.75212383  0.25051748  0.50002131  1
  Fe  Fe80  1  0.25220708  0.74986476  0.50313617  1
  Fe  Fe81  1  0.62518183  0.62531467  0.62397365  1
  Fe  Fe82  1  0.75089289  -0.00198666  0.25260025  1
  Fe  Fe83  1  0.00137962  0.50096264  -0.00281483  1
  Fe  Fe84  1  0.12315363  0.37833927  0.62855346  1
  Fe  Fe85  1  0.12881639  0.87232897  0.62917584  1
  Fe  Fe86  1  0.49897810  0.00073189  0.50022895  1
  Fe  Fe87  1  0.50003315  0.00141710  0.74923702  1
  Fe  Fe88  1  0.75105660  0.49907799  0.49831379  1
  Fe  Fe89  1  0.12850955  0.87564671  0.12434659  1
  Co  Co90  1  0.25816427  0.74672646  0.75107551  1
  Co  Co91  1  0.75077886  -0.00193639  0.49771575  1
  Co  Co92  1  0.25196425  0.50367378  0.75294616  1
  Co  Co93  1  0.12669417  0.12551011  0.87133509  1
  Co  Co94  1  0.88047375  0.87423028  0.37498242  1
  Co  Co95  1  0.12812721  0.87057021  0.87102514  1
  Co  Co96  1  0.61997433  0.87625413  0.37499164  1
  Co  Co97  1  0.00252769  0.74969881  0.24698940  1
  Co  Co98  1  0.37896246  0.62338521  0.87721521  1
  Co  Co99  1  0.87809369  0.37470976  0.37469117  1
  Co  Co100  1  0.37477891  0.87716167  0.62486504  1
  Co  Co101  1  0.12759384  0.12655595  0.37774902  1
  Co  Co102  1  0.50062764  0.24562507  0.74999568  1
  Co  Co103  1  0.37156650  0.87824375  0.12333584  1
  Co  Co104  1  0.50027027  0.49800128  0.00168272  1
  Co  Co105  1  -0.00113839  0.50045321  0.75356800  1
  Co  Co106  1  0.25031589  -0.00231949  0.75000611  1
  Co  Co107  1  0.50128882  0.49911169  0.24897019  1
  Co  Co108  1  0.12843240  0.12371165  0.12407414  1
  Co  Co109  1  0.49833701  0.00233687  0.00171753  1
  Co  Co110  1  0.37486220  0.62167931  0.62157683  1
  Co  Co111  1  0.24749203  0.25067010  0.25040967  1
  Co  Co112  1  0.74819765  -0.00210764  0.75057592  1
  Co  Co113  1  0.50072280  0.50323679  0.74835032  1
  Co  Co114  1  0.62385081  0.37388687  0.62537039  1
  Co  Co115  1  0.00113908  0.24870385  0.50244674  1
  Co  Co116  1  0.37589369  0.87822509  0.87440211  1
  Co  Co117  1  0.24678918  0.50090694  0.25033861  1
  Co  Co118  1  0.00099824  0.50386351  0.49851834  1
  Co  Co119  1  0.24894637  0.25163744  0.74868661  1
  Co  Co120  1  0.24604860  -0.00100409  -0.00447731  1
  Co  Co121  1  0.12682481  0.37512739  0.87415624  1
  Co  Co122  1  0.87513336  0.87649220  0.87534720  1
  Co  Co123  1  0.49713354  0.75066529  0.24764996  1
  Co  Co124  1  0.62402314  0.62699887  0.12451206  1
  Co  Co125  1  0.24786054  -0.00234521  0.25374220  1
  Co  Co126  1  0.75034884  -0.00263311  0.00150354  1
  Co  Co127  1  0.12419786  0.62852540  0.87265712  1
