# generated using pymatgen
data_Fe45Co19
_symmetry_space_group_name_H-M   'P 1'
_cell_length_a   11.41395495
_cell_length_b   11.41449131
_cell_length_c   11.41602000
_cell_angle_alpha   90.00628733
_cell_angle_beta   89.98825450
_cell_angle_gamma   90.01610349
_symmetry_Int_Tables_number   1
_chemical_formula_structural   Fe45Co19
_chemical_formula_sum   'Fe90 Co38'
_cell_volume   1487.33024106
_cell_formula_units_Z   2
loop_
 _symmetry_equiv_pos_site_id
 _symmetry_equiv_pos_as_xyz
  1  'x, y, z'
loop_
 _atom_site_type_symbol
 _atom_site_label
 _atom_site_symmetry_multiplicity
 _atom_site_fract_x
 _atom_site_fract_y
 _atom_site_fract_z
 _atom_site_occupancy
  Fe  Fe0  1  0.37373819  0.37443008  0.37592443  1
  Fe  Fe1  1  0.12693204  0.87450743  0.62441615  1
  Fe  Fe2  1  0.37489559  0.12620579  0.37246465  1
  Fe  Fe3  1  0.24829688  0.24885465  0.24838437  1
  Fe  Fe4  1  0.62593889  0.12436855  0.37488105  1
  Fe  Fe5  1  0.87650679  0.37391050  0.62514887  1
  Fe  Fe6  1  0.62455600  0.12667738  0.87207094  1
  Fe  Fe7  1  0.37918312  0.62408378  0.12399702  1
  Fe  Fe8  1  0.62239477  0.62358710  0.62502453  1
  Fe  Fe9  1  0.62524054  0.37349266  0.62249721  1
  Fe  Fe10  1  0.37109677  0.87234886  0.37430478  1
  Fe  Fe11  1  0.87380964  0.37433358  0.37590391  1
  Fe  Fe12  1  0.62689390  0.37155961  0.87734485  1
  Fe  Fe13  1  0.63124681  0.87397673  0.37620367  1
  Fe  Fe14  1  0.24840909  0.49908681  0.00194886  1
  Fe  Fe15  1  0.75045429  0.00250106  0.00090634  1
  Fe  Fe16  1  0.74871393  0.49943398  0.24629462  1
  Fe  Fe17  1  0.87530458  0.87917475  0.62786293  1
  Fe  Fe18  1  0.75280619  -0.00223236  0.24467713  1
  Fe  Fe19  1  0.62830215  0.62738843  0.37472467  1
  Fe  Fe20  1  0.24986680  -0.00097621  0.24826474  1
  Fe  Fe21  1  0.25066764  0.50145504  0.74954327  1
  Fe  Fe22  1  0.37568713  0.37170654  0.12569950  1
  Fe  Fe23  1  0.12160643  0.37559515  0.62537400  1
  Fe  Fe24  1  0.62078151  0.12383684  0.12657725  1
  Fe  Fe25  1  0.24976776  0.50086343  0.24877464  1
  Fe  Fe26  1  0.75023019  0.24878608  0.24757698  1
  Fe  Fe27  1  0.12309532  0.37348144  0.12370582  1
  Fe  Fe28  1  0.49832167  -0.00114501  0.49747446  1
  Fe  Fe29  1  0.87513202  0.12202206  0.87012667  1
  Fe  Fe30  1  0.62357704  0.87656436  0.62513031  1
  Fe  Fe31  1  0.87753078  0.12216996  0.37215093  1
  Fe  Fe32  1  0.25013321  0.00067585  0.49983947  1
  Fe  Fe33  1  0.49618411  0.24491632  -0.00005385  1
  Fe  Fe34  1  0.49904722  0.49881090  0.75152901  1
  Fe  Fe35  1  0.49694391  0.74823723  0.75313336  1
  Fe  Fe36  1  0.62551710  0.87560666  0.87708471  1
  Fe  Fe37  1  0.50062389  0.00070019  0.75220186  1
  Fe  Fe38  1  0.50380038  0.75273803  0.24719222  1
  Fe  Fe39  1  0.87560637  0.37605646  0.87355991  1
  Fe  Fe40  1  0.12250975  0.62670303  0.12632381  1
  Fe  Fe41  1  -0.00124894  0.49953234  0.25014691  1
  Fe  Fe42  1  0.24748848  0.25177028  0.74993799  1
  Fe  Fe43  1  -0.00274731  0.75749280  0.25246815  1
  Fe  Fe44  1  -0.00028102  0.25098139  -0.00371252  1
  Fe  Fe45  1  0.00021410  0.50258605  0.49921999  1
  Fe  Fe46  1  -0.00073786  0.75569636  0.49674500  1
  Fe  Fe47  1  0.12506750  0.62221625  0.87550043  1
  Fe  Fe48  1  0.25282148  0.74853518  0.00082380  1
  Fe  Fe49  1  0.12012023  0.12481701  0.12633047  1
  Fe  Fe50  1  0.12475765  0.87558682  0.12318572  1
  Fe  Fe51  1  -0.00172894  0.24725036  0.49958841  1
  Fe  Fe52  1  0.12488613  0.37521297  0.37516277  1
  Fe  Fe53  1  0.62470439  0.62494434  0.87647076  1
  Fe  Fe54  1  0.87734710  0.62755101  0.62591687  1
  Fe  Fe55  1  0.00038849  0.75196362  -0.00326834  1
  Fe  Fe56  1  0.75116592  0.00482508  0.50556258  1
  Fe  Fe57  1  0.74596712  0.75050496  0.00440535  1
  Fe  Fe58  1  0.38102594  0.87907182  0.12306208  1
  Fe  Fe59  1  0.75044972  0.50083344  0.74970036  1
  Fe  Fe60  1  0.24861004  -0.00137785  0.75038800  1
  Fe  Fe61  1  0.87586719  0.62729005  0.12528003  1
  Fe  Fe62  1  0.37329857  0.87278534  0.62626111  1
  Fe  Fe63  1  0.37392900  0.87590289  0.87671079  1
  Fe  Fe64  1  0.75071020  0.49990059  0.00141101  1
  Fe  Fe65  1  0.50301505  0.49693015  0.25010120  1
  Fe  Fe66  1  0.00194638  0.75546394  0.75544909  1
  Fe  Fe67  1  0.50171985  0.49820348  -0.00032624  1
  Fe  Fe68  1  -0.00246411  -0.00165354  -0.00244168  1
  Fe  Fe69  1  0.24778739  0.24769579  0.50076612  1
  Fe  Fe70  1  0.24917773  0.50347992  0.50017638  1
  Fe  Fe71  1  0.74865999  0.75108101  0.74880042  1
  Fe  Fe72  1  0.50062696  0.24908345  0.49876398  1
  Fe  Fe73  1  0.50010185  0.74979905  0.50044884  1
  Fe  Fe74  1  0.37520405  0.62656732  0.37455516  1
  Fe  Fe75  1  0.37633594  0.37587141  0.62252150  1
  Fe  Fe76  1  0.87102804  0.62910715  0.37455428  1
  Fe  Fe77  1  0.12001160  0.12242858  0.62674399  1
  Fe  Fe78  1  0.75056746  0.50168878  0.50161069  1
  Fe  Fe79  1  0.25501491  0.00594347  0.00217811  1
  Fe  Fe80  1  0.37241538  0.37233817  0.87639002  1
  Fe  Fe81  1  0.87444073  0.37214330  0.12363389  1
  Fe  Fe82  1  0.62790554  0.37318790  0.37680475  1
  Fe  Fe83  1  0.12477696  0.62880876  0.62659067  1
  Fe  Fe84  1  0.12674025  0.62965438  0.37218576  1
  Fe  Fe85  1  0.37719192  0.12554920  0.62709272  1
  Fe  Fe86  1  0.75025229  0.24690209  0.74615634  1
  Fe  Fe87  1  0.12677703  0.12483359  0.87493386  1
  Fe  Fe88  1  0.12162531  0.12179956  0.37211894  1
  Fe  Fe89  1  0.87451076  0.62595038  0.87545963  1
  Co  Co90  1  0.25077810  0.74831070  0.50114069  1
  Co  Co91  1  0.74803155  0.75319060  0.24366076  1
  Co  Co92  1  0.50051060  0.75025939  -0.00068000  1
  Co  Co93  1  0.49829032  0.00651892  -0.00575216  1
  Co  Co94  1  0.13139515  0.87727222  0.88070369  1
  Co  Co95  1  0.87984334  0.12600016  0.12609690  1
  Co  Co96  1  0.61948548  0.12531539  0.62464934  1
  Co  Co97  1  0.25282204  0.75107671  0.24327724  1
  Co  Co98  1  0.86715917  0.87632741  0.37775116  1
  Co  Co99  1  0.74979854  0.75003191  0.50636294  1
  Co  Co100  1  0.00076648  -0.00284834  0.49699713  1
  Co  Co101  1  0.88145128  0.12100544  0.62979656  1
  Co  Co102  1  0.87562199  0.87336517  0.12015539  1
  Co  Co103  1  0.37993070  0.12378419  0.13205700  1
  Co  Co104  1  0.75329205  0.24496503  0.50227955  1
  Co  Co105  1  0.50137070  0.50059248  0.49738164  1
  Co  Co106  1  0.62284537  0.62265312  0.12414060  1
  Co  Co107  1  0.37239476  0.12696771  0.86841263  1
  Co  Co108  1  0.13079217  0.87495962  0.37419128  1
  Co  Co109  1  0.50080958  0.25248319  0.74990485  1
  Co  Co110  1  0.62569834  0.37074243  0.12115384  1
  Co  Co111  1  0.25062192  0.24657961  0.00213322  1
  Co  Co112  1  0.74624717  0.00124022  0.74874291  1
  Co  Co113  1  0.25071867  0.74879718  0.75411006  1
  Co  Co114  1  0.37484614  0.62254006  0.87808020  1
  Co  Co115  1  0.50105408  -0.00369707  0.25674489  1
  Co  Co116  1  0.50216125  0.25207593  0.25170323  1
  Co  Co117  1  0.00342979  -0.00627298  0.75574199  1
  Co  Co118  1  -0.00155101  0.49902361  0.00139248  1
  Co  Co119  1  0.00069296  0.25025236  0.75302420  1
  Co  Co120  1  -0.00022397  0.25298305  0.25083091  1
  Co  Co121  1  -0.00092653  0.50191899  0.74925848  1
  Co  Co122  1  0.75233145  0.24517397  -0.00093764  1
  Co  Co123  1  0.12520317  0.37787366  0.87534512  1
  Co  Co124  1  0.62084772  0.88137971  0.12119695  1
  Co  Co125  1  0.37638203  0.62464913  0.62418404  1
  Co  Co126  1  0.86837302  0.87515561  0.87602003  1
  Co  Co127  1  -0.00209040  -0.00787061  0.24999175  1
