# generated using pymatgen
data_Fe45Co19
_symmetry_space_group_name_H-M   'P 1'
_cell_length_a   11.41595755
_cell_length_b   11.41521591
_cell_length_c   11.41577917
_cell_angle_alpha   89.99655495
_cell_angle_beta   90.00390938
_cell_angle_gamma   90.00186541
_symmetry_Int_Tables_number   1
_chemical_formula_structural   Fe45Co19
_chemical_formula_sum   'Fe90 Co38'
_cell_volume   1487.65433582
_cell_formula_units_Z   2
loop_
 _symmetry_equiv_pos_site_id
 _symmetry_equiv_pos_as_xyz
  1  'x, y, z'
loop_
 _atom_site_type_symbol
 _atom_site_label
 _atom_site_symmetry_multiplicity
 _atom_site_fract_x
 _atom_site_fract_y
 _atom_site_fract_z
 _atom_site_occupancy
  Fe  Fe0  1  0.37600636  0.37769941  0.87785089  1
  Fe  Fe1  1  0.00119236  0.24982821  0.24962950  1
  Fe  Fe2  1  0.87322296  0.12454791  0.12258961  1
  Fe  Fe3  1  0.37418652  0.87718282  0.12588747  1
  Fe  Fe4  1  0.25046908  -0.00408211  -0.00357996  1
  Fe  Fe5  1  -0.00047151  0.74931946  0.50091405  1
  Fe  Fe6  1  0.25059012  -0.00307380  0.74866246  1
  Fe  Fe7  1  0.37822278  0.87278083  0.37452533  1
  Fe  Fe8  1  0.62561835  0.87562599  0.12823830  1
  Fe  Fe9  1  0.74660264  0.75013492  0.49835901  1
  Fe  Fe10  1  0.87503986  0.37583284  0.37402597  1
  Fe  Fe11  1  0.74634942  -0.00080003  0.49718371  1
  Fe  Fe12  1  0.37645241  0.12287420  0.87580400  1
  Fe  Fe13  1  0.12568900  0.87458688  0.37573515  1
  Fe  Fe14  1  0.61970074  0.62606404  0.37282092  1
  Fe  Fe15  1  0.00199361  0.75190466  0.00054853  1
  Fe  Fe16  1  0.87241631  0.87520002  0.12743079  1
  Fe  Fe17  1  0.00054186  0.50051513  0.50118309  1
  Fe  Fe18  1  0.12759234  0.12372400  0.12560673  1
  Fe  Fe19  1  0.62439756  0.62260724  0.87944822  1
  Fe  Fe20  1  0.00223925  0.49891082  0.00156442  1
  Fe  Fe21  1  0.24793815  0.25199083  -0.00114848  1
  Fe  Fe22  1  0.74921450  0.25050588  0.49968106  1
  Fe  Fe23  1  0.75240443  0.50053834  0.75061058  1
  Fe  Fe24  1  0.37940849  0.87192359  0.62722661  1
  Fe  Fe25  1  0.74863804  0.50364664  0.24735363  1
  Fe  Fe26  1  0.49983645  0.24892646  0.75071697  1
  Fe  Fe27  1  0.87418593  0.62692478  0.12409116  1
  Fe  Fe28  1  0.25319943  0.74713851  0.25142023  1
  Fe  Fe29  1  0.12478174  0.37255730  0.62580811  1
  Fe  Fe30  1  0.87655260  0.12666986  0.87798252  1
  Fe  Fe31  1  0.62030275  0.87727042  0.87373643  1
  Fe  Fe32  1  0.74890510  0.74820661  0.75069638  1
  Fe  Fe33  1  0.12735801  0.62539065  0.12475862  1
  Fe  Fe34  1  0.12979117  0.37618176  0.12995988  1
  Fe  Fe35  1  0.87513109  0.62454503  0.37514847  1
  Fe  Fe36  1  0.37166844  0.62153603  0.11776412  1
  Fe  Fe37  1  0.87624440  0.37403866  0.62464568  1
  Fe  Fe38  1  0.62388666  0.12480830  0.62315440  1
  Fe  Fe39  1  0.12838248  0.62945827  0.87522765  1
  Fe  Fe40  1  0.00076819  0.00171009  0.50361957  1
  Fe  Fe41  1  0.62393067  0.37620833  0.62668722  1
  Fe  Fe42  1  0.49726475  0.75149268  -0.00040361  1
  Fe  Fe43  1  0.12716661  0.62952683  0.62598287  1
  Fe  Fe44  1  0.49952655  0.25128361  0.50092266  1
  Fe  Fe45  1  0.62412225  0.62359005  0.62398584  1
  Fe  Fe46  1  0.74797080  0.24713259  0.25013048  1
  Fe  Fe47  1  -0.00018098  0.75010214  0.25061833  1
  Fe  Fe48  1  0.87616541  0.37272862  0.87783127  1
  Fe  Fe49  1  0.50125235  0.25205322  0.00223280  1
  Fe  Fe50  1  0.00054220  -0.00132744  0.00080564  1
  Fe  Fe51  1  0.74807187  0.49994156  0.49937328  1
  Fe  Fe52  1  0.25193528  0.50178380  0.49848180  1
  Fe  Fe53  1  0.25197423  0.24933308  0.75059253  1
  Fe  Fe54  1  0.62590349  0.37721373  0.87710469  1
  Fe  Fe55  1  0.37654648  0.62818341  0.62270651  1
  Fe  Fe56  1  0.37251303  0.12538465  0.12342141  1
  Fe  Fe57  1  0.62061352  0.87445761  0.36870678  1
  Fe  Fe58  1  0.62324720  0.37522651  0.37218031  1
  Fe  Fe59  1  0.25139427  0.50181902  0.75063475  1
  Fe  Fe60  1  0.87393116  0.87365227  0.62546463  1
  Fe  Fe61  1  0.37538301  0.37527614  0.62563368  1
  Fe  Fe62  1  0.00125659  0.00147493  0.74661314  1
  Fe  Fe63  1  -0.00082704  0.50304781  0.74906243  1
  Fe  Fe64  1  0.49808940  0.50092559  0.24460999  1
  Fe  Fe65  1  0.75037673  0.24890361  0.75120503  1
  Fe  Fe66  1  0.87730482  0.87437125  0.87339312  1
  Fe  Fe67  1  0.12242419  0.37350312  0.87165651  1
  Fe  Fe68  1  0.12700504  0.87486721  0.12652349  1
  Fe  Fe69  1  0.62300470  0.87528603  0.62863390  1
  Fe  Fe70  1  -0.00072437  0.00010586  0.24963929  1
  Fe  Fe71  1  0.12537659  0.62453265  0.37367082  1
  Fe  Fe72  1  0.25006918  0.25075900  0.49881648  1
  Fe  Fe73  1  0.74981008  0.00150208  0.75181849  1
  Fe  Fe74  1  0.74927226  0.75260263  -0.00059887  1
  Fe  Fe75  1  0.12542193  0.12374469  0.37651823  1
  Fe  Fe76  1  0.12543180  0.37699340  0.37249969  1
  Fe  Fe77  1  0.87497317  0.12519381  0.37657173  1
  Fe  Fe78  1  0.25174051  0.00040860  0.25244216  1
  Fe  Fe79  1  0.37741674  0.12400348  0.37765689  1
  Fe  Fe80  1  0.12449556  0.12474255  0.87413180  1
  Fe  Fe81  1  0.87214164  0.37379551  0.12376599  1
  Fe  Fe82  1  0.87550748  0.62630122  0.87605446  1
  Fe  Fe83  1  0.62705836  0.12073087  0.12403272  1
  Fe  Fe84  1  0.87472415  0.87471915  0.37421600  1
  Fe  Fe85  1  0.62285806  0.12218402  0.87753795  1
  Fe  Fe86  1  0.25174491  -0.00255707  0.50345477  1
  Fe  Fe87  1  0.49807600  0.50280416  0.75153263  1
  Fe  Fe88  1  0.49942681  0.24858531  0.24673009  1
  Fe  Fe89  1  0.37558752  0.37642352  0.37226975  1
  Co  Co90  1  0.25427288  0.50485087  0.25288572  1
  Co  Co91  1  0.37050010  0.37439002  0.12512552  1
  Co  Co92  1  -0.00093296  0.74888557  0.74876073  1
  Co  Co93  1  0.49817557  0.00282212  0.24932590  1
  Co  Co94  1  0.37478437  0.12631510  0.62439673  1
  Co  Co95  1  0.49885950  0.00343637  0.74758881  1
  Co  Co96  1  0.25108017  0.75045713  0.49821595  1
  Co  Co97  1  0.49993411  0.49746473  0.50065503  1
  Co  Co98  1  0.75184193  0.50088474  0.00121209  1
  Co  Co99  1  0.49880705  -0.00137199  0.00292376  1
  Co  Co100  1  0.75020214  0.00139074  0.25244420  1
  Co  Co101  1  0.12879177  0.12737313  0.62521907  1
  Co  Co102  1  0.38030339  0.62598859  0.37902975  1
  Co  Co103  1  0.75078538  0.74784294  0.25105518  1
  Co  Co104  1  0.75026694  -0.00323407  -0.00186769  1
  Co  Co105  1  0.49459782  0.74688033  0.24420432  1
  Co  Co106  1  0.74666800  0.24889980  -0.00150643  1
  Co  Co107  1  0.50060021  0.74389638  0.75282834  1
  Co  Co108  1  0.87143821  0.12434604  0.62309103  1
  Co  Co109  1  0.37988811  0.87644819  0.87169388  1
  Co  Co110  1  0.62184853  0.12595721  0.37645196  1
  Co  Co111  1  0.50352752  0.75265945  0.50059605  1
  Co  Co112  1  0.37206992  0.62322034  0.87975653  1
  Co  Co113  1  0.12390487  0.87178810  0.62493218  1
  Co  Co114  1  0.25059481  0.24700906  0.25286756  1
  Co  Co115  1  0.62840097  0.37538668  0.12523375  1
  Co  Co116  1  0.25314763  0.75322245  0.75220008  1
  Co  Co117  1  -0.00182014  0.50009951  0.24767562  1
  Co  Co118  1  0.12232953  0.87412938  0.87340657  1
  Co  Co119  1  0.87258046  0.62656075  0.62335095  1
  Co  Co120  1  0.00417219  0.25118090  0.00338626  1
  Co  Co121  1  0.50150319  0.49661894  0.00285345  1
  Co  Co122  1  0.25179792  0.75606565  -0.00131316  1
  Co  Co123  1  0.50086136  -0.00233997  0.50056813  1
  Co  Co124  1  0.24474881  0.49516955  -0.00278616  1
  Co  Co125  1  0.00115204  0.25027028  0.49911873  1
  Co  Co126  1  -0.00184278  0.24694371  0.74772097  1
  Co  Co127  1  0.62519146  0.62772241  0.12226426  1
