# generated using pymatgen
data_Fe45Co19
_symmetry_space_group_name_H-M   'P 1'
_cell_length_a   11.41415281
_cell_length_b   11.41469130
_cell_length_c   11.41508058
_cell_angle_alpha   89.99394131
_cell_angle_beta   90.00514932
_cell_angle_gamma   89.99537842
_symmetry_Int_Tables_number   1
_chemical_formula_structural   Fe45Co19
_chemical_formula_sum   'Fe90 Co38'
_cell_volume   1487.25976641
_cell_formula_units_Z   2
loop_
 _symmetry_equiv_pos_site_id
 _symmetry_equiv_pos_as_xyz
  1  'x, y, z'
loop_
 _atom_site_type_symbol
 _atom_site_label
 _atom_site_symmetry_multiplicity
 _atom_site_fract_x
 _atom_site_fract_y
 _atom_site_fract_z
 _atom_site_occupancy
  Fe  Fe0  1  0.12145616  0.12631494  0.62547097  1
  Fe  Fe1  1  0.12412950  0.37479823  0.62708825  1
  Fe  Fe2  1  0.88169085  0.62720412  0.37969478  1
  Fe  Fe3  1  0.75128493  0.00026612  -0.00217453  1
  Fe  Fe4  1  0.12301529  0.37511206  0.37291928  1
  Fe  Fe5  1  0.24871353  -0.00106939  0.49980268  1
  Fe  Fe6  1  0.62493035  0.12927564  0.37894523  1
  Fe  Fe7  1  -0.00280010  -0.00293913  0.50077862  1
  Fe  Fe8  1  0.25034116  0.74367814  0.75023936  1
  Fe  Fe9  1  0.62828815  0.62323007  0.62031564  1
  Fe  Fe10  1  0.50136876  0.74996605  0.49942954  1
  Fe  Fe11  1  0.12575522  0.37643700  0.12557770  1
  Fe  Fe12  1  0.37595158  0.62302689  0.62270215  1
  Fe  Fe13  1  0.75187071  0.24821772  0.74818127  1
  Fe  Fe14  1  0.50054882  0.74935911  0.25111443  1
  Fe  Fe15  1  0.87564061  0.36987881  0.36982497  1
  Fe  Fe16  1  0.25176614  0.25059629  0.00030146  1
  Fe  Fe17  1  0.24909284  0.24895420  0.25013745  1
  Fe  Fe18  1  0.24937336  0.50179741  -0.00227546  1
  Fe  Fe19  1  0.49985976  0.25135197  0.74850519  1
  Fe  Fe20  1  0.75057109  0.25095486  0.00164871  1
  Fe  Fe21  1  0.25001769  0.25047126  0.74939806  1
  Fe  Fe22  1  -0.00011063  0.00009357  0.25018892  1
  Fe  Fe23  1  0.37523399  0.12399850  0.62349127  1
  Fe  Fe24  1  0.87355808  0.37459925  0.87601199  1
  Fe  Fe25  1  0.49904639  -0.00195681  -0.00155755  1
  Fe  Fe26  1  0.74985857  0.49661711  0.49564359  1
  Fe  Fe27  1  0.62433572  0.12722228  0.87685992  1
  Fe  Fe28  1  0.50172985  0.49897124  -0.00083977  1
  Fe  Fe29  1  0.75282858  0.74785865  0.25231454  1
  Fe  Fe30  1  0.37546526  0.62408514  0.12513326  1
  Fe  Fe31  1  0.62711809  0.87432600  0.87259588  1
  Fe  Fe32  1  0.12270500  0.62676913  0.12369711  1
  Fe  Fe33  1  0.24978133  -0.00104073  -0.00209349  1
  Fe  Fe34  1  0.50169577  0.00060131  0.74884905  1
  Fe  Fe35  1  0.24740699  0.74895463  0.25016853  1
  Fe  Fe36  1  0.62679490  0.87482073  0.12605212  1
  Fe  Fe37  1  0.87468393  0.62444069  0.12247000  1
  Fe  Fe38  1  0.12100514  0.87216341  0.37306934  1
  Fe  Fe39  1  0.87503434  0.87636601  0.12756355  1
  Fe  Fe40  1  0.25020165  0.25053987  0.49942417  1
  Fe  Fe41  1  0.00082047  0.50165040  0.75360894  1
  Fe  Fe42  1  0.75174030  0.50137251  0.25177653  1
  Fe  Fe43  1  0.12368600  0.87388276  0.62922520  1
  Fe  Fe44  1  0.12201979  0.12522587  0.37623502  1
  Fe  Fe45  1  0.37433604  0.12150094  0.12752200  1
  Fe  Fe46  1  0.50100414  0.50108889  0.25249962  1
  Fe  Fe47  1  0.62761506  0.62503575  0.87783890  1
  Fe  Fe48  1  -0.00208314  0.75142623  -0.00095519  1
  Fe  Fe49  1  -0.00353182  0.25129347  0.50164931  1
  Fe  Fe50  1  0.49870311  0.75074615  -0.00002646  1
  Fe  Fe51  1  0.50266654  0.49799144  0.49709922  1
  Fe  Fe52  1  0.62778948  0.87353716  0.37622551  1
  Fe  Fe53  1  0.12573157  0.12258833  0.12499124  1
  Fe  Fe54  1  0.87504842  0.37395325  0.12785477  1
  Fe  Fe55  1  0.37388914  0.87322320  0.87268808  1
  Fe  Fe56  1  0.75166460  0.75145856  -0.00102502  1
  Fe  Fe57  1  0.87620600  0.12542768  0.12597005  1
  Fe  Fe58  1  0.62363240  0.12392958  0.12253515  1
  Fe  Fe59  1  0.37295543  0.37769224  0.87315892  1
  Fe  Fe60  1  0.37569305  0.87640269  0.37483167  1
  Fe  Fe61  1  0.74968259  0.50093591  0.75207421  1
  Fe  Fe62  1  0.62451055  0.12842199  0.62094489  1
  Fe  Fe63  1  0.37351748  0.87791662  0.12807810  1
  Fe  Fe64  1  0.00024542  0.25118209  0.00029576  1
  Fe  Fe65  1  0.24698452  0.50089750  0.49882537  1
  Fe  Fe66  1  0.75409768  0.00098135  0.50013463  1
  Fe  Fe67  1  0.62733099  0.62526315  0.12461747  1
  Fe  Fe68  1  0.74899127  0.00331755  0.25127224  1
  Fe  Fe69  1  0.12339337  0.12877149  0.87432093  1
  Fe  Fe70  1  -0.00061890  -0.00106922  -0.00287305  1
  Fe  Fe71  1  0.49679698  0.25261077  0.00049164  1
  Fe  Fe72  1  0.37435599  0.87459741  0.62511038  1
  Fe  Fe73  1  0.11932092  0.62428666  0.62164721  1
  Fe  Fe74  1  0.12525688  0.86973332  0.87378780  1
  Fe  Fe75  1  0.87408482  0.87727740  0.86855317  1
  Fe  Fe76  1  0.49944143  0.25004574  0.24976569  1
  Fe  Fe77  1  0.37407681  0.37791575  0.62525641  1
  Fe  Fe78  1  0.37427315  0.37643448  0.37412759  1
  Fe  Fe79  1  0.50317552  0.50014932  0.75064511  1
  Fe  Fe80  1  -0.00040376  0.49910444  -0.00096535  1
  Fe  Fe81  1  0.50089952  0.74739272  0.74953466  1
  Fe  Fe82  1  0.24768854  0.74837943  0.49861760  1
  Fe  Fe83  1  0.24737804  0.50339372  0.25200351  1
  Fe  Fe84  1  0.62591889  0.37604738  0.12749323  1
  Fe  Fe85  1  0.75435463  0.74508922  0.74689717  1
  Fe  Fe86  1  0.24871583  0.00200511  0.75085696  1
  Fe  Fe87  1  0.62871481  0.87416617  0.62496438  1
  Fe  Fe88  1  0.37669313  0.12223584  0.37585639  1
  Fe  Fe89  1  0.87469493  0.37766442  0.62660502  1
  Co  Co90  1  0.87331836  0.88042664  0.63181327  1
  Co  Co91  1  0.75538929  0.75152964  0.50196521  1
  Co  Co92  1  0.87552600  0.12583259  0.87433474  1
  Co  Co93  1  0.00041227  0.49319282  0.49806547  1
  Co  Co94  1  0.87350583  0.62318765  0.87833787  1
  Co  Co95  1  0.87566411  0.87482381  0.37203302  1
  Co  Co96  1  -0.00234284  0.25287490  0.74993766  1
  Co  Co97  1  0.87903425  0.12135757  0.62729814  1
  Co  Co98  1  0.37327223  0.37727506  0.12629470  1
  Co  Co99  1  0.62689359  0.37473745  0.62368473  1
  Co  Co100  1  0.37454550  0.62528185  0.37637742  1
  Co  Co101  1  -0.00399526  0.75685474  0.50583942  1
  Co  Co102  1  -0.00082768  0.74878849  0.24688267  1
  Co  Co103  1  0.00383216  0.00090268  0.75248204  1
  Co  Co104  1  0.37588105  0.62316685  0.87520436  1
  Co  Co105  1  -0.00459271  0.74531916  0.74838426  1
  Co  Co106  1  0.49690952  0.25397031  0.50057193  1
  Co  Co107  1  0.62623664  0.37277662  0.87484183  1
  Co  Co108  1  0.00399042  0.24920460  0.24743172  1
  Co  Co109  1  0.25223539  0.74991248  0.00199925  1
  Co  Co110  1  0.24648001  -0.00066767  0.25293797  1
  Co  Co111  1  -0.00127780  0.50108525  0.24909265  1
  Co  Co112  1  0.74729390  0.24700756  0.24749643  1
  Co  Co113  1  0.87681261  0.61930653  0.61969518  1
  Co  Co114  1  0.12394495  0.62761009  0.87708196  1
  Co  Co115  1  0.75603079  0.25113272  0.50291584  1
  Co  Co116  1  0.50503674  0.00042699  0.25178653  1
  Co  Co117  1  0.62649844  0.37123645  0.37396982  1
  Co  Co118  1  0.12409266  0.87563303  0.12420339  1
  Co  Co119  1  0.74939533  0.49700862  0.00139182  1
  Co  Co120  1  0.74552285  0.00573907  0.74952789  1
  Co  Co121  1  0.87647562  0.12738532  0.37334099  1
  Co  Co122  1  0.12646138  0.37434769  0.87494073  1
  Co  Co123  1  0.50104170  -0.00231367  0.50153750  1
  Co  Co124  1  0.37554352  0.12542944  0.87377793  1
  Co  Co125  1  0.11870489  0.62700055  0.37796992  1
  Co  Co126  1  0.24631354  0.50358172  0.74877471  1
  Co  Co127  1  0.62634281  0.62674726  0.37646825  1
