# generated using pymatgen
data_Fe45Co19
_symmetry_space_group_name_H-M   'P 1'
_cell_length_a   11.41640323
_cell_length_b   11.41676523
_cell_length_c   11.41518926
_cell_angle_alpha   90.01384507
_cell_angle_beta   89.99390322
_cell_angle_gamma   90.00640855
_symmetry_Int_Tables_number   1
_chemical_formula_structural   Fe45Co19
_chemical_formula_sum   'Fe90 Co38'
_cell_volume   1487.83739030
_cell_formula_units_Z   2
loop_
 _symmetry_equiv_pos_site_id
 _symmetry_equiv_pos_as_xyz
  1  'x, y, z'
loop_
 _atom_site_type_symbol
 _atom_site_label
 _atom_site_symmetry_multiplicity
 _atom_site_fract_x
 _atom_site_fract_y
 _atom_site_fract_z
 _atom_site_occupancy
  Fe  Fe0  1  0.87452778  0.62462784  0.37658161  1
  Fe  Fe1  1  0.62509585  0.12564863  0.87651933  1
  Fe  Fe2  1  0.00251135  0.24737162  0.49838512  1
  Fe  Fe3  1  0.12467804  0.12428825  0.12995397  1
  Fe  Fe4  1  0.62362340  0.12941934  0.37642481  1
  Fe  Fe5  1  0.49768037  0.00145111  0.00189641  1
  Fe  Fe6  1  0.37670192  0.62697174  0.12345140  1
  Fe  Fe7  1  0.37275937  0.12842952  0.87832587  1
  Fe  Fe8  1  -0.00012645  0.00037014  0.00042557  1
  Fe  Fe9  1  0.87728239  0.37469998  0.62257623  1
  Fe  Fe10  1  0.00191979  0.24840093  0.74783079  1
  Fe  Fe11  1  0.87565034  0.12559174  0.12776017  1
  Fe  Fe12  1  0.74872245  0.74818365  0.50045465  1
  Fe  Fe13  1  0.25197209  0.75102788  0.74944358  1
  Fe  Fe14  1  0.62517994  0.37648422  0.12416189  1
  Fe  Fe15  1  -0.00026845  -0.00005174  0.74982484  1
  Fe  Fe16  1  0.49978008  0.74857567  0.49934833  1
  Fe  Fe17  1  0.49909044  -0.00005230  0.25262184  1
  Fe  Fe18  1  0.75327747  0.50021994  0.75093879  1
  Fe  Fe19  1  0.25040874  0.49775119  0.75199985  1
  Fe  Fe20  1  0.62242886  0.62532387  0.12315367  1
  Fe  Fe21  1  0.25097122  -0.00272970  0.25122463  1
  Fe  Fe22  1  0.87519163  0.62340110  0.12217352  1
  Fe  Fe23  1  0.62475024  0.37471485  0.87687434  1
  Fe  Fe24  1  0.49986013  0.49733234  0.49893723  1
  Fe  Fe25  1  0.49778909  0.75010822  0.75233668  1
  Fe  Fe26  1  0.37492467  0.87668705  0.62240922  1
  Fe  Fe27  1  0.00458781  0.50300943  0.50072435  1
  Fe  Fe28  1  0.12550555  0.62573692  0.12509270  1
  Fe  Fe29  1  0.62429058  0.12666301  0.12697629  1
  Fe  Fe30  1  0.24535751  0.24972057  0.50075443  1
  Fe  Fe31  1  0.37430601  0.12805009  0.37595059  1
  Fe  Fe32  1  0.49721014  0.25343543  0.24986295  1
  Fe  Fe33  1  0.25108483  0.00062316  0.00385026  1
  Fe  Fe34  1  0.49661616  0.49667311  0.75329428  1
  Fe  Fe35  1  0.74997648  0.00264844  0.49934002  1
  Fe  Fe36  1  0.62309209  0.12677274  0.62188833  1
  Fe  Fe37  1  0.75147879  -0.00019065  0.00119706  1
  Fe  Fe38  1  0.62351513  0.62347478  0.62657284  1
  Fe  Fe39  1  0.49885940  0.00273936  0.74947254  1
  Fe  Fe40  1  0.87543900  0.87466024  0.12660275  1
  Fe  Fe41  1  -0.00081800  0.49733476  -0.00255994  1
  Fe  Fe42  1  -0.00008925  0.50117974  0.25053110  1
  Fe  Fe43  1  0.12552729  0.62642487  0.87366249  1
  Fe  Fe44  1  0.12546098  0.37710541  0.12621490  1
  Fe  Fe45  1  0.12505653  0.87297897  0.12762276  1
  Fe  Fe46  1  0.87537016  0.87582381  0.62228799  1
  Fe  Fe47  1  0.37280569  0.37458071  0.11823049  1
  Fe  Fe48  1  0.74874925  0.49739825  0.49953949  1
  Fe  Fe49  1  0.37472310  0.62344404  0.62604177  1
  Fe  Fe50  1  0.00123632  0.25020055  0.00096347  1
  Fe  Fe51  1  0.25322952  0.75137318  -0.00051251  1
  Fe  Fe52  1  0.75140294  0.00071968  0.74907706  1
  Fe  Fe53  1  0.25077566  0.00227095  0.74822331  1
  Fe  Fe54  1  0.12830619  0.37257583  0.87375552  1
  Fe  Fe55  1  0.12651188  0.87606514  0.87495205  1
  Fe  Fe56  1  0.37242599  0.37453553  0.62316626  1
  Fe  Fe57  1  0.00329166  0.00237324  0.49561852  1
  Fe  Fe58  1  0.75101807  0.24898419  0.74782832  1
  Fe  Fe59  1  0.75085917  0.75066408  -0.00147118  1
  Fe  Fe60  1  -0.00101692  0.50129314  0.74969108  1
  Fe  Fe61  1  0.49679706  0.25130706  0.75052485  1
  Fe  Fe62  1  -0.00092513  0.75170431  -0.00073978  1
  Fe  Fe63  1  0.37497858  0.12507358  0.62049706  1
  Fe  Fe64  1  0.62368070  0.87664631  0.87491729  1
  Fe  Fe65  1  0.62326855  0.62172902  0.37359416  1
  Fe  Fe66  1  0.87542002  0.12543824  0.87453248  1
  Fe  Fe67  1  0.62459934  0.62333155  0.87661795  1
  Fe  Fe68  1  0.25039147  0.25379396  0.24908443  1
  Fe  Fe69  1  0.62073667  0.87247838  0.12524072  1
  Fe  Fe70  1  0.37247840  0.87222035  0.37626704  1
  Fe  Fe71  1  0.12672016  0.12496848  0.87400843  1
  Fe  Fe72  1  0.62531967  0.87388172  0.37571041  1
  Fe  Fe73  1  0.24699437  0.50094017  0.50003474  1
  Fe  Fe74  1  -0.00105864  0.25250121  0.25245417  1
  Fe  Fe75  1  0.49657509  0.49749340  0.24973964  1
  Fe  Fe76  1  0.75237933  0.74910558  0.75052090  1
  Fe  Fe77  1  0.75298640  0.25398583  0.25348175  1
  Fe  Fe78  1  0.00244708  0.74780110  0.50015858  1
  Fe  Fe79  1  0.75002938  -0.00094143  0.25123693  1
  Fe  Fe80  1  0.75218897  0.25206840  0.00116464  1
  Fe  Fe81  1  0.62308885  0.87512169  0.62497205  1
  Fe  Fe82  1  0.75195203  0.49823469  0.25047097  1
  Fe  Fe83  1  0.62463312  0.37422263  0.62408284  1
  Fe  Fe84  1  0.12880025  0.62734846  0.37097084  1
  Fe  Fe85  1  -0.00168828  0.74992937  0.74845619  1
  Fe  Fe86  1  0.37341489  0.62409274  0.37417054  1
  Fe  Fe87  1  0.00039260  -0.00341754  0.25434534  1
  Fe  Fe88  1  0.75103104  0.74894152  0.25069329  1
  Fe  Fe89  1  0.12727267  0.87631826  0.62186496  1
  Co  Co90  1  0.49920884  0.49954532  -0.00102770  1
  Co  Co91  1  0.87589498  0.37277514  0.87280400  1
  Co  Co92  1  0.37390084  0.62299676  0.87419987  1
  Co  Co93  1  0.37124593  0.37086497  0.88034784  1
  Co  Co94  1  0.87639228  0.12456354  0.62409556  1
  Co  Co95  1  0.24827130  0.50224614  -0.00037085  1
  Co  Co96  1  0.75139387  0.49761295  -0.00062813  1
  Co  Co97  1  0.50021458  -0.00101683  0.49762666  1
  Co  Co98  1  0.24752360  0.00160859  0.49645365  1
  Co  Co99  1  0.75089684  0.25118039  0.49932716  1
  Co  Co100  1  0.12528661  0.12281882  0.62561933  1
  Co  Co101  1  0.25165210  0.24894288  0.74696657  1
  Co  Co102  1  0.37901399  0.87342851  0.12683606  1
  Co  Co103  1  0.87368399  0.62399159  0.62351164  1
  Co  Co104  1  0.87542102  0.87577886  0.87448646  1
  Co  Co105  1  0.87625033  0.62501646  0.87671759  1
  Co  Co106  1  0.50034858  0.74912763  0.25403440  1
  Co  Co107  1  0.87431564  0.12495857  0.37347474  1
  Co  Co108  1  0.50004180  0.25359515  0.50053231  1
  Co  Co109  1  0.25219038  0.49958119  0.24751039  1
  Co  Co110  1  0.87884119  0.37741996  0.37828022  1
  Co  Co111  1  0.37140352  0.37510494  0.37796360  1
  Co  Co112  1  0.12437608  0.37537154  0.62568606  1
  Co  Co113  1  0.12775086  0.62488090  0.62910428  1
  Co  Co114  1  0.12688348  0.86963672  0.37509053  1
  Co  Co115  1  0.25013385  0.74689068  0.50213343  1
  Co  Co116  1  0.49766392  0.75079774  -0.00481969  1
  Co  Co117  1  0.12745493  0.12703365  0.37042894  1
  Co  Co118  1  0.37409527  0.87916947  0.87413169  1
  Co  Co119  1  0.24458269  0.24728015  0.00363762  1
  Co  Co120  1  0.62331621  0.37473677  0.37394225  1
  Co  Co121  1  0.87464996  0.87412278  0.37699756  1
  Co  Co122  1  0.37483630  0.12580933  0.12736896  1
  Co  Co123  1  0.50218092  0.24920640  0.00090395  1
  Co  Co124  1  0.87684712  0.37574142  0.12600865  1
  Co  Co125  1  0.12552468  0.37678447  0.37379020  1
  Co  Co126  1  -0.00217553  0.74883833  0.25036746  1
  Co  Co127  1  0.25105397  0.74964933  0.24691656  1
