# generated using pymatgen
data_Fe45Co19
_symmetry_space_group_name_H-M   'P 1'
_cell_length_a   11.41577750
_cell_length_b   11.41306272
_cell_length_c   11.41337461
_cell_angle_alpha   89.98702205
_cell_angle_beta   89.99941387
_cell_angle_gamma   90.00350018
_symmetry_Int_Tables_number   1
_chemical_formula_structural   Fe45Co19
_chemical_formula_sum   'Fe90 Co38'
_cell_volume   1487.03694721
_cell_formula_units_Z   2
loop_
 _symmetry_equiv_pos_site_id
 _symmetry_equiv_pos_as_xyz
  1  'x, y, z'
loop_
 _atom_site_type_symbol
 _atom_site_label
 _atom_site_symmetry_multiplicity
 _atom_site_fract_x
 _atom_site_fract_y
 _atom_site_fract_z
 _atom_site_occupancy
  Fe  Fe0  1  0.62751507  0.87441672  0.62645980  1
  Fe  Fe1  1  0.62335453  0.87379983  0.12260663  1
  Fe  Fe2  1  0.24852718  -0.00182282  -0.00073180  1
  Fe  Fe3  1  0.49944438  0.49745962  0.25093394  1
  Fe  Fe4  1  0.62466637  0.62467942  0.62584138  1
  Fe  Fe5  1  0.12476173  0.37630571  0.87709755  1
  Fe  Fe6  1  0.49799259  0.24810619  0.50032391  1
  Fe  Fe7  1  0.87392361  0.62438177  0.62518864  1
  Fe  Fe8  1  -0.00060385  0.00091232  0.49909203  1
  Fe  Fe9  1  0.87634598  0.87277750  0.12718916  1
  Fe  Fe10  1  0.37341659  0.62486246  0.37313019  1
  Fe  Fe11  1  0.74681786  0.49667341  0.25042798  1
  Fe  Fe12  1  0.37458590  0.12215028  0.87104049  1
  Fe  Fe13  1  0.75174284  0.00013879  0.74935194  1
  Fe  Fe14  1  0.87509750  0.62092953  0.87747123  1
  Fe  Fe15  1  0.37579797  0.87740277  0.37526094  1
  Fe  Fe16  1  0.25372120  0.74961218  0.00470731  1
  Fe  Fe17  1  0.24969318  0.00233844  0.50092425  1
  Fe  Fe18  1  0.25142685  0.74826179  0.50079302  1
  Fe  Fe19  1  0.74858678  -0.00045527  0.49960550  1
  Fe  Fe20  1  0.25057164  0.00043195  0.24953868  1
  Fe  Fe21  1  0.62549438  0.62675963  0.87568841  1
  Fe  Fe22  1  0.74991902  0.25092149  -0.00044144  1
  Fe  Fe23  1  0.62532798  0.12400461  0.87447670  1
  Fe  Fe24  1  0.37424282  0.62608790  0.87538379  1
  Fe  Fe25  1  0.00128729  -0.00030091  0.24944414  1
  Fe  Fe26  1  0.87363568  0.87475164  0.37421958  1
  Fe  Fe27  1  0.49901802  -0.00342357  -0.00486198  1
  Fe  Fe28  1  0.37361788  0.12378065  0.63005064  1
  Fe  Fe29  1  0.37479331  0.87628673  0.62763081  1
  Fe  Fe30  1  0.62548914  0.37544110  0.62244788  1
  Fe  Fe31  1  0.87421395  0.12606805  0.62345941  1
  Fe  Fe32  1  0.37636150  0.12297869  0.12396750  1
  Fe  Fe33  1  0.62256006  0.37270365  0.12307401  1
  Fe  Fe34  1  0.75076264  0.25352048  0.49643199  1
  Fe  Fe35  1  0.75019781  0.74905236  0.49944207  1
  Fe  Fe36  1  0.12674203  0.87285814  0.37360576  1
  Fe  Fe37  1  0.12059494  0.87536885  0.62556325  1
  Fe  Fe38  1  0.87490546  0.37717299  0.62414960  1
  Fe  Fe39  1  0.25102055  0.50002156  0.74986512  1
  Fe  Fe40  1  0.62439467  0.62505636  0.37477296  1
  Fe  Fe41  1  0.87745047  0.12408472  0.87580134  1
  Fe  Fe42  1  -0.00118444  0.25102494  -0.00009928  1
  Fe  Fe43  1  0.49760662  0.25030099  0.25065315  1
  Fe  Fe44  1  0.12623514  0.12961188  0.37128840  1
  Fe  Fe45  1  0.87331801  0.62319111  0.37090573  1
  Fe  Fe46  1  0.24849702  0.49704634  0.24788251  1
  Fe  Fe47  1  0.12504884  0.12549088  0.62746771  1
  Fe  Fe48  1  0.49856087  0.49879502  0.75039254  1
  Fe  Fe49  1  0.62402298  0.12595932  0.12322460  1
  Fe  Fe50  1  0.49866676  0.74906452  0.50067119  1
  Fe  Fe51  1  0.74908038  0.49915389  0.75088795  1
  Fe  Fe52  1  0.50133985  0.50165942  -0.00134689  1
  Fe  Fe53  1  0.00438775  0.49678852  0.24742282  1
  Fe  Fe54  1  0.12240028  0.12321420  0.87466400  1
  Fe  Fe55  1  0.62520357  0.12733264  0.37435181  1
  Fe  Fe56  1  0.49907938  0.25102891  0.75108509  1
  Fe  Fe57  1  0.12770534  0.37575901  0.62191858  1
  Fe  Fe58  1  0.50187517  0.00212957  0.50261858  1
  Fe  Fe59  1  0.00125023  0.50105320  0.75230218  1
  Fe  Fe60  1  0.50126170  0.75361374  0.75379480  1
  Fe  Fe61  1  0.50186265  -0.00050783  0.25079242  1
  Fe  Fe62  1  0.12752774  0.62651689  0.37116193  1
  Fe  Fe63  1  0.25285566  0.24888541  -0.00264400  1
  Fe  Fe64  1  0.87772045  0.87438196  0.87297900  1
  Fe  Fe65  1  0.24807892  0.75071745  0.74860716  1
  Fe  Fe66  1  0.62431821  0.37430780  0.87626258  1
  Fe  Fe67  1  -0.00128310  0.74906121  0.49890518  1
  Fe  Fe68  1  0.12481307  0.62462621  0.62532936  1
  Fe  Fe69  1  0.12220652  0.87361425  0.87451397  1
  Fe  Fe70  1  0.00136927  0.50013834  0.49679537  1
  Fe  Fe71  1  0.37059132  0.37378312  0.37825170  1
  Fe  Fe72  1  0.24719414  0.50269192  0.00192729  1
  Fe  Fe73  1  0.12483356  0.87146133  0.12792204  1
  Fe  Fe74  1  0.87555279  0.12628238  0.12709582  1
  Fe  Fe75  1  -0.00026135  0.74517812  0.00229899  1
  Fe  Fe76  1  0.87515448  0.37775095  0.12217290  1
  Fe  Fe77  1  0.87427065  0.12699791  0.37087127  1
  Fe  Fe78  1  0.37557159  0.37528192  0.12068343  1
  Fe  Fe79  1  0.62471526  0.62585933  0.12526289  1
  Fe  Fe80  1  0.75279770  -0.00093013  0.00088262  1
  Fe  Fe81  1  0.49779430  0.75100909  0.24778293  1
  Fe  Fe82  1  0.37136328  0.37455252  0.62391956  1
  Fe  Fe83  1  0.49743077  0.50154521  0.50108760  1
  Fe  Fe84  1  0.74730083  -0.00173587  0.24948705  1
  Fe  Fe85  1  0.75114550  0.74822575  0.00113992  1
  Fe  Fe86  1  -0.00004861  0.25178946  0.75032731  1
  Fe  Fe87  1  0.75125169  0.25150623  0.75158190  1
  Fe  Fe88  1  0.12449139  0.12792746  0.12557866  1
  Fe  Fe89  1  0.00035904  0.25197366  0.49712473  1
  Co  Co90  1  0.75162929  0.74833562  0.75077221  1
  Co  Co91  1  0.62687063  0.12758096  0.62556264  1
  Co  Co92  1  0.12694463  0.37020502  0.12143348  1
  Co  Co93  1  0.12953088  0.37317397  0.37759610  1
  Co  Co94  1  0.74805892  0.75103952  0.24942024  1
  Co  Co95  1  0.37679250  0.87931734  0.12569981  1
  Co  Co96  1  0.37436193  0.37840010  0.87760085  1
  Co  Co97  1  0.00046460  -0.00169260  0.00317493  1
  Co  Co98  1  0.12795940  0.62668836  0.87510476  1
  Co  Co99  1  0.87348643  0.62143659  0.12714171  1
  Co  Co100  1  0.87683913  0.37801361  0.87699949  1
  Co  Co101  1  0.37635427  0.62116404  0.12545384  1
  Co  Co102  1  0.49837458  0.24844497  -0.00308091  1
  Co  Co103  1  0.87559484  0.87463747  0.62488984  1
  Co  Co104  1  0.74977685  0.50125609  0.49881682  1
  Co  Co105  1  -0.00016195  0.25437937  0.24929657  1
  Co  Co106  1  0.00495260  0.50325719  0.00299150  1
  Co  Co107  1  0.37632703  0.62699501  0.62935112  1
  Co  Co108  1  0.62923711  0.87502306  0.87688540  1
  Co  Co109  1  0.25079291  0.50535069  0.50099100  1
  Co  Co110  1  0.24998529  0.24480015  0.50104498  1
  Co  Co111  1  0.37557596  0.12279402  0.37402150  1
  Co  Co112  1  0.50320523  -0.00220190  0.75087825  1
  Co  Co113  1  0.24610431  -0.00189630  0.75083208  1
  Co  Co114  1  0.25622651  0.75140918  0.24855412  1
  Co  Co115  1  0.37160442  0.87357880  0.87381661  1
  Co  Co116  1  0.12587820  0.62921056  0.12929455  1
  Co  Co117  1  -0.00125659  0.00107408  0.74818023  1
  Co  Co118  1  0.25439547  0.25059916  0.24732379  1
  Co  Co119  1  -0.00252490  0.74938987  0.25142201  1
  Co  Co120  1  0.49761260  0.75032602  0.00052928  1
  Co  Co121  1  0.87635397  0.37739580  0.37351751  1
  Co  Co122  1  0.74652310  0.49893399  0.00020128  1
  Co  Co123  1  0.24916144  0.25166249  0.75245527  1
  Co  Co124  1  0.62222048  0.37492036  0.37809110  1
  Co  Co125  1  -0.00101744  0.74622436  0.74975276  1
  Co  Co126  1  0.62272844  0.87365468  0.37610756  1
  Co  Co127  1  0.74828827  0.25345044  0.24926438  1
