# generated using pymatgen
data_Fe45Co19
_symmetry_space_group_name_H-M   'P 1'
_cell_length_a   11.41639126
_cell_length_b   11.41644633
_cell_length_c   11.41552923
_cell_angle_alpha   89.99943052
_cell_angle_beta   90.00072983
_cell_angle_gamma   90.00328020
_symmetry_Int_Tables_number   1
_chemical_formula_structural   Fe45Co19
_chemical_formula_sum   'Fe90 Co38'
_cell_volume   1487.83863919
_cell_formula_units_Z   2
loop_
 _symmetry_equiv_pos_site_id
 _symmetry_equiv_pos_as_xyz
  1  'x, y, z'
loop_
 _atom_site_type_symbol
 _atom_site_label
 _atom_site_symmetry_multiplicity
 _atom_site_fract_x
 _atom_site_fract_y
 _atom_site_fract_z
 _atom_site_occupancy
  Fe  Fe0  1  0.12363816  0.37450726  0.12397486  1
  Fe  Fe1  1  0.37513983  0.62608191  0.87208174  1
  Fe  Fe2  1  0.12478855  0.87593438  0.62889543  1
  Fe  Fe3  1  0.12436015  0.12401844  0.12400887  1
  Fe  Fe4  1  0.87495732  0.87747695  0.12617867  1
  Fe  Fe5  1  0.25336585  -0.00033292  0.50101673  1
  Fe  Fe6  1  0.50210736  0.49938295  0.50020229  1
  Fe  Fe7  1  0.25182251  0.24772478  0.74840501  1
  Fe  Fe8  1  0.49831510  0.00105091  0.49738026  1
  Fe  Fe9  1  0.12495914  0.62659864  0.37776583  1
  Fe  Fe10  1  0.25205933  -0.00140527  0.25210684  1
  Fe  Fe11  1  0.37681712  0.37542703  0.37340632  1
  Fe  Fe12  1  0.62641234  0.12728610  0.87564751  1
  Fe  Fe13  1  0.62248130  0.12584893  0.12446539  1
  Fe  Fe14  1  0.37705361  0.87628545  0.63023308  1
  Fe  Fe15  1  -0.00187957  0.75017193  0.50151237  1
  Fe  Fe16  1  0.87464287  0.37369229  0.12495490  1
  Fe  Fe17  1  0.12584761  0.87398322  0.37697008  1
  Fe  Fe18  1  0.87350546  0.62575877  0.12110748  1
  Fe  Fe19  1  0.75233398  0.25119184  0.50162363  1
  Fe  Fe20  1  0.74889342  0.00323458  0.25158264  1
  Fe  Fe21  1  0.62373635  0.87342032  0.87291939  1
  Fe  Fe22  1  0.87018010  0.62076260  0.62147366  1
  Fe  Fe23  1  0.62432968  0.87599054  0.12514256  1
  Fe  Fe24  1  0.49834455  0.75161489  -0.00149022  1
  Fe  Fe25  1  0.12221326  0.37463904  0.62471148  1
  Fe  Fe26  1  0.37484572  0.62477699  0.12421704  1
  Fe  Fe27  1  0.49968822  0.00024876  -0.00305787  1
  Fe  Fe28  1  -0.00015228  0.50198164  0.75155401  1
  Fe  Fe29  1  0.24895175  0.50002482  0.25044593  1
  Fe  Fe30  1  0.24955327  0.49762916  -0.00217526  1
  Fe  Fe31  1  0.37527082  0.87580583  0.86858746  1
  Fe  Fe32  1  0.74698651  0.74453068  0.75187491  1
  Fe  Fe33  1  0.87274688  0.12509651  0.87453867  1
  Fe  Fe34  1  0.87201795  0.87559100  0.62803040  1
  Fe  Fe35  1  0.00031406  0.50168949  0.25041992  1
  Fe  Fe36  1  0.75040087  -0.00085844  -0.00156204  1
  Fe  Fe37  1  0.87744588  0.37359154  0.37668517  1
  Fe  Fe38  1  0.37600295  0.62480034  0.37680425  1
  Fe  Fe39  1  0.62551338  0.87595226  0.62665300  1
  Fe  Fe40  1  0.37735682  0.12482838  0.12449554  1
  Fe  Fe41  1  0.12516787  0.12489164  0.87322814  1
  Fe  Fe42  1  0.49925104  0.74969195  0.50353040  1
  Fe  Fe43  1  0.62762877  0.37365915  0.87457980  1
  Fe  Fe44  1  0.62428917  0.37328251  0.12514062  1
  Fe  Fe45  1  0.87097091  0.12254221  0.62468567  1
  Fe  Fe46  1  0.24992702  0.75065415  0.24970888  1
  Fe  Fe47  1  0.24833458  -0.00196664  -0.00259332  1
  Fe  Fe48  1  -0.00024183  0.49725026  -0.00288178  1
  Fe  Fe49  1  0.24692637  0.50220150  0.74939733  1
  Fe  Fe50  1  0.37766955  0.37466593  0.12714269  1
  Fe  Fe51  1  0.62465208  0.87574095  0.37600056  1
  Fe  Fe52  1  0.24777151  0.75369007  -0.00276282  1
  Fe  Fe53  1  0.75180705  0.24601146  0.24921955  1
  Fe  Fe54  1  0.24897954  0.49886376  0.50130096  1
  Fe  Fe55  1  0.87574336  0.87451321  0.87173466  1
  Fe  Fe56  1  0.49992924  0.49782123  0.00010237  1
  Fe  Fe57  1  0.12209546  0.37278755  0.37767893  1
  Fe  Fe58  1  -0.00263895  0.24882024  0.74739732  1
  Fe  Fe59  1  0.00017544  0.75015049  0.24978100  1
  Fe  Fe60  1  0.50539681  0.50514834  0.74977980  1
  Fe  Fe61  1  0.37606853  0.87649763  0.12664040  1
  Fe  Fe62  1  0.50003840  0.74958250  0.25010189  1
  Fe  Fe63  1  0.87273654  0.62421363  0.37756055  1
  Fe  Fe64  1  0.75002207  0.75062425  0.24980432  1
  Fe  Fe65  1  0.49994762  0.24616192  0.75088708  1
  Fe  Fe66  1  0.25149327  0.25134642  -0.00142302  1
  Fe  Fe67  1  0.62770385  0.37604743  0.62754333  1
  Fe  Fe68  1  0.12527098  0.62506129  0.12198309  1
  Fe  Fe69  1  0.00126613  0.74580005  0.74967415  1
  Fe  Fe70  1  0.87434964  0.87723406  0.37506879  1
  Fe  Fe71  1  0.87075335  0.37411696  0.87138058  1
  Fe  Fe72  1  0.00136677  -0.00204674  -0.00208523  1
  Fe  Fe73  1  0.12637310  0.12679526  0.37901657  1
  Fe  Fe74  1  0.62666812  0.62604406  0.12095193  1
  Fe  Fe75  1  0.49831088  0.24995018  0.49984379  1
  Fe  Fe76  1  0.62662471  0.62613379  0.37790931  1
  Fe  Fe77  1  -0.00132615  0.25014755  -0.00133185  1
  Fe  Fe78  1  -0.00084728  0.24661528  0.25007557  1
  Fe  Fe79  1  0.00098974  0.00140019  0.25164471  1
  Fe  Fe80  1  0.25179282  0.74954816  0.50524303  1
  Fe  Fe81  1  0.00230450  0.75380819  -0.00053384  1
  Fe  Fe82  1  0.37589716  0.37454508  0.87186981  1
  Fe  Fe83  1  0.62408596  0.37225982  0.37220811  1
  Fe  Fe84  1  -0.00171829  -0.00016973  0.50248827  1
  Fe  Fe85  1  0.37689241  0.37600869  0.62676638  1
  Fe  Fe86  1  0.74934571  0.49999041  0.24995894  1
  Fe  Fe87  1  0.25040016  0.25099723  0.25050467  1
  Fe  Fe88  1  0.12673335  0.12575964  0.62383113  1
  Fe  Fe89  1  0.62534410  0.12336802  0.62336834  1
  Co  Co90  1  -0.00354233  0.24862549  0.50466138  1
  Co  Co91  1  0.62907577  0.62406459  0.61928236  1
  Co  Co92  1  0.49938633  0.00016236  0.25339836  1
  Co  Co93  1  0.49897257  0.25149956  -0.00230253  1
  Co  Co94  1  0.74988986  0.24805540  0.74710572  1
  Co  Co95  1  0.12529299  0.62566955  0.87717291  1
  Co  Co96  1  0.50165021  0.00408154  0.75139944  1
  Co  Co97  1  0.62434406  0.62588229  0.88183783  1
  Co  Co98  1  0.75152191  0.75398202  0.50008452  1
  Co  Co99  1  0.37404806  0.12735303  0.37528654  1
  Co  Co100  1  0.75093832  0.75451116  -0.00104676  1
  Co  Co101  1  0.12385700  0.62392549  0.62353072  1
  Co  Co102  1  0.25136851  0.00339059  0.74923316  1
  Co  Co103  1  0.87497445  0.12432964  0.37784765  1
  Co  Co104  1  0.74827974  0.00021398  0.75191048  1
  Co  Co105  1  0.50370958  0.74584186  0.74806369  1
  Co  Co106  1  0.74804765  0.49423792  0.49703248  1
  Co  Co107  1  -0.00137748  0.00309392  0.74816906  1
  Co  Co108  1  0.12488792  0.37258318  0.87230631  1
  Co  Co109  1  0.00044598  0.50018139  0.49957759  1
  Co  Co110  1  0.37428877  0.12482147  0.87601918  1
  Co  Co111  1  0.12432847  0.87627561  0.86768983  1
  Co  Co112  1  0.37516048  0.87181895  0.37580361  1
  Co  Co113  1  0.12495016  0.87627961  0.12761639  1
  Co  Co114  1  0.50203952  0.50279455  0.24944748  1
  Co  Co115  1  0.37690642  0.12490105  0.62380364  1
  Co  Co116  1  0.75068817  0.24974591  0.00167012  1
  Co  Co117  1  0.24863031  0.74806872  0.74822534  1
  Co  Co118  1  0.87376665  0.38004097  0.62728344  1
  Co  Co119  1  0.75013511  0.49687459  -0.00034676  1
  Co  Co120  1  0.62558015  0.12622784  0.37734358  1
  Co  Co121  1  0.25307182  0.25340250  0.50166856  1
  Co  Co122  1  0.75030363  -0.00106055  0.50006538  1
  Co  Co123  1  0.87631170  0.12252659  0.12292583  1
  Co  Co124  1  0.37609370  0.62221505  0.62643210  1
  Co  Co125  1  0.87551923  0.62575507  0.87919252  1
  Co  Co126  1  0.74742795  0.50533198  0.75297028  1
  Co  Co127  1  0.49893539  0.24799940  0.25072914  1
