# generated using pymatgen
data_Fe45Co19
_symmetry_space_group_name_H-M   'P 1'
_cell_length_a   11.41320082
_cell_length_b   11.41473927
_cell_length_c   11.41384633
_cell_angle_alpha   90.00596193
_cell_angle_beta   89.99788500
_cell_angle_gamma   89.99492697
_symmetry_Int_Tables_number   1
_chemical_formula_structural   Fe45Co19
_chemical_formula_sum   'Fe90 Co38'
_cell_volume   1486.98117918
_cell_formula_units_Z   2
loop_
 _symmetry_equiv_pos_site_id
 _symmetry_equiv_pos_as_xyz
  1  'x, y, z'
loop_
 _atom_site_type_symbol
 _atom_site_label
 _atom_site_symmetry_multiplicity
 _atom_site_fract_x
 _atom_site_fract_y
 _atom_site_fract_z
 _atom_site_occupancy
  Fe  Fe0  1  0.49898775  0.74966550  0.00323592  1
  Fe  Fe1  1  0.00054047  -0.00014113  -0.00187084  1
  Fe  Fe2  1  0.49729172  0.00250047  0.50294731  1
  Fe  Fe3  1  0.75041390  0.00368177  0.24862999  1
  Fe  Fe4  1  0.62515703  0.12299464  0.87577681  1
  Fe  Fe5  1  0.37495674  0.62303988  0.37436411  1
  Fe  Fe6  1  0.50121071  0.75007298  0.49999988  1
  Fe  Fe7  1  0.37431459  0.37253551  0.62383328  1
  Fe  Fe8  1  0.87409442  0.37252712  0.62838908  1
  Fe  Fe9  1  0.37471399  0.37408516  0.87573254  1
  Fe  Fe10  1  0.62524467  0.87759090  0.87653540  1
  Fe  Fe11  1  0.49831303  0.00107009  0.00047109  1
  Fe  Fe12  1  0.12623124  0.87532012  0.62216442  1
  Fe  Fe13  1  0.12428629  0.12091808  0.87291079  1
  Fe  Fe14  1  -0.00156856  0.50038762  0.49758066  1
  Fe  Fe15  1  0.24960018  0.00189480  0.25200962  1
  Fe  Fe16  1  0.37198193  0.12865272  0.37690578  1
  Fe  Fe17  1  0.75402915  0.00460159  0.49951987  1
  Fe  Fe18  1  0.62333174  0.87908583  0.12610736  1
  Fe  Fe19  1  0.12628634  0.87558951  0.37795039  1
  Fe  Fe20  1  0.37604834  0.12492712  0.87143324  1
  Fe  Fe21  1  0.24782274  0.25167124  0.75020411  1
  Fe  Fe22  1  0.87505728  0.87639963  0.12588889  1
  Fe  Fe23  1  0.25233491  -0.00260266  0.74789646  1
  Fe  Fe24  1  0.37395662  0.87566855  0.37773668  1
  Fe  Fe25  1  0.87727646  0.37555675  0.12469703  1
  Fe  Fe26  1  0.74924610  0.50056875  0.75025427  1
  Fe  Fe27  1  0.12363251  0.37557941  0.62314113  1
  Fe  Fe28  1  0.87661053  0.62591202  0.37179134  1
  Fe  Fe29  1  0.87446539  0.37146833  0.87366367  1
  Fe  Fe30  1  0.24903778  0.75082126  0.25094038  1
  Fe  Fe31  1  0.75203022  0.00091054  0.75077044  1
  Fe  Fe32  1  0.87536282  0.87640589  0.87509551  1
  Fe  Fe33  1  0.62500952  0.37354404  0.12628092  1
  Fe  Fe34  1  0.75009879  0.50011808  0.49933953  1
  Fe  Fe35  1  -0.00131567  0.75030295  0.49939583  1
  Fe  Fe36  1  0.75053367  0.50131143  0.00206200  1
  Fe  Fe37  1  0.74828370  0.74998010  0.24978834  1
  Fe  Fe38  1  0.49970821  0.24923504  0.00018076  1
  Fe  Fe39  1  0.50114160  0.50051899  0.74808031  1
  Fe  Fe40  1  -0.00270276  0.00116720  0.50102625  1
  Fe  Fe41  1  0.87318050  0.37127685  0.37338149  1
  Fe  Fe42  1  0.87508224  0.62669801  0.87541458  1
  Fe  Fe43  1  0.50154100  0.49759903  0.49946419  1
  Fe  Fe44  1  0.24984528  0.75130389  0.74863711  1
  Fe  Fe45  1  0.00224374  0.75126225  0.00072214  1
  Fe  Fe46  1  0.12655293  0.37630984  0.87833236  1
  Fe  Fe47  1  0.12619191  0.12462133  0.62573025  1
  Fe  Fe48  1  0.25035192  0.49934588  0.75020017  1
  Fe  Fe49  1  0.62465286  0.87934608  0.37498359  1
  Fe  Fe50  1  0.12401105  0.12646576  0.37539415  1
  Fe  Fe51  1  0.74953614  0.75021300  0.00185224  1
  Fe  Fe52  1  0.00268625  0.25087909  0.24726893  1
  Fe  Fe53  1  0.12782629  0.87909195  0.12290151  1
  Fe  Fe54  1  -0.00260101  0.24866661  0.50194135  1
  Fe  Fe55  1  0.37405150  0.87767278  0.12541683  1
  Fe  Fe56  1  0.12622052  0.62658420  0.87516794  1
  Fe  Fe57  1  0.37365866  0.87419475  0.87637057  1
  Fe  Fe58  1  0.49987330  0.75080310  0.25011232  1
  Fe  Fe59  1  0.37330358  0.62263252  0.12787849  1
  Fe  Fe60  1  0.24826206  0.49780158  0.49643834  1
  Fe  Fe61  1  0.50187379  0.75175935  0.74761885  1
  Fe  Fe62  1  -0.00057116  0.50094444  -0.00000477  1
  Fe  Fe63  1  0.50163871  0.24967774  0.50065304  1
  Fe  Fe64  1  0.87831939  0.12257029  0.12590408  1
  Fe  Fe65  1  0.12513122  0.62509339  0.62279144  1
  Fe  Fe66  1  -0.00045319  0.49972843  0.75045597  1
  Fe  Fe67  1  0.49859531  0.50026034  0.00271962  1
  Fe  Fe68  1  0.62293783  0.62213372  0.37280135  1
  Fe  Fe69  1  0.62776469  0.37319908  0.62354019  1
  Fe  Fe70  1  0.87508582  0.87663917  0.37438463  1
  Fe  Fe71  1  0.62897321  0.87489825  0.62358780  1
  Fe  Fe72  1  0.37461626  0.62628326  0.87519137  1
  Fe  Fe73  1  0.62426332  0.62472841  0.87620138  1
  Fe  Fe74  1  0.87120094  0.62890111  0.62518034  1
  Fe  Fe75  1  0.75054956  0.50076532  0.24752159  1
  Fe  Fe76  1  0.37375541  0.12602406  0.12659349  1
  Fe  Fe77  1  0.75021994  0.24558355  0.00214384  1
  Fe  Fe78  1  0.37055121  0.37329471  0.12463477  1
  Fe  Fe79  1  0.24525493  0.49364485  0.25441359  1
  Fe  Fe80  1  0.62716173  0.12718971  0.37419212  1
  Fe  Fe81  1  0.37467978  0.62541515  0.62318216  1
  Fe  Fe82  1  0.62496887  0.37517167  0.87649374  1
  Fe  Fe83  1  0.50346936  0.24840121  0.74821440  1
  Fe  Fe84  1  0.50049699  0.25119060  0.25155579  1
  Fe  Fe85  1  0.87552559  0.12768516  0.63126074  1
  Fe  Fe86  1  0.00160439  0.75165759  0.24937016  1
  Fe  Fe87  1  -0.00031597  0.75335986  0.74901482  1
  Fe  Fe88  1  0.00271919  0.24768870  -0.00120630  1
  Fe  Fe89  1  0.12446202  0.62167294  0.12665918  1
  Co  Co90  1  0.74832742  0.74897331  0.49375430  1
  Co  Co91  1  0.00112710  0.49714915  0.25180739  1
  Co  Co92  1  0.62625998  0.12309637  0.62489330  1
  Co  Co93  1  0.00224436  -0.00197955  0.25166599  1
  Co  Co94  1  0.24892477  0.24577440  -0.00148153  1
  Co  Co95  1  0.49958662  0.49584848  0.24888145  1
  Co  Co96  1  0.75155041  0.00271424  0.00184689  1
  Co  Co97  1  0.74925184  0.75093645  0.75379027  1
  Co  Co98  1  0.12491289  0.12231138  0.12571185  1
  Co  Co99  1  0.25126765  0.00183050  0.49997464  1
  Co  Co100  1  0.62409843  0.62528859  0.12543730  1
  Co  Co101  1  0.37435098  0.87383106  0.62240447  1
  Co  Co102  1  0.24850892  0.25091920  0.50065238  1
  Co  Co103  1  0.12713199  0.87645518  0.87562765  1
  Co  Co104  1  0.11985036  0.36972151  0.37779024  1
  Co  Co105  1  0.49727072  0.00246100  0.25317931  1
  Co  Co106  1  0.24613282  0.25118437  0.24975262  1
  Co  Co107  1  -0.00150313  -0.00391761  0.74732063  1
  Co  Co108  1  0.75102645  0.24719116  0.24607091  1
  Co  Co109  1  0.74639790  0.24947911  0.75184812  1
  Co  Co110  1  0.87733213  0.62607362  0.12545759  1
  Co  Co111  1  0.62871188  0.37342632  0.37361456  1
  Co  Co112  1  0.25144704  0.50152647  -0.00127198  1
  Co  Co113  1  0.62720170  0.62671041  0.62455847  1
  Co  Co114  1  0.37586597  0.37236398  0.37636849  1
  Co  Co115  1  0.75223133  0.24752292  0.50093539  1
  Co  Co116  1  0.87687533  0.12617923  0.87257677  1
  Co  Co117  1  0.49991570  -0.00227416  0.74761825  1
  Co  Co118  1  0.87095669  0.87237052  0.62282177  1
  Co  Co119  1  0.25080581  0.74812792  0.49876992  1
  Co  Co120  1  0.25236680  0.00306462  -0.00079623  1
  Co  Co121  1  0.12365393  0.62682589  0.37456000  1
  Co  Co122  1  0.00469271  0.25228303  0.75171030  1
  Co  Co123  1  0.12573270  0.37595190  0.12071846  1
  Co  Co124  1  0.62117628  0.12358854  0.12589428  1
  Co  Co125  1  0.37338752  0.12771472  0.62688475  1
  Co  Co126  1  0.87722321  0.12662230  0.37068769  1
  Co  Co127  1  0.24969881  0.74878506  0.00242485  1
