# generated using pymatgen
data_Fe45Co19
_symmetry_space_group_name_H-M   'P 1'
_cell_length_a   11.41369705
_cell_length_b   11.41512612
_cell_length_c   11.41447640
_cell_angle_alpha   90.00118695
_cell_angle_beta   89.99404754
_cell_angle_gamma   90.00268198
_symmetry_Int_Tables_number   1
_chemical_formula_structural   Fe45Co19
_chemical_formula_sum   'Fe90 Co38'
_cell_volume   1487.17832361
_cell_formula_units_Z   2
loop_
 _symmetry_equiv_pos_site_id
 _symmetry_equiv_pos_as_xyz
  1  'x, y, z'
loop_
 _atom_site_type_symbol
 _atom_site_label
 _atom_site_symmetry_multiplicity
 _atom_site_fract_x
 _atom_site_fract_y
 _atom_site_fract_z
 _atom_site_occupancy
  Fe  Fe0  1  0.62735028  0.87340007  0.62220759  1
  Fe  Fe1  1  0.25130811  0.75219236  0.25197723  1
  Fe  Fe2  1  0.62373116  0.36966625  0.12702951  1
  Fe  Fe3  1  0.50284363  0.49735690  0.49783664  1
  Fe  Fe4  1  0.25005855  0.49799604  0.24979180  1
  Fe  Fe5  1  0.75302936  0.24972780  0.75111712  1
  Fe  Fe6  1  0.37709075  0.87980225  0.37584975  1
  Fe  Fe7  1  0.12626135  0.37224709  0.12500886  1
  Fe  Fe8  1  0.62697642  0.62480762  0.62492716  1
  Fe  Fe9  1  -0.00209345  0.75160097  0.25216014  1
  Fe  Fe10  1  0.00004717  0.24971760  -0.00178536  1
  Fe  Fe11  1  0.37666288  0.37294382  0.62224566  1
  Fe  Fe12  1  0.62603180  0.62299813  0.37174304  1
  Fe  Fe13  1  0.37603536  0.87618157  0.12655759  1
  Fe  Fe14  1  -0.00116271  0.49818348  0.74878719  1
  Fe  Fe15  1  0.75068614  0.24931996  0.00087728  1
  Fe  Fe16  1  0.12387022  0.12303691  0.37508461  1
  Fe  Fe17  1  0.62331394  0.62589746  0.12840588  1
  Fe  Fe18  1  0.50079683  0.49999819  0.74893623  1
  Fe  Fe19  1  -0.00178488  0.25125721  0.25037577  1
  Fe  Fe20  1  0.25034692  0.49938645  0.49964808  1
  Fe  Fe21  1  0.12442845  0.37265526  0.62647517  1
  Fe  Fe22  1  0.25147771  0.50016955  0.00090861  1
  Fe  Fe23  1  -0.00331942  0.25168909  0.49980858  1
  Fe  Fe24  1  0.12673296  0.37404178  0.87167049  1
  Fe  Fe25  1  0.87287033  0.62372693  0.87473223  1
  Fe  Fe26  1  0.49392420  0.24425378  0.25294077  1
  Fe  Fe27  1  0.50533217  0.00321287  0.49963624  1
  Fe  Fe28  1  0.12487965  0.37545270  0.37481881  1
  Fe  Fe29  1  0.75563133  0.24687192  0.24862459  1
  Fe  Fe30  1  0.37636092  0.62691779  0.12688685  1
  Fe  Fe31  1  0.62372898  0.62590167  0.87528033  1
  Fe  Fe32  1  0.12577559  0.62650021  0.87587434  1
  Fe  Fe33  1  0.87728059  0.12165697  0.87630884  1
  Fe  Fe34  1  0.74759530  0.49882966  0.00348359  1
  Fe  Fe35  1  0.00084734  0.50068697  0.00237760  1
  Fe  Fe36  1  0.86979527  0.87948436  0.37720267  1
  Fe  Fe37  1  0.25122713  0.50011603  0.74798747  1
  Fe  Fe38  1  0.37639944  0.62249792  0.37386395  1
  Fe  Fe39  1  0.50361250  0.75079479  0.49598402  1
  Fe  Fe40  1  0.12384164  0.12728553  0.62658658  1
  Fe  Fe41  1  -0.00379102  0.00054165  0.24693250  1
  Fe  Fe42  1  -0.00297822  0.75005885  0.49728988  1
  Fe  Fe43  1  0.25060201  0.00152751  0.25070022  1
  Fe  Fe44  1  0.87044371  0.62252041  0.62408148  1
  Fe  Fe45  1  0.12528764  0.62777620  0.12573894  1
  Fe  Fe46  1  0.62413685  0.12443639  0.87607831  1
  Fe  Fe47  1  0.74800854  0.75214441  0.75206464  1
  Fe  Fe48  1  0.75004155  0.00199629  0.00610245  1
  Fe  Fe49  1  0.50125593  0.00412117  0.00452167  1
  Fe  Fe50  1  0.87609047  0.12429913  0.62554129  1
  Fe  Fe51  1  0.12341345  0.62458631  0.37406040  1
  Fe  Fe52  1  0.00111244  -0.00070693  0.50126582  1
  Fe  Fe53  1  0.25375059  0.24860249  -0.00512988  1
  Fe  Fe54  1  0.12329125  0.87234379  0.12384494  1
  Fe  Fe55  1  0.12638487  0.12746438  0.12571757  1
  Fe  Fe56  1  0.74980832  0.75071740  0.00160162  1
  Fe  Fe57  1  0.25125843  0.75067062  0.75088008  1
  Fe  Fe58  1  0.62700629  0.37300822  0.62593494  1
  Fe  Fe59  1  0.74880482  0.75248239  0.25198523  1
  Fe  Fe60  1  0.12376157  0.12566797  0.87072984  1
  Fe  Fe61  1  0.37669265  0.87426705  0.62261675  1
  Fe  Fe62  1  0.24792877  -0.00047469  -0.00038840  1
  Fe  Fe63  1  0.62397543  0.87731001  0.12970680  1
  Fe  Fe64  1  0.50299976  -0.00138531  0.74845684  1
  Fe  Fe65  1  0.87248457  0.87577024  0.62315414  1
  Fe  Fe66  1  0.62872556  0.12135569  0.37146657  1
  Fe  Fe67  1  0.12179658  0.87281535  0.87690783  1
  Fe  Fe68  1  0.12421925  0.62630569  0.62290630  1
  Fe  Fe69  1  0.24922054  -0.00003546  0.74791966  1
  Fe  Fe70  1  0.37660967  0.12547018  0.62206729  1
  Fe  Fe71  1  0.62374410  0.37391629  0.87575925  1
  Fe  Fe72  1  0.75035925  0.24820959  0.50024790  1
  Fe  Fe73  1  0.49682428  0.24946510  0.75306271  1
  Fe  Fe74  1  0.37742592  0.62610528  0.87487604  1
  Fe  Fe75  1  0.87487803  0.62326636  0.12871444  1
  Fe  Fe76  1  -0.00440951  0.49907086  0.49760038  1
  Fe  Fe77  1  0.50037815  0.49750067  0.00330859  1
  Fe  Fe78  1  0.25071978  0.24896128  0.49725992  1
  Fe  Fe79  1  0.37682681  0.62749460  0.62379200  1
  Fe  Fe80  1  -0.00277945  0.75039369  0.74993179  1
  Fe  Fe81  1  0.87449144  0.37718226  0.87623559  1
  Fe  Fe82  1  0.87637492  0.87737174  0.87914300  1
  Fe  Fe83  1  0.62586986  0.37320429  0.37166405  1
  Fe  Fe84  1  0.12485362  0.87239491  0.62375772  1
  Fe  Fe85  1  0.50068845  0.75223581  0.00142454  1
  Fe  Fe86  1  0.37768637  0.87622317  0.87499190  1
  Fe  Fe87  1  0.74888775  -0.00003253  0.74928809  1
  Fe  Fe88  1  0.24964875  0.75187511  0.49624299  1
  Fe  Fe89  1  0.37450306  0.37069472  0.12667288  1
  Co  Co90  1  0.74870632  0.49752795  0.24830769  1
  Co  Co91  1  0.24660725  -0.00023932  0.50184693  1
  Co  Co92  1  0.49740964  0.24845371  -0.00146508  1
  Co  Co93  1  0.74795311  0.49897062  0.75213975  1
  Co  Co94  1  0.00291158  0.00201389  0.00314426  1
  Co  Co95  1  -0.00462590  0.25134981  0.75020043  1
  Co  Co96  1  0.50325983  0.75184489  0.74997278  1
  Co  Co97  1  0.62789987  0.88147855  0.37308115  1
  Co  Co98  1  0.12333526  0.87746473  0.37381096  1
  Co  Co99  1  0.87590637  0.12273101  0.37698707  1
  Co  Co100  1  0.49992685  0.49787310  0.24840060  1
  Co  Co101  1  0.87338559  0.62331728  0.37160664  1
  Co  Co102  1  -0.00237432  0.74656451  0.00032429  1
  Co  Co103  1  0.00080204  -0.00149589  0.74829755  1
  Co  Co104  1  0.87573643  0.37496720  0.12414095  1
  Co  Co105  1  0.87613043  0.87326638  0.12316675  1
  Co  Co106  1  0.25114430  0.24883127  0.25530088  1
  Co  Co107  1  0.25260961  0.75107030  -0.00017077  1
  Co  Co108  1  0.37277914  0.12089589  0.37999786  1
  Co  Co109  1  0.62533090  0.87771256  0.87899016  1
  Co  Co110  1  0.74706813  0.00523669  0.50371932  1
  Co  Co111  1  0.37539727  0.37642262  0.37562404  1
  Co  Co112  1  0.37096298  0.12654935  0.12337789  1
  Co  Co113  1  0.87303650  0.37492587  0.37331688  1
  Co  Co114  1  0.74830177  0.49814502  0.49615270  1
  Co  Co115  1  0.50044529  0.75212836  0.25352513  1
  Co  Co116  1  0.87783706  0.12801341  0.12248978  1
  Co  Co117  1  0.87119861  0.37685431  0.62397342  1
  Co  Co118  1  0.37699810  0.11946260  0.87449148  1
  Co  Co119  1  0.62366301  0.12908462  0.62900420  1
  Co  Co120  1  0.62477141  0.12887151  0.12656732  1
  Co  Co121  1  0.25490194  0.24884505  0.74985802  1
  Co  Co122  1  0.00161905  0.49714248  0.24934623  1
  Co  Co123  1  0.37529247  0.37866398  0.87484406  1
  Co  Co124  1  0.49828019  0.00470436  0.24928239  1
  Co  Co125  1  0.74839958  0.74776525  0.49699032  1
  Co  Co126  1  0.50324803  0.24889684  0.49572067  1
  Co  Co127  1  0.75460848  0.00203466  0.24467231  1
