# generated using pymatgen
data_Fe45Co19
_symmetry_space_group_name_H-M   'P 1'
_cell_length_a   11.41486658
_cell_length_b   11.41439431
_cell_length_c   11.41537228
_cell_angle_alpha   90.00051275
_cell_angle_beta   89.99853131
_cell_angle_gamma   89.98582093
_symmetry_Int_Tables_number   1
_chemical_formula_structural   Fe45Co19
_chemical_formula_sum   'Fe90 Co38'
_cell_volume   1487.35205069
_cell_formula_units_Z   2
loop_
 _symmetry_equiv_pos_site_id
 _symmetry_equiv_pos_as_xyz
  1  'x, y, z'
loop_
 _atom_site_type_symbol
 _atom_site_label
 _atom_site_symmetry_multiplicity
 _atom_site_fract_x
 _atom_site_fract_y
 _atom_site_fract_z
 _atom_site_occupancy
  Fe  Fe0  1  0.49862602  0.25025459  0.49834615  1
  Fe  Fe1  1  0.74999209  0.50013655  0.24902895  1
  Fe  Fe2  1  -0.00257203  0.24780194  0.25036057  1
  Fe  Fe3  1  0.37219549  0.37565067  0.37221589  1
  Fe  Fe4  1  0.87831475  0.87479921  0.87026139  1
  Fe  Fe5  1  -0.00017019  0.24779747  0.74980508  1
  Fe  Fe6  1  0.62562192  0.12767578  0.87755951  1
  Fe  Fe7  1  0.87467639  0.62580857  0.87509365  1
  Fe  Fe8  1  0.12137128  0.87643138  0.63026773  1
  Fe  Fe9  1  0.75431341  0.24581959  0.24718498  1
  Fe  Fe10  1  0.75085579  0.00216980  0.24997069  1
  Fe  Fe11  1  0.87894355  0.87639509  0.12540848  1
  Fe  Fe12  1  0.87795701  0.62336198  0.62302676  1
  Fe  Fe13  1  0.37417214  0.12507771  0.62445259  1
  Fe  Fe14  1  0.75177247  0.75180905  0.00119278  1
  Fe  Fe15  1  0.49907344  0.75284314  0.25147981  1
  Fe  Fe16  1  0.87773245  0.62623855  0.12548273  1
  Fe  Fe17  1  0.12637017  0.37417133  0.87496775  1
  Fe  Fe18  1  0.62264696  0.87764143  0.12635993  1
  Fe  Fe19  1  0.37265363  0.12510377  0.87577203  1
  Fe  Fe20  1  0.87569915  0.37410377  0.87512286  1
  Fe  Fe21  1  0.12584113  0.62650781  0.37527224  1
  Fe  Fe22  1  0.62488276  0.37313257  0.62470308  1
  Fe  Fe23  1  0.49786078  0.74891619  0.75139116  1
  Fe  Fe24  1  -0.00013622  0.49969150  0.00007522  1
  Fe  Fe25  1  0.00200217  0.00064053  0.50025753  1
  Fe  Fe26  1  0.24878703  0.50177854  0.74899797  1
  Fe  Fe27  1  0.37068500  0.87819337  0.37442912  1
  Fe  Fe28  1  0.12055057  0.62998705  0.12671683  1
  Fe  Fe29  1  0.49870841  0.24660680  0.25009307  1
  Fe  Fe30  1  0.00023502  0.50075201  0.74898647  1
  Fe  Fe31  1  0.62789141  0.12477457  0.37514582  1
  Fe  Fe32  1  0.00424627  -0.00302423  -0.00391469  1
  Fe  Fe33  1  0.00371205  -0.00327683  0.25339331  1
  Fe  Fe34  1  0.62350050  0.62682831  0.12395744  1
  Fe  Fe35  1  0.62398986  0.12569779  0.62465831  1
  Fe  Fe36  1  0.74933332  -0.00085983  0.00005697  1
  Fe  Fe37  1  0.37710062  0.12042353  0.12305738  1
  Fe  Fe38  1  0.12427833  0.37390705  0.12713201  1
  Fe  Fe39  1  0.49818502  0.25313273  0.75405748  1
  Fe  Fe40  1  0.12889250  0.12456319  0.62560907  1
  Fe  Fe41  1  0.37137201  0.87466991  0.87903004  1
  Fe  Fe42  1  0.49823229  0.50072173  0.49887057  1
  Fe  Fe43  1  0.75164657  0.75022649  0.24891680  1
  Fe  Fe44  1  0.75053410  0.49911655  0.00140975  1
  Fe  Fe45  1  0.62433444  0.37189968  0.12535120  1
  Fe  Fe46  1  0.00081597  0.50021914  0.25231065  1
  Fe  Fe47  1  0.37337448  0.37554234  0.62614655  1
  Fe  Fe48  1  0.50345908  -0.00271176  0.49744579  1
  Fe  Fe49  1  0.75379643  0.24887097  0.00495203  1
  Fe  Fe50  1  0.24975518  0.75189751  0.50390579  1
  Fe  Fe51  1  0.37404811  0.87883529  0.12262292  1
  Fe  Fe52  1  0.75201694  0.25022747  0.74821125  1
  Fe  Fe53  1  0.24765839  0.75307938  0.24772554  1
  Fe  Fe54  1  0.62570216  0.37337994  0.37388529  1
  Fe  Fe55  1  0.12436227  0.37480373  0.62435025  1
  Fe  Fe56  1  0.37203799  0.62578422  0.37484154  1
  Fe  Fe57  1  0.24994854  0.74885803  0.74862121  1
  Fe  Fe58  1  0.12341217  0.62924820  0.87499425  1
  Fe  Fe59  1  0.24854471  0.49855461  0.49896633  1
  Fe  Fe60  1  0.37451330  0.62457026  0.87670066  1
  Fe  Fe61  1  0.50044922  0.50133974  0.25085827  1
  Fe  Fe62  1  0.50084697  0.49824160  0.75250445  1
  Fe  Fe63  1  0.87567330  0.12511060  0.87794312  1
  Fe  Fe64  1  0.12793153  0.12363444  0.87183991  1
  Fe  Fe65  1  0.75083707  -0.00047608  0.74651819  1
  Fe  Fe66  1  0.24775319  0.50300118  0.00290836  1
  Fe  Fe67  1  0.37815768  0.87530408  0.62520421  1
  Fe  Fe68  1  0.87433790  0.62623802  0.37635848  1
  Fe  Fe69  1  0.62578210  0.62887914  0.37718796  1
  Fe  Fe70  1  0.75065821  0.49824619  0.50117485  1
  Fe  Fe71  1  0.62580449  0.87337916  0.87324190  1
  Fe  Fe72  1  0.37615887  0.62624850  0.12468245  1
  Fe  Fe73  1  0.24916178  0.24905974  0.00020669  1
  Fe  Fe74  1  0.62128439  0.62830439  0.62293773  1
  Fe  Fe75  1  0.87310233  0.12446386  0.62039496  1
  Fe  Fe76  1  0.87508326  0.37420455  0.37522522  1
  Fe  Fe77  1  0.49983999  0.00028576  0.75299039  1
  Fe  Fe78  1  0.74972035  0.49905751  0.74788300  1
  Fe  Fe79  1  0.37368048  0.37581192  0.12555059  1
  Fe  Fe80  1  0.50154422  0.49731000  -0.00190207  1
  Fe  Fe81  1  0.25019952  0.24733059  0.25065186  1
  Fe  Fe82  1  0.00040792  0.25086029  0.49914251  1
  Fe  Fe83  1  0.75299181  0.75128444  0.74474738  1
  Fe  Fe84  1  0.00037685  0.74990026  0.50062594  1
  Fe  Fe85  1  0.12254608  0.12339038  0.12505422  1
  Fe  Fe86  1  0.62652288  0.62706459  0.87565659  1
  Fe  Fe87  1  0.12811720  0.12403731  0.37696342  1
  Fe  Fe88  1  0.87302332  0.87610399  0.37861930  1
  Fe  Fe89  1  0.37109370  0.12079289  0.37699286  1
  Co  Co90  1  0.00175486  0.24973753  -0.00106754  1
  Co  Co91  1  0.25061042  0.25187621  0.49939958  1
  Co  Co92  1  0.37596166  0.62415525  0.62464605  1
  Co  Co93  1  0.00061841  0.49898047  0.49782125  1
  Co  Co94  1  0.49716474  0.75222299  0.49589636  1
  Co  Co95  1  0.50046831  -0.00008395  0.25365615  1
  Co  Co96  1  0.62972319  0.37233535  0.87639221  1
  Co  Co97  1  0.24570327  0.00027609  -0.00052537  1
  Co  Co98  1  0.25298742  -0.00158924  0.74912835  1
  Co  Co99  1  0.24769613  0.50231271  0.24842087  1
  Co  Co100  1  0.62068175  0.87319395  0.62695252  1
  Co  Co101  1  0.36952347  0.37734113  0.87602014  1
  Co  Co102  1  0.12800795  0.87494690  0.37828176  1
  Co  Co103  1  -0.00225775  0.00594999  0.75006418  1
  Co  Co104  1  0.12442300  0.87364618  0.86896819  1
  Co  Co105  1  0.24609224  -0.00016370  0.24769598  1
  Co  Co106  1  0.62906650  0.87249660  0.37355629  1
  Co  Co107  1  0.24900932  -0.00219049  0.50451618  1
  Co  Co108  1  0.75016354  0.25155313  0.49935856  1
  Co  Co109  1  0.74581112  -0.00301172  0.50318666  1
  Co  Co110  1  0.12549511  0.37334457  0.37230011  1
  Co  Co111  1  0.49728765  0.25168550  -0.00163366  1
  Co  Co112  1  -0.00124027  0.74623362  0.74832706  1
  Co  Co113  1  0.75168585  0.75216636  0.50500754  1
  Co  Co114  1  -0.00189857  0.75247512  -0.00234600  1
  Co  Co115  1  0.24786272  0.74922663  0.00090318  1
  Co  Co116  1  0.88000979  0.87780760  0.62441925  1
  Co  Co117  1  0.87478708  0.12195166  0.37820154  1
  Co  Co118  1  0.50172926  -0.00040457  -0.00386008  1
  Co  Co119  1  0.25012900  0.25035159  0.74916766  1
  Co  Co120  1  0.87760541  0.37598690  0.12579330  1
  Co  Co121  1  -0.00054389  0.75349383  0.25404031  1
  Co  Co122  1  0.87719739  0.37433099  0.62536519  1
  Co  Co123  1  0.62280311  0.12379625  0.12370785  1
  Co  Co124  1  0.12383308  0.87308767  0.12333796  1
  Co  Co125  1  0.50079221  0.75186484  0.00017641  1
  Co  Co126  1  0.88074199  0.11903903  0.12294528  1
  Co  Co127  1  0.12506935  0.62391024  0.62292154  1
