# generated using pymatgen
data_Fe45Co19
_symmetry_space_group_name_H-M   'P 1'
_cell_length_a   11.41494543
_cell_length_b   11.41468650
_cell_length_c   11.41373930
_cell_angle_alpha   90.01284724
_cell_angle_beta   89.98636712
_cell_angle_gamma   90.00676590
_symmetry_Int_Tables_number   1
_chemical_formula_structural   Fe45Co19
_chemical_formula_sum   'Fe90 Co38'
_cell_volume   1487.18758175
_cell_formula_units_Z   2
loop_
 _symmetry_equiv_pos_site_id
 _symmetry_equiv_pos_as_xyz
  1  'x, y, z'
loop_
 _atom_site_type_symbol
 _atom_site_label
 _atom_site_symmetry_multiplicity
 _atom_site_fract_x
 _atom_site_fract_y
 _atom_site_fract_z
 _atom_site_occupancy
  Fe  Fe0  1  0.24849824  0.74628463  -0.00278911  1
  Fe  Fe1  1  0.87616844  0.62528293  0.37695386  1
  Fe  Fe2  1  0.87651285  0.12455697  0.37482241  1
  Fe  Fe3  1  0.62567042  0.37444653  0.37585359  1
  Fe  Fe4  1  0.50110287  0.50179170  0.49993923  1
  Fe  Fe5  1  0.00003965  0.25075032  0.24833458  1
  Fe  Fe6  1  -0.00118672  0.49934354  0.50316324  1
  Fe  Fe7  1  0.87750185  0.62573282  0.87133449  1
  Fe  Fe8  1  0.74786716  0.50251562  0.25366748  1
  Fe  Fe9  1  0.24720780  -0.00297359  0.74860370  1
  Fe  Fe10  1  0.62417731  0.12587201  0.37361538  1
  Fe  Fe11  1  0.12639669  0.62405582  0.12549307  1
  Fe  Fe12  1  0.87816394  0.87553862  0.37777309  1
  Fe  Fe13  1  0.62710879  0.12255896  0.12359207  1
  Fe  Fe14  1  0.37257571  0.12394613  0.12722258  1
  Fe  Fe15  1  0.12356529  0.12610419  0.87306877  1
  Fe  Fe16  1  -0.00120697  0.25113771  0.50438890  1
  Fe  Fe17  1  0.62788959  0.37728601  0.12410573  1
  Fe  Fe18  1  0.12753057  0.37645851  0.12398103  1
  Fe  Fe19  1  0.37559407  0.12256810  0.62639287  1
  Fe  Fe20  1  0.50067273  0.25078445  0.24825376  1
  Fe  Fe21  1  0.62483628  0.87214510  0.37698252  1
  Fe  Fe22  1  0.37247824  0.37893758  0.12630189  1
  Fe  Fe23  1  0.00042020  0.49528502  0.74615646  1
  Fe  Fe24  1  0.25000124  0.50012561  0.49890538  1
  Fe  Fe25  1  0.62421028  0.87581568  0.12173843  1
  Fe  Fe26  1  -0.00020378  0.25161805  -0.00005605  1
  Fe  Fe27  1  0.25136261  0.24660893  0.50055579  1
  Fe  Fe28  1  0.87527183  0.12176345  0.62662623  1
  Fe  Fe29  1  0.12554055  0.37350236  0.87258416  1
  Fe  Fe30  1  0.87683189  0.87445505  0.87559236  1
  Fe  Fe31  1  0.00568572  -0.00020064  0.24929167  1
  Fe  Fe32  1  0.37605273  0.37521686  0.37343970  1
  Fe  Fe33  1  0.37731993  0.37443546  0.87108603  1
  Fe  Fe34  1  0.49961161  -0.00124304  0.24949501  1
  Fe  Fe35  1  0.25147707  0.75208853  0.74708001  1
  Fe  Fe36  1  0.50016796  0.00033415  0.49911746  1
  Fe  Fe37  1  0.37583069  0.37566267  0.62740251  1
  Fe  Fe38  1  0.50046947  -0.00167422  0.75088051  1
  Fe  Fe39  1  0.49884953  0.74945531  0.24872730  1
  Fe  Fe40  1  0.24834898  0.24793710  0.25235794  1
  Fe  Fe41  1  0.25079545  0.25119316  -0.00200503  1
  Fe  Fe42  1  0.87286168  0.37850442  0.12529360  1
  Fe  Fe43  1  0.49616792  0.74955715  0.50330955  1
  Fe  Fe44  1  0.37436768  0.12491924  0.87268520  1
  Fe  Fe45  1  0.87800503  0.87391174  0.12515514  1
  Fe  Fe46  1  0.37191952  0.87514837  0.12477590  1
  Fe  Fe47  1  0.49848343  0.24862514  0.50166409  1
  Fe  Fe48  1  0.00240308  0.50066630  -0.00203320  1
  Fe  Fe49  1  0.37256671  0.87887983  0.37587952  1
  Fe  Fe50  1  0.24938733  0.49990956  0.75053929  1
  Fe  Fe51  1  0.37255685  0.62099073  0.12665081  1
  Fe  Fe52  1  -0.00095157  0.75529136  0.74378957  1
  Fe  Fe53  1  0.62566565  0.37469793  0.62608772  1
  Fe  Fe54  1  0.24698171  0.74885914  0.25235807  1
  Fe  Fe55  1  0.62165971  0.87343121  0.87839333  1
  Fe  Fe56  1  0.75040682  -0.00319534  0.75195257  1
  Fe  Fe57  1  0.50003725  0.49970142  -0.00150861  1
  Fe  Fe58  1  0.12298720  0.12511305  0.62731337  1
  Fe  Fe59  1  0.24762193  -0.00069465  0.00086715  1
  Fe  Fe60  1  0.87750908  0.12401629  0.87382034  1
  Fe  Fe61  1  0.12398602  0.87413041  0.37939810  1
  Fe  Fe62  1  0.00325202  -0.00127849  0.00013189  1
  Fe  Fe63  1  0.25206216  0.75004978  0.50274223  1
  Fe  Fe64  1  0.74849128  0.50024079  0.75106157  1
  Fe  Fe65  1  0.75120825  0.25025943  0.00011382  1
  Fe  Fe66  1  0.49945547  0.24971439  -0.00048664  1
  Fe  Fe67  1  0.74992292  0.24954935  0.75070740  1
  Fe  Fe68  1  0.75063420  0.24829680  0.49967899  1
  Fe  Fe69  1  0.87500442  0.12382076  0.12506456  1
  Fe  Fe70  1  0.75439819  0.74936053  0.50263352  1
  Fe  Fe71  1  0.87611322  0.62467621  0.12499031  1
  Fe  Fe72  1  0.62594319  0.12311976  0.62513011  1
  Fe  Fe73  1  0.37746760  0.62552413  0.87171756  1
  Fe  Fe74  1  0.37655697  0.87355043  0.87561623  1
  Fe  Fe75  1  0.12496836  0.62519627  0.62468951  1
  Fe  Fe76  1  0.75081785  0.74943630  -0.00106981  1
  Fe  Fe77  1  0.37573105  0.62375189  0.37395757  1
  Fe  Fe78  1  0.87297553  0.37556099  0.37613991  1
  Fe  Fe79  1  0.62468477  0.12381041  0.87766098  1
  Fe  Fe80  1  0.62588829  0.62676927  0.62582002  1
  Fe  Fe81  1  0.62328305  0.62752289  0.87369909  1
  Fe  Fe82  1  0.75116903  0.75073319  0.25026856  1
  Fe  Fe83  1  0.00302542  0.74904784  -0.00047743  1
  Fe  Fe84  1  0.12450357  0.37354904  0.37742693  1
  Fe  Fe85  1  0.62552001  0.62469161  0.12491384  1
  Fe  Fe86  1  0.62586827  0.87463621  0.62433491  1
  Fe  Fe87  1  0.00359327  0.50196336  0.25256210  1
  Fe  Fe88  1  0.87385227  0.37532579  0.87443045  1
  Fe  Fe89  1  0.75040007  -0.00122461  0.25162238  1
  Co  Co90  1  0.00089242  -0.00397171  0.75037304  1
  Co  Co91  1  0.12436679  0.62704196  0.38061744  1
  Co  Co92  1  0.12891992  0.37460862  0.62424426  1
  Co  Co93  1  0.24926222  0.50124653  -0.00581388  1
  Co  Co94  1  0.24613664  0.50041833  0.25431335  1
  Co  Co95  1  0.24509627  0.00122974  0.25115630  1
  Co  Co96  1  0.12204931  0.62645867  0.86869175  1
  Co  Co97  1  0.37696997  0.12369038  0.37321884  1
  Co  Co98  1  0.00134737  0.00142172  0.50145354  1
  Co  Co99  1  0.62478574  0.37326324  0.87453237  1
  Co  Co100  1  0.50116457  0.24757193  0.74929679  1
  Co  Co101  1  0.12193063  0.12756735  0.37630469  1
  Co  Co102  1  0.50263400  0.50103302  0.25140209  1
  Co  Co103  1  0.12590977  0.87316130  0.87525035  1
  Co  Co104  1  0.74878315  0.50230792  0.49969485  1
  Co  Co105  1  0.75036403  0.50292002  -0.00341048  1
  Co  Co106  1  0.86946543  0.37507106  0.62445497  1
  Co  Co107  1  0.12637873  0.87129280  0.12432316  1
  Co  Co108  1  0.50209593  0.50106344  0.74908789  1
  Co  Co109  1  0.75068575  0.75330864  0.75070569  1
  Co  Co110  1  0.62407571  0.63003078  0.37731712  1
  Co  Co111  1  0.00183747  0.74860469  0.25195469  1
  Co  Co112  1  0.49597056  0.00148160  0.00066477  1
  Co  Co113  1  -0.00112017  0.25322798  0.74792858  1
  Co  Co114  1  0.12561602  0.12781115  0.12240968  1
  Co  Co115  1  0.75296297  -0.00204525  -0.00083310  1
  Co  Co116  1  0.87328521  0.88036909  0.62248208  1
  Co  Co117  1  0.75072018  0.24950141  0.24965352  1
  Co  Co118  1  0.87444106  0.62303926  0.62891942  1
  Co  Co119  1  -0.00349737  0.74855781  0.50444216  1
  Co  Co120  1  0.37481637  0.87961095  0.62353575  1
  Co  Co121  1  0.12583116  0.87503046  0.62039837  1
  Co  Co122  1  0.24842456  0.00426520  0.49923074  1
  Co  Co123  1  0.37385606  0.62216625  0.62590054  1
  Co  Co124  1  0.49808174  0.74732743  0.00239105  1
  Co  Co125  1  0.74905978  0.00104559  0.49720531  1
  Co  Co126  1  0.24987419  0.24986218  0.74836389  1
  Co  Co127  1  0.49790343  0.75178667  0.74663530  1
