# generated using pymatgen
data_Fe45Co19
_symmetry_space_group_name_H-M   'P 1'
_cell_length_a   11.41529480
_cell_length_b   11.41597494
_cell_length_c   11.41432677
_cell_angle_alpha   89.99384134
_cell_angle_beta   89.99375306
_cell_angle_gamma   89.99117003
_symmetry_Int_Tables_number   1
_chemical_formula_structural   Fe45Co19
_chemical_formula_sum   'Fe90 Co38'
_cell_volume   1487.47758341
_cell_formula_units_Z   2
loop_
 _symmetry_equiv_pos_site_id
 _symmetry_equiv_pos_as_xyz
  1  'x, y, z'
loop_
 _atom_site_type_symbol
 _atom_site_label
 _atom_site_symmetry_multiplicity
 _atom_site_fract_x
 _atom_site_fract_y
 _atom_site_fract_z
 _atom_site_occupancy
  Fe  Fe0  1  0.75231581  0.49614318  0.74855581  1
  Fe  Fe1  1  0.37293319  0.87415661  0.38158437  1
  Fe  Fe2  1  0.62412662  0.37514558  0.12545527  1
  Fe  Fe3  1  0.49938448  -0.00235161  0.24831540  1
  Fe  Fe4  1  0.12547559  0.87711792  0.37871204  1
  Fe  Fe5  1  0.24957317  0.74998845  -0.00263282  1
  Fe  Fe6  1  0.87439757  0.37338117  0.12186291  1
  Fe  Fe7  1  0.62831071  0.12539389  0.63240767  1
  Fe  Fe8  1  0.37677821  0.12459471  0.37534743  1
  Fe  Fe9  1  0.74798773  0.24612191  -0.00527267  1
  Fe  Fe10  1  0.50170422  0.24448574  -0.00269485  1
  Fe  Fe11  1  0.12347297  0.12743163  0.12818133  1
  Fe  Fe12  1  0.25256589  0.49704591  0.75015273  1
  Fe  Fe13  1  0.12534504  0.37458462  0.37575713  1
  Fe  Fe14  1  0.24998383  0.50175907  0.50226731  1
  Fe  Fe15  1  0.25491716  -0.00374949  0.75154184  1
  Fe  Fe16  1  0.62483977  0.62460311  0.12966651  1
  Fe  Fe17  1  0.49855626  0.49919656  0.74941483  1
  Fe  Fe18  1  0.37305686  0.62610862  0.37533825  1
  Fe  Fe19  1  0.12434097  0.37589113  0.87291230  1
  Fe  Fe20  1  0.74945483  -0.00163318  0.24892823  1
  Fe  Fe21  1  0.37476180  0.12463480  0.12496997  1
  Fe  Fe22  1  0.25037310  -0.00202697  0.25057682  1
  Fe  Fe23  1  0.87653161  0.87678046  0.37771422  1
  Fe  Fe24  1  0.87573767  0.87638094  0.87719013  1
  Fe  Fe25  1  0.00164607  0.00024989  0.00037041  1
  Fe  Fe26  1  0.00061658  0.50058168  0.50355464  1
  Fe  Fe27  1  0.37863060  0.87402790  0.11951677  1
  Fe  Fe28  1  0.12489551  0.62591838  0.37219815  1
  Fe  Fe29  1  0.49715186  0.25110150  0.75224646  1
  Fe  Fe30  1  0.50031439  0.25123591  0.24994198  1
  Fe  Fe31  1  0.62391887  0.12323086  0.37320878  1
  Fe  Fe32  1  0.62658695  0.62382048  0.37372348  1
  Fe  Fe33  1  0.74762757  0.50245711  0.00033141  1
  Fe  Fe34  1  0.12548352  0.62359366  0.62884956  1
  Fe  Fe35  1  0.00075626  0.74895361  0.50072083  1
  Fe  Fe36  1  0.87314005  0.87339423  0.62288168  1
  Fe  Fe37  1  0.87107092  0.12721479  0.62885311  1
  Fe  Fe38  1  0.37667789  0.37487741  0.12289057  1
  Fe  Fe39  1  -0.00392835  0.25612947  0.74973050  1
  Fe  Fe40  1  0.24906777  0.49895642  0.24706197  1
  Fe  Fe41  1  0.00133359  0.74930311  -0.00182354  1
  Fe  Fe42  1  0.74626519  0.00426350  -0.00413672  1
  Fe  Fe43  1  0.62660722  0.37812285  0.37533479  1
  Fe  Fe44  1  0.12720578  0.87641663  0.62329192  1
  Fe  Fe45  1  0.75083141  0.25113522  0.25185602  1
  Fe  Fe46  1  0.12459620  0.12452065  0.87096293  1
  Fe  Fe47  1  0.37368233  0.62708007  0.12539086  1
  Fe  Fe48  1  0.87630759  0.62620535  0.12512823  1
  Fe  Fe49  1  0.74823706  0.75461435  0.75287986  1
  Fe  Fe50  1  0.25037442  0.25003708  -0.00334645  1
  Fe  Fe51  1  0.74938837  0.00096304  0.50292201  1
  Fe  Fe52  1  0.62518744  0.87397131  0.37935278  1
  Fe  Fe53  1  0.50098276  0.00125410  0.50450621  1
  Fe  Fe54  1  -0.00003999  0.75125843  0.75074342  1
  Fe  Fe55  1  0.62355279  0.87450875  0.12142268  1
  Fe  Fe56  1  0.49847698  0.75063845  0.25132419  1
  Fe  Fe57  1  -0.00058187  0.24884120  0.50087068  1
  Fe  Fe58  1  0.00330671  0.50175914  0.00078289  1
  Fe  Fe59  1  0.25345099  0.75339392  0.75003572  1
  Fe  Fe60  1  0.87701411  0.12168306  0.37335303  1
  Fe  Fe61  1  0.49770891  0.75439079  0.75133784  1
  Fe  Fe62  1  0.24822782  0.00058473  -0.00193214  1
  Fe  Fe63  1  0.12158761  0.12265061  0.37312374  1
  Fe  Fe64  1  0.24884422  0.24800394  0.50088266  1
  Fe  Fe65  1  0.87195916  0.37849518  0.37950355  1
  Fe  Fe66  1  -0.00181915  -0.00212382  0.74863880  1
  Fe  Fe67  1  -0.00043737  0.75241163  0.25003658  1
  Fe  Fe68  1  0.74589431  0.74750271  -0.00314661  1
  Fe  Fe69  1  0.87572662  0.12510243  0.12615924  1
  Fe  Fe70  1  0.62492678  0.62919646  0.62657927  1
  Fe  Fe71  1  0.37377435  0.12574537  0.62706377  1
  Fe  Fe72  1  0.00040410  0.49748472  0.24667199  1
  Fe  Fe73  1  0.62396653  0.37598863  0.87526386  1
  Fe  Fe74  1  0.50100792  0.50199608  0.50144494  1
  Fe  Fe75  1  0.37383042  0.37447087  0.62325416  1
  Fe  Fe76  1  0.12552671  0.62499385  0.87212530  1
  Fe  Fe77  1  0.62897085  0.37122468  0.62389014  1
  Fe  Fe78  1  0.75217937  0.74948039  0.25205447  1
  Fe  Fe79  1  0.00031372  0.24919541  -0.00212118  1
  Fe  Fe80  1  0.12603309  0.12612284  0.62834533  1
  Fe  Fe81  1  0.87435222  0.62590852  0.62600294  1
  Fe  Fe82  1  0.24893115  0.49997714  -0.00015858  1
  Fe  Fe83  1  0.50017502  0.50484763  -0.00167904  1
  Fe  Fe84  1  0.87275466  0.87537264  0.12185270  1
  Fe  Fe85  1  0.87466929  0.62299485  0.87350600  1
  Fe  Fe86  1  0.25056648  0.25059713  0.25075371  1
  Fe  Fe87  1  0.37568052  0.37539704  0.37646510  1
  Fe  Fe88  1  0.12564351  0.87301205  0.12451734  1
  Fe  Fe89  1  0.50196258  0.24885948  0.50080119  1
  Co  Co90  1  0.50399615  0.00789646  0.00141919  1
  Co  Co91  1  0.75247757  0.49944382  0.24749519  1
  Co  Co92  1  0.74720176  0.50543661  0.50367719  1
  Co  Co93  1  0.37578481  0.62523363  0.62656301  1
  Co  Co94  1  0.12402634  0.87537823  0.87348925  1
  Co  Co95  1  0.38039256  0.87613557  0.88246275  1
  Co  Co96  1  0.87764770  0.12256696  0.87251953  1
  Co  Co97  1  0.87113785  0.37332436  0.61869900  1
  Co  Co98  1  0.49577591  -0.00532495  0.74614760  1
  Co  Co99  1  0.50027056  0.74637441  0.49903088  1
  Co  Co100  1  0.37326218  0.62558756  0.87306083  1
  Co  Co101  1  0.37703242  0.37592008  0.87720979  1
  Co  Co102  1  0.37481482  0.12293512  0.87371032  1
  Co  Co103  1  0.00082576  -0.00384160  0.24609401  1
  Co  Co104  1  0.50432096  0.74221572  -0.00227294  1
  Co  Co105  1  0.74852110  0.24558578  0.49653255  1
  Co  Co106  1  0.61974855  0.87856509  0.87772070  1
  Co  Co107  1  -0.00116832  0.00182590  0.50530294  1
  Co  Co108  1  0.24951241  0.00480453  0.50065582  1
  Co  Co109  1  0.12542890  0.62838012  0.12599085  1
  Co  Co110  1  0.75420622  0.25512822  0.75683317  1
  Co  Co111  1  0.87525094  0.37932029  0.88037092  1
  Co  Co112  1  0.12627779  0.37466961  0.62489933  1
  Co  Co113  1  0.49776051  0.50061424  0.25032840  1
  Co  Co114  1  0.87739824  0.62186390  0.37452874  1
  Co  Co115  1  -0.00328372  0.49654883  0.74852569  1
  Co  Co116  1  -0.00282734  0.25352572  0.25217562  1
  Co  Co117  1  0.24674505  0.74580199  0.50255740  1
  Co  Co118  1  0.25122536  0.75347513  0.25047229  1
  Co  Co119  1  0.25195926  0.25297090  0.75152118  1
  Co  Co120  1  0.62624895  0.62297753  0.86891515  1
  Co  Co121  1  0.37415086  0.87297216  0.61798254  1
  Co  Co122  1  0.12525041  0.37142743  0.12463348  1
  Co  Co123  1  0.62547745  0.87275882  0.62242841  1
  Co  Co124  1  0.62350431  0.12268292  0.86469325  1
  Co  Co125  1  0.75102234  -0.00597096  0.75185084  1
  Co  Co126  1  0.62648643  0.12627614  0.12948936  1
  Co  Co127  1  0.75201493  0.74773148  0.49786474  1
