# generated using pymatgen
data_Fe45Co19
_symmetry_space_group_name_H-M   'P 1'
_cell_length_a   11.41605203
_cell_length_b   11.41599345
_cell_length_c   11.41563899
_cell_angle_alpha   90.00104829
_cell_angle_beta   90.00209986
_cell_angle_gamma   90.00121991
_symmetry_Int_Tables_number   1
_chemical_formula_structural   Fe45Co19
_chemical_formula_sum   'Fe90 Co38'
_cell_volume   1487.74971629
_cell_formula_units_Z   2
loop_
 _symmetry_equiv_pos_site_id
 _symmetry_equiv_pos_as_xyz
  1  'x, y, z'
loop_
 _atom_site_type_symbol
 _atom_site_label
 _atom_site_symmetry_multiplicity
 _atom_site_fract_x
 _atom_site_fract_y
 _atom_site_fract_z
 _atom_site_occupancy
  Fe  Fe0  1  0.62394827  0.87313660  0.12534754  1
  Fe  Fe1  1  0.62104884  0.12811398  0.37416096  1
  Fe  Fe2  1  0.75099667  0.25034548  0.49681502  1
  Fe  Fe3  1  0.87289160  0.62248560  0.12725009  1
  Fe  Fe4  1  0.12216535  0.87231457  0.87644070  1
  Fe  Fe5  1  0.62435679  0.12885179  0.87303530  1
  Fe  Fe6  1  0.00200978  0.00261369  0.00446815  1
  Fe  Fe7  1  0.12309374  0.37436633  0.87438299  1
  Fe  Fe8  1  0.62775004  0.37042412  0.12778180  1
  Fe  Fe9  1  0.25253822  0.25184815  -0.00270049  1
  Fe  Fe10  1  0.49960802  0.00014285  0.50043349  1
  Fe  Fe11  1  0.37242437  0.12407251  0.62299329  1
  Fe  Fe12  1  0.24837611  -0.00121426  0.75039046  1
  Fe  Fe13  1  0.87426016  0.62475266  0.62365697  1
  Fe  Fe14  1  0.00206435  0.50124953  0.49822611  1
  Fe  Fe15  1  0.00028452  0.49957046  0.74781892  1
  Fe  Fe16  1  -0.00110736  0.24733357  0.00536894  1
  Fe  Fe17  1  0.49787941  0.25139273  0.50242857  1
  Fe  Fe18  1  0.87853564  0.87374323  0.87662848  1
  Fe  Fe19  1  0.62699720  0.12957526  0.12586156  1
  Fe  Fe20  1  0.87315117  0.37449484  0.12951254  1
  Fe  Fe21  1  0.87629427  0.12577617  0.87509579  1
  Fe  Fe22  1  0.12762481  0.62641441  0.37333968  1
  Fe  Fe23  1  0.50092564  0.00186536  -0.00020252  1
  Fe  Fe24  1  0.25100193  0.24691705  0.25392962  1
  Fe  Fe25  1  0.87729424  0.37647284  0.37188884  1
  Fe  Fe26  1  0.25208867  0.74910907  0.00067995  1
  Fe  Fe27  1  0.24909341  0.00025127  -0.00209757  1
  Fe  Fe28  1  0.87968933  0.12338174  0.37153884  1
  Fe  Fe29  1  0.49959812  0.00181205  0.75001352  1
  Fe  Fe30  1  0.62468071  0.62226014  0.87440601  1
  Fe  Fe31  1  0.12623840  0.62583224  0.62322133  1
  Fe  Fe32  1  0.37586414  0.37643363  0.37591934  1
  Fe  Fe33  1  0.62583610  0.12712058  0.62601324  1
  Fe  Fe34  1  0.12740370  0.62634127  0.12700706  1
  Fe  Fe35  1  0.25027181  0.50027915  0.25133578  1
  Fe  Fe36  1  0.62609264  0.37550590  0.62828267  1
  Fe  Fe37  1  0.62802216  0.62497958  0.62575714  1
  Fe  Fe38  1  0.49708863  0.74588255  0.74970623  1
  Fe  Fe39  1  0.87443569  0.87770850  0.12504902  1
  Fe  Fe40  1  0.00177438  -0.00003086  0.74786262  1
  Fe  Fe41  1  0.74967149  0.00009317  0.49837616  1
  Fe  Fe42  1  0.75123474  0.75011722  0.00019677  1
  Fe  Fe43  1  0.62457273  0.87322616  0.62469912  1
  Fe  Fe44  1  0.87815187  0.62569149  0.87626831  1
  Fe  Fe45  1  0.12375425  0.37304907  0.37411013  1
  Fe  Fe46  1  0.12461884  0.12685533  0.87530382  1
  Fe  Fe47  1  0.62050248  0.87015247  0.37509399  1
  Fe  Fe48  1  0.12394769  0.87337760  0.62044491  1
  Fe  Fe49  1  0.62286894  0.37283910  0.37349696  1
  Fe  Fe50  1  0.74804850  -0.00027410  0.25138659  1
  Fe  Fe51  1  0.62305984  0.62977530  0.37256817  1
  Fe  Fe52  1  0.49879279  0.00092079  0.24916247  1
  Fe  Fe53  1  0.75193631  0.75030849  0.75079390  1
  Fe  Fe54  1  0.00219525  0.49964936  0.00459638  1
  Fe  Fe55  1  0.24918607  0.00121278  0.25787645  1
  Fe  Fe56  1  0.37311877  0.12400566  0.12450553  1
  Fe  Fe57  1  0.87661993  0.87283469  0.62239268  1
  Fe  Fe58  1  0.37624104  0.87607156  0.87597261  1
  Fe  Fe59  1  0.37337233  0.37858755  0.12341218  1
  Fe  Fe60  1  0.87282395  0.62394983  0.37270391  1
  Fe  Fe61  1  0.37457677  0.61669117  0.87991859  1
  Fe  Fe62  1  0.74880150  0.49888565  0.49804661  1
  Fe  Fe63  1  0.12598922  0.37291917  0.12761773  1
  Fe  Fe64  1  0.49800250  0.25329874  -0.00340122  1
  Fe  Fe65  1  0.75055909  -0.00165604  0.75058009  1
  Fe  Fe66  1  0.50063761  0.50080161  0.24829245  1
  Fe  Fe67  1  0.37083478  0.62197573  0.62210204  1
  Fe  Fe68  1  0.74856799  0.00172180  -0.00110419  1
  Fe  Fe69  1  0.12879213  0.87466425  0.12678296  1
  Fe  Fe70  1  0.50084721  0.50158271  0.50051254  1
  Fe  Fe71  1  0.12580892  0.37426165  0.62464828  1
  Fe  Fe72  1  0.25256018  0.75221612  0.49588263  1
  Fe  Fe73  1  0.25316268  0.25154396  0.75247066  1
  Fe  Fe74  1  -0.00064204  0.25040369  0.50049743  1
  Fe  Fe75  1  0.24996742  0.74857425  0.75208657  1
  Fe  Fe76  1  0.87913195  0.87577960  0.37590209  1
  Fe  Fe77  1  0.62628887  0.62737374  0.12756256  1
  Fe  Fe78  1  -0.00120902  0.75041646  0.24898778  1
  Fe  Fe79  1  0.37482800  0.87541044  0.62410420  1
  Fe  Fe80  1  0.87765059  0.37492004  0.87485584  1
  Fe  Fe81  1  0.37246290  0.37818719  0.62557525  1
  Fe  Fe82  1  0.87459041  0.12639024  0.62528365  1
  Fe  Fe83  1  0.25741213  0.75150805  0.25146026  1
  Fe  Fe84  1  0.62277447  0.87301036  0.87489992  1
  Fe  Fe85  1  0.12206548  0.62609128  0.87641508  1
  Fe  Fe86  1  0.49630145  0.74898112  0.00372153  1
  Fe  Fe87  1  0.12752605  0.12606650  0.62169968  1
  Fe  Fe88  1  0.74749151  0.49671855  -0.00105250  1
  Fe  Fe89  1  0.75217354  0.25302035  0.75042016  1
  Co  Co90  1  0.75247189  0.75330310  0.25047657  1
  Co  Co91  1  0.12110796  0.87385787  0.37622005  1
  Co  Co92  1  0.75015617  0.75103776  0.49873246  1
  Co  Co93  1  0.37826562  0.12617586  0.37739570  1
  Co  Co94  1  0.24231139  0.49861809  0.00047461  1
  Co  Co95  1  0.24725185  0.49840199  0.49742644  1
  Co  Co96  1  0.50718399  0.49643189  0.00459867  1
  Co  Co97  1  0.37635209  0.62259318  0.37572375  1
  Co  Co98  1  0.49813025  0.74749718  0.50327277  1
  Co  Co99  1  0.00061726  0.75014011  0.74747788  1
  Co  Co100  1  0.62254768  0.37584092  0.86843477  1
  Co  Co101  1  0.00439767  0.00097906  0.24588484  1
  Co  Co102  1  0.37293467  0.88066111  0.12440001  1
  Co  Co103  1  0.49800854  0.50294952  0.74656472  1
  Co  Co104  1  0.75066788  0.25219914  -0.00226771  1
  Co  Co105  1  0.25125399  0.25116217  0.49777810  1
  Co  Co106  1  0.12179724  0.12575328  0.37899106  1
  Co  Co107  1  0.00323617  0.50141563  0.24950089  1
  Co  Co108  1  0.49538640  0.25105105  0.24799880  1
  Co  Co109  1  -0.00028005  0.00210867  0.50288638  1
  Co  Co110  1  0.87497580  0.37550902  0.62283140  1
  Co  Co111  1  0.49442056  0.25025944  0.74989999  1
  Co  Co112  1  0.75138573  0.24881175  0.25452418  1
  Co  Co113  1  0.00146232  0.24669355  0.24670606  1
  Co  Co114  1  0.25069487  -0.00151968  0.49498971  1
  Co  Co115  1  0.38088607  0.87481239  0.37613815  1
  Co  Co116  1  0.37456997  0.12240090  0.87545997  1
  Co  Co117  1  0.49339093  0.74870743  0.24497913  1
  Co  Co118  1  0.87020557  0.12430152  0.12731576  1
  Co  Co119  1  0.24623390  0.50049608  0.75119363  1
  Co  Co120  1  0.75417547  0.49965238  0.75103375  1
  Co  Co121  1  0.13108276  0.12512521  0.12479739  1
  Co  Co122  1  0.37610546  0.38324868  0.87549514  1
  Co  Co123  1  0.74560881  0.49846067  0.25134114  1
  Co  Co124  1  0.37303032  0.61838072  0.12201142  1
  Co  Co125  1  -0.00040330  0.74518578  0.49763672  1
  Co  Co126  1  0.00077757  0.24931322  0.74824116  1
  Co  Co127  1  0.00033480  0.74985514  0.00625689  1
