# generated using pymatgen
data_Fe45Co19
_symmetry_space_group_name_H-M   'P 1'
_cell_length_a   11.41311911
_cell_length_b   11.41503558
_cell_length_c   11.41412117
_cell_angle_alpha   90.00711746
_cell_angle_beta   89.99677865
_cell_angle_gamma   90.00538025
_symmetry_Int_Tables_number   1
_chemical_formula_structural   Fe45Co19
_chemical_formula_sum   'Fe90 Co38'
_cell_volume   1487.04493484
_cell_formula_units_Z   2
loop_
 _symmetry_equiv_pos_site_id
 _symmetry_equiv_pos_as_xyz
  1  'x, y, z'
loop_
 _atom_site_type_symbol
 _atom_site_label
 _atom_site_symmetry_multiplicity
 _atom_site_fract_x
 _atom_site_fract_y
 _atom_site_fract_z
 _atom_site_occupancy
  Fe  Fe0  1  0.49874974  0.00149630  0.49893541  1
  Fe  Fe1  1  0.49605059  0.24948688  0.00008524  1
  Fe  Fe2  1  0.00184176  0.50113191  0.50309575  1
  Fe  Fe3  1  0.62958148  0.87761110  0.87383115  1
  Fe  Fe4  1  0.24763521  0.75137496  0.24871960  1
  Fe  Fe5  1  0.87462372  0.12804900  0.12536950  1
  Fe  Fe6  1  0.87574540  0.87557905  0.37377021  1
  Fe  Fe7  1  0.25175300  -0.00247831  -0.00070145  1
  Fe  Fe8  1  0.24749286  0.49852910  0.24752057  1
  Fe  Fe9  1  0.49718082  0.74784122  0.49860239  1
  Fe  Fe10  1  0.00024350  0.49975088  -0.00046615  1
  Fe  Fe11  1  0.62545437  0.37291927  0.37513363  1
  Fe  Fe12  1  0.37052260  0.12382171  0.37430956  1
  Fe  Fe13  1  0.00121602  0.00083019  0.24675618  1
  Fe  Fe14  1  0.24763681  0.49880748  0.50137717  1
  Fe  Fe15  1  0.62977944  0.62064305  0.87540474  1
  Fe  Fe16  1  0.12695357  0.12793231  0.11991816  1
  Fe  Fe17  1  0.00037487  0.00080174  0.50254608  1
  Fe  Fe18  1  0.75269733  0.25249891  -0.00082581  1
  Fe  Fe19  1  0.75038174  0.50140708  0.24777915  1
  Fe  Fe20  1  0.63012955  0.12458204  0.87380913  1
  Fe  Fe21  1  0.12401544  0.62383644  0.37526881  1
  Fe  Fe22  1  0.50169060  0.00171061  0.25100529  1
  Fe  Fe23  1  0.62598743  0.12718309  0.12496487  1
  Fe  Fe24  1  0.37385278  0.37661676  0.37469057  1
  Fe  Fe25  1  0.37356365  0.12185596  0.87539313  1
  Fe  Fe26  1  0.62656920  0.87278234  0.12658381  1
  Fe  Fe27  1  0.74972416  0.00144201  0.24926409  1
  Fe  Fe28  1  0.62413641  0.87396172  0.62533263  1
  Fe  Fe29  1  0.37738796  0.87546753  0.12481927  1
  Fe  Fe30  1  0.00461032  0.24506533  0.75583814  1
  Fe  Fe31  1  0.00026397  0.75008001  0.24998265  1
  Fe  Fe32  1  0.49665136  0.24776316  0.25008155  1
  Fe  Fe33  1  0.00434046  0.25068133  0.25029158  1
  Fe  Fe34  1  0.50018926  0.50237539  0.25117596  1
  Fe  Fe35  1  0.25053053  0.75261254  0.00019085  1
  Fe  Fe36  1  0.12669639  0.37156394  0.11977136  1
  Fe  Fe37  1  0.87915390  0.86989634  0.63055333  1
  Fe  Fe38  1  0.12234523  0.87517951  0.62799445  1
  Fe  Fe39  1  0.62310215  0.37431905  0.62452552  1
  Fe  Fe40  1  0.49927116  -0.00066717  0.75047542  1
  Fe  Fe41  1  0.75204800  0.00048141  0.50244937  1
  Fe  Fe42  1  0.37317187  0.37772781  0.87545444  1
  Fe  Fe43  1  0.87489370  0.62526030  0.12351609  1
  Fe  Fe44  1  0.87666077  0.37424506  0.12680973  1
  Fe  Fe45  1  0.87785338  0.62382107  0.37554266  1
  Fe  Fe46  1  0.62572575  0.62412326  0.62468044  1
  Fe  Fe47  1  0.62661443  0.62542301  0.37628966  1
  Fe  Fe48  1  -0.00494053  0.00176512  -0.00306480  1
  Fe  Fe49  1  0.37468996  0.87562758  0.62665505  1
  Fe  Fe50  1  0.62686613  0.87460109  0.37514204  1
  Fe  Fe51  1  0.00304482  0.50710833  0.75059836  1
  Fe  Fe52  1  0.37053470  0.12482854  0.62567722  1
  Fe  Fe53  1  0.12267508  0.87754010  0.37479775  1
  Fe  Fe54  1  0.37416521  0.62402841  0.62436385  1
  Fe  Fe55  1  0.49896094  0.24993519  0.75147286  1
  Fe  Fe56  1  0.49932508  0.50035041  0.00117895  1
  Fe  Fe57  1  0.37435914  0.87550685  0.37349007  1
  Fe  Fe58  1  0.12429467  0.62686819  0.12172310  1
  Fe  Fe59  1  0.12249476  0.87672741  0.87380960  1
  Fe  Fe60  1  0.50122552  0.74974376  -0.00169501  1
  Fe  Fe61  1  0.87581494  0.37759584  0.87216986  1
  Fe  Fe62  1  0.75051023  0.74996685  -0.00074430  1
  Fe  Fe63  1  0.50081870  0.74895058  0.75249532  1
  Fe  Fe64  1  0.24417743  0.25060671  0.49781868  1
  Fe  Fe65  1  0.62551603  0.12585862  0.62594574  1
  Fe  Fe66  1  0.75201039  0.49844310  0.50288178  1
  Fe  Fe67  1  0.87595739  0.12735457  0.62853814  1
  Fe  Fe68  1  0.24849800  0.75056597  0.75138744  1
  Fe  Fe69  1  0.24907515  0.75202351  0.49863289  1
  Fe  Fe70  1  0.50121628  -0.00025920  -0.00026477  1
  Fe  Fe71  1  0.49987314  0.49970794  0.74910373  1
  Fe  Fe72  1  0.49868933  0.24884976  0.49923018  1
  Fe  Fe73  1  0.87983725  0.37373009  0.62837889  1
  Fe  Fe74  1  0.37325260  0.37430253  0.62499955  1
  Fe  Fe75  1  0.62610133  0.37604941  0.87460197  1
  Fe  Fe76  1  0.24723570  -0.00041565  0.24762745  1
  Fe  Fe77  1  0.37476192  0.62470467  0.12440045  1
  Fe  Fe78  1  0.87803076  0.37603912  0.37295877  1
  Fe  Fe79  1  0.87601159  0.12561490  0.37349976  1
  Fe  Fe80  1  -0.00242797  0.75009491  -0.00478335  1
  Fe  Fe81  1  0.37273091  0.62507991  0.87601940  1
  Fe  Fe82  1  0.87453373  0.87381610  0.12490707  1
  Fe  Fe83  1  0.00394079  0.24932028  0.49872504  1
  Fe  Fe84  1  0.75286282  0.75071493  0.50036626  1
  Fe  Fe85  1  0.24589484  0.50090196  0.75050293  1
  Fe  Fe86  1  0.62331837  0.37400066  0.12590736  1
  Fe  Fe87  1  0.75180709  0.25041178  0.49996694  1
  Fe  Fe88  1  0.24600699  0.24906684  0.75429869  1
  Fe  Fe89  1  0.49981957  0.74748372  0.25107403  1
  Co  Co90  1  0.25521117  0.25186827  -0.00262376  1
  Co  Co91  1  0.12398799  0.12189798  0.37458941  1
  Co  Co92  1  0.24894473  -0.00030063  0.75127489  1
  Co  Co93  1  0.24846146  0.25122642  0.25040966  1
  Co  Co94  1  0.74945885  0.74833915  0.75093492  1
  Co  Co95  1  -0.00072472  0.00418938  0.75210927  1
  Co  Co96  1  0.12640363  0.12344505  0.62494582  1
  Co  Co97  1  0.12386966  0.37663693  0.87731458  1
  Co  Co98  1  0.62562859  0.62561340  0.12381551  1
  Co  Co99  1  0.12801580  0.62498276  0.87948802  1
  Co  Co100  1  0.87605831  0.62826179  0.62460232  1
  Co  Co101  1  0.37572061  0.37643787  0.12618300  1
  Co  Co102  1  0.12569261  0.62829370  0.62261314  1
  Co  Co103  1  0.12709320  0.12290951  0.88148202  1
  Co  Co104  1  -0.00426260  0.25001713  -0.00344269  1
  Co  Co105  1  0.75135720  0.49596676  0.00364715  1
  Co  Co106  1  0.00214112  0.50027653  0.24539416  1
  Co  Co107  1  0.86864894  0.12431549  0.87308923  1
  Co  Co108  1  0.24899451  -0.00235658  0.50063079  1
  Co  Co109  1  0.12207384  0.87564976  0.12082955  1
  Co  Co110  1  0.00142805  0.75075326  0.49782891  1
  Co  Co111  1  0.87075783  0.62189316  0.87604894  1
  Co  Co112  1  0.25041768  0.49894837  0.00168690  1
  Co  Co113  1  0.75181867  0.00054301  0.00385048  1
  Co  Co114  1  0.75102665  0.49868170  0.74550943  1
  Co  Co115  1  0.75303959  0.74776023  0.25018498  1
  Co  Co116  1  0.37522458  0.87452617  0.87516678  1
  Co  Co117  1  0.75126874  0.25064428  0.25014943  1
  Co  Co118  1  0.12248438  0.37341096  0.62824748  1
  Co  Co119  1  0.00126599  0.74426946  0.75551548  1
  Co  Co120  1  0.37262966  0.12257485  0.12469602  1
  Co  Co121  1  0.62723658  0.12585089  0.37612491  1
  Co  Co122  1  0.49963403  0.49998929  0.49957852  1
  Co  Co123  1  0.75202507  -0.00113063  0.74502239  1
  Co  Co124  1  0.87337515  0.87600680  0.87157275  1
  Co  Co125  1  0.12250733  0.37817145  0.37465972  1
  Co  Co126  1  0.37131359  0.62356745  0.37476659  1
  Co  Co127  1  0.74910609  0.25323361  0.74939254  1
