# generated using pymatgen
data_Fe45Co19
_symmetry_space_group_name_H-M   'P 1'
_cell_length_a   11.41556061
_cell_length_b   11.41461204
_cell_length_c   11.41469860
_cell_angle_alpha   90.00810656
_cell_angle_beta   90.00156890
_cell_angle_gamma   89.99211338
_symmetry_Int_Tables_number   1
_chemical_formula_structural   Fe45Co19
_chemical_formula_sum   'Fe90 Co38'
_cell_volume   1487.38309036
_cell_formula_units_Z   2
loop_
 _symmetry_equiv_pos_site_id
 _symmetry_equiv_pos_as_xyz
  1  'x, y, z'
loop_
 _atom_site_type_symbol
 _atom_site_label
 _atom_site_symmetry_multiplicity
 _atom_site_fract_x
 _atom_site_fract_y
 _atom_site_fract_z
 _atom_site_occupancy
  Fe  Fe0  1  0.24905198  0.74855273  0.00132217  1
  Fe  Fe1  1  0.75149243  0.74988286  0.74903996  1
  Fe  Fe2  1  0.75183001  0.25244684  0.24867315  1
  Fe  Fe3  1  -0.00125411  0.74975594  0.00031792  1
  Fe  Fe4  1  0.49393735  0.75439901  0.74905407  1
  Fe  Fe5  1  0.37584630  0.87739125  0.12386134  1
  Fe  Fe6  1  -0.00294870  0.24996332  0.25192171  1
  Fe  Fe7  1  0.37763735  0.62246593  0.12444645  1
  Fe  Fe8  1  -0.00235488  0.74891971  0.50017350  1
  Fe  Fe9  1  0.12776514  0.87441646  0.87400228  1
  Fe  Fe10  1  0.12697263  0.37174000  0.87477447  1
  Fe  Fe11  1  0.75085826  0.00069333  0.24829789  1
  Fe  Fe12  1  0.87406846  0.12465086  0.87416589  1
  Fe  Fe13  1  0.37352395  0.62520408  0.87498613  1
  Fe  Fe14  1  0.12366930  0.62492640  0.12552054  1
  Fe  Fe15  1  0.37388044  0.12470331  0.37971170  1
  Fe  Fe16  1  0.37663314  0.12151119  0.62139335  1
  Fe  Fe17  1  0.49998040  0.49733265  0.75289843  1
  Fe  Fe18  1  0.62682702  0.87261478  0.37514539  1
  Fe  Fe19  1  0.49809913  0.25104256  0.75008187  1
  Fe  Fe20  1  0.24964778  0.49945363  -0.00085694  1
  Fe  Fe21  1  0.24801376  0.49950842  0.25226545  1
  Fe  Fe22  1  0.74756451  0.00249313  -0.00133155  1
  Fe  Fe23  1  0.62386992  0.62594782  0.87404809  1
  Fe  Fe24  1  0.50000359  0.75037444  0.00000338  1
  Fe  Fe25  1  0.37470769  0.37251392  0.37854280  1
  Fe  Fe26  1  0.12435836  0.37221321  0.12566821  1
  Fe  Fe27  1  0.25244405  0.24844881  0.24906938  1
  Fe  Fe28  1  0.25097444  0.75030132  0.24949272  1
  Fe  Fe29  1  0.00234123  0.49898213  0.25269201  1
  Fe  Fe30  1  0.50080239  0.74895061  0.25139033  1
  Fe  Fe31  1  -0.00337132  0.25246305  0.75290987  1
  Fe  Fe32  1  0.00028641  0.74908939  0.75103369  1
  Fe  Fe33  1  0.37440117  0.37605002  0.62261107  1
  Fe  Fe34  1  -0.00234006  0.24901891  0.49831603  1
  Fe  Fe35  1  0.87326218  0.62281064  0.37356293  1
  Fe  Fe36  1  0.62376218  0.37575509  0.12407533  1
  Fe  Fe37  1  0.12508692  0.87594885  0.37244051  1
  Fe  Fe38  1  0.00336989  0.00297657  -0.00137258  1
  Fe  Fe39  1  0.62342341  0.12695232  0.12478196  1
  Fe  Fe40  1  0.12206643  0.12445313  0.62806909  1
  Fe  Fe41  1  0.12380338  0.37313896  0.62332523  1
  Fe  Fe42  1  0.00084679  0.49987604  0.49870415  1
  Fe  Fe43  1  0.49907763  0.00071776  0.25193950  1
  Fe  Fe44  1  0.74906586  0.50179582  0.00165755  1
  Fe  Fe45  1  0.24762890  0.50048515  0.75116073  1
  Fe  Fe46  1  0.87455567  0.87683581  0.87540976  1
  Fe  Fe47  1  0.37474542  0.12560296  0.87611741  1
  Fe  Fe48  1  0.49912443  0.25034029  0.25202575  1
  Fe  Fe49  1  0.75096203  0.74935152  0.50384521  1
  Fe  Fe50  1  0.62579489  0.87438965  0.12460021  1
  Fe  Fe51  1  0.12594310  0.12442548  0.37176581  1
  Fe  Fe52  1  0.87637116  0.37555924  0.12295776  1
  Fe  Fe53  1  0.24926706  0.75068997  0.50127344  1
  Fe  Fe54  1  0.62470779  0.12336662  0.62918690  1
  Fe  Fe55  1  0.75237923  0.74764366  0.00135867  1
  Fe  Fe56  1  0.75295953  0.25041323  0.50134319  1
  Fe  Fe57  1  0.87710556  0.12400892  0.12379847  1
  Fe  Fe58  1  0.25202421  0.24993827  0.74695523  1
  Fe  Fe59  1  0.74992599  0.49960363  0.50137635  1
  Fe  Fe60  1  0.62329432  0.62604730  0.62605026  1
  Fe  Fe61  1  0.24748676  0.00451805  0.00322755  1
  Fe  Fe62  1  0.74995787  0.00099946  0.50257774  1
  Fe  Fe63  1  0.75318437  0.25083243  0.75033789  1
  Fe  Fe64  1  0.37463406  0.62420992  0.62472556  1
  Fe  Fe65  1  0.50256238  0.50015900  0.49785307  1
  Fe  Fe66  1  0.25302516  -0.00281375  0.74853172  1
  Fe  Fe67  1  0.37527370  0.87677974  0.37999514  1
  Fe  Fe68  1  0.62532174  0.87579776  0.87278794  1
  Fe  Fe69  1  0.24780052  0.24748753  0.00281045  1
  Fe  Fe70  1  0.37455510  0.62588134  0.37661971  1
  Fe  Fe71  1  0.24608429  0.49937741  0.49739748  1
  Fe  Fe72  1  0.87314992  0.87646491  0.37477320  1
  Fe  Fe73  1  -0.00035222  0.00186861  0.49910361  1
  Fe  Fe74  1  0.00223146  0.49858760  -0.00298206  1
  Fe  Fe75  1  0.50058358  0.25186859  -0.00212546  1
  Fe  Fe76  1  0.87648530  0.87757186  0.62709132  1
  Fe  Fe77  1  -0.00320650  0.75161667  0.24755652  1
  Fe  Fe78  1  0.12421560  0.87803159  0.12747401  1
  Fe  Fe79  1  0.62471945  0.37334448  0.62406749  1
  Fe  Fe80  1  0.12428436  0.62603609  0.62599802  1
  Fe  Fe81  1  0.50216975  0.00103674  -0.00236819  1
  Fe  Fe82  1  0.50385721  0.50078738  0.25347798  1
  Fe  Fe83  1  0.62751926  0.12795598  0.37499554  1
  Fe  Fe84  1  0.62188244  0.87712655  0.62656296  1
  Fe  Fe85  1  0.12394531  0.87484844  0.62684862  1
  Fe  Fe86  1  0.87612786  0.62031647  0.87055767  1
  Fe  Fe87  1  0.37645123  0.37601839  0.12417994  1
  Fe  Fe88  1  0.62810349  0.37343485  0.87582618  1
  Fe  Fe89  1  0.75224952  0.74739607  0.24467776  1
  Co  Co90  1  0.62685728  0.37231985  0.37629752  1
  Co  Co91  1  0.75153957  -0.00039327  0.75027372  1
  Co  Co92  1  0.74701141  0.49910994  0.24742781  1
  Co  Co93  1  0.87221737  0.12407889  0.37506412  1
  Co  Co94  1  0.00080275  0.24791992  -0.00349013  1
  Co  Co95  1  0.62166188  0.62466530  0.12340452  1
  Co  Co96  1  0.87619120  0.12449003  0.62687008  1
  Co  Co97  1  0.49592045  -0.00177593  0.75232063  1
  Co  Co98  1  0.87453284  0.87966931  0.12186560  1
  Co  Co99  1  0.50133102  0.74833737  0.49983005  1
  Co  Co100  1  0.37154273  0.87626807  0.88037767  1
  Co  Co101  1  0.12378609  0.62873963  0.37396945  1
  Co  Co102  1  0.37905221  0.12554041  0.12210100  1
  Co  Co103  1  0.63007824  0.62727520  0.37558656  1
  Co  Co104  1  0.87820977  0.62083561  0.12538092  1
  Co  Co105  1  0.37126325  0.37232152  0.87517658  1
  Co  Co106  1  0.87621729  0.62179371  0.62772942  1
  Co  Co107  1  0.25296304  0.75171133  0.74805861  1
  Co  Co108  1  0.37681216  0.87749757  0.61812843  1
  Co  Co109  1  0.12584288  0.37036783  0.37511249  1
  Co  Co110  1  0.00444681  0.49738666  0.75049470  1
  Co  Co111  1  0.74630265  0.49902743  0.74814562  1
  Co  Co112  1  -0.00321380  -0.00085880  0.25160185  1
  Co  Co113  1  0.87347033  0.37728805  0.37531711  1
  Co  Co114  1  0.25452852  0.00134023  0.24932635  1
  Co  Co115  1  -0.00075357  -0.00080748  0.75233844  1
  Co  Co116  1  0.50549664  0.00182017  0.49761164  1
  Co  Co117  1  0.12505108  0.62693053  0.87496956  1
  Co  Co118  1  0.87255849  0.37820325  0.87563691  1
  Co  Co119  1  0.75109040  0.24879343  0.00086120  1
  Co  Co120  1  0.12165399  0.12559207  0.13084791  1
  Co  Co121  1  0.50137222  0.24887920  0.50166055  1
  Co  Co122  1  0.49985217  0.49785766  -0.00437192  1
  Co  Co123  1  0.24775392  0.24814592  0.50182157  1
  Co  Co124  1  0.87632300  0.37726478  0.62534002  1
  Co  Co125  1  0.62431362  0.12680043  0.87184551  1
  Co  Co126  1  0.24421097  0.00050394  0.50080792  1
  Co  Co127  1  0.12763266  0.12597118  0.86962904  1
