# generated using pymatgen
data_Fe45Co19
_symmetry_space_group_name_H-M   'P 1'
_cell_length_a   11.41493510
_cell_length_b   11.41451174
_cell_length_c   11.41379857
_cell_angle_alpha   89.99923549
_cell_angle_beta   89.99783237
_cell_angle_gamma   89.98988374
_symmetry_Int_Tables_number   1
_chemical_formula_structural   Fe45Co19
_chemical_formula_sum   'Fe90 Co38'
_cell_volume   1487.17125624
_cell_formula_units_Z   2
loop_
 _symmetry_equiv_pos_site_id
 _symmetry_equiv_pos_as_xyz
  1  'x, y, z'
loop_
 _atom_site_type_symbol
 _atom_site_label
 _atom_site_symmetry_multiplicity
 _atom_site_fract_x
 _atom_site_fract_y
 _atom_site_fract_z
 _atom_site_occupancy
  Fe  Fe0  1  -0.00108895  0.24989314  0.75209285  1
  Fe  Fe1  1  0.12235591  0.37614690  0.37149401  1
  Fe  Fe2  1  0.37516990  0.12431904  0.62334646  1
  Fe  Fe3  1  0.37422593  0.87610263  0.37578187  1
  Fe  Fe4  1  0.00272772  0.75266260  0.50094647  1
  Fe  Fe5  1  0.62170492  0.12405352  0.37467034  1
  Fe  Fe6  1  0.87331705  0.12668304  0.62513172  1
  Fe  Fe7  1  0.37250639  0.62409331  0.12533463  1
  Fe  Fe8  1  0.12805264  0.12518873  0.12487958  1
  Fe  Fe9  1  0.24792631  0.00257628  0.75179198  1
  Fe  Fe10  1  -0.00214266  0.25011295  0.49827840  1
  Fe  Fe11  1  0.50209838  -0.00052189  0.74964418  1
  Fe  Fe12  1  0.62753770  0.62725826  0.62615944  1
  Fe  Fe13  1  0.74928693  -0.00076762  0.75191543  1
  Fe  Fe14  1  0.12715837  0.37127380  0.87648840  1
  Fe  Fe15  1  0.24896434  0.25036980  0.50050287  1
  Fe  Fe16  1  0.75269312  0.49969414  0.49953753  1
  Fe  Fe17  1  0.24828091  0.49716456  0.74839496  1
  Fe  Fe18  1  0.50162429  0.24991797  0.50126009  1
  Fe  Fe19  1  0.12116676  0.62299282  0.37310682  1
  Fe  Fe20  1  0.37521998  0.87427709  0.87460396  1
  Fe  Fe21  1  -0.00007197  0.75092114  0.75006420  1
  Fe  Fe22  1  0.24639230  -0.00058365  0.49918391  1
  Fe  Fe23  1  0.12349729  0.62279464  0.87449348  1
  Fe  Fe24  1  0.00077681  0.00106114  0.75064978  1
  Fe  Fe25  1  0.24768832  0.75083748  0.25290951  1
  Fe  Fe26  1  0.49948457  0.50174305  -0.00067529  1
  Fe  Fe27  1  0.75073576  0.24863394  0.49686305  1
  Fe  Fe28  1  0.74965080  0.00161540  0.49850232  1
  Fe  Fe29  1  0.87976571  0.88016704  0.37127705  1
  Fe  Fe30  1  0.12472676  0.12691012  0.62603977  1
  Fe  Fe31  1  0.87467116  0.87609821  0.87775253  1
  Fe  Fe32  1  0.62454214  0.87461085  0.37391890  1
  Fe  Fe33  1  0.87720997  0.62429271  0.62389461  1
  Fe  Fe34  1  0.87810671  0.62288209  0.87747710  1
  Fe  Fe35  1  0.62514660  0.62556307  0.37343075  1
  Fe  Fe36  1  0.37067779  0.37607556  0.12450783  1
  Fe  Fe37  1  0.49826287  0.74841283  0.24995629  1
  Fe  Fe38  1  0.62619038  0.37461699  0.62526024  1
  Fe  Fe39  1  0.75124256  0.25160077  -0.00312481  1
  Fe  Fe40  1  0.88056458  0.62508576  0.37317077  1
  Fe  Fe41  1  0.62310372  0.12675001  0.12645815  1
  Fe  Fe42  1  0.62459781  0.12669471  0.87438300  1
  Fe  Fe43  1  0.37422163  0.12728163  0.87524691  1
  Fe  Fe44  1  0.37333604  0.87650334  0.62439919  1
  Fe  Fe45  1  0.25176595  0.24815530  0.25041496  1
  Fe  Fe46  1  0.00114617  0.49666997  0.74620200  1
  Fe  Fe47  1  0.49874033  0.25084110  0.74816976  1
  Fe  Fe48  1  0.74950616  0.74859764  -0.00047183  1
  Fe  Fe49  1  0.50067596  0.50187760  0.49926085  1
  Fe  Fe50  1  0.24887835  0.74888002  0.75074955  1
  Fe  Fe51  1  0.00043549  -0.00046933  0.00327927  1
  Fe  Fe52  1  0.87596577  0.87588933  0.62512348  1
  Fe  Fe53  1  0.37767688  0.12386371  0.37546699  1
  Fe  Fe54  1  0.62616926  0.87386573  0.12588910  1
  Fe  Fe55  1  0.49752667  0.50113701  0.25062553  1
  Fe  Fe56  1  0.49897865  -0.00016470  0.24922575  1
  Fe  Fe57  1  0.62617330  0.87318444  0.62602326  1
  Fe  Fe58  1  0.75066133  0.24735999  0.25276738  1
  Fe  Fe59  1  0.37144659  0.87588129  0.12548496  1
  Fe  Fe60  1  0.25127816  0.00323289  -0.00114762  1
  Fe  Fe61  1  0.87695362  0.37550158  0.37264923  1
  Fe  Fe62  1  0.87320182  0.12482676  0.12688115  1
  Fe  Fe63  1  0.24711883  0.49908327  0.50025013  1
  Fe  Fe64  1  0.24961901  0.74685768  -0.00297881  1
  Fe  Fe65  1  0.62467986  0.37632710  0.37310811  1
  Fe  Fe66  1  0.50053649  -0.00036383  -0.00039695  1
  Fe  Fe67  1  0.49893351  0.74906031  -0.00092623  1
  Fe  Fe68  1  0.75214303  0.49851199  0.75155158  1
  Fe  Fe69  1  0.75299609  0.74921293  0.24903608  1
  Fe  Fe70  1  0.74746768  0.00052306  -0.00034963  1
  Fe  Fe71  1  0.49787306  0.25066480  0.00212231  1
  Fe  Fe72  1  0.62386220  0.62785415  0.87241110  1
  Fe  Fe73  1  0.37303608  0.62436049  0.62462022  1
  Fe  Fe74  1  0.00166256  0.75262581  0.00396566  1
  Fe  Fe75  1  0.74966379  0.49944169  -0.00011663  1
  Fe  Fe76  1  0.75294303  0.75085745  0.49827675  1
  Fe  Fe77  1  0.12508669  0.87663707  0.87588373  1
  Fe  Fe78  1  0.12577909  0.62365184  0.12780609  1
  Fe  Fe79  1  0.00222856  0.49526324  0.00669405  1
  Fe  Fe80  1  0.49946134  0.49960343  0.75018081  1
  Fe  Fe81  1  0.37234376  0.37479365  0.87611728  1
  Fe  Fe82  1  0.12025260  0.12151194  0.37313930  1
  Fe  Fe83  1  0.75210060  0.25274114  0.75346635  1
  Fe  Fe84  1  0.75345412  0.50280934  0.24762018  1
  Fe  Fe85  1  0.62564431  0.37527550  0.12589096  1
  Fe  Fe86  1  0.37556827  0.37523697  0.37672443  1
  Fe  Fe87  1  -0.00016991  0.25076236  0.00261709  1
  Fe  Fe88  1  0.49954637  0.74965964  0.50078256  1
  Fe  Fe89  1  0.24600487  0.75127221  0.49932570  1
  Co  Co90  1  0.25091677  0.24795196  0.00161903  1
  Co  Co91  1  0.00022353  0.49764562  0.50083788  1
  Co  Co92  1  0.49774172  0.25197829  0.24955702  1
  Co  Co93  1  0.24745992  0.50101476  -0.00102503  1
  Co  Co94  1  0.12351351  0.37109803  0.62357783  1
  Co  Co95  1  0.12616971  0.87566489  0.62781657  1
  Co  Co96  1  -0.00250633  0.49785275  0.24458657  1
  Co  Co97  1  0.87676228  0.62636736  0.12225931  1
  Co  Co98  1  0.87968684  0.12010356  0.37309108  1
  Co  Co99  1  0.12988440  0.37313498  0.12825529  1
  Co  Co100  1  0.62438017  0.62500073  0.12590296  1
  Co  Co101  1  0.74776707  0.00184315  0.25115322  1
  Co  Co102  1  0.62284930  0.37435198  0.87553119  1
  Co  Co103  1  0.75516826  0.74942562  0.75113137  1
  Co  Co104  1  0.62538560  0.87228183  0.87456586  1
  Co  Co105  1  0.00220092  -0.00189851  0.24249517  1
  Co  Co106  1  0.12452484  0.62549757  0.62435486  1
  Co  Co107  1  0.87024906  0.87598191  0.12502300  1
  Co  Co108  1  0.00108779  0.75384996  0.24541978  1
  Co  Co109  1  0.37435108  0.62365706  0.87294390  1
  Co  Co110  1  0.13178507  0.87589940  0.12334176  1
  Co  Co111  1  0.12124674  0.87829590  0.37411975  1
  Co  Co112  1  0.00099684  0.00043153  0.50465903  1
  Co  Co113  1  0.87876259  0.37727409  0.87722033  1
  Co  Co114  1  0.25147936  0.49995947  0.25256243  1
  Co  Co115  1  0.37553483  0.37562530  0.62261345  1
  Co  Co116  1  0.12447343  0.12675441  0.87661025  1
  Co  Co117  1  -0.00015271  0.24912295  0.24819455  1
  Co  Co118  1  0.87082229  0.37147446  0.12650017  1
  Co  Co119  1  0.37525380  0.12319860  0.12618928  1
  Co  Co120  1  0.87439588  0.37265611  0.62401588  1
  Co  Co121  1  0.37332374  0.62616134  0.37711703  1
  Co  Co122  1  0.24983434  0.00191560  0.25220350  1
  Co  Co123  1  0.25126689  0.25033126  0.74865975  1
  Co  Co124  1  0.87517956  0.12328158  0.87658257  1
  Co  Co125  1  0.49755549  0.75107828  0.74831380  1
  Co  Co126  1  0.50263826  -0.00064162  0.50094560  1
  Co  Co127  1  0.62746465  0.12695234  0.62623669  1
