# generated using pymatgen
data_Fe45Co19
_symmetry_space_group_name_H-M   'P 1'
_cell_length_a   11.41547830
_cell_length_b   11.41515505
_cell_length_c   11.41569533
_cell_angle_alpha   89.99067834
_cell_angle_beta   89.99086233
_cell_angle_gamma   90.00538046
_symmetry_Int_Tables_number   1
_chemical_formula_structural   Fe45Co19
_chemical_formula_sum   'Fe90 Co38'
_cell_volume   1487.57298897
_cell_formula_units_Z   2
loop_
 _symmetry_equiv_pos_site_id
 _symmetry_equiv_pos_as_xyz
  1  'x, y, z'
loop_
 _atom_site_type_symbol
 _atom_site_label
 _atom_site_symmetry_multiplicity
 _atom_site_fract_x
 _atom_site_fract_y
 _atom_site_fract_z
 _atom_site_occupancy
  Fe  Fe0  1  0.25257805  0.74487220  0.25196517  1
  Fe  Fe1  1  0.00091325  0.25034114  -0.00302872  1
  Fe  Fe2  1  0.87592618  0.62473482  0.37641648  1
  Fe  Fe3  1  0.25119805  0.25019509  0.74829065  1
  Fe  Fe4  1  0.62894491  0.37460780  0.37260600  1
  Fe  Fe5  1  0.37513785  0.12374524  0.37524045  1
  Fe  Fe6  1  0.87549886  0.12356028  0.87607931  1
  Fe  Fe7  1  -0.00074093  0.50093560  0.25011383  1
  Fe  Fe8  1  0.62946874  0.37823589  0.87534385  1
  Fe  Fe9  1  0.74789435  0.74934023  0.50104152  1
  Fe  Fe10  1  0.25172493  0.24879855  0.25100661  1
  Fe  Fe11  1  0.24735907  0.50186171  0.50200100  1
  Fe  Fe12  1  0.00212064  -0.00257165  -0.00055960  1
  Fe  Fe13  1  0.74826603  0.75096265  -0.00004053  1
  Fe  Fe14  1  0.50174114  0.49967838  0.50146713  1
  Fe  Fe15  1  0.62557017  0.12353860  0.87506730  1
  Fe  Fe16  1  0.37085311  0.87678982  0.87576445  1
  Fe  Fe17  1  0.00027529  -0.00207291  0.50079826  1
  Fe  Fe18  1  0.87653105  0.62571960  0.62596392  1
  Fe  Fe19  1  0.75031693  0.50264060  0.24660073  1
  Fe  Fe20  1  0.12804383  0.12288554  0.87335043  1
  Fe  Fe21  1  0.12579884  0.12462628  0.37578278  1
  Fe  Fe22  1  0.49729233  0.74910145  0.25454738  1
  Fe  Fe23  1  0.87326940  0.87559703  0.87374119  1
  Fe  Fe24  1  0.49986996  0.00059889  0.24853956  1
  Fe  Fe25  1  0.62589879  0.37309727  0.12558194  1
  Fe  Fe26  1  0.24945881  0.24982215  0.00138704  1
  Fe  Fe27  1  0.62643733  0.87759128  0.87367436  1
  Fe  Fe28  1  0.50130692  -0.00132451  0.00237213  1
  Fe  Fe29  1  0.75022731  0.49969011  0.50367687  1
  Fe  Fe30  1  0.00231748  0.75184284  0.74956708  1
  Fe  Fe31  1  0.87747645  0.12950851  0.62242232  1
  Fe  Fe32  1  0.87507133  0.87418060  0.12332711  1
  Fe  Fe33  1  0.12765976  0.37573698  0.87376970  1
  Fe  Fe34  1  0.74917899  0.74896964  0.25060978  1
  Fe  Fe35  1  0.49724400  0.00018878  0.74837502  1
  Fe  Fe36  1  0.37431643  0.37615088  0.12424584  1
  Fe  Fe37  1  0.87606906  0.37435826  0.12474753  1
  Fe  Fe38  1  0.12385475  0.37342319  0.12746179  1
  Fe  Fe39  1  0.74882788  -0.00052071  0.50328532  1
  Fe  Fe40  1  0.12481765  0.87056868  0.12471746  1
  Fe  Fe41  1  0.00035516  0.49803568  0.49912932  1
  Fe  Fe42  1  0.37310323  0.12303289  0.87757449  1
  Fe  Fe43  1  0.49929905  0.25157565  -0.00089080  1
  Fe  Fe44  1  0.49870098  0.24992239  0.25043425  1
  Fe  Fe45  1  -0.00239845  0.49650126  0.75127959  1
  Fe  Fe46  1  0.49859147  0.50003047  0.75054282  1
  Fe  Fe47  1  0.37608051  0.12767198  0.62336322  1
  Fe  Fe48  1  0.37532671  0.87224094  0.12438800  1
  Fe  Fe49  1  0.37475195  0.62589636  0.62335339  1
  Fe  Fe50  1  0.25002444  0.50547486  0.24581711  1
  Fe  Fe51  1  0.12692329  0.37622258  0.37341964  1
  Fe  Fe52  1  0.87834290  0.62818737  0.12308128  1
  Fe  Fe53  1  -0.00490872  0.24836328  0.25595210  1
  Fe  Fe54  1  0.62176331  0.87306726  0.62543692  1
  Fe  Fe55  1  0.61987094  0.62766756  0.12238317  1
  Fe  Fe56  1  0.62733977  0.12606488  0.37458214  1
  Fe  Fe57  1  0.62400341  0.12738457  0.62672011  1
  Fe  Fe58  1  0.50059925  0.25108195  0.49839215  1
  Fe  Fe59  1  0.62395270  0.62377529  0.37653281  1
  Fe  Fe60  1  -0.00056749  0.75021709  0.25258937  1
  Fe  Fe61  1  0.37162012  0.37780076  0.87602103  1
  Fe  Fe62  1  0.12389437  0.12800929  0.62395705  1
  Fe  Fe63  1  0.62367561  0.87672690  0.37538483  1
  Fe  Fe64  1  0.49847587  0.74840563  0.75241655  1
  Fe  Fe65  1  0.12381224  0.37264750  0.62584881  1
  Fe  Fe66  1  0.12737130  0.62387616  0.87417482  1
  Fe  Fe67  1  0.49906836  0.50059641  0.24932418  1
  Fe  Fe68  1  0.37354478  0.87177505  0.62218996  1
  Fe  Fe69  1  0.25086285  0.00005703  0.50091374  1
  Fe  Fe70  1  0.87345006  0.62368405  0.87517316  1
  Fe  Fe71  1  0.12315660  0.12620708  0.12572867  1
  Fe  Fe72  1  0.75176510  0.00040912  0.74708201  1
  Fe  Fe73  1  0.75154119  0.24796520  0.00189985  1
  Fe  Fe74  1  0.37349879  0.37778181  0.37666499  1
  Fe  Fe75  1  0.75042447  0.00257318  0.24535092  1
  Fe  Fe76  1  0.87326567  0.87545989  0.37669361  1
  Fe  Fe77  1  0.00044397  -0.00072294  0.74687817  1
  Fe  Fe78  1  0.25034689  0.00043600  0.24712001  1
  Fe  Fe79  1  -0.00138279  -0.00004139  0.25141331  1
  Fe  Fe80  1  0.00377183  0.75101730  0.50163664  1
  Fe  Fe81  1  0.12802778  0.87369985  0.37524248  1
  Fe  Fe82  1  0.62452058  0.37493753  0.62781626  1
  Fe  Fe83  1  0.49790659  0.25212424  0.75232483  1
  Fe  Fe84  1  0.74868691  0.74853066  0.74824522  1
  Fe  Fe85  1  0.75391151  0.25268622  0.75026800  1
  Fe  Fe86  1  0.37256134  0.62208536  0.87940340  1
  Fe  Fe87  1  0.62648877  0.62157365  0.87557197  1
  Fe  Fe88  1  0.12956893  0.87648630  0.87236168  1
  Fe  Fe89  1  0.00151336  0.50033297  0.00003675  1
  Co  Co90  1  0.24803566  -0.00063486  0.00472186  1
  Co  Co91  1  0.12949415  0.87452994  0.62607868  1
  Co  Co92  1  0.62307860  0.62539807  0.62619126  1
  Co  Co93  1  0.37581454  0.12609015  0.12351195  1
  Co  Co94  1  0.25114647  0.49952073  0.74770082  1
  Co  Co95  1  0.75404992  0.24714726  0.24831451  1
  Co  Co96  1  0.62385673  0.87228662  0.12663702  1
  Co  Co97  1  0.12276893  0.62414270  0.37372990  1
  Co  Co98  1  -0.00025023  0.25099444  0.75398861  1
  Co  Co99  1  0.49984832  0.75006772  0.49700866  1
  Co  Co100  1  0.75271070  0.49873438  0.74627981  1
  Co  Co101  1  0.87846915  0.37246282  0.62410737  1
  Co  Co102  1  0.87042357  0.37816773  0.37368292  1
  Co  Co103  1  0.00076326  0.75180491  -0.00481693  1
  Co  Co104  1  0.37554685  0.62079366  0.37840231  1
  Co  Co105  1  0.25055793  0.25059888  0.49907199  1
  Co  Co106  1  0.62236390  0.12780227  0.12399048  1
  Co  Co107  1  0.25090433  0.74805180  0.75085472  1
  Co  Co108  1  0.87188517  0.12185398  0.37864689  1
  Co  Co109  1  0.25220590  0.00228282  0.74584977  1
  Co  Co110  1  0.50074971  0.75300706  -0.00492186  1
  Co  Co111  1  0.50142023  0.49649285  -0.00059406  1
  Co  Co112  1  0.75023227  0.50266011  0.00527926  1
  Co  Co113  1  0.87455308  0.87230059  0.62509031  1
  Co  Co114  1  0.12323830  0.62350897  0.62831397  1
  Co  Co115  1  0.12135692  0.62858829  0.12481349  1
  Co  Co116  1  0.87967360  0.12393427  0.12202598  1
  Co  Co117  1  0.37957322  0.62545622  0.12032604  1
  Co  Co118  1  0.50039002  0.00149221  0.50082524  1
  Co  Co119  1  0.24902188  0.74879261  -0.00038044  1
  Co  Co120  1  0.24749433  0.74664741  0.49773642  1
  Co  Co121  1  0.74912999  0.25239920  0.50071785  1
  Co  Co122  1  0.87245558  0.37680565  0.87876004  1
  Co  Co123  1  0.37362526  0.87678603  0.37584796  1
  Co  Co124  1  0.37538972  0.37552114  0.62357904  1
  Co  Co125  1  0.24606171  0.50043743  0.00468462  1
  Co  Co126  1  0.74888713  -0.00072518  0.00227014  1
  Co  Co127  1  0.00011078  0.25225719  0.49312899  1
