# generated using pymatgen
data_Fe45Co19
_symmetry_space_group_name_H-M   'P 1'
_cell_length_a   11.41607785
_cell_length_b   11.41387945
_cell_length_c   11.41464936
_cell_angle_alpha   89.98978552
_cell_angle_beta   90.00277439
_cell_angle_gamma   90.01186020
_symmetry_Int_Tables_number   1
_chemical_formula_structural   Fe45Co19
_chemical_formula_sum   'Fe90 Co38'
_cell_volume   1487.34857349
_cell_formula_units_Z   2
loop_
 _symmetry_equiv_pos_site_id
 _symmetry_equiv_pos_as_xyz
  1  'x, y, z'
loop_
 _atom_site_type_symbol
 _atom_site_label
 _atom_site_symmetry_multiplicity
 _atom_site_fract_x
 _atom_site_fract_y
 _atom_site_fract_z
 _atom_site_occupancy
  Fe  Fe0  1  0.74969458  0.49871045  -0.00118304  1
  Fe  Fe1  1  -0.00023564  0.49903845  0.50074683  1
  Fe  Fe2  1  0.12487604  0.37450930  0.37544238  1
  Fe  Fe3  1  0.87488886  0.87853839  0.87271073  1
  Fe  Fe4  1  0.37356411  0.12481475  0.12564396  1
  Fe  Fe5  1  0.00126321  0.49868276  0.00050140  1
  Fe  Fe6  1  0.75243194  -0.00066108  0.50452200  1
  Fe  Fe7  1  0.62683785  0.12682369  0.12238941  1
  Fe  Fe8  1  0.12612923  0.12679338  0.12830756  1
  Fe  Fe9  1  0.00111411  0.49974541  0.24969963  1
  Fe  Fe10  1  0.24927965  0.49860740  -0.00185425  1
  Fe  Fe11  1  0.62392860  0.62710772  0.12257740  1
  Fe  Fe12  1  0.75140026  0.25105907  0.25228334  1
  Fe  Fe13  1  0.00039485  0.75101470  0.25190806  1
  Fe  Fe14  1  0.24959846  0.75135626  0.25163013  1
  Fe  Fe15  1  0.75424745  0.24901063  0.49637788  1
  Fe  Fe16  1  0.37388040  0.12542280  0.62694302  1
  Fe  Fe17  1  0.62503328  0.12366046  0.37552169  1
  Fe  Fe18  1  0.74988721  0.24913515  0.75291184  1
  Fe  Fe19  1  0.62688114  0.12770201  0.62522752  1
  Fe  Fe20  1  0.12574148  0.87706316  0.37914844  1
  Fe  Fe21  1  -0.00062345  0.00539293  0.50320689  1
  Fe  Fe22  1  0.37307592  0.87465900  0.62571364  1
  Fe  Fe23  1  0.12539805  0.62694538  0.62522025  1
  Fe  Fe24  1  0.12520310  0.87583128  0.12307301  1
  Fe  Fe25  1  0.87174334  0.12256595  0.87430363  1
  Fe  Fe26  1  0.50162440  0.00189246  -0.00054888  1
  Fe  Fe27  1  0.62453441  0.37472303  0.37671364  1
  Fe  Fe28  1  0.25411199  0.25096966  0.25324693  1
  Fe  Fe29  1  0.62477497  0.62762344  0.37767794  1
  Fe  Fe30  1  0.49997401  -0.00002003  0.50169653  1
  Fe  Fe31  1  0.25077017  0.24838153  0.49877107  1
  Fe  Fe32  1  0.87727612  0.37464292  0.87554255  1
  Fe  Fe33  1  0.50264112  0.00226573  0.74952895  1
  Fe  Fe34  1  0.87607026  0.37103913  0.62410509  1
  Fe  Fe35  1  0.87419598  0.62498194  0.37499597  1
  Fe  Fe36  1  0.12606329  0.62532054  0.12396274  1
  Fe  Fe37  1  0.24961138  0.49945208  0.50175754  1
  Fe  Fe38  1  0.12496286  0.37292504  0.87366120  1
  Fe  Fe39  1  0.87362542  0.12608570  0.12483455  1
  Fe  Fe40  1  0.75040251  -0.00276520  0.24741141  1
  Fe  Fe41  1  0.87584443  0.37367609  0.12468343  1
  Fe  Fe42  1  0.50143691  0.74931630  0.75086221  1
  Fe  Fe43  1  0.12599251  0.12512997  0.87136562  1
  Fe  Fe44  1  0.49880211  0.75055591  0.25168797  1
  Fe  Fe45  1  0.87440498  0.87492346  0.37695346  1
  Fe  Fe46  1  0.74996768  0.50134615  0.50224151  1
  Fe  Fe47  1  0.62582881  0.87428110  0.37696025  1
  Fe  Fe48  1  0.37376304  0.87818439  0.37626326  1
  Fe  Fe49  1  -0.00307888  0.24993363  0.25485783  1
  Fe  Fe50  1  0.87601206  0.62387873  0.87376040  1
  Fe  Fe51  1  0.49904281  0.49836092  0.24949778  1
  Fe  Fe52  1  0.12655717  0.37205363  0.12528537  1
  Fe  Fe53  1  0.37516627  0.37218479  0.87258008  1
  Fe  Fe54  1  0.62552238  0.87665919  0.87548079  1
  Fe  Fe55  1  0.00042678  0.75089837  -0.00281430  1
  Fe  Fe56  1  0.74862668  0.50040500  0.24939531  1
  Fe  Fe57  1  0.74894983  0.74969668  0.74874688  1
  Fe  Fe58  1  0.12557466  0.62466347  0.37602175  1
  Fe  Fe59  1  0.37719726  0.12675513  0.87291121  1
  Fe  Fe60  1  0.62419135  0.87176132  0.62389453  1
  Fe  Fe61  1  0.12444691  0.36973018  0.62567524  1
  Fe  Fe62  1  0.37469409  0.62517804  0.62660839  1
  Fe  Fe63  1  0.62395942  0.37305083  0.12360614  1
  Fe  Fe64  1  0.00214747  0.49849099  0.74899875  1
  Fe  Fe65  1  0.00375471  0.75233260  0.74983189  1
  Fe  Fe66  1  0.37519414  0.87663413  0.87491143  1
  Fe  Fe67  1  0.49808040  0.25118814  0.50176022  1
  Fe  Fe68  1  -0.00055574  0.00254509  0.00137833  1
  Fe  Fe69  1  0.50080888  0.49778810  0.50446602  1
  Fe  Fe70  1  0.37522310  0.62414365  0.87302552  1
  Fe  Fe71  1  0.24879080  0.00368240  0.50179020  1
  Fe  Fe72  1  0.24615988  0.75236930  0.75184876  1
  Fe  Fe73  1  0.00025667  -0.00068123  0.25014476  1
  Fe  Fe74  1  0.75095700  0.75133225  -0.00076505  1
  Fe  Fe75  1  0.49970000  0.00052986  0.24966857  1
  Fe  Fe76  1  0.00107109  0.00102110  0.74512881  1
  Fe  Fe77  1  0.24937457  0.00210841  -0.00128462  1
  Fe  Fe78  1  0.37371611  0.62422377  0.12436509  1
  Fe  Fe79  1  0.50266033  0.49745468  0.74680269  1
  Fe  Fe80  1  0.62355820  0.87274655  0.12344520  1
  Fe  Fe81  1  0.74766392  0.49988198  0.74921691  1
  Fe  Fe82  1  0.24857738  0.75047223  -0.00367430  1
  Fe  Fe83  1  0.37451719  0.87544275  0.12314702  1
  Fe  Fe84  1  0.87646397  0.62678279  0.62601017  1
  Fe  Fe85  1  0.87515267  0.62632239  0.12506802  1
  Fe  Fe86  1  0.37457343  0.62232237  0.37569077  1
  Fe  Fe87  1  0.62277543  0.37126174  0.87524495  1
  Fe  Fe88  1  0.49926120  0.49914206  -0.00095372  1
  Fe  Fe89  1  0.49734315  0.25078006  0.25026630  1
  Co  Co90  1  0.24928247  0.49915982  0.25072386  1
  Co  Co91  1  0.49673363  0.75097038  0.49907756  1
  Co  Co92  1  0.87715844  0.87356926  0.62616897  1
  Co  Co93  1  0.12339744  0.62308029  0.87517994  1
  Co  Co94  1  -0.00114415  0.24877046  0.75283165  1
  Co  Co95  1  0.37298779  0.37636582  0.12427723  1
  Co  Co96  1  0.25134525  0.74868837  0.49964869  1
  Co  Co97  1  0.74974785  0.75090897  0.25000501  1
  Co  Co98  1  0.75199053  0.74974700  0.50186305  1
  Co  Co99  1  0.74970505  -0.00172108  0.00222785  1
  Co  Co100  1  0.87312142  0.12024296  0.37342071  1
  Co  Co101  1  0.25025470  -0.00152275  0.25001232  1
  Co  Co102  1  -0.00040940  0.74929947  0.49954752  1
  Co  Co103  1  0.49896120  0.74942451  -0.00153718  1
  Co  Co104  1  0.12328143  0.87999394  0.87532937  1
  Co  Co105  1  -0.00146084  0.24727598  0.49610386  1
  Co  Co106  1  0.37145215  0.37491394  0.62640732  1
  Co  Co107  1  0.00022696  0.24746221  -0.00165609  1
  Co  Co108  1  0.12585600  0.12442922  0.37281262  1
  Co  Co109  1  0.62967514  0.37143304  0.62386286  1
  Co  Co110  1  0.75167057  0.25119334  -0.00167270  1
  Co  Co111  1  0.50073536  0.24991389  0.74617066  1
  Co  Co112  1  0.49796315  0.24942001  0.00204651  1
  Co  Co113  1  0.24962793  0.24872542  -0.00198498  1
  Co  Co114  1  0.24768309  0.49974738  0.75001444  1
  Co  Co115  1  0.25019830  -0.00043521  0.74948085  1
  Co  Co116  1  0.87774187  0.87389998  0.12449510  1
  Co  Co117  1  0.12615147  0.87615052  0.62184638  1
  Co  Co118  1  0.12506642  0.12898157  0.62714939  1
  Co  Co119  1  0.87428490  0.12947004  0.62685844  1
  Co  Co120  1  0.87440136  0.37927166  0.37559883  1
  Co  Co121  1  0.37616771  0.37720176  0.37725462  1
  Co  Co122  1  0.62493754  0.62417806  0.87534162  1
  Co  Co123  1  0.74746011  0.00011576  0.74591400  1
  Co  Co124  1  0.62338694  0.62728427  0.62420565  1
  Co  Co125  1  0.62551254  0.12607001  0.87632740  1
  Co  Co126  1  0.37670667  0.12287685  0.37545236  1
  Co  Co127  1  0.25131281  0.24945403  0.75080591  1
