# generated using pymatgen
data_Fe45Co19
_symmetry_space_group_name_H-M   'P 1'
_cell_length_a   11.41483383
_cell_length_b   11.41454705
_cell_length_c   11.41593870
_cell_angle_alpha   90.00047237
_cell_angle_beta   90.00515732
_cell_angle_gamma   89.98461508
_symmetry_Int_Tables_number   1
_chemical_formula_structural   Fe45Co19
_chemical_formula_sum   'Fe90 Co38'
_cell_volume   1487.44147503
_cell_formula_units_Z   2
loop_
 _symmetry_equiv_pos_site_id
 _symmetry_equiv_pos_as_xyz
  1  'x, y, z'
loop_
 _atom_site_type_symbol
 _atom_site_label
 _atom_site_symmetry_multiplicity
 _atom_site_fract_x
 _atom_site_fract_y
 _atom_site_fract_z
 _atom_site_occupancy
  Fe  Fe0  1  0.87415762  0.12709853  0.62511350  1
  Fe  Fe1  1  0.50011199  0.74415500  0.75336813  1
  Fe  Fe2  1  0.37833928  0.37972129  0.87596798  1
  Fe  Fe3  1  0.74897599  0.49857239  0.25299427  1
  Fe  Fe4  1  0.75346801  0.75361291  -0.00031154  1
  Fe  Fe5  1  0.37911442  0.87201007  0.37328771  1
  Fe  Fe6  1  -0.00620464  0.25011684  -0.00024673  1
  Fe  Fe7  1  0.37340179  0.62316525  0.12093405  1
  Fe  Fe8  1  0.00057883  0.50273689  0.25008283  1
  Fe  Fe9  1  0.62322037  0.37487263  0.62254800  1
  Fe  Fe10  1  0.37499493  0.62701401  0.37303530  1
  Fe  Fe11  1  0.12321125  0.62698716  0.12036169  1
  Fe  Fe12  1  0.62464598  0.12560289  0.62594873  1
  Fe  Fe13  1  0.37459540  0.12536409  0.87572892  1
  Fe  Fe14  1  0.87540051  0.87756993  0.87412862  1
  Fe  Fe15  1  0.62910598  0.12199525  0.37366671  1
  Fe  Fe16  1  0.37281992  0.62343660  0.62755655  1
  Fe  Fe17  1  0.50209061  0.00096392  0.24929628  1
  Fe  Fe18  1  0.12474467  0.87483624  0.62697457  1
  Fe  Fe19  1  -0.00116660  0.74841891  0.75179471  1
  Fe  Fe20  1  0.49995991  0.00177043  0.75129051  1
  Fe  Fe21  1  0.75098358  0.49854529  0.49919974  1
  Fe  Fe22  1  0.87165319  0.62352583  0.87516276  1
  Fe  Fe23  1  0.25201804  0.25215138  0.74841392  1
  Fe  Fe24  1  0.37565085  0.37734072  0.37526894  1
  Fe  Fe25  1  0.37532779  0.87525832  0.62617423  1
  Fe  Fe26  1  0.24944491  0.75397514  0.24373744  1
  Fe  Fe27  1  0.24855256  0.49894608  0.24694985  1
  Fe  Fe28  1  0.62239200  0.87423980  0.12464484  1
  Fe  Fe29  1  -0.00365211  0.24501263  0.25175353  1
  Fe  Fe30  1  0.62997331  0.62598346  0.12376494  1
  Fe  Fe31  1  0.00086993  0.74950638  0.50006257  1
  Fe  Fe32  1  0.12469732  0.12507980  0.12283083  1
  Fe  Fe33  1  0.12744876  0.12502324  0.62305682  1
  Fe  Fe34  1  0.11995650  0.87653225  0.37215288  1
  Fe  Fe35  1  0.88197969  0.87809935  0.12461590  1
  Fe  Fe36  1  0.49796000  0.24983254  0.74845501  1
  Fe  Fe37  1  0.87449456  0.62416474  0.12557898  1
  Fe  Fe38  1  0.37776307  0.37530788  0.12480254  1
  Fe  Fe39  1  0.87126547  0.11735625  0.37758432  1
  Fe  Fe40  1  0.50544232  0.00436313  -0.00121720  1
  Fe  Fe41  1  0.11980968  0.37339570  0.12493922  1
  Fe  Fe42  1  0.86794549  0.12788315  0.87451557  1
  Fe  Fe43  1  0.49831306  0.24885929  0.49877627  1
  Fe  Fe44  1  0.25076798  0.74897902  0.75367981  1
  Fe  Fe45  1  0.12680749  0.12709973  0.87694700  1
  Fe  Fe46  1  0.75094036  0.25153362  0.49870435  1
  Fe  Fe47  1  0.12069479  0.37415727  0.87705477  1
  Fe  Fe48  1  0.75002677  0.49752019  0.74756392  1
  Fe  Fe49  1  0.87482992  0.62554240  0.62383788  1
  Fe  Fe50  1  0.37607374  0.87519705  0.87711967  1
  Fe  Fe51  1  0.50472166  0.24756371  0.00068704  1
  Fe  Fe52  1  0.74856305  -0.00022457  0.74855668  1
  Fe  Fe53  1  0.87470915  0.62685227  0.37539155  1
  Fe  Fe54  1  0.12684415  0.12255017  0.37718233  1
  Fe  Fe55  1  0.75235564  0.49357186  0.00043567  1
  Fe  Fe56  1  0.87656927  0.87527985  0.62516924  1
  Fe  Fe57  1  0.24832319  0.50056888  0.50123355  1
  Fe  Fe58  1  0.75174288  0.75639693  0.25198556  1
  Fe  Fe59  1  0.24984405  0.75154278  0.50058485  1
  Fe  Fe60  1  0.12610948  0.62655519  0.37491435  1
  Fe  Fe61  1  0.87798032  0.37644547  0.37562315  1
  Fe  Fe62  1  0.11949770  0.37371021  0.62210956  1
  Fe  Fe63  1  0.24947057  -0.00305771  0.00261267  1
  Fe  Fe64  1  0.86623295  0.12400811  0.12382269  1
  Fe  Fe65  1  0.62382091  0.87263475  0.62679682  1
  Fe  Fe66  1  0.25019118  0.00098080  0.75069222  1
  Fe  Fe67  1  0.62666646  0.87289470  0.87335779  1
  Fe  Fe68  1  0.12640596  0.62471811  0.87856018  1
  Fe  Fe69  1  0.25002230  0.25066321  0.24918390  1
  Fe  Fe70  1  0.12291471  0.37457255  0.37501653  1
  Fe  Fe71  1  0.62404121  0.62949988  0.37442267  1
  Fe  Fe72  1  0.50005102  -0.00059609  0.50055871  1
  Fe  Fe73  1  0.50010703  0.50348096  0.50023001  1
  Fe  Fe74  1  0.24793867  0.49802010  0.74971999  1
  Fe  Fe75  1  0.37235954  0.12277284  0.37547838  1
  Fe  Fe76  1  0.75000424  0.75523780  0.49793839  1
  Fe  Fe77  1  0.37575539  0.12447757  0.12456311  1
  Fe  Fe78  1  0.49985813  0.74536276  -0.00219088  1
  Fe  Fe79  1  0.25197760  0.25327661  0.00077910  1
  Fe  Fe80  1  0.00055002  0.00416705  0.75116949  1
  Fe  Fe81  1  -0.00097566  0.50069513  0.74920388  1
  Fe  Fe82  1  0.62731293  0.37135656  0.12993629  1
  Fe  Fe83  1  0.62790544  0.62753234  0.62508967  1
  Fe  Fe84  1  0.24876565  -0.00344293  0.24655913  1
  Fe  Fe85  1  0.62466228  0.37507776  0.87314156  1
  Fe  Fe86  1  0.25259465  0.25112812  0.50125189  1
  Fe  Fe87  1  0.50181907  0.50199415  0.24903505  1
  Fe  Fe88  1  0.12195331  0.87516710  0.87855423  1
  Fe  Fe89  1  0.50111927  0.24847139  0.25239446  1
  Co  Co90  1  0.38072792  0.87724987  0.12304285  1
  Co  Co91  1  0.50594858  0.50100140  0.00215810  1
  Co  Co92  1  0.74951406  -0.00827191  0.24960577  1
  Co  Co93  1  0.24741577  0.49550321  0.00174224  1
  Co  Co94  1  0.75273538  0.25123138  0.25597678  1
  Co  Co95  1  0.49920746  0.74791476  0.50403634  1
  Co  Co96  1  -0.00262085  0.00608573  -0.00285455  1
  Co  Co97  1  0.87562808  0.37272363  0.87026437  1
  Co  Co98  1  0.74820680  0.25334738  0.74667605  1
  Co  Co99  1  0.87574583  0.37488973  0.13048533  1
  Co  Co100  1  0.74747716  -0.00386789  0.50307688  1
  Co  Co101  1  0.87827724  0.37374688  0.62399455  1
  Co  Co102  1  0.00124632  0.00050994  0.50369236  1
  Co  Co103  1  -0.00102661  0.74688558  0.25019470  1
  Co  Co104  1  0.00008447  0.50323174  0.49915546  1
  Co  Co105  1  0.25091734  0.75396988  0.00158055  1
  Co  Co106  1  0.25049248  -0.00478194  0.49857046  1
  Co  Co107  1  -0.00361653  0.74718296  -0.00326910  1
  Co  Co108  1  -0.00397473  0.49965716  -0.00010928  1
  Co  Co109  1  0.11638810  0.87554425  0.12247213  1
  Co  Co110  1  -0.00206536  0.24657248  0.49685494  1
  Co  Co111  1  -0.00047815  0.00611863  0.24854989  1
  Co  Co112  1  0.50015321  0.74625273  0.24488742  1
  Co  Co113  1  0.37226120  0.61935186  0.87744382  1
  Co  Co114  1  0.74718510  -0.00276037  -0.00057357  1
  Co  Co115  1  0.12468138  0.62643753  0.62611755  1
  Co  Co116  1  0.00147309  0.24690188  0.75083914  1
  Co  Co117  1  0.37351201  0.12256245  0.62450391  1
  Co  Co118  1  0.88062178  0.87819449  0.37580907  1
  Co  Co119  1  0.74875082  0.25475564  -0.00034116  1
  Co  Co120  1  0.63093529  0.12646049  0.12922830  1
  Co  Co121  1  0.37725264  0.37839174  0.62466482  1
  Co  Co122  1  0.62871498  0.12672302  0.87189108  1
  Co  Co123  1  0.62316375  0.37551328  0.37589227  1
  Co  Co124  1  0.63209257  0.62498718  0.87740840  1
  Co  Co125  1  0.50425049  0.50401691  0.74975516  1
  Co  Co126  1  0.75178714  0.75050792  0.75024712  1
  Co  Co127  1  0.62015110  0.87291912  0.37492635  1
