# generated using pymatgen
data_Fe45Co19
_symmetry_space_group_name_H-M   'P 1'
_cell_length_a   11.41463678
_cell_length_b   11.41474888
_cell_length_c   11.41455423
_cell_angle_alpha   90.01558161
_cell_angle_beta   90.00212856
_cell_angle_gamma   89.99415092
_symmetry_Int_Tables_number   1
_chemical_formula_structural   Fe45Co19
_chemical_formula_sum   'Fe90 Co38'
_cell_volume   1487.26170335
_cell_formula_units_Z   2
loop_
 _symmetry_equiv_pos_site_id
 _symmetry_equiv_pos_as_xyz
  1  'x, y, z'
loop_
 _atom_site_type_symbol
 _atom_site_label
 _atom_site_symmetry_multiplicity
 _atom_site_fract_x
 _atom_site_fract_y
 _atom_site_fract_z
 _atom_site_occupancy
  Fe  Fe0  1  0.74969357  0.49889894  0.25120031  1
  Fe  Fe1  1  0.49819446  0.50031479  -0.00089875  1
  Fe  Fe2  1  0.62761219  0.62629256  0.37602888  1
  Fe  Fe3  1  0.00314391  0.49845714  0.25074315  1
  Fe  Fe4  1  0.12655553  0.37231267  0.87690126  1
  Fe  Fe5  1  0.87447414  0.37259999  0.62175807  1
  Fe  Fe6  1  0.62552777  0.62540440  0.62503743  1
  Fe  Fe7  1  0.87456234  0.37123052  0.87625860  1
  Fe  Fe8  1  0.87287051  0.12648651  0.37597763  1
  Fe  Fe9  1  0.37613032  0.37725814  0.62538328  1
  Fe  Fe10  1  0.37358592  0.37821331  0.12671641  1
  Fe  Fe11  1  0.25248122  0.25207530  0.74795789  1
  Fe  Fe12  1  0.87440923  0.62529752  0.37605212  1
  Fe  Fe13  1  0.87746193  0.12379925  0.12554256  1
  Fe  Fe14  1  0.49967195  0.00163695  -0.00030737  1
  Fe  Fe15  1  0.12920405  0.12452602  0.62410058  1
  Fe  Fe16  1  0.00506373  0.24618405  0.00057290  1
  Fe  Fe17  1  0.62654479  0.12802888  0.87583141  1
  Fe  Fe18  1  0.75201456  0.74996668  0.00241591  1
  Fe  Fe19  1  0.87822867  0.37526589  0.12317666  1
  Fe  Fe20  1  0.00100663  0.75059661  0.50308085  1
  Fe  Fe21  1  0.75201195  0.49952988  0.00005882  1
  Fe  Fe22  1  0.25202012  -0.00343657  0.49766191  1
  Fe  Fe23  1  0.25098040  0.75270622  0.50265460  1
  Fe  Fe24  1  0.12954716  0.12767799  0.37576056  1
  Fe  Fe25  1  0.00140800  0.50021876  0.50003674  1
  Fe  Fe26  1  0.00120033  0.49859218  0.75026602  1
  Fe  Fe27  1  0.62397840  0.37329718  0.37705577  1
  Fe  Fe28  1  0.00257953  0.25172761  0.25219099  1
  Fe  Fe29  1  0.62404641  0.87277190  0.87508819  1
  Fe  Fe30  1  0.24669702  0.00548322  0.00108625  1
  Fe  Fe31  1  0.37241028  0.62559096  0.87015425  1
  Fe  Fe32  1  0.49960413  0.74931075  0.24920634  1
  Fe  Fe33  1  0.12383244  0.62127354  0.12293133  1
  Fe  Fe34  1  0.87747267  0.62608020  0.87517170  1
  Fe  Fe35  1  0.62549324  0.62364912  0.12450737  1
  Fe  Fe36  1  0.74956585  0.49653605  0.74847199  1
  Fe  Fe37  1  -0.00002114  0.24821307  0.74732216  1
  Fe  Fe38  1  0.00037773  0.00161573  0.75033680  1
  Fe  Fe39  1  0.12369412  0.87816811  0.12514185  1
  Fe  Fe40  1  0.75079321  0.75126627  0.24919297  1
  Fe  Fe41  1  0.49990884  0.49989929  0.75004121  1
  Fe  Fe42  1  0.12823852  0.62597032  0.62820707  1
  Fe  Fe43  1  0.25047396  0.49863176  -0.00227840  1
  Fe  Fe44  1  0.74655339  -0.00047701  0.49632042  1
  Fe  Fe45  1  0.75087862  0.75117549  0.74796441  1
  Fe  Fe46  1  0.62453019  0.87687588  0.12699002  1
  Fe  Fe47  1  0.62582357  0.37285698  0.87565830  1
  Fe  Fe48  1  0.49679481  0.24972224  0.00168426  1
  Fe  Fe49  1  0.62470690  0.62629695  0.87444531  1
  Fe  Fe50  1  0.87380208  0.12702899  0.87558651  1
  Fe  Fe51  1  0.12483069  0.62638387  0.37600285  1
  Fe  Fe52  1  0.37329831  0.62350712  0.37258115  1
  Fe  Fe53  1  0.24987222  0.25345992  0.24896280  1
  Fe  Fe54  1  0.75017283  0.00161652  0.00097890  1
  Fe  Fe55  1  0.12549593  0.62716829  0.87195136  1
  Fe  Fe56  1  0.62189160  0.87474676  0.62453208  1
  Fe  Fe57  1  0.37289182  0.12618953  0.87489796  1
  Fe  Fe58  1  0.87783842  0.87797455  0.12422235  1
  Fe  Fe59  1  0.62415971  0.12603590  0.62418957  1
  Fe  Fe60  1  0.74896390  0.00076328  0.75096309  1
  Fe  Fe61  1  0.75025525  0.24979782  0.24936149  1
  Fe  Fe62  1  0.25024384  0.49807330  0.49861893  1
  Fe  Fe63  1  0.87259418  0.12543899  0.62306571  1
  Fe  Fe64  1  0.24992330  0.75040342  -0.00003285  1
  Fe  Fe65  1  0.12428569  0.37298834  0.62188806  1
  Fe  Fe66  1  0.49925347  0.50116911  0.49878735  1
  Fe  Fe67  1  0.87601930  0.37412642  0.37879127  1
  Fe  Fe68  1  0.12297269  0.87397725  0.87457600  1
  Fe  Fe69  1  0.87394786  0.62423209  0.62418631  1
  Fe  Fe70  1  0.00229322  0.00059658  0.25343743  1
  Fe  Fe71  1  0.49682805  0.00056711  0.25393282  1
  Fe  Fe72  1  0.00276534  0.00199227  0.49869331  1
  Fe  Fe73  1  0.87562390  0.87378580  0.37587501  1
  Fe  Fe74  1  0.49740319  0.25016091  0.25074054  1
  Fe  Fe75  1  0.87800397  0.87444513  0.87614349  1
  Fe  Fe76  1  0.37356194  0.87781294  0.12485064  1
  Fe  Fe77  1  0.25215523  -0.00437344  0.74922612  1
  Fe  Fe78  1  0.49849575  -0.00092686  0.75219698  1
  Fe  Fe79  1  0.00101297  0.74932037  0.24768399  1
  Fe  Fe80  1  0.49554583  0.24785035  0.49852500  1
  Fe  Fe81  1  0.49784531  0.00220809  0.49524987  1
  Fe  Fe82  1  0.49764700  0.74972052  -0.00028175  1
  Fe  Fe83  1  0.87610304  0.87690455  0.62425735  1
  Fe  Fe84  1  0.37414048  0.62177352  0.12759567  1
  Fe  Fe85  1  0.62431003  0.37597279  0.12430407  1
  Fe  Fe86  1  0.62422134  0.12397703  0.12790434  1
  Fe  Fe87  1  0.49894160  0.24992562  0.74942070  1
  Fe  Fe88  1  0.49817297  0.74864034  0.50035488  1
  Fe  Fe89  1  0.24871165  0.75084832  0.24903916  1
  Co  Co90  1  0.37417056  0.87717463  0.87897637  1
  Co  Co91  1  0.12305271  0.87694680  0.62500662  1
  Co  Co92  1  0.12478571  0.37302536  0.37831825  1
  Co  Co93  1  0.24841804  0.49557042  0.74974951  1
  Co  Co94  1  0.00075643  0.74886583  0.00207795  1
  Co  Co95  1  0.49634611  0.75039590  0.75030033  1
  Co  Co96  1  0.37342843  0.12295407  0.62611916  1
  Co  Co97  1  0.25067535  0.24745466  0.00282570  1
  Co  Co98  1  0.74757654  0.24896197  0.50007956  1
  Co  Co99  1  0.37504442  0.87204013  0.37382320  1
  Co  Co100  1  0.62344512  0.87362474  0.37408016  1
  Co  Co101  1  0.24524748  0.49946593  0.25209127  1
  Co  Co102  1  0.00335987  0.00425539  -0.00217042  1
  Co  Co103  1  0.37499570  0.37360202  0.87472577  1
  Co  Co104  1  0.37495122  0.37765245  0.37247043  1
  Co  Co105  1  0.62201067  0.37336016  0.62325092  1
  Co  Co106  1  0.87607963  0.62188659  0.12604119  1
  Co  Co107  1  0.37026131  0.12624224  0.37345517  1
  Co  Co108  1  0.62475740  0.12656042  0.37241609  1
  Co  Co109  1  0.74918046  0.24834963  0.00403876  1
  Co  Co110  1  0.37201891  0.62300232  0.62725355  1
  Co  Co111  1  0.37456833  0.12321743  0.12759425  1
  Co  Co112  1  0.50311134  0.50103999  0.25144998  1
  Co  Co113  1  0.00013755  0.75007585  0.74705831  1
  Co  Co114  1  0.00140376  0.24620778  0.50039192  1
  Co  Co115  1  0.25279583  0.75604231  0.74770823  1
  Co  Co116  1  0.37953801  0.87663130  0.62252889  1
  Co  Co117  1  0.12417205  0.87276369  0.37553420  1
  Co  Co118  1  0.75118115  0.00003609  0.25130878  1
  Co  Co119  1  0.12561569  0.37614908  0.12224333  1
  Co  Co120  1  0.25448663  0.25300931  0.50094646  1
  Co  Co121  1  0.74902689  0.49830536  0.50017015  1
  Co  Co122  1  0.75014618  0.75251817  0.50119042  1
  Co  Co123  1  0.12836282  0.12676399  0.86957121  1
  Co  Co124  1  0.00060292  0.50012718  -0.00291672  1
  Co  Co125  1  0.74929883  0.25038930  0.74693521  1
  Co  Co126  1  0.24958273  -0.00228270  0.25268839  1
  Co  Co127  1  0.12487325  0.12526057  0.13054799  1
