# generated using pymatgen
data_Fe45Co19
_symmetry_space_group_name_H-M   'P 1'
_cell_length_a   11.41498959
_cell_length_b   11.41417364
_cell_length_c   11.41660569
_cell_angle_alpha   90.00417114
_cell_angle_beta   90.00141667
_cell_angle_gamma   90.00140615
_symmetry_Int_Tables_number   1
_chemical_formula_structural   Fe45Co19
_chemical_formula_sum   'Fe90 Co38'
_cell_volume   1487.50006985
_cell_formula_units_Z   2
loop_
 _symmetry_equiv_pos_site_id
 _symmetry_equiv_pos_as_xyz
  1  'x, y, z'
loop_
 _atom_site_type_symbol
 _atom_site_label
 _atom_site_symmetry_multiplicity
 _atom_site_fract_x
 _atom_site_fract_y
 _atom_site_fract_z
 _atom_site_occupancy
  Fe  Fe0  1  0.75235182  0.75099479  0.00087156  1
  Fe  Fe1  1  0.37538332  0.87766179  0.62452834  1
  Fe  Fe2  1  0.75090868  0.49734333  -0.00050116  1
  Fe  Fe3  1  0.87459336  0.37319148  0.37456539  1
  Fe  Fe4  1  -0.00051788  0.00273451  0.24888781  1
  Fe  Fe5  1  0.12890682  0.62522095  0.12451416  1
  Fe  Fe6  1  0.50080328  0.25125748  0.25167825  1
  Fe  Fe7  1  0.74939305  -0.00025569  0.49976704  1
  Fe  Fe8  1  0.87701962  0.87549792  0.62719327  1
  Fe  Fe9  1  0.50098679  0.00121437  0.75006884  1
  Fe  Fe10  1  -0.00229535  0.50149889  0.50319881  1
  Fe  Fe11  1  0.49954825  0.24942884  0.74848535  1
  Fe  Fe12  1  -0.00238895  -0.00024558  0.00082028  1
  Fe  Fe13  1  0.12549495  0.12512414  0.87697255  1
  Fe  Fe14  1  0.62534877  0.12447141  0.87618443  1
  Fe  Fe15  1  0.25055472  -0.00259364  -0.00061222  1
  Fe  Fe16  1  0.87500129  0.12595754  0.87729793  1
  Fe  Fe17  1  0.37907455  0.87888644  0.37327509  1
  Fe  Fe18  1  0.24869622  0.00252185  0.25216094  1
  Fe  Fe19  1  0.62919909  0.62636327  0.37593065  1
  Fe  Fe20  1  0.75245835  -0.00244634  -0.00095915  1
  Fe  Fe21  1  0.62607558  0.37267192  0.62217688  1
  Fe  Fe22  1  0.37456216  0.62521599  0.37437695  1
  Fe  Fe23  1  0.87354895  0.87246701  0.37229958  1
  Fe  Fe24  1  0.75127726  0.50089390  0.25049475  1
  Fe  Fe25  1  0.50024946  0.50077539  0.74850420  1
  Fe  Fe26  1  0.25322288  0.24772704  0.49890662  1
  Fe  Fe27  1  0.49502061  0.50464951  0.00234782  1
  Fe  Fe28  1  0.50080280  0.50184001  0.25018679  1
  Fe  Fe29  1  0.24922876  0.49998085  0.25119840  1
  Fe  Fe30  1  0.24952613  0.00279484  0.49800270  1
  Fe  Fe31  1  0.12577547  0.87472904  0.12639867  1
  Fe  Fe32  1  0.50014988  0.75107415  0.49968200  1
  Fe  Fe33  1  0.12205785  0.87893504  0.62361847  1
  Fe  Fe34  1  0.00042361  0.75060820  0.00189425  1
  Fe  Fe35  1  0.25011132  0.75201384  0.49790447  1
  Fe  Fe36  1  0.62683189  0.87187922  0.12363543  1
  Fe  Fe37  1  -0.00178656  0.74852002  0.50146128  1
  Fe  Fe38  1  0.62863824  0.12820585  0.12300098  1
  Fe  Fe39  1  0.62753931  0.62617339  0.62291268  1
  Fe  Fe40  1  -0.00186931  0.50193842  0.25043830  1
  Fe  Fe41  1  0.74969112  0.25072011  0.75018820  1
  Fe  Fe42  1  0.12176599  0.87630869  0.87418253  1
  Fe  Fe43  1  0.37322878  0.62508220  0.62551855  1
  Fe  Fe44  1  0.12688107  0.62299184  0.87577921  1
  Fe  Fe45  1  0.37479337  0.37534139  0.87388105  1
  Fe  Fe46  1  0.62521906  0.87423987  0.37206868  1
  Fe  Fe47  1  0.50073632  0.74919741  0.75057082  1
  Fe  Fe48  1  0.50096488  0.74754456  0.24782191  1
  Fe  Fe49  1  0.87608864  0.62451547  0.87563715  1
  Fe  Fe50  1  0.75113877  0.49876689  0.74910978  1
  Fe  Fe51  1  0.62394446  0.62579263  0.87803336  1
  Fe  Fe52  1  0.49966474  -0.00058565  0.00241805  1
  Fe  Fe53  1  0.50042020  0.25095990  0.00000126  1
  Fe  Fe54  1  0.24730051  0.25378602  0.00254363  1
  Fe  Fe55  1  0.62238732  0.12418758  0.37600978  1
  Fe  Fe56  1  0.87538469  0.12623702  0.37385095  1
  Fe  Fe57  1  0.37365702  0.12573266  0.12586775  1
  Fe  Fe58  1  0.37249547  0.87119130  0.12681362  1
  Fe  Fe59  1  0.12404579  0.37530908  0.62567075  1
  Fe  Fe60  1  0.87833585  0.37531401  0.87282124  1
  Fe  Fe61  1  0.37426780  0.12574548  0.87587223  1
  Fe  Fe62  1  0.25049701  0.49889324  0.49938325  1
  Fe  Fe63  1  -0.00203713  0.74667977  0.24911251  1
  Fe  Fe64  1  0.62641463  0.37506416  0.12543529  1
  Fe  Fe65  1  0.12136200  0.87617332  0.37539006  1
  Fe  Fe66  1  0.49901434  0.49921356  0.49935712  1
  Fe  Fe67  1  0.49760161  0.25008534  0.49993431  1
  Fe  Fe68  1  0.24819456  0.00127986  0.74989009  1
  Fe  Fe69  1  0.12375758  0.62477089  0.37683484  1
  Fe  Fe70  1  0.62498252  0.87588816  0.62591893  1
  Fe  Fe71  1  -0.00078448  0.24913432  0.50120029  1
  Fe  Fe72  1  0.74935361  0.75109091  0.75246523  1
  Fe  Fe73  1  0.75325497  0.49832698  0.50107559  1
  Fe  Fe74  1  0.75048628  -0.00099938  0.75252666  1
  Fe  Fe75  1  0.37312558  0.37535459  0.12833984  1
  Fe  Fe76  1  0.24891895  0.49905687  0.75046120  1
  Fe  Fe77  1  0.24994984  0.24848974  0.74740514  1
  Fe  Fe78  1  0.62268934  0.37594682  0.87587177  1
  Fe  Fe79  1  0.00321304  0.49715417  0.00031506  1
  Fe  Fe80  1  0.00213376  0.25104806  0.00255631  1
  Fe  Fe81  1  0.00218700  0.24729099  0.24657947  1
  Fe  Fe82  1  0.87537981  0.12386379  0.62423024  1
  Fe  Fe83  1  0.74976845  0.00184529  0.24853940  1
  Fe  Fe84  1  0.87357850  0.37249282  0.12607990  1
  Fe  Fe85  1  0.24855504  0.75150983  0.74996915  1
  Fe  Fe86  1  0.37827177  0.87338112  0.87531178  1
  Fe  Fe87  1  0.00149155  0.24817252  0.74924403  1
  Fe  Fe88  1  0.12512491  0.37271629  0.37348396  1
  Fe  Fe89  1  0.00123301  0.74672279  0.74822066  1
  Co  Co90  1  0.24942473  0.24667060  0.25064971  1
  Co  Co91  1  0.12557466  0.37708010  0.12935016  1
  Co  Co92  1  0.87819445  0.87263748  0.87394990  1
  Co  Co93  1  0.25096793  0.49749275  -0.00047897  1
  Co  Co94  1  0.62787391  0.62382544  0.12289369  1
  Co  Co95  1  0.74979576  0.25363465  -0.00358023  1
  Co  Co96  1  0.62616944  0.37593307  0.37758749  1
  Co  Co97  1  0.24967885  0.75161674  -0.00371243  1
  Co  Co98  1  0.87557504  0.37329702  0.62604088  1
  Co  Co99  1  0.50241718  0.00029967  0.24360606  1
  Co  Co100  1  0.12462822  0.37444319  0.87134007  1
  Co  Co101  1  0.87573540  0.62273527  0.12142608  1
  Co  Co102  1  0.75185888  0.74634466  0.24676953  1
  Co  Co103  1  0.37396276  0.37522396  0.37301367  1
  Co  Co104  1  0.50274905  -0.00098607  0.50236371  1
  Co  Co105  1  0.75125429  0.24764352  0.49926671  1
  Co  Co106  1  0.74805721  0.25004212  0.25313025  1
  Co  Co107  1  0.37927166  0.12221439  0.37337776  1
  Co  Co108  1  0.62235136  0.87440699  0.87815790  1
  Co  Co109  1  0.24749349  0.75157932  0.25630521  1
  Co  Co110  1  0.37584524  0.12249877  0.62484856  1
  Co  Co111  1  0.00001280  0.50284605  0.74736634  1
  Co  Co112  1  0.87267939  0.62664517  0.37786904  1
  Co  Co113  1  0.37364380  0.62523426  0.87232964  1
  Co  Co114  1  0.87200155  0.12717820  0.12365926  1
  Co  Co115  1  0.87146447  0.62700602  0.62561164  1
  Co  Co116  1  0.62507670  0.12586029  0.62563191  1
  Co  Co117  1  0.12366210  0.12715176  0.37609584  1
  Co  Co118  1  0.37500096  0.37635008  0.62506780  1
  Co  Co119  1  -0.00289408  0.00016988  0.49725463  1
  Co  Co120  1  0.74988551  0.75447831  0.50094120  1
  Co  Co121  1  -0.00024743  0.00296697  0.75194572  1
  Co  Co122  1  0.49697774  0.74674846  0.00268269  1
  Co  Co123  1  0.87563203  0.87532544  0.12731674  1
  Co  Co124  1  0.12624755  0.12168711  0.12309058  1
  Co  Co125  1  0.12364084  0.12323444  0.62248921  1
  Co  Co126  1  0.12830031  0.62450935  0.62301852  1
  Co  Co127  1  0.36799928  0.62802795  0.12776152  1
