# generated using pymatgen
data_Fe45Co19
_symmetry_space_group_name_H-M   'P 1'
_cell_length_a   11.41608724
_cell_length_b   11.41615024
_cell_length_c   11.41489542
_cell_angle_alpha   90.00158712
_cell_angle_beta   89.99991589
_cell_angle_gamma   89.99602569
_symmetry_Int_Tables_number   1
_chemical_formula_structural   Fe45Co19
_chemical_formula_sum   'Fe90 Co38'
_cell_volume   1487.67782800
_cell_formula_units_Z   2
loop_
 _symmetry_equiv_pos_site_id
 _symmetry_equiv_pos_as_xyz
  1  'x, y, z'
loop_
 _atom_site_type_symbol
 _atom_site_label
 _atom_site_symmetry_multiplicity
 _atom_site_fract_x
 _atom_site_fract_y
 _atom_site_fract_z
 _atom_site_occupancy
  Fe  Fe0  1  0.37286629  0.37514925  0.37326866  1
  Fe  Fe1  1  0.62822511  0.62036938  0.62419405  1
  Fe  Fe2  1  0.00148334  0.25282624  0.00387170  1
  Fe  Fe3  1  0.12488156  0.61950864  0.12205317  1
  Fe  Fe4  1  0.75221865  -0.00088531  0.25178821  1
  Fe  Fe5  1  0.37552201  0.12548793  0.12489213  1
  Fe  Fe6  1  0.62227379  0.12441974  0.87957862  1
  Fe  Fe7  1  0.25018484  0.24830747  0.50123114  1
  Fe  Fe8  1  0.62378307  0.37305609  0.87742374  1
  Fe  Fe9  1  0.75038526  0.50000538  -0.00157434  1
  Fe  Fe10  1  -0.00216392  -0.00083116  0.00027113  1
  Fe  Fe11  1  0.74635097  0.24937510  0.74955231  1
  Fe  Fe12  1  0.75040120  0.00228446  0.49857980  1
  Fe  Fe13  1  0.62214890  0.62522515  0.87700794  1
  Fe  Fe14  1  0.62803728  0.37445115  0.37717686  1
  Fe  Fe15  1  0.24927278  0.74634075  0.25029566  1
  Fe  Fe16  1  0.62156434  0.12495202  0.37598457  1
  Fe  Fe17  1  0.50053866  0.75083656  0.50286106  1
  Fe  Fe18  1  0.86616596  0.37702950  0.62373684  1
  Fe  Fe19  1  0.12473764  0.87661016  0.62620644  1
  Fe  Fe20  1  0.25030433  0.74753306  0.50191047  1
  Fe  Fe21  1  -0.00367785  0.49928206  0.74901470  1
  Fe  Fe22  1  0.37879924  0.62594594  0.37521516  1
  Fe  Fe23  1  0.37640594  0.62279290  0.12268656  1
  Fe  Fe24  1  -0.00212982  0.74712378  0.50379331  1
  Fe  Fe25  1  0.37573890  0.87312340  0.87386571  1
  Fe  Fe26  1  0.74953002  0.75019254  0.25211368  1
  Fe  Fe27  1  0.12732510  0.37650916  0.62380900  1
  Fe  Fe28  1  0.50212095  0.49520228  0.74719667  1
  Fe  Fe29  1  0.25378555  0.50217031  0.50089562  1
  Fe  Fe30  1  0.12227338  0.12523553  0.87403299  1
  Fe  Fe31  1  0.74991329  0.00176030  0.75231669  1
  Fe  Fe32  1  0.74871611  0.50384558  0.25412560  1
  Fe  Fe33  1  0.24768601  0.74643565  0.74777279  1
  Fe  Fe34  1  0.12362912  0.37692420  0.87616896  1
  Fe  Fe35  1  0.37924151  0.62538701  0.87406388  1
  Fe  Fe36  1  0.00012688  0.00083955  0.50142099  1
  Fe  Fe37  1  0.12351776  0.12690642  0.37680294  1
  Fe  Fe38  1  0.12336393  0.87442272  0.87348713  1
  Fe  Fe39  1  0.62667355  0.87886910  0.12123602  1
  Fe  Fe40  1  0.37277986  0.87473339  0.12423085  1
  Fe  Fe41  1  0.37447857  0.87430833  0.37660522  1
  Fe  Fe42  1  0.50160797  0.75032606  0.24649056  1
  Fe  Fe43  1  0.12545700  0.87450478  0.37709725  1
  Fe  Fe44  1  0.00443818  0.25473982  0.24871214  1
  Fe  Fe45  1  0.25185676  0.50077583  0.74996094  1
  Fe  Fe46  1  0.87828424  0.12785115  0.37515534  1
  Fe  Fe47  1  -0.00057591  -0.00219570  0.25012731  1
  Fe  Fe48  1  0.00186456  0.49545458  0.25114140  1
  Fe  Fe49  1  0.24915736  0.00093681  0.25227512  1
  Fe  Fe50  1  0.24931272  0.00338967  0.74867862  1
  Fe  Fe51  1  0.74958404  0.75137270  -0.00093167  1
  Fe  Fe52  1  0.24904546  0.74696788  -0.00106365  1
  Fe  Fe53  1  0.62801245  0.87585454  0.62499363  1
  Fe  Fe54  1  0.37664371  0.12516237  0.37606823  1
  Fe  Fe55  1  0.74748707  0.24698336  0.24974888  1
  Fe  Fe56  1  0.00091730  0.75218790  0.24755714  1
  Fe  Fe57  1  0.24762074  0.25064573  0.00028750  1
  Fe  Fe58  1  0.62492658  0.87494146  0.37721413  1
  Fe  Fe59  1  0.49917407  -0.00150656  0.25007498  1
  Fe  Fe60  1  0.00118924  0.25185814  0.74669181  1
  Fe  Fe61  1  0.37715854  0.37214712  0.87390592  1
  Fe  Fe62  1  0.12337009  0.62302683  0.37674611  1
  Fe  Fe63  1  0.87756865  0.62643748  0.87468605  1
  Fe  Fe64  1  0.87456560  0.62531882  0.12598374  1
  Fe  Fe65  1  0.62217077  0.12707353  0.62203314  1
  Fe  Fe66  1  0.25091123  0.00169780  -0.00101227  1
  Fe  Fe67  1  0.75002334  0.74850295  0.75114534  1
  Fe  Fe68  1  0.87412262  0.37226047  0.87520738  1
  Fe  Fe69  1  0.49933509  0.49590797  0.50241209  1
  Fe  Fe70  1  0.87190713  0.37548240  0.12709158  1
  Fe  Fe71  1  0.75245463  0.74471250  0.49697832  1
  Fe  Fe72  1  0.74748466  0.24879792  0.00340389  1
  Fe  Fe73  1  0.50229591  0.25152568  0.24707727  1
  Fe  Fe74  1  0.87382263  0.87490557  0.62562175  1
  Fe  Fe75  1  0.37420039  0.87557082  0.62515204  1
  Fe  Fe76  1  0.12089461  0.62327444  0.87479918  1
  Fe  Fe77  1  0.37673312  0.12848661  0.62526452  1
  Fe  Fe78  1  0.37750381  0.12950238  0.87451941  1
  Fe  Fe79  1  0.24622652  0.25144285  0.24825625  1
  Fe  Fe80  1  -0.00531968  0.49740260  0.49852254  1
  Fe  Fe81  1  0.87633888  0.12757831  0.87496252  1
  Fe  Fe82  1  0.87626856  0.12658876  0.62583481  1
  Fe  Fe83  1  0.50204760  0.49995193  0.24820171  1
  Fe  Fe84  1  0.37193334  0.37763514  0.12418858  1
  Fe  Fe85  1  0.50082317  0.00033859  0.75003366  1
  Fe  Fe86  1  0.50245942  0.75077682  0.74835012  1
  Fe  Fe87  1  0.87733565  0.87347058  0.87365044  1
  Fe  Fe88  1  0.87541046  0.12442904  0.12570406  1
  Fe  Fe89  1  0.12639775  0.87682562  0.12362130  1
  Co  Co90  1  0.37774044  0.62508696  0.62667056  1
  Co  Co91  1  -0.00160729  0.00050990  0.75025675  1
  Co  Co92  1  0.37192173  0.37089563  0.62830870  1
  Co  Co93  1  0.49987761  0.75211389  0.00142646  1
  Co  Co94  1  0.25297694  0.50109133  -0.00555923  1
  Co  Co95  1  0.87353428  0.87442851  0.12450959  1
  Co  Co96  1  0.75409025  0.00047278  -0.00326233  1
  Co  Co97  1  0.49604511  -0.00097032  -0.00092349  1
  Co  Co98  1  0.62485192  0.11966030  0.12416818  1
  Co  Co99  1  0.50507937  0.25246083  0.74761544  1
  Co  Co100  1  0.62398926  0.87632793  0.87541566  1
  Co  Co101  1  0.75325428  0.50505116  0.49171007  1
  Co  Co102  1  0.12888104  0.37557989  0.37902288  1
  Co  Co103  1  0.87605237  0.87391373  0.37747152  1
  Co  Co104  1  0.25053703  0.00175358  0.50046523  1
  Co  Co105  1  0.87149684  0.37103815  0.37257071  1
  Co  Co106  1  0.88061294  0.62690568  0.36989830  1
  Co  Co107  1  0.24556462  0.24935149  0.75116572  1
  Co  Co108  1  0.49937455  0.25473233  0.49932766  1
  Co  Co109  1  0.87112894  0.62149609  0.62769566  1
  Co  Co110  1  0.12404643  0.12277373  0.12497785  1
  Co  Co111  1  0.74870006  0.49950268  0.75681410  1
  Co  Co112  1  0.12885702  0.38045298  0.12142781  1
  Co  Co113  1  0.12351928  0.62042085  0.62409975  1
  Co  Co114  1  0.62901640  0.37782336  0.12664412  1
  Co  Co115  1  -0.00020367  0.74789215  0.74654052  1
  Co  Co116  1  0.50150342  0.25171592  0.00571900  1
  Co  Co117  1  0.24961988  0.50273961  0.25234567  1
  Co  Co118  1  0.12344899  0.12551922  0.62461016  1
  Co  Co119  1  -0.00535488  0.49837739  0.00036416  1
  Co  Co120  1  0.00138176  0.74984118  0.00202354  1
  Co  Co121  1  0.62677958  0.62478378  0.12290620  1
  Co  Co122  1  -0.00175693  0.25456563  0.50247299  1
  Co  Co123  1  0.61918251  0.62635731  0.37601872  1
  Co  Co124  1  0.75074182  0.24622456  0.49873510  1
  Co  Co125  1  0.50106172  0.49761046  0.00097070  1
  Co  Co126  1  0.63278501  0.37733779  0.62089962  1
  Co  Co127  1  0.49934139  -0.00122226  0.50069024  1
