# generated using pymatgen
data_Fe45Co19
_symmetry_space_group_name_H-M   'P 1'
_cell_length_a   11.41513997
_cell_length_b   11.41572998
_cell_length_c   11.41498439
_cell_angle_alpha   90.00214678
_cell_angle_beta   90.00583129
_cell_angle_gamma   90.00001157
_symmetry_Int_Tables_number   1
_chemical_formula_structural   Fe45Co19
_chemical_formula_sum   'Fe90 Co38'
_cell_volume   1487.51121181
_cell_formula_units_Z   2
loop_
 _symmetry_equiv_pos_site_id
 _symmetry_equiv_pos_as_xyz
  1  'x, y, z'
loop_
 _atom_site_type_symbol
 _atom_site_label
 _atom_site_symmetry_multiplicity
 _atom_site_fract_x
 _atom_site_fract_y
 _atom_site_fract_z
 _atom_site_occupancy
  Fe  Fe0  1  0.62379474  0.12242963  0.12561765  1
  Fe  Fe1  1  0.24856533  -0.00018531  0.25026308  1
  Fe  Fe2  1  -0.00238993  0.74970755  0.24956238  1
  Fe  Fe3  1  -0.00001957  0.75261963  0.74940197  1
  Fe  Fe4  1  0.75038458  0.75202436  0.75006038  1
  Fe  Fe5  1  0.25215362  0.74932613  0.24843914  1
  Fe  Fe6  1  0.37573337  0.37391132  0.62529705  1
  Fe  Fe7  1  0.12463849  0.62622449  0.87348222  1
  Fe  Fe8  1  0.62734053  0.87878396  0.62469839  1
  Fe  Fe9  1  0.12508447  0.87401487  0.37617458  1
  Fe  Fe10  1  0.49882709  0.75119147  0.74715170  1
  Fe  Fe11  1  0.87214986  0.37755644  0.87327499  1
  Fe  Fe12  1  0.37461416  0.87748439  0.62207705  1
  Fe  Fe13  1  0.37699822  0.12523463  0.12404095  1
  Fe  Fe14  1  0.37543647  0.12649682  0.37410529  1
  Fe  Fe15  1  0.37683360  0.87589831  0.12403949  1
  Fe  Fe16  1  0.24738788  -0.00104453  0.00159263  1
  Fe  Fe17  1  0.25046175  0.75215404  0.74716341  1
  Fe  Fe18  1  0.49914209  -0.00076149  0.25092784  1
  Fe  Fe19  1  0.75160609  0.75177263  0.49886434  1
  Fe  Fe20  1  0.12458721  0.37513530  0.62593456  1
  Fe  Fe21  1  0.12484812  0.37419884  0.87395911  1
  Fe  Fe22  1  0.74767013  0.25018078  0.00005780  1
  Fe  Fe23  1  0.50246771  0.00213676  0.49833209  1
  Fe  Fe24  1  0.00022510  -0.00413777  0.75388958  1
  Fe  Fe25  1  0.74860189  0.50079695  0.49788809  1
  Fe  Fe26  1  0.62518395  0.62597461  0.62406625  1
  Fe  Fe27  1  0.37751805  0.62616555  0.87563527  1
  Fe  Fe28  1  0.74732773  -0.00253648  -0.00349415  1
  Fe  Fe29  1  0.87491317  0.12502311  0.12470523  1
  Fe  Fe30  1  0.12605889  0.62412612  0.37455432  1
  Fe  Fe31  1  0.12476847  0.62391752  0.62606797  1
  Fe  Fe32  1  0.37789002  0.37353524  0.87497253  1
  Fe  Fe33  1  -0.00107756  0.00100750  0.49689763  1
  Fe  Fe34  1  -0.00319544  0.24929443  0.50296521  1
  Fe  Fe35  1  0.12358412  0.12366272  0.62605615  1
  Fe  Fe36  1  0.87288248  0.37073805  0.37580929  1
  Fe  Fe37  1  0.12429327  0.12507235  0.87667015  1
  Fe  Fe38  1  0.62636790  0.87284977  0.37259101  1
  Fe  Fe39  1  0.25357510  0.50087384  0.24869339  1
  Fe  Fe40  1  0.87368857  0.62191222  0.62760856  1
  Fe  Fe41  1  0.87558924  0.87620400  0.12280042  1
  Fe  Fe42  1  0.12429593  0.37447428  0.37336430  1
  Fe  Fe43  1  0.87261668  0.87997385  0.62423819  1
  Fe  Fe44  1  0.24958085  0.25154534  0.24690963  1
  Fe  Fe45  1  0.24973032  0.25157797  0.00186519  1
  Fe  Fe46  1  0.50250997  0.75104810  0.00426394  1
  Fe  Fe47  1  0.37334931  0.87530956  0.37714272  1
  Fe  Fe48  1  0.25092417  0.49970589  0.50031126  1
  Fe  Fe49  1  -0.00044392  0.49990556  -0.00024665  1
  Fe  Fe50  1  0.62814112  0.37223246  0.62490700  1
  Fe  Fe51  1  0.50344827  0.24672810  0.50003993  1
  Fe  Fe52  1  0.24912900  -0.00080839  0.74909174  1
  Fe  Fe53  1  0.62564572  0.37276204  0.87312759  1
  Fe  Fe54  1  0.74714261  0.50182170  0.00186717  1
  Fe  Fe55  1  0.25104016  0.50053596  -0.00002410  1
  Fe  Fe56  1  0.12355208  0.12800578  0.37255600  1
  Fe  Fe57  1  0.87447333  0.37454477  0.12433151  1
  Fe  Fe58  1  0.12419359  0.62383800  0.12514020  1
  Fe  Fe59  1  0.75198768  -0.00163517  0.25336422  1
  Fe  Fe60  1  0.50237224  0.50224186  0.49541006  1
  Fe  Fe61  1  0.24976349  0.74979373  0.50233782  1
  Fe  Fe62  1  0.00098810  0.75209462  0.00000704  1
  Fe  Fe63  1  0.50044276  0.74808815  0.49733875  1
  Fe  Fe64  1  0.62433978  0.62763133  0.87408255  1
  Fe  Fe65  1  0.24958708  0.75006000  0.00202138  1
  Fe  Fe66  1  0.37535093  0.12668815  0.87577717  1
  Fe  Fe67  1  -0.00398329  0.25163642  0.74812888  1
  Fe  Fe68  1  0.75086249  0.24228876  0.50235186  1
  Fe  Fe69  1  0.25124032  0.49996779  0.75007153  1
  Fe  Fe70  1  -0.00320772  0.49863249  0.24968110  1
  Fe  Fe71  1  0.37616204  0.87439623  0.87719665  1
  Fe  Fe72  1  0.50208890  0.49987452  0.74908514  1
  Fe  Fe73  1  0.62088719  0.37701656  0.12821405  1
  Fe  Fe74  1  -0.00234724  0.49968681  0.49999548  1
  Fe  Fe75  1  0.38062605  0.37735386  0.12436142  1
  Fe  Fe76  1  0.62317412  0.62387135  0.13375058  1
  Fe  Fe77  1  0.50071739  -0.00101816  0.75212417  1
  Fe  Fe78  1  0.62372218  0.12724320  0.87268628  1
  Fe  Fe79  1  0.74730205  0.75059315  0.00409413  1
  Fe  Fe80  1  0.87371581  0.62493430  0.87504146  1
  Fe  Fe81  1  0.37583251  0.12520242  0.62576405  1
  Fe  Fe82  1  0.87104200  0.62579607  0.37197831  1
  Fe  Fe83  1  0.00046393  0.00078816  0.24858168  1
  Fe  Fe84  1  0.37702117  0.37217331  0.37561226  1
  Fe  Fe85  1  0.24902148  0.24785123  0.50127905  1
  Fe  Fe86  1  0.00100934  0.25054577  0.00251725  1
  Fe  Fe87  1  0.74789133  0.24981751  0.25024124  1
  Fe  Fe88  1  0.87570827  0.12373288  0.87588297  1
  Fe  Fe89  1  -0.00158571  0.74909275  0.50065189  1
  Co  Co90  1  0.00085657  -0.00089341  0.00089099  1
  Co  Co91  1  0.74940503  0.00237866  0.49484462  1
  Co  Co92  1  0.74872479  -0.00150097  0.75603686  1
  Co  Co93  1  0.62416947  0.87819570  0.12790604  1
  Co  Co94  1  -0.00005087  0.49901942  0.75006483  1
  Co  Co95  1  0.49852180  0.50179802  0.25813259  1
  Co  Co96  1  0.50373022  0.50100234  -0.00198953  1
  Co  Co97  1  0.37869112  0.62319522  0.12323942  1
  Co  Co98  1  0.63019338  0.62884204  0.37013572  1
  Co  Co99  1  0.50185463  0.00055708  -0.00180819  1
  Co  Co100  1  0.50031981  0.25012390  0.74924194  1
  Co  Co101  1  0.74695182  0.50170915  0.75101856  1
  Co  Co102  1  0.00026329  0.25173549  0.24658539  1
  Co  Co103  1  0.87428021  0.11728602  0.62764806  1
  Co  Co104  1  0.37244372  0.62672714  0.37743783  1
  Co  Co105  1  0.62450858  0.12473930  0.37211614  1
  Co  Co106  1  0.12415672  0.87429924  0.12625358  1
  Co  Co107  1  0.75378227  0.24796301  0.74887288  1
  Co  Co108  1  0.24894108  0.00392225  0.49876152  1
  Co  Co109  1  0.75200222  0.49645282  0.24995406  1
  Co  Co110  1  0.62672410  0.12130953  0.62873146  1
  Co  Co111  1  0.49641170  0.75022708  0.25150980  1
  Co  Co112  1  0.75368798  0.75373373  0.24692460  1
  Co  Co113  1  0.37612456  0.62343499  0.62386865  1
  Co  Co114  1  0.12711654  0.87474273  0.87625030  1
  Co  Co115  1  0.50163200  0.24895083  0.00067781  1
  Co  Co116  1  0.50115819  0.24902117  0.24946038  1
  Co  Co117  1  0.12438177  0.87657640  0.62168120  1
  Co  Co118  1  0.24938214  0.24908788  0.74938578  1
  Co  Co119  1  0.87063669  0.37796960  0.62470907  1
  Co  Co120  1  0.87652435  0.87491685  0.37571129  1
  Co  Co121  1  0.87673030  0.12777495  0.37183384  1
  Co  Co122  1  0.62308249  0.87168063  0.87485443  1
  Co  Co123  1  0.12468328  0.12531139  0.12450105  1
  Co  Co124  1  0.87335892  0.87257359  0.87772202  1
  Co  Co125  1  0.62670224  0.37185514  0.37644176  1
  Co  Co126  1  0.87527056  0.62468586  0.12392567  1
  Co  Co127  1  0.12460956  0.37798347  0.12505657  1
