# generated using pymatgen
data_Fe45Co19
_symmetry_space_group_name_H-M   'P 1'
_cell_length_a   11.41555313
_cell_length_b   11.41402598
_cell_length_c   11.41593191
_cell_angle_alpha   89.99304278
_cell_angle_beta   90.00702711
_cell_angle_gamma   90.00123355
_symmetry_Int_Tables_number   1
_chemical_formula_structural   Fe45Co19
_chemical_formula_sum   'Fe90 Co38'
_cell_volume   1487.46645234
_cell_formula_units_Z   2
loop_
 _symmetry_equiv_pos_site_id
 _symmetry_equiv_pos_as_xyz
  1  'x, y, z'
loop_
 _atom_site_type_symbol
 _atom_site_label
 _atom_site_symmetry_multiplicity
 _atom_site_fract_x
 _atom_site_fract_y
 _atom_site_fract_z
 _atom_site_occupancy
  Fe  Fe0  1  0.37594709  0.12527122  0.12791610  1
  Fe  Fe1  1  0.12495392  0.12360077  0.37442325  1
  Fe  Fe2  1  0.62638197  0.87456791  0.87659860  1
  Fe  Fe3  1  0.25565183  0.74975100  0.00145593  1
  Fe  Fe4  1  0.25128403  0.00247047  0.49977319  1
  Fe  Fe5  1  0.87276983  0.87040107  0.87658422  1
  Fe  Fe6  1  0.62520678  0.62564794  0.87340497  1
  Fe  Fe7  1  0.12406527  0.62487932  0.62543349  1
  Fe  Fe8  1  -0.00026207  0.00061739  0.50005603  1
  Fe  Fe9  1  0.12357765  0.37415459  0.12205565  1
  Fe  Fe10  1  0.12545229  0.87329784  0.62122804  1
  Fe  Fe11  1  0.62559136  0.87192637  0.37831311  1
  Fe  Fe12  1  0.75073210  -0.00092229  0.50057918  1
  Fe  Fe13  1  0.74719647  0.50135107  0.74866408  1
  Fe  Fe14  1  0.87508113  0.12694283  0.37138176  1
  Fe  Fe15  1  0.25160197  0.74668059  0.49919882  1
  Fe  Fe16  1  0.00230423  0.74988601  0.75256404  1
  Fe  Fe17  1  0.62554275  0.37544847  0.12236360  1
  Fe  Fe18  1  0.87670964  0.87266786  0.62379223  1
  Fe  Fe19  1  0.12406313  0.12643679  0.12440799  1
  Fe  Fe20  1  0.75145800  0.24886246  -0.00010034  1
  Fe  Fe21  1  0.62256601  0.87134014  0.12399755  1
  Fe  Fe22  1  0.87624088  0.12836991  0.12912381  1
  Fe  Fe23  1  -0.00258668  0.49813257  0.50332244  1
  Fe  Fe24  1  0.87468172  0.12378020  0.87271135  1
  Fe  Fe25  1  0.49783445  0.50310753  0.00025001  1
  Fe  Fe26  1  0.37188736  0.37905867  0.37579110  1
  Fe  Fe27  1  0.87612545  0.62586136  0.62890268  1
  Fe  Fe28  1  0.87633644  0.86837624  0.12324018  1
  Fe  Fe29  1  0.74675091  0.24857756  0.75067625  1
  Fe  Fe30  1  0.37787411  0.62724201  0.63054619  1
  Fe  Fe31  1  -0.00387264  0.50427268  0.00042732  1
  Fe  Fe32  1  0.49492455  0.74779307  -0.00351152  1
  Fe  Fe33  1  0.12626817  0.62258544  0.37605853  1
  Fe  Fe34  1  0.87437028  0.37877915  0.87337268  1
  Fe  Fe35  1  0.74727168  -0.00047658  0.74827704  1
  Fe  Fe36  1  0.00088803  -0.00202099  0.75068729  1
  Fe  Fe37  1  0.50152120  0.25292307  0.25125402  1
  Fe  Fe38  1  0.50130692  0.00002078  0.25084529  1
  Fe  Fe39  1  0.75152834  0.50269780  0.50104421  1
  Fe  Fe40  1  0.37518843  0.87216412  0.62715161  1
  Fe  Fe41  1  0.62388174  0.37462887  0.62296105  1
  Fe  Fe42  1  0.49847440  0.24992776  0.49735715  1
  Fe  Fe43  1  0.62414558  0.12688447  0.12372473  1
  Fe  Fe44  1  0.00318057  -0.00364331  0.24910137  1
  Fe  Fe45  1  0.12735890  0.37818546  0.38012207  1
  Fe  Fe46  1  0.62434274  0.37585086  0.87784847  1
  Fe  Fe47  1  0.62112666  0.62982595  0.62326420  1
  Fe  Fe48  1  0.87538659  0.87288367  0.37675597  1
  Fe  Fe49  1  0.37198071  0.62066025  0.36860575  1
  Fe  Fe50  1  0.25226687  -0.00179202  0.00384354  1
  Fe  Fe51  1  0.37063924  0.87670545  0.37115340  1
  Fe  Fe52  1  0.37721665  0.37794001  0.87358439  1
  Fe  Fe53  1  0.50015362  0.74748397  0.25343445  1
  Fe  Fe54  1  -0.00026380  0.49668032  0.24785355  1
  Fe  Fe55  1  0.49824455  -0.00117572  0.00007368  1
  Fe  Fe56  1  0.87455512  0.62547915  0.37267121  1
  Fe  Fe57  1  0.12450061  0.37700130  0.87545855  1
  Fe  Fe58  1  -0.00095426  -0.00096606  0.00093123  1
  Fe  Fe59  1  0.12598035  0.12516251  0.87545460  1
  Fe  Fe60  1  0.87391050  0.12610802  0.62612520  1
  Fe  Fe61  1  0.37486296  0.12863922  0.62525717  1
  Fe  Fe62  1  0.49783129  0.50273742  0.49999169  1
  Fe  Fe63  1  0.75087026  0.00029133  0.00221375  1
  Fe  Fe64  1  0.75103421  0.49976342  0.24777193  1
  Fe  Fe65  1  0.37578329  0.37757045  0.12692397  1
  Fe  Fe66  1  0.75127865  0.25041722  0.49871364  1
  Fe  Fe67  1  0.12615286  0.12847434  0.62575171  1
  Fe  Fe68  1  0.24853535  -0.00014101  0.74895759  1
  Fe  Fe69  1  0.62671162  0.37879265  0.37642417  1
  Fe  Fe70  1  0.25032668  0.49581147  0.74548759  1
  Fe  Fe71  1  0.49737396  -0.00056810  0.49954094  1
  Fe  Fe72  1  0.37569864  0.12391801  0.87477740  1
  Fe  Fe73  1  0.00129803  0.25402421  0.74888667  1
  Fe  Fe74  1  0.62545834  0.12426487  0.37619954  1
  Fe  Fe75  1  0.50246096  0.00078579  0.74931259  1
  Fe  Fe76  1  -0.00181465  0.25247770  0.50030100  1
  Fe  Fe77  1  0.25258161  0.50098768  0.00287982  1
  Fe  Fe78  1  0.12750825  0.87445056  0.87817271  1
  Fe  Fe79  1  0.25270952  0.25110982  -0.00160137  1
  Fe  Fe80  1  -0.00219903  0.25008438  -0.00129463  1
  Fe  Fe81  1  0.12530266  0.62703245  0.12496835  1
  Fe  Fe82  1  0.24900427  0.25093662  0.25220925  1
  Fe  Fe83  1  0.00491462  0.75240815  0.25302364  1
  Fe  Fe84  1  0.74914876  -0.00254351  0.24879954  1
  Fe  Fe85  1  0.12869132  0.62329495  0.87376514  1
  Fe  Fe86  1  0.62288896  0.62598549  0.12784557  1
  Fe  Fe87  1  0.50189927  0.24977676  0.75143979  1
  Fe  Fe88  1  0.62178547  0.87047571  0.62137043  1
  Fe  Fe89  1  0.75428086  0.50504237  0.00266975  1
  Co  Co90  1  0.00235103  0.49886196  0.74871143  1
  Co  Co91  1  0.75225659  0.74773963  0.50036419  1
  Co  Co92  1  0.37358006  0.87742674  0.87222980  1
  Co  Co93  1  0.87369419  0.37541298  0.37369829  1
  Co  Co94  1  0.12834301  0.37312390  0.62094012  1
  Co  Co95  1  0.50024879  0.75153728  0.75565352  1
  Co  Co96  1  0.24795893  0.75106814  0.74947577  1
  Co  Co97  1  0.24623433  0.00034501  0.24734997  1
  Co  Co98  1  0.87532950  0.37271031  0.12507399  1
  Co  Co99  1  0.25096909  0.24765057  0.49663033  1
  Co  Co100  1  0.24710751  0.75040309  0.24990045  1
  Co  Co101  1  0.49391096  0.74758729  0.49415013  1
  Co  Co102  1  0.62692777  0.62429501  0.37537635  1
  Co  Co103  1  0.62396703  0.12396466  0.87865349  1
  Co  Co104  1  0.24544335  0.49765385  0.24660014  1
  Co  Co105  1  0.00443322  0.25412733  0.25218779  1
  Co  Co106  1  0.37575338  0.12309824  0.37251740  1
  Co  Co107  1  0.74775511  0.74560236  0.00137797  1
  Co  Co108  1  0.74577965  0.25178420  0.25018049  1
  Co  Co109  1  0.12849366  0.87585706  0.37975539  1
  Co  Co110  1  0.37740383  0.87345353  0.12940375  1
  Co  Co111  1  0.37624557  0.37224388  0.62360354  1
  Co  Co112  1  0.37190347  0.62185703  0.87056735  1
  Co  Co113  1  0.50210619  0.49911201  0.74867063  1
  Co  Co114  1  0.62436323  0.12513540  0.62066413  1
  Co  Co115  1  0.74770551  0.75139912  0.25109203  1
  Co  Co116  1  0.87367617  0.62608159  0.87051277  1
  Co  Co117  1  0.00162335  0.74562669  -0.00419566  1
  Co  Co118  1  0.25087438  0.25287342  0.75340483  1
  Co  Co119  1  0.25371482  0.50490497  0.50538978  1
  Co  Co120  1  0.00034003  0.74748063  0.49907691  1
  Co  Co121  1  0.37572817  0.62402536  0.12967220  1
  Co  Co122  1  0.12506095  0.87229961  0.12129498  1
  Co  Co123  1  0.87766249  0.63084155  0.12940169  1
  Co  Co124  1  0.49735840  0.25140374  0.00034668  1
  Co  Co125  1  0.50295647  0.49791307  0.25054530  1
  Co  Co126  1  0.74806181  0.75116463  0.74744977  1
  Co  Co127  1  0.87175671  0.37527836  0.62692645  1
