# generated using pymatgen
data_Fe45Co19
_symmetry_space_group_name_H-M   'P 1'
_cell_length_a   11.41414894
_cell_length_b   11.41463942
_cell_length_c   11.41484708
_cell_angle_alpha   89.99537588
_cell_angle_beta   89.99781692
_cell_angle_gamma   89.98730921
_symmetry_Int_Tables_number   1
_chemical_formula_structural   Fe45Co19
_chemical_formula_sum   'Fe90 Co38'
_cell_volume   1487.22205646
_cell_formula_units_Z   2
loop_
 _symmetry_equiv_pos_site_id
 _symmetry_equiv_pos_as_xyz
  1  'x, y, z'
loop_
 _atom_site_type_symbol
 _atom_site_label
 _atom_site_symmetry_multiplicity
 _atom_site_fract_x
 _atom_site_fract_y
 _atom_site_fract_z
 _atom_site_occupancy
  Fe  Fe0  1  0.37270431  0.87414305  0.87359575  1
  Fe  Fe1  1  0.49972348  0.00085465  0.50011764  1
  Fe  Fe2  1  0.50127478  0.25222131  0.74960098  1
  Fe  Fe3  1  0.12582908  0.37355427  0.37575155  1
  Fe  Fe4  1  0.37200191  0.37312523  0.62365535  1
  Fe  Fe5  1  0.62441307  0.62436230  0.12544145  1
  Fe  Fe6  1  0.00056741  0.75465801  0.24467574  1
  Fe  Fe7  1  0.87537933  0.37449994  0.12315752  1
  Fe  Fe8  1  0.62713559  0.62315614  0.62726111  1
  Fe  Fe9  1  0.49390445  0.50269742  -0.00018463  1
  Fe  Fe10  1  0.00075335  0.25024312  0.49963615  1
  Fe  Fe11  1  0.12591453  0.62350723  0.12317303  1
  Fe  Fe12  1  0.36981339  0.87600867  0.12488241  1
  Fe  Fe13  1  0.12446091  0.12516305  0.62688038  1
  Fe  Fe14  1  0.62628247  0.12555077  0.62515200  1
  Fe  Fe15  1  0.00153234  -0.00431856  0.75147168  1
  Fe  Fe16  1  0.12658904  0.11995235  0.12379465  1
  Fe  Fe17  1  0.24832141  0.49924665  0.50085190  1
  Fe  Fe18  1  0.12463406  0.87718700  0.87982401  1
  Fe  Fe19  1  0.24707883  0.74980972  0.50118898  1
  Fe  Fe20  1  0.88131434  0.62620657  0.87170466  1
  Fe  Fe21  1  0.87609831  0.62662678  0.12650107  1
  Fe  Fe22  1  0.75295460  0.00234422  0.49720880  1
  Fe  Fe23  1  0.50026546  0.75139275  0.74872073  1
  Fe  Fe24  1  0.37403540  0.87296637  0.37610930  1
  Fe  Fe25  1  0.12520735  0.62221406  0.87508984  1
  Fe  Fe26  1  0.37213473  0.37326651  0.12407190  1
  Fe  Fe27  1  0.37242498  0.87609745  0.62533683  1
  Fe  Fe28  1  0.62212894  0.12673116  0.87555637  1
  Fe  Fe29  1  0.49552820  0.50036084  0.25112589  1
  Fe  Fe30  1  0.88047810  0.12398097  0.87801030  1
  Fe  Fe31  1  0.24864098  0.24468321  -0.00076982  1
  Fe  Fe32  1  0.75135065  0.75141684  0.25057508  1
  Fe  Fe33  1  0.62334818  0.12472656  0.12459704  1
  Fe  Fe34  1  0.75430880  0.74638021  0.49927305  1
  Fe  Fe35  1  0.62707182  0.87518370  0.87818293  1
  Fe  Fe36  1  0.62569961  0.37688171  0.37464643  1
  Fe  Fe37  1  0.62435635  0.37726503  0.12281350  1
  Fe  Fe38  1  0.24784254  0.24829386  0.25011009  1
  Fe  Fe39  1  0.62585973  0.87554246  0.37645820  1
  Fe  Fe40  1  0.25085434  0.50067866  0.24981079  1
  Fe  Fe41  1  0.74884290  0.24977184  0.25014990  1
  Fe  Fe42  1  0.75235852  -0.00015470  0.25176734  1
  Fe  Fe43  1  0.49519386  0.00204938  0.00012920  1
  Fe  Fe44  1  0.62563017  0.62373856  0.37296615  1
  Fe  Fe45  1  0.75241468  0.50324595  -0.00036687  1
  Fe  Fe46  1  -0.00120709  0.00236739  0.49832811  1
  Fe  Fe47  1  0.24606162  0.25045347  0.75184860  1
  Fe  Fe48  1  0.75116309  0.24852741  0.49792218  1
  Fe  Fe49  1  0.37366828  0.37324877  0.87695415  1
  Fe  Fe50  1  0.75141576  0.00044016  0.75316491  1
  Fe  Fe51  1  0.50002791  0.74859966  0.50089116  1
  Fe  Fe52  1  0.87640181  0.12428437  0.12393668  1
  Fe  Fe53  1  0.00159719  0.49755189  0.24818503  1
  Fe  Fe54  1  0.87609926  0.87340105  0.62602332  1
  Fe  Fe55  1  0.37269885  0.12473988  0.62897044  1
  Fe  Fe56  1  0.24982397  0.74694562  0.00024133  1
  Fe  Fe57  1  0.62749000  0.37715985  0.62489934  1
  Fe  Fe58  1  0.24391776  0.75246252  0.74724815  1
  Fe  Fe59  1  0.75522540  0.50322862  0.49820802  1
  Fe  Fe60  1  0.49773149  0.74907473  0.00030661  1
  Fe  Fe61  1  0.24849759  0.00262146  0.49823229  1
  Fe  Fe62  1  0.62242176  0.62416263  0.87418711  1
  Fe  Fe63  1  0.87768030  0.37612303  0.87759021  1
  Fe  Fe64  1  0.87643998  0.37478401  0.37292763  1
  Fe  Fe65  1  0.87595853  0.37826363  0.62618757  1
  Fe  Fe66  1  0.49676335  0.49932088  0.75024925  1
  Fe  Fe67  1  0.62812065  0.87532949  0.62385751  1
  Fe  Fe68  1  0.62459939  0.37610393  0.87742463  1
  Fe  Fe69  1  0.37504447  0.12651750  0.37344370  1
  Fe  Fe70  1  0.12391347  0.37771619  0.88130536  1
  Fe  Fe71  1  0.00154625  0.25327955  0.75159674  1
  Fe  Fe72  1  0.37114645  0.62543611  0.62762089  1
  Fe  Fe73  1  0.12314980  0.62460439  0.37487531  1
  Fe  Fe74  1  0.75106247  0.25099729  0.75205957  1
  Fe  Fe75  1  0.00317887  0.25061965  0.24622279  1
  Fe  Fe76  1  0.49883556  0.75026186  0.25021911  1
  Fe  Fe77  1  0.75043115  0.24837350  -0.00027408  1
  Fe  Fe78  1  0.50012722  0.25142432  0.25005176  1
  Fe  Fe79  1  0.62832296  0.87524699  0.12133303  1
  Fe  Fe80  1  0.12275071  0.87537542  0.37602418  1
  Fe  Fe81  1  0.50022483  -0.00145088  0.74999447  1
  Fe  Fe82  1  0.49717992  0.50083365  0.49881858  1
  Fe  Fe83  1  0.49822162  -0.00105933  0.24941171  1
  Fe  Fe84  1  -0.00121086  0.74540647  0.50281778  1
  Fe  Fe85  1  0.24916574  0.74973720  0.25132645  1
  Fe  Fe86  1  0.87634990  0.12573779  0.62684217  1
  Fe  Fe87  1  0.49975622  0.24984523  0.49903221  1
  Fe  Fe88  1  -0.00072716  -0.00434890  0.24698582  1
  Fe  Fe89  1  0.75150969  0.75002292  0.75236634  1
  Co  Co90  1  0.12890859  0.37688449  0.12164034  1
  Co  Co91  1  0.12415585  0.62176944  0.62683957  1
  Co  Co92  1  -0.00014026  0.50045300  0.49904714  1
  Co  Co93  1  0.24979004  -0.00037530  0.25469203  1
  Co  Co94  1  0.87774245  0.87363550  0.37614991  1
  Co  Co95  1  0.37396947  0.62757351  0.12674771  1
  Co  Co96  1  0.37142935  0.37341714  0.37490020  1
  Co  Co97  1  0.13242283  0.87732523  0.12300572  1
  Co  Co98  1  0.12152180  0.12499353  0.37332755  1
  Co  Co99  1  0.12273085  0.87821243  0.62018317  1
  Co  Co100  1  0.25421187  0.50280020  0.00032767  1
  Co  Co101  1  -0.00130130  0.50172894  0.00316271  1
  Co  Co102  1  0.25351951  0.00436900  -0.00424047  1
  Co  Co103  1  0.37333557  0.62607302  0.37640938  1
  Co  Co104  1  0.37635707  0.12642667  0.87025572  1
  Co  Co105  1  0.87787895  0.12709868  0.37157698  1
  Co  Co106  1  0.87789356  0.62357651  0.63151617  1
  Co  Co107  1  0.75070308  0.49946940  0.75331451  1
  Co  Co108  1  0.75201454  0.49928229  0.24841991  1
  Co  Co109  1  0.24873451  0.24621418  0.49972870  1
  Co  Co110  1  0.12011930  0.12341318  0.87542760  1
  Co  Co111  1  0.00279542  0.24972670  0.00333630  1
  Co  Co112  1  0.00507957  0.49642729  0.74925786  1
  Co  Co113  1  0.87486253  0.87394686  0.87836308  1
  Co  Co114  1  0.62429560  0.12484954  0.37405786  1
  Co  Co115  1  0.86929703  0.87406909  0.11889231  1
  Co  Co116  1  0.37324190  0.12548801  0.12721934  1
  Co  Co117  1  0.49846322  0.24890535  0.00100235  1
  Co  Co118  1  0.87891211  0.62518436  0.36945603  1
  Co  Co119  1  0.37162330  0.62812436  0.86975348  1
  Co  Co120  1  0.00237121  0.75114964  0.00245891  1
  Co  Co121  1  0.00063974  -0.00432171  0.00395430  1
  Co  Co122  1  0.74992294  0.00493405  -0.00205447  1
  Co  Co123  1  0.00491452  0.75395876  0.75031121  1
  Co  Co124  1  0.24852366  0.49588836  0.75033423  1
  Co  Co125  1  0.75062212  0.74411048  -0.00224455  1
  Co  Co126  1  0.24647337  -0.00113208  0.75142598  1
  Co  Co127  1  0.12473071  0.37306526  0.62247909  1
