# generated using pymatgen
data_Fe45Co19
_symmetry_space_group_name_H-M   'P 1'
_cell_length_a   11.41623944
_cell_length_b   11.41531058
_cell_length_c   11.41428337
_cell_angle_alpha   89.99618886
_cell_angle_beta   90.00412579
_cell_angle_gamma   89.99910920
_symmetry_Int_Tables_number   1
_chemical_formula_structural   Fe45Co19
_chemical_formula_sum   'Fe90 Co38'
_cell_volume   1487.50847480
_cell_formula_units_Z   2
loop_
 _symmetry_equiv_pos_site_id
 _symmetry_equiv_pos_as_xyz
  1  'x, y, z'
loop_
 _atom_site_type_symbol
 _atom_site_label
 _atom_site_symmetry_multiplicity
 _atom_site_fract_x
 _atom_site_fract_y
 _atom_site_fract_z
 _atom_site_occupancy
  Fe  Fe0  1  0.37333089  0.37327810  0.62403341  1
  Fe  Fe1  1  0.37306536  0.12596706  0.62359715  1
  Fe  Fe2  1  0.87335608  0.37503497  0.12595545  1
  Fe  Fe3  1  0.12774051  0.37664850  0.62594233  1
  Fe  Fe4  1  0.49482553  0.75196528  0.74969392  1
  Fe  Fe5  1  0.87643216  0.12444444  0.12408762  1
  Fe  Fe6  1  0.37563428  0.37723752  0.87517198  1
  Fe  Fe7  1  0.62408289  0.87431195  0.87477153  1
  Fe  Fe8  1  0.37482311  0.12323619  0.11958431  1
  Fe  Fe9  1  0.49918046  0.75236600  0.49967803  1
  Fe  Fe10  1  0.74702326  0.50003640  -0.00008059  1
  Fe  Fe11  1  0.37583935  0.62233471  0.12531312  1
  Fe  Fe12  1  0.00000458  0.49970972  0.00254867  1
  Fe  Fe13  1  0.62199414  0.62360135  0.37388287  1
  Fe  Fe14  1  0.87475108  0.62267549  0.87331922  1
  Fe  Fe15  1  0.00299059  -0.00112500  -0.00081423  1
  Fe  Fe16  1  0.50117795  0.25048816  0.25174318  1
  Fe  Fe17  1  0.74824724  0.00121739  -0.00232077  1
  Fe  Fe18  1  0.25053408  0.25034074  0.75163482  1
  Fe  Fe19  1  0.12465076  0.12647280  0.12392477  1
  Fe  Fe20  1  0.49857213  0.00148369  0.75316051  1
  Fe  Fe21  1  0.62343619  0.87591179  0.62541959  1
  Fe  Fe22  1  0.12670966  0.62332477  0.12366223  1
  Fe  Fe23  1  0.87423387  0.87499859  0.62735031  1
  Fe  Fe24  1  0.74873359  0.75055113  0.49975412  1
  Fe  Fe25  1  0.12300035  0.12466729  0.37553681  1
  Fe  Fe26  1  0.74929652  0.24649040  0.25377026  1
  Fe  Fe27  1  0.74800395  0.75014216  0.24971442  1
  Fe  Fe28  1  0.37697764  0.62295577  0.37395208  1
  Fe  Fe29  1  0.37556902  0.37395992  0.37683514  1
  Fe  Fe30  1  0.24955888  -0.00125912  0.49872696  1
  Fe  Fe31  1  0.75055718  0.00195972  0.49972766  1
  Fe  Fe32  1  0.87463950  0.37601169  0.37436794  1
  Fe  Fe33  1  0.74856997  0.50117128  0.50124197  1
  Fe  Fe34  1  -0.00012397  0.50209716  0.50271366  1
  Fe  Fe35  1  0.49856247  0.00142529  0.50077444  1
  Fe  Fe36  1  0.62488877  0.37293508  0.87492453  1
  Fe  Fe37  1  -0.00340694  0.75057483  -0.00042375  1
  Fe  Fe38  1  0.37217485  0.62754030  0.62262925  1
  Fe  Fe39  1  0.49930347  0.75508363  0.00419693  1
  Fe  Fe40  1  0.37415918  0.37512543  0.12490194  1
  Fe  Fe41  1  0.75058025  0.74968303  0.75027415  1
  Fe  Fe42  1  0.00023371  0.74913990  0.50111380  1
  Fe  Fe43  1  0.87273984  0.62485443  0.12519123  1
  Fe  Fe44  1  0.25003059  0.25147457  -0.00167814  1
  Fe  Fe45  1  0.50088209  0.49999590  0.74785731  1
  Fe  Fe46  1  0.13041078  0.86681550  0.62789907  1
  Fe  Fe47  1  0.62554441  0.87836833  0.37332466  1
  Fe  Fe48  1  0.75425830  0.24886399  -0.00450731  1
  Fe  Fe49  1  0.62624142  0.37220419  0.62560025  1
  Fe  Fe50  1  0.50082472  0.75286677  0.24624566  1
  Fe  Fe51  1  0.74991668  0.24659287  0.49783428  1
  Fe  Fe52  1  0.74519771  0.49951706  0.24841426  1
  Fe  Fe53  1  0.00199782  -0.00254336  0.50264611  1
  Fe  Fe54  1  0.12579829  0.37620589  0.12581397  1
  Fe  Fe55  1  0.62382059  0.12636895  0.12228998  1
  Fe  Fe56  1  -0.00248256  0.25087833  -0.00374151  1
  Fe  Fe57  1  0.12334336  0.37758084  0.87462225  1
  Fe  Fe58  1  0.50278808  0.49645689  0.00438647  1
  Fe  Fe59  1  0.25307049  0.74652520  -0.00350470  1
  Fe  Fe60  1  0.37504390  0.87660147  0.37359934  1
  Fe  Fe61  1  0.25019116  0.74919121  0.25192665  1
  Fe  Fe62  1  0.87484055  0.62416185  0.37428587  1
  Fe  Fe63  1  0.12778833  0.87270531  0.12431601  1
  Fe  Fe64  1  0.12609179  0.86971911  0.87345354  1
  Fe  Fe65  1  0.62499673  0.62693418  0.62553159  1
  Fe  Fe66  1  0.12330831  0.12651244  0.87308133  1
  Fe  Fe67  1  0.00011242  -0.00085652  0.24836851  1
  Fe  Fe68  1  0.62459990  0.12603504  0.62662353  1
  Fe  Fe69  1  0.87532404  0.87629785  0.37395799  1
  Fe  Fe70  1  0.24899704  0.00104614  0.24983897  1
  Fe  Fe71  1  0.00103266  0.74895896  0.24927891  1
  Fe  Fe72  1  0.12592906  0.62263018  0.37650813  1
  Fe  Fe73  1  0.12538304  0.12673841  0.62691743  1
  Fe  Fe74  1  0.00123913  0.50405191  0.74692048  1
  Fe  Fe75  1  0.87527127  0.87834125  0.87180723  1
  Fe  Fe76  1  0.87207936  0.87587489  0.12556176  1
  Fe  Fe77  1  0.25051441  0.24879858  0.25125612  1
  Fe  Fe78  1  0.12540520  0.37672971  0.37474745  1
  Fe  Fe79  1  0.00035842  0.25137962  0.50260426  1
  Fe  Fe80  1  0.25102941  -0.00158954  0.75248656  1
  Fe  Fe81  1  0.50021326  0.49815398  0.50177899  1
  Fe  Fe82  1  0.75363533  0.24802530  0.75435361  1
  Fe  Fe83  1  -0.00071019  0.25072281  0.25034474  1
  Fe  Fe84  1  0.49763935  0.24806829  0.75202989  1
  Fe  Fe85  1  0.49969677  -0.00131236  0.24512100  1
  Fe  Fe86  1  0.87798574  0.12288115  0.62968602  1
  Fe  Fe87  1  0.87277588  0.37703347  0.62826052  1
  Fe  Fe88  1  0.25069465  0.50624894  0.75348523  1
  Fe  Fe89  1  0.62171640  0.62701872  0.87638570  1
  Co  Co90  1  0.25128819  0.49949125  0.25063203  1
  Co  Co91  1  0.87603883  0.38076900  0.87332402  1
  Co  Co92  1  0.75126568  0.00397278  0.25032443  1
  Co  Co93  1  0.12135913  0.62632759  0.87678712  1
  Co  Co94  1  0.37530351  0.12458071  0.37523640  1
  Co  Co95  1  0.74581724  0.00020060  0.75005970  1
  Co  Co96  1  0.25007322  0.49968676  -0.00133018  1
  Co  Co97  1  0.00060579  0.50077938  0.24849487  1
  Co  Co98  1  0.88032065  0.12376917  0.37638516  1
  Co  Co99  1  0.62468652  0.62763670  0.12348024  1
  Co  Co100  1  0.38263359  0.62203052  0.87959099  1
  Co  Co101  1  0.24490722  0.00088696  -0.00245777  1
  Co  Co102  1  0.62515056  0.37550755  0.37751715  1
  Co  Co103  1  0.87171230  0.62533644  0.62564859  1
  Co  Co104  1  0.75210276  0.75037249  -0.00268191  1
  Co  Co105  1  0.25167408  0.75183959  0.49461709  1
  Co  Co106  1  0.37448676  0.87803236  0.87845289  1
  Co  Co107  1  0.87956543  0.11922547  0.87149333  1
  Co  Co108  1  0.24826398  0.24955441  0.49921192  1
  Co  Co109  1  0.37316395  0.87515796  0.62493495  1
  Co  Co110  1  0.13031186  0.62994469  0.62456357  1
  Co  Co111  1  0.62323714  0.12737741  0.87699193  1
  Co  Co112  1  -0.00297473  0.74749872  0.74909331  1
  Co  Co113  1  0.50107768  0.24916270  0.50022565  1
  Co  Co114  1  0.37346142  0.12332351  0.87844707  1
  Co  Co115  1  0.00588664  -0.00387523  0.74829880  1
  Co  Co116  1  0.62171055  0.12207571  0.37445807  1
  Co  Co117  1  0.62754336  0.36881814  0.12387396  1
  Co  Co118  1  0.12351048  0.87603971  0.37341247  1
  Co  Co119  1  0.49687983  0.25136602  -0.00226635  1
  Co  Co120  1  -0.00121891  0.25278364  0.75074308  1
  Co  Co121  1  0.50304769  -0.00261568  0.00011984  1
  Co  Co122  1  0.25706751  0.74551122  0.75679703  1
  Co  Co123  1  0.74526670  0.50184037  0.75113772  1
  Co  Co124  1  0.50217670  0.49692861  0.24753421  1
  Co  Co125  1  0.25164575  0.49944349  0.49971397  1
  Co  Co126  1  0.36886644  0.87685228  0.12289436  1
  Co  Co127  1  0.63060410  0.87602283  0.12503733  1
