# generated using pymatgen
data_Fe45Co19
_symmetry_space_group_name_H-M   'P 1'
_cell_length_a   11.41468450
_cell_length_b   11.41493904
_cell_length_c   11.41438311
_cell_angle_alpha   90.00320994
_cell_angle_beta   90.00125252
_cell_angle_gamma   89.99398170
_symmetry_Int_Tables_number   1
_chemical_formula_structural   Fe45Co19
_chemical_formula_sum   'Fe90 Co38'
_cell_volume   1487.27045493
_cell_formula_units_Z   2
loop_
 _symmetry_equiv_pos_site_id
 _symmetry_equiv_pos_as_xyz
  1  'x, y, z'
loop_
 _atom_site_type_symbol
 _atom_site_label
 _atom_site_symmetry_multiplicity
 _atom_site_fract_x
 _atom_site_fract_y
 _atom_site_fract_z
 _atom_site_occupancy
  Fe  Fe0  1  0.00142757  0.25025591  -0.00014712  1
  Fe  Fe1  1  0.12282170  0.12547327  0.37376490  1
  Fe  Fe2  1  0.74848650  0.75118783  -0.00004043  1
  Fe  Fe3  1  0.87612633  0.12382788  0.62138726  1
  Fe  Fe4  1  0.00221864  0.49827529  0.00356071  1
  Fe  Fe5  1  0.74915305  -0.00100185  0.50071579  1
  Fe  Fe6  1  0.24951210  0.24905166  0.75117330  1
  Fe  Fe7  1  0.49947356  0.49728297  0.00169423  1
  Fe  Fe8  1  0.87352170  0.12338479  0.87704846  1
  Fe  Fe9  1  0.50237579  0.24629160  0.75118368  1
  Fe  Fe10  1  0.87459178  0.12595254  0.12536255  1
  Fe  Fe11  1  0.62321696  0.87659190  0.37266815  1
  Fe  Fe12  1  0.62355543  0.62395306  0.12759559  1
  Fe  Fe13  1  0.37875430  0.12341835  0.37561821  1
  Fe  Fe14  1  0.49883456  0.75100795  0.25017618  1
  Fe  Fe15  1  -0.00332703  -0.00088874  0.75023928  1
  Fe  Fe16  1  0.25019730  0.49939240  -0.00038138  1
  Fe  Fe17  1  0.24847045  0.00001116  -0.00020638  1
  Fe  Fe18  1  0.74970527  -0.00258908  0.00170215  1
  Fe  Fe19  1  0.24874647  0.24896765  -0.00192439  1
  Fe  Fe20  1  -0.00023396  0.75246300  0.24829987  1
  Fe  Fe21  1  0.74783417  0.49980461  0.00098312  1
  Fe  Fe22  1  0.12332700  0.62416302  0.37193614  1
  Fe  Fe23  1  0.87597115  0.62538832  0.87787007  1
  Fe  Fe24  1  0.62352655  0.37412798  0.87524530  1
  Fe  Fe25  1  0.12578118  0.37549564  0.37359973  1
  Fe  Fe26  1  0.74929723  0.24656218  0.75075525  1
  Fe  Fe27  1  0.74621070  0.25140069  0.00238771  1
  Fe  Fe28  1  0.12558723  0.37740126  0.62799924  1
  Fe  Fe29  1  -0.00374847  0.75026611  0.75099552  1
  Fe  Fe30  1  0.37408873  0.62796036  0.12151291  1
  Fe  Fe31  1  0.75084558  0.75092313  0.25033220  1
  Fe  Fe32  1  0.50151832  0.75016948  0.49821644  1
  Fe  Fe33  1  0.12446427  0.12362417  0.62552609  1
  Fe  Fe34  1  0.24920056  0.24904807  0.49859999  1
  Fe  Fe35  1  0.00072281  0.25038057  0.49933826  1
  Fe  Fe36  1  0.49743780  0.75047871  0.75157005  1
  Fe  Fe37  1  0.62795414  0.87807990  0.86884177  1
  Fe  Fe38  1  0.37472218  0.37491530  0.62587208  1
  Fe  Fe39  1  0.75402955  0.49977059  0.25008984  1
  Fe  Fe40  1  0.25393021  0.74698038  0.75181693  1
  Fe  Fe41  1  0.87432357  0.62608038  0.62377794  1
  Fe  Fe42  1  -0.00205421  -0.00168322  0.24982546  1
  Fe  Fe43  1  0.37447386  0.37187720  0.12527153  1
  Fe  Fe44  1  0.12572252  0.87554710  0.37490906  1
  Fe  Fe45  1  0.24993873  0.49998984  0.24781884  1
  Fe  Fe46  1  0.87709120  0.62528276  0.12551425  1
  Fe  Fe47  1  0.50157401  0.24885375  0.24910236  1
  Fe  Fe48  1  0.50226929  0.25113245  0.49841443  1
  Fe  Fe49  1  0.25278360  0.00035835  0.25135374  1
  Fe  Fe50  1  0.37527216  0.12631910  0.62347735  1
  Fe  Fe51  1  0.00001356  0.75224939  0.49925736  1
  Fe  Fe52  1  0.12517526  0.62426233  0.62708358  1
  Fe  Fe53  1  -0.00353885  0.25401977  0.24988792  1
  Fe  Fe54  1  0.50251504  0.75330435  -0.00105554  1
  Fe  Fe55  1  0.12583071  0.87545414  0.87469896  1
  Fe  Fe56  1  0.37768703  0.12437845  0.87640084  1
  Fe  Fe57  1  -0.00110400  0.24947031  0.75042294  1
  Fe  Fe58  1  0.37429590  0.37517653  0.37423216  1
  Fe  Fe59  1  0.74928292  0.50290278  0.49787224  1
  Fe  Fe60  1  0.62351318  0.62481940  0.87438733  1
  Fe  Fe61  1  0.62562708  0.37730863  0.37054624  1
  Fe  Fe62  1  0.25253469  0.00035206  0.75085235  1
  Fe  Fe63  1  0.50167432  -0.00166401  0.50272717  1
  Fe  Fe64  1  0.74894795  0.75067526  0.49859574  1
  Fe  Fe65  1  -0.00158841  0.50023780  0.49900721  1
  Fe  Fe66  1  0.62447954  0.12414873  0.12616250  1
  Fe  Fe67  1  0.87333200  0.37510956  0.62411132  1
  Fe  Fe68  1  0.12548481  0.37693196  0.87197691  1
  Fe  Fe69  1  0.24937197  0.00017346  0.49830031  1
  Fe  Fe70  1  0.75116171  0.50196509  0.75109368  1
  Fe  Fe71  1  0.12590850  0.62403984  0.87528784  1
  Fe  Fe72  1  0.37393532  0.87449016  0.12302065  1
  Fe  Fe73  1  0.00224456  0.75318794  0.00297338  1
  Fe  Fe74  1  0.50089419  0.50090374  0.49803546  1
  Fe  Fe75  1  0.87468078  0.37542053  0.87637249  1
  Fe  Fe76  1  0.62605575  0.37438645  0.62534116  1
  Fe  Fe77  1  0.75045427  0.00047599  0.25081848  1
  Fe  Fe78  1  0.37372595  0.62687373  0.37660528  1
  Fe  Fe79  1  0.37421907  0.87305378  0.62332401  1
  Fe  Fe80  1  0.37552461  0.12546036  0.12436065  1
  Fe  Fe81  1  0.24988857  0.75182275  0.24892397  1
  Fe  Fe82  1  0.50186350  -0.00165640  0.00025342  1
  Fe  Fe83  1  0.74841495  0.24739128  0.49532089  1
  Fe  Fe84  1  0.62402609  0.62664770  0.62610338  1
  Fe  Fe85  1  0.49689977  0.50088832  0.75060704  1
  Fe  Fe86  1  0.12548777  0.12643258  0.12693960  1
  Fe  Fe87  1  0.25017063  0.50191929  0.50186008  1
  Fe  Fe88  1  0.12598561  0.87486799  0.62581782  1
  Fe  Fe89  1  0.00055767  -0.00172400  0.00102404  1
  Co  Co90  1  0.25435556  0.50361553  0.75035147  1
  Co  Co91  1  0.87307883  0.37493090  0.12242926  1
  Co  Co92  1  0.24719442  0.74937525  0.49977329  1
  Co  Co93  1  0.87452817  0.87440924  0.62405799  1
  Co  Co94  1  0.49803310  -0.00155522  0.24729589  1
  Co  Co95  1  0.49933749  0.00180314  0.74752068  1
  Co  Co96  1  0.62472537  0.62479522  0.37171500  1
  Co  Co97  1  0.50309535  0.25016931  0.00178838  1
  Co  Co98  1  -0.00393617  0.50073458  0.74990820  1
  Co  Co99  1  0.75304248  0.74754697  0.75090831  1
  Co  Co100  1  0.87468910  0.87570116  0.37559189  1
  Co  Co101  1  0.62525251  0.12571300  0.62287737  1
  Co  Co102  1  0.87324516  0.37524982  0.37723662  1
  Co  Co103  1  0.00213335  -0.00212227  0.50022956  1
  Co  Co104  1  0.75226142  0.00303849  0.74631871  1
  Co  Co105  1  0.87651673  0.12345959  0.37553069  1
  Co  Co106  1  -0.00107618  0.49587735  0.24839118  1
  Co  Co107  1  0.12411251  0.12316870  0.87440041  1
  Co  Co108  1  0.75008035  0.24848314  0.25064563  1
  Co  Co109  1  0.62547095  0.87270812  0.62849660  1
  Co  Co110  1  0.87385046  0.87466309  0.12512730  1
  Co  Co111  1  0.24696234  0.75168866  -0.00018781  1
  Co  Co112  1  0.62613151  0.12176581  0.87676275  1
  Co  Co113  1  0.37586120  0.62593947  0.88036137  1
  Co  Co114  1  0.87716298  0.62650578  0.37362886  1
  Co  Co115  1  0.62223858  0.12199321  0.37382974  1
  Co  Co116  1  0.62559633  0.87431733  0.12724322  1
  Co  Co117  1  0.37505528  0.87651107  0.87659629  1
  Co  Co118  1  0.49507607  0.50203501  0.24963071  1
  Co  Co119  1  0.12775937  0.37211292  0.12597221  1
  Co  Co120  1  0.37542462  0.87445665  0.37679745  1
  Co  Co121  1  0.25217444  0.24783147  0.25272412  1
  Co  Co122  1  0.37740322  0.62608495  0.62111861  1
  Co  Co123  1  0.37605658  0.37244223  0.87438012  1
  Co  Co124  1  0.87327949  0.87532576  0.87640408  1
  Co  Co125  1  0.62455665  0.37734151  0.12953185  1
  Co  Co126  1  0.12491035  0.62473371  0.12638419  1
  Co  Co127  1  0.12700194  0.87798355  0.12623278  1
