# generated using pymatgen
data_Fe45Co19
_symmetry_space_group_name_H-M   'P 1'
_cell_length_a   11.41536428
_cell_length_b   11.41515295
_cell_length_c   11.41578103
_cell_angle_alpha   89.99312020
_cell_angle_beta   89.99884591
_cell_angle_gamma   90.00054795
_symmetry_Int_Tables_number   1
_chemical_formula_structural   Fe45Co19
_chemical_formula_sum   'Fe90 Co38'
_cell_volume   1487.56905795
_cell_formula_units_Z   2
loop_
 _symmetry_equiv_pos_site_id
 _symmetry_equiv_pos_as_xyz
  1  'x, y, z'
loop_
 _atom_site_type_symbol
 _atom_site_label
 _atom_site_symmetry_multiplicity
 _atom_site_fract_x
 _atom_site_fract_y
 _atom_site_fract_z
 _atom_site_occupancy
  Fe  Fe0  1  0.62588866  0.87394506  0.37409951  1
  Fe  Fe1  1  0.00004547  0.75100437  0.75243180  1
  Fe  Fe2  1  0.74941584  0.00225724  0.50142203  1
  Fe  Fe3  1  0.74819561  0.74511065  0.50153123  1
  Fe  Fe4  1  0.00019397  0.75104106  0.49744636  1
  Fe  Fe5  1  -0.00215495  -0.00005053  -0.00072581  1
  Fe  Fe6  1  0.74917585  -0.00042932  0.24771521  1
  Fe  Fe7  1  0.75060983  0.75031023  0.00221711  1
  Fe  Fe8  1  0.24824350  0.25083945  0.00097387  1
  Fe  Fe9  1  0.12513230  0.87558684  0.62454840  1
  Fe  Fe10  1  0.50264631  0.25296551  -0.00384631  1
  Fe  Fe11  1  0.24610786  0.24632556  0.24806838  1
  Fe  Fe12  1  0.87886911  0.62545614  0.12611778  1
  Fe  Fe13  1  0.00155606  0.25156619  0.25184212  1
  Fe  Fe14  1  0.49809046  0.74847382  0.25092232  1
  Fe  Fe15  1  0.50117302  0.49650502  0.75056219  1
  Fe  Fe16  1  0.62745997  0.87788957  0.87513020  1
  Fe  Fe17  1  0.00183962  0.49889720  0.49749112  1
  Fe  Fe18  1  0.12938192  0.87478492  0.37196298  1
  Fe  Fe19  1  0.37189586  0.87538573  0.37217068  1
  Fe  Fe20  1  0.87053014  0.87874131  0.87416629  1
  Fe  Fe21  1  -0.00111932  0.00033474  0.75124255  1
  Fe  Fe22  1  0.00270460  0.00041989  0.25152867  1
  Fe  Fe23  1  -0.00003394  -0.00112870  0.49828683  1
  Fe  Fe24  1  0.50188344  0.49805514  0.25129285  1
  Fe  Fe25  1  0.37552114  0.62342293  0.12323303  1
  Fe  Fe26  1  0.24975759  0.74841864  0.00176407  1
  Fe  Fe27  1  0.75079833  0.74857382  0.74800803  1
  Fe  Fe28  1  0.62559758  0.37236679  0.62031518  1
  Fe  Fe29  1  0.25097022  0.00183967  0.50106280  1
  Fe  Fe30  1  0.75000042  0.49897427  0.00291471  1
  Fe  Fe31  1  0.12812791  0.87555341  0.87596692  1
  Fe  Fe32  1  0.12323374  0.37539099  0.12360472  1
  Fe  Fe33  1  0.12465758  0.37386258  0.62460595  1
  Fe  Fe34  1  0.87329909  0.37561366  0.62072093  1
  Fe  Fe35  1  0.62138709  0.12858262  0.62215004  1
  Fe  Fe36  1  0.49866528  0.74697580  0.50001635  1
  Fe  Fe37  1  0.00010551  0.25066269  0.49722569  1
  Fe  Fe38  1  0.12422310  0.62484816  0.62443949  1
  Fe  Fe39  1  0.87484815  0.37500108  0.87606800  1
  Fe  Fe40  1  0.62303267  0.87349841  0.12539053  1
  Fe  Fe41  1  0.75088192  0.50111468  0.74591870  1
  Fe  Fe42  1  0.74955568  0.24971737  0.74943574  1
  Fe  Fe43  1  0.24634136  0.50358658  0.24818580  1
  Fe  Fe44  1  0.87343352  0.62445950  0.37475958  1
  Fe  Fe45  1  0.37299726  0.12423013  0.37309795  1
  Fe  Fe46  1  0.24809061  0.49849779  0.74962105  1
  Fe  Fe47  1  0.74844251  0.49748217  0.25056075  1
  Fe  Fe48  1  0.87503619  0.12495923  0.37386642  1
  Fe  Fe49  1  0.87476820  0.87450711  0.62470515  1
  Fe  Fe50  1  0.62548081  0.62322430  0.87370774  1
  Fe  Fe51  1  0.62320170  0.12773819  0.12610245  1
  Fe  Fe52  1  0.87546519  0.62521681  0.87511833  1
  Fe  Fe53  1  0.75134672  0.25188290  0.00154617  1
  Fe  Fe54  1  0.12434002  0.12503903  0.62391315  1
  Fe  Fe55  1  0.37439400  0.12648542  0.87397986  1
  Fe  Fe56  1  0.25234115  0.74828610  0.50207950  1
  Fe  Fe57  1  0.49741489  0.00010699  0.24807350  1
  Fe  Fe58  1  0.37648405  0.37084500  0.62670815  1
  Fe  Fe59  1  0.25086698  0.24978458  0.50047892  1
  Fe  Fe60  1  0.37301552  0.62321101  0.87443876  1
  Fe  Fe61  1  0.49655997  0.75192211  0.75111178  1
  Fe  Fe62  1  0.50262479  0.25248420  0.25516198  1
  Fe  Fe63  1  0.49872627  0.00187673  0.49895473  1
  Fe  Fe64  1  0.87213266  0.87410797  0.37429919  1
  Fe  Fe65  1  0.37526249  0.37359502  0.12592769  1
  Fe  Fe66  1  0.49928639  0.75034262  -0.00175252  1
  Fe  Fe67  1  0.25338252  0.00172304  0.00605912  1
  Fe  Fe68  1  0.49810062  0.00018660  0.74941430  1
  Fe  Fe69  1  0.12559560  0.87247920  0.12789836  1
  Fe  Fe70  1  0.25221512  0.75077014  0.74790435  1
  Fe  Fe71  1  0.00327181  0.50080389  0.25332832  1
  Fe  Fe72  1  0.50032742  0.50047229  0.50040565  1
  Fe  Fe73  1  0.62403372  0.62437936  0.12604379  1
  Fe  Fe74  1  0.00038381  0.24983307  0.75309923  1
  Fe  Fe75  1  0.87709886  0.12724346  0.12509046  1
  Fe  Fe76  1  0.37266774  0.62222009  0.37639450  1
  Fe  Fe77  1  0.87678857  0.12545212  0.62544005  1
  Fe  Fe78  1  0.87787885  0.87240789  0.12687522  1
  Fe  Fe79  1  0.62917099  0.12220911  0.87574881  1
  Fe  Fe80  1  0.74920234  0.25377142  0.25240307  1
  Fe  Fe81  1  0.00332387  0.50043544  -0.00242649  1
  Fe  Fe82  1  0.37065971  0.37650277  0.37397765  1
  Fe  Fe83  1  0.12473232  0.12529703  0.87707535  1
  Fe  Fe84  1  0.50009435  0.49711148  -0.00091593  1
  Fe  Fe85  1  0.25237313  0.00129046  0.74769378  1
  Fe  Fe86  1  0.62281366  0.87344954  0.62454188  1
  Fe  Fe87  1  0.37235776  0.37378842  0.87362435  1
  Fe  Fe88  1  0.00121652  0.49969707  0.75125159  1
  Fe  Fe89  1  0.49749652  -0.00079100  0.00214108  1
  Co  Co90  1  0.12777535  0.37402701  0.37478903  1
  Co  Co91  1  0.24911052  0.49891293  0.00115782  1
  Co  Co92  1  0.62579432  0.12282894  0.37351624  1
  Co  Co93  1  0.87176075  0.12399846  0.87536731  1
  Co  Co94  1  0.50392727  0.25049599  0.75379701  1
  Co  Co95  1  0.12509575  0.12468914  0.37696824  1
  Co  Co96  1  0.37550103  0.62254486  0.62725843  1
  Co  Co97  1  0.25037097  0.49761057  0.50302390  1
  Co  Co98  1  0.87862865  0.37637902  0.12559387  1
  Co  Co99  1  0.25078202  0.00422788  0.24524473  1
  Co  Co100  1  0.37280264  0.87611640  0.87669689  1
  Co  Co101  1  0.88035874  0.62508224  0.62421941  1
  Co  Co102  1  0.37367930  0.87164318  0.12713487  1
  Co  Co103  1  0.37990955  0.13125542  0.12487624  1
  Co  Co104  1  0.75086862  -0.00032446  0.00638084  1
  Co  Co105  1  -0.00110179  0.25078524  -0.00251942  1
  Co  Co106  1  0.49648774  0.25011856  0.49418421  1
  Co  Co107  1  0.62304374  0.37443258  0.12498277  1
  Co  Co108  1  0.37663164  0.12811481  0.62640664  1
  Co  Co109  1  0.62803134  0.37657562  0.38117468  1
  Co  Co110  1  0.24708620  0.24949740  0.74950396  1
  Co  Co111  1  0.25018010  0.74381501  0.24932699  1
  Co  Co112  1  0.12085057  0.12483139  0.12216108  1
  Co  Co113  1  0.12762326  0.62540809  0.37974498  1
  Co  Co114  1  0.62110005  0.62537804  0.62884864  1
  Co  Co115  1  0.75059242  0.74982366  0.24770137  1
  Co  Co116  1  0.12551147  0.37404331  0.87584517  1
  Co  Co117  1  0.00127718  0.74788003  0.25411412  1
  Co  Co118  1  0.62500776  0.62497333  0.37211817  1
  Co  Co119  1  0.12137372  0.62692825  0.12229954  1
  Co  Co120  1  0.37596432  0.87671976  0.62303659  1
  Co  Co121  1  0.87381877  0.37682186  0.37720197  1
  Co  Co122  1  0.74791864  0.50583500  0.50208746  1
  Co  Co123  1  0.12708258  0.62650671  0.87385568  1
  Co  Co124  1  0.75147677  0.24625346  0.49737013  1
  Co  Co125  1  0.74875278  0.00163741  0.74359917  1
  Co  Co126  1  0.62997765  0.37836902  0.87504778  1
  Co  Co127  1  -0.00068563  0.75245488  -0.00327025  1
