# generated using pymatgen
data_Fe45Co19
_symmetry_space_group_name_H-M   'P 1'
_cell_length_a   11.41569491
_cell_length_b   11.41576885
_cell_length_c   11.41508839
_cell_angle_alpha   90.00230907
_cell_angle_beta   89.99633622
_cell_angle_gamma   89.99994747
_symmetry_Int_Tables_number   1
_chemical_formula_structural   Fe45Co19
_chemical_formula_sum   'Fe90 Co38'
_cell_volume   1487.60215065
_cell_formula_units_Z   2
loop_
 _symmetry_equiv_pos_site_id
 _symmetry_equiv_pos_as_xyz
  1  'x, y, z'
loop_
 _atom_site_type_symbol
 _atom_site_label
 _atom_site_symmetry_multiplicity
 _atom_site_fract_x
 _atom_site_fract_y
 _atom_site_fract_z
 _atom_site_occupancy
  Fe  Fe0  1  0.00002756  0.25005674  0.75206891  1
  Fe  Fe1  1  0.37631240  0.37213847  0.87608088  1
  Fe  Fe2  1  0.50310667  0.24522827  0.75610612  1
  Fe  Fe3  1  0.87450089  0.62535214  0.62490639  1
  Fe  Fe4  1  0.74897583  0.74993218  0.75227277  1
  Fe  Fe5  1  0.12393290  0.37351227  0.12425093  1
  Fe  Fe6  1  -0.00093927  -0.00169773  0.49927032  1
  Fe  Fe7  1  0.75387346  0.49906403  0.00081266  1
  Fe  Fe8  1  0.37361238  0.12927244  0.11839051  1
  Fe  Fe9  1  0.50051997  0.24854842  0.24796641  1
  Fe  Fe10  1  0.75251433  -0.00196002  0.49861162  1
  Fe  Fe11  1  0.87583296  0.62540017  0.37491257  1
  Fe  Fe12  1  0.37361366  0.87841971  0.63024882  1
  Fe  Fe13  1  -0.00298691  0.49906908  0.00163084  1
  Fe  Fe14  1  0.37926343  0.37289057  0.62775661  1
  Fe  Fe15  1  0.87790879  0.12962305  0.12155801  1
  Fe  Fe16  1  0.00327678  -0.00209194  0.75188539  1
  Fe  Fe17  1  0.37429781  0.12655644  0.37682948  1
  Fe  Fe18  1  -0.00039431  0.00231463  0.24672680  1
  Fe  Fe19  1  0.49838911  0.74957271  0.50150010  1
  Fe  Fe20  1  0.12593028  0.62472580  0.87409399  1
  Fe  Fe21  1  0.37319710  0.87385340  0.12539019  1
  Fe  Fe22  1  0.12747718  0.62507250  0.62737731  1
  Fe  Fe23  1  0.75370434  -0.00279847  0.00029760  1
  Fe  Fe24  1  0.87579952  0.12576414  0.62594770  1
  Fe  Fe25  1  0.00093114  0.75071267  0.50047477  1
  Fe  Fe26  1  0.87666684  0.12744550  0.37600739  1
  Fe  Fe27  1  0.49752724  0.50122320  0.24727504  1
  Fe  Fe28  1  0.25009552  0.00322083  0.24801016  1
  Fe  Fe29  1  0.37389450  0.87828383  0.87116701  1
  Fe  Fe30  1  0.37367704  0.62489838  0.37420207  1
  Fe  Fe31  1  0.74836040  0.49804548  0.50073211  1
  Fe  Fe32  1  0.37460144  0.87480091  0.37342732  1
  Fe  Fe33  1  0.24767564  -0.00078597  -0.00044445  1
  Fe  Fe34  1  0.37580297  0.37440731  0.37461092  1
  Fe  Fe35  1  0.37450155  0.62684207  0.87498296  1
  Fe  Fe36  1  0.87519049  0.12505310  0.87506188  1
  Fe  Fe37  1  0.50256649  0.75273504  0.00108910  1
  Fe  Fe38  1  0.75303740  -0.00002684  0.24847591  1
  Fe  Fe39  1  0.37557753  0.62383710  0.62915868  1
  Fe  Fe40  1  0.49830759  0.00153589  0.50130918  1
  Fe  Fe41  1  -0.00023752  0.50180131  0.74935443  1
  Fe  Fe42  1  0.12434477  0.12468789  0.87949326  1
  Fe  Fe43  1  -0.00233849  0.49907295  0.24762867  1
  Fe  Fe44  1  0.25223216  0.49772587  0.00051751  1
  Fe  Fe45  1  0.24999383  0.00026830  0.50151524  1
  Fe  Fe46  1  0.12438568  0.12590390  0.62426048  1
  Fe  Fe47  1  0.25048111  0.75095042  0.50159054  1
  Fe  Fe48  1  0.74958382  0.25146492  0.50053064  1
  Fe  Fe49  1  0.87697277  0.37271507  0.37475311  1
  Fe  Fe50  1  0.87673317  0.87416905  0.62668336  1
  Fe  Fe51  1  0.24627415  0.75046424  0.00096801  1
  Fe  Fe52  1  0.87598122  0.62774987  0.87695185  1
  Fe  Fe53  1  0.74631444  0.25191231  0.75290032  1
  Fe  Fe54  1  0.24807058  0.25283199  0.50096330  1
  Fe  Fe55  1  0.62382872  0.87714564  0.37314050  1
  Fe  Fe56  1  0.24702937  0.74866657  0.24757700  1
  Fe  Fe57  1  0.75198296  0.49998777  0.24857477  1
  Fe  Fe58  1  0.62498470  0.12304561  0.37535068  1
  Fe  Fe59  1  0.62272144  0.87966748  0.87435431  1
  Fe  Fe60  1  0.49768493  0.00232967  0.24642902  1
  Fe  Fe61  1  0.25021430  0.49639294  0.50272418  1
  Fe  Fe62  1  0.74937363  0.24977139  0.24950002  1
  Fe  Fe63  1  0.74804205  0.49842381  0.74997968  1
  Fe  Fe64  1  0.12345378  0.12686490  0.37539189  1
  Fe  Fe65  1  0.12517356  0.87631254  0.37369902  1
  Fe  Fe66  1  0.25048466  0.24735215  0.75286572  1
  Fe  Fe67  1  0.12376160  0.37716821  0.87307606  1
  Fe  Fe68  1  0.62323324  0.87586486  0.62725130  1
  Fe  Fe69  1  0.62372346  0.62262997  0.87672423  1
  Fe  Fe70  1  0.49656395  0.49909878  0.00195523  1
  Fe  Fe71  1  0.75040763  -0.00042246  0.75065934  1
  Fe  Fe72  1  0.00380259  0.74759142  0.24654426  1
  Fe  Fe73  1  0.62247225  0.62370605  0.62640385  1
  Fe  Fe74  1  0.62230386  0.37538926  0.37590286  1
  Fe  Fe75  1  0.62464053  0.37584611  0.12302124  1
  Fe  Fe76  1  0.62577076  0.12322961  0.12014808  1
  Fe  Fe77  1  0.00302575  0.49588018  0.50126319  1
  Fe  Fe78  1  0.24812297  0.24953059  0.24804186  1
  Fe  Fe79  1  0.12634368  0.62190660  0.37480822  1
  Fe  Fe80  1  0.75051008  0.75136926  0.49912002  1
  Fe  Fe81  1  0.75098525  0.25324213  -0.00329457  1
  Fe  Fe82  1  0.25278618  0.49867091  0.24662250  1
  Fe  Fe83  1  0.62409272  0.62439850  0.37507243  1
  Fe  Fe84  1  0.87675171  0.87015924  0.12307002  1
  Fe  Fe85  1  0.62539469  0.12532373  0.62436606  1
  Fe  Fe86  1  0.50153307  0.74894894  0.24666893  1
  Fe  Fe87  1  0.87964937  0.87072980  0.87695918  1
  Fe  Fe88  1  0.74782233  0.74950125  0.24805849  1
  Fe  Fe89  1  0.87558985  0.37385587  0.62751941  1
  Co  Co90  1  0.12569678  0.37412707  0.63157402  1
  Co  Co91  1  0.49684851  -0.00164679  0.00162870  1
  Co  Co92  1  0.50024240  0.74960993  0.75194075  1
  Co  Co93  1  0.49957385  0.00697576  0.75042294  1
  Co  Co94  1  0.12583490  0.87507370  0.62536133  1
  Co  Co95  1  0.37538850  0.37046199  0.12364823  1
  Co  Co96  1  -0.00087815  0.25298933  -0.00308113  1
  Co  Co97  1  0.12574212  0.87821451  0.12575044  1
  Co  Co98  1  0.00568495  0.74777838  0.00258915  1
  Co  Co99  1  0.12597907  0.37581337  0.37118356  1
  Co  Co100  1  0.12442318  0.12670652  0.12106112  1
  Co  Co101  1  0.25294559  0.49908939  0.75134871  1
  Co  Co102  1  0.12717555  0.61938153  0.12385139  1
  Co  Co103  1  0.62585711  0.87859103  0.12527734  1
  Co  Co104  1  0.24661541  0.00348774  0.75116012  1
  Co  Co105  1  0.24654570  0.25306517  -0.00192004  1
  Co  Co106  1  0.00121505  0.74883153  0.74932430  1
  Co  Co107  1  0.50311807  0.24987115  -0.00244878  1
  Co  Co108  1  0.62032688  0.37437614  0.62578596  1
  Co  Co109  1  0.62564670  0.62180569  0.12244306  1
  Co  Co110  1  0.37397622  0.12702198  0.62532071  1
  Co  Co111  1  0.50005876  0.24880793  0.49790874  1
  Co  Co112  1  0.62751156  0.12022804  0.88016198  1
  Co  Co113  1  0.37358952  0.12336846  0.87972780  1
  Co  Co114  1  0.24889335  0.75059532  0.75078778  1
  Co  Co115  1  -0.00054395  -0.00057429  0.00028697  1
  Co  Co116  1  0.62479185  0.37906068  0.87780440  1
  Co  Co117  1  0.37415735  0.62818470  0.12322962  1
  Co  Co118  1  0.00173127  0.25330565  0.50092315  1
  Co  Co119  1  0.49896964  0.49937545  0.75321764  1
  Co  Co120  1  0.87656073  0.87275915  0.37156235  1
  Co  Co121  1  0.87464492  0.37154594  0.12563494  1
  Co  Co122  1  0.12449169  0.87336078  0.87488651  1
  Co  Co123  1  0.49822218  0.50128145  0.49950656  1
  Co  Co124  1  0.00157619  0.24929738  0.24935044  1
  Co  Co125  1  0.74547488  0.75138275  -0.00188181  1
  Co  Co126  1  0.87559468  0.37646708  0.87141934  1
  Co  Co127  1  0.87310305  0.62858347  0.12315907  1
