# generated using pymatgen
data_Fe45Co19
_symmetry_space_group_name_H-M   'P 1'
_cell_length_a   11.41550692
_cell_length_b   11.41526007
_cell_length_c   11.41629290
_cell_angle_alpha   89.98777614
_cell_angle_beta   89.99043322
_cell_angle_gamma   90.00276623
_symmetry_Int_Tables_number   1
_chemical_formula_structural   Fe45Co19
_chemical_formula_sum   'Fe90 Co38'
_cell_volume   1487.66826427
_cell_formula_units_Z   2
loop_
 _symmetry_equiv_pos_site_id
 _symmetry_equiv_pos_as_xyz
  1  'x, y, z'
loop_
 _atom_site_type_symbol
 _atom_site_label
 _atom_site_symmetry_multiplicity
 _atom_site_fract_x
 _atom_site_fract_y
 _atom_site_fract_z
 _atom_site_occupancy
  Fe  Fe0  1  0.87589434  0.62869135  0.37485906  1
  Fe  Fe1  1  0.75085206  0.75571693  0.24971050  1
  Fe  Fe2  1  0.37297513  0.62509128  0.12309580  1
  Fe  Fe3  1  -0.00061380  0.00127177  -0.00079888  1
  Fe  Fe4  1  0.37292748  0.62152179  0.62296245  1
  Fe  Fe5  1  -0.00248707  0.24886079  0.24925658  1
  Fe  Fe6  1  0.62356203  0.37585718  0.12594380  1
  Fe  Fe7  1  0.25017051  0.49613969  0.25589133  1
  Fe  Fe8  1  0.25024851  0.74963006  0.75047996  1
  Fe  Fe9  1  0.75447892  0.49750000  0.75043149  1
  Fe  Fe10  1  0.87169194  0.88076405  0.62055771  1
  Fe  Fe11  1  0.24794935  0.49951809  0.75085714  1
  Fe  Fe12  1  0.62355025  0.12696801  0.37293506  1
  Fe  Fe13  1  0.37497285  0.12728020  0.12212807  1
  Fe  Fe14  1  0.50101381  0.24966536  0.74912205  1
  Fe  Fe15  1  -0.00510319  0.25138945  0.74624912  1
  Fe  Fe16  1  0.75281862  0.25350651  0.75007476  1
  Fe  Fe17  1  0.74905696  0.24920545  0.49992664  1
  Fe  Fe18  1  0.12422590  0.87450370  0.12685924  1
  Fe  Fe19  1  0.75027826  0.25127885  -0.00025526  1
  Fe  Fe20  1  0.62417315  0.87232038  0.87400267  1
  Fe  Fe21  1  0.75091480  0.25113441  0.25017503  1
  Fe  Fe22  1  0.37267416  0.12478248  0.62668358  1
  Fe  Fe23  1  0.37408245  0.12679477  0.87558173  1
  Fe  Fe24  1  0.49939310  0.00061954  0.24874394  1
  Fe  Fe25  1  -0.00262933  0.00033528  0.74738779  1
  Fe  Fe26  1  -0.00086951  0.50121838  0.25104329  1
  Fe  Fe27  1  0.50438041  0.50511780  0.00077462  1
  Fe  Fe28  1  0.00217256  0.75298742  0.49903336  1
  Fe  Fe29  1  0.50315085  0.00004720  0.50150497  1
  Fe  Fe30  1  0.50157669  0.00104023  -0.00195064  1
  Fe  Fe31  1  0.87437797  0.12129682  0.37801207  1
  Fe  Fe32  1  0.62573984  0.37735685  0.62301696  1
  Fe  Fe33  1  0.25029510  0.25175769  0.49874695  1
  Fe  Fe34  1  0.11866781  0.37627413  0.87658109  1
  Fe  Fe35  1  0.24821194  0.00037658  0.50016906  1
  Fe  Fe36  1  0.50322216  0.74786347  0.50345044  1
  Fe  Fe37  1  0.62507704  0.62608130  0.37144044  1
  Fe  Fe38  1  0.75321238  0.75247181  0.74857321  1
  Fe  Fe39  1  0.75050202  0.49738566  0.25130520  1
  Fe  Fe40  1  0.37772205  0.37669511  0.87658683  1
  Fe  Fe41  1  0.24839694  0.25123436  -0.00091653  1
  Fe  Fe42  1  0.63004419  0.12123173  0.62905457  1
  Fe  Fe43  1  0.74552762  0.75307378  0.49998096  1
  Fe  Fe44  1  0.37574709  0.87149816  0.87698508  1
  Fe  Fe45  1  0.37552027  0.87592051  0.62567511  1
  Fe  Fe46  1  0.12362059  0.37464633  0.62375516  1
  Fe  Fe47  1  0.12424926  0.62430012  0.62687972  1
  Fe  Fe48  1  0.12499350  0.12616325  0.87124502  1
  Fe  Fe49  1  0.62460334  0.37601917  0.87597383  1
  Fe  Fe50  1  0.87355472  0.12213129  0.12489773  1
  Fe  Fe51  1  0.49997209  0.00094544  0.75208017  1
  Fe  Fe52  1  0.00152308  0.50112196  0.49870134  1
  Fe  Fe53  1  0.87450727  0.62420574  0.62318120  1
  Fe  Fe54  1  0.87707973  0.62340116  0.87413065  1
  Fe  Fe55  1  0.25106628  0.25301947  0.75087355  1
  Fe  Fe56  1  0.87737027  0.37574979  0.12085578  1
  Fe  Fe57  1  0.25064372  0.75121851  0.25201977  1
  Fe  Fe58  1  0.12701990  0.62557729  0.12911196  1
  Fe  Fe59  1  -0.00261369  -0.00446492  0.25239508  1
  Fe  Fe60  1  0.37737488  0.12701380  0.37651353  1
  Fe  Fe61  1  0.87252369  0.62608057  0.12664950  1
  Fe  Fe62  1  0.49951372  0.74892842  0.24698954  1
  Fe  Fe63  1  0.12225908  0.87257447  0.87279629  1
  Fe  Fe64  1  0.00139582  0.74690638  0.00162959  1
  Fe  Fe65  1  0.37385438  0.62659562  0.87704659  1
  Fe  Fe66  1  0.50111723  0.74695207  0.74825039  1
  Fe  Fe67  1  0.24879321  0.74943996  0.49960130  1
  Fe  Fe68  1  0.74776119  0.50078132  0.49677289  1
  Fe  Fe69  1  0.24872292  -0.00163392  -0.00183874  1
  Fe  Fe70  1  0.87379635  0.12670441  0.87339344  1
  Fe  Fe71  1  0.24601654  0.50166850  -0.00190945  1
  Fe  Fe72  1  -0.00213829  0.24557001  0.50318857  1
  Fe  Fe73  1  0.37704865  0.37558991  0.12378007  1
  Fe  Fe74  1  0.87658787  0.37409313  0.37731364  1
  Fe  Fe75  1  0.50126778  0.50278268  0.74889262  1
  Fe  Fe76  1  0.37635984  0.87279086  0.12104467  1
  Fe  Fe77  1  0.12215953  0.37381915  0.12467818  1
  Fe  Fe78  1  0.25266093  0.25262888  0.25243970  1
  Fe  Fe79  1  0.75003812  -0.00450376  0.25220829  1
  Fe  Fe80  1  0.37476696  0.62210072  0.37749585  1
  Fe  Fe81  1  0.37695516  0.87471851  0.37681549  1
  Fe  Fe82  1  0.74769766  0.74882930  0.00027674  1
  Fe  Fe83  1  0.12532573  0.12458197  0.12686431  1
  Fe  Fe84  1  0.62531806  0.12501717  0.12427233  1
  Fe  Fe85  1  0.25260315  -0.00058518  0.25006901  1
  Fe  Fe86  1  0.75011774  -0.00167617  -0.00302251  1
  Fe  Fe87  1  0.12440753  0.12495277  0.37421153  1
  Fe  Fe88  1  0.12706675  0.87649395  0.62684892  1
  Fe  Fe89  1  0.37684120  0.37754942  0.62108558  1
  Co  Co90  1  0.49945059  0.50096163  0.24994555  1
  Co  Co91  1  0.38150477  0.37545165  0.37989925  1
  Co  Co92  1  0.00112869  0.50618385  0.00280965  1
  Co  Co93  1  0.50312307  0.24658245  0.50424409  1
  Co  Co94  1  0.00451027  0.00038063  0.50181365  1
  Co  Co95  1  0.12410650  0.62681524  0.37378465  1
  Co  Co96  1  0.87569791  0.87498449  0.37951607  1
  Co  Co97  1  0.50504039  0.74520987  0.00093693  1
  Co  Co98  1  0.50526814  0.50419215  0.50019015  1
  Co  Co99  1  0.49874919  0.24970979  0.24849822  1
  Co  Co100  1  0.86870928  0.11942671  0.62390095  1
  Co  Co101  1  0.24533674  0.75002137  -0.00119842  1
  Co  Co102  1  0.74884558  0.50064577  0.00027815  1
  Co  Co103  1  -0.00263295  0.49750667  0.74684773  1
  Co  Co104  1  0.62918471  0.62498040  0.87023408  1
  Co  Co105  1  0.12138793  0.62607756  0.86932331  1
  Co  Co106  1  0.75188789  -0.00343029  0.75611463  1
  Co  Co107  1  0.61964295  0.87265783  0.37276114  1
  Co  Co108  1  0.62840191  0.62448665  0.12981201  1
  Co  Co109  1  0.62702963  0.12752344  0.87422964  1
  Co  Co110  1  0.24621518  0.49810533  0.49739132  1
  Co  Co111  1  0.74362668  -0.00247882  0.49461163  1
  Co  Co112  1  0.12685938  0.87523211  0.37312190  1
  Co  Co113  1  0.25148108  -0.00180690  0.75240065  1
  Co  Co114  1  0.12014034  0.37212897  0.37536718  1
  Co  Co115  1  0.87502306  0.87459507  0.12231008  1
  Co  Co116  1  0.87363111  0.37700183  0.61926514  1
  Co  Co117  1  -0.00135612  0.75173016  0.25041558  1
  Co  Co118  1  0.12809332  0.12655713  0.62821755  1
  Co  Co119  1  0.62532818  0.87672750  0.62919434  1
  Co  Co120  1  0.50116282  0.24985797  -0.00035764  1
  Co  Co121  1  0.62966728  0.62389254  0.62782730  1
  Co  Co122  1  -0.00048764  0.24493620  0.00127098  1
  Co  Co123  1  0.62215250  0.37360067  0.37512793  1
  Co  Co124  1  0.87769594  0.87232247  0.87768141  1
  Co  Co125  1  0.62444615  0.87635707  0.12387784  1
  Co  Co126  1  0.87865359  0.37652772  0.88057999  1
  Co  Co127  1  -0.00425608  0.75226927  0.74536815  1
