# generated using pymatgen
data_Fe45Co19
_symmetry_space_group_name_H-M   'P 1'
_cell_length_a   11.41578834
_cell_length_b   11.41527422
_cell_length_c   11.41429938
_cell_angle_alpha   89.99484679
_cell_angle_beta   90.00202118
_cell_angle_gamma   90.00421922
_symmetry_Int_Tables_number   1
_chemical_formula_structural   Fe45Co19
_chemical_formula_sum   'Fe90 Co38'
_cell_volume   1487.44704363
_cell_formula_units_Z   2
loop_
 _symmetry_equiv_pos_site_id
 _symmetry_equiv_pos_as_xyz
  1  'x, y, z'
loop_
 _atom_site_type_symbol
 _atom_site_label
 _atom_site_symmetry_multiplicity
 _atom_site_fract_x
 _atom_site_fract_y
 _atom_site_fract_z
 _atom_site_occupancy
  Fe  Fe0  1  0.25187666  0.00097897  0.24800657  1
  Fe  Fe1  1  0.49772018  0.74894367  -0.00811510  1
  Fe  Fe2  1  0.37771371  0.12485638  0.37737379  1
  Fe  Fe3  1  0.12636545  0.62463653  0.87581428  1
  Fe  Fe4  1  0.74826806  0.00050829  0.50276788  1
  Fe  Fe5  1  0.00106377  0.49864013  0.24699264  1
  Fe  Fe6  1  0.12712022  0.87468293  0.37382925  1
  Fe  Fe7  1  0.87460268  0.62533680  0.62421601  1
  Fe  Fe8  1  0.62571760  0.12412312  0.87595246  1
  Fe  Fe9  1  -0.00042873  0.74712590  0.49681900  1
  Fe  Fe10  1  0.37932379  0.37805186  0.62270488  1
  Fe  Fe11  1  0.00188810  0.50069898  0.50146780  1
  Fe  Fe12  1  0.12485003  0.12734342  0.62488628  1
  Fe  Fe13  1  0.25146360  0.00125372  0.50187312  1
  Fe  Fe14  1  0.25003288  0.50021561  0.00314051  1
  Fe  Fe15  1  0.12658186  0.12593131  0.87641607  1
  Fe  Fe16  1  0.74542769  0.25318369  0.00315288  1
  Fe  Fe17  1  0.87277720  0.62314991  0.87688886  1
  Fe  Fe18  1  0.37481996  0.87343461  0.12239068  1
  Fe  Fe19  1  0.50244670  0.25359753  0.49924991  1
  Fe  Fe20  1  0.37823318  0.62319783  0.62366963  1
  Fe  Fe21  1  0.25191808  0.25341474  0.49902310  1
  Fe  Fe22  1  0.74826088  0.24821784  0.74786589  1
  Fe  Fe23  1  0.25190521  0.74677631  0.24837562  1
  Fe  Fe24  1  0.37336764  0.87550714  0.37558972  1
  Fe  Fe25  1  -0.00007954  0.25255686  0.25083580  1
  Fe  Fe26  1  0.62298824  0.86997173  0.12760779  1
  Fe  Fe27  1  0.87286022  0.12495987  0.12503321  1
  Fe  Fe28  1  -0.00139764  0.25245899  0.00036155  1
  Fe  Fe29  1  -0.00146771  0.25186696  0.49843286  1
  Fe  Fe30  1  0.12758090  0.62082075  0.37245701  1
  Fe  Fe31  1  0.87304291  0.37582128  0.62503486  1
  Fe  Fe32  1  0.87422943  0.87271741  0.12843703  1
  Fe  Fe33  1  0.50105393  -0.00016110  0.74940196  1
  Fe  Fe34  1  0.74462152  0.50062546  0.50135078  1
  Fe  Fe35  1  0.74645236  0.50231316  0.24460395  1
  Fe  Fe36  1  0.37695954  0.87431853  0.62567095  1
  Fe  Fe37  1  0.87671892  0.62674999  0.12624886  1
  Fe  Fe38  1  0.12882798  0.87478879  0.87642384  1
  Fe  Fe39  1  0.00056042  -0.00066634  0.00107744  1
  Fe  Fe40  1  0.12445246  0.37428860  0.62433372  1
  Fe  Fe41  1  0.37447902  0.12292308  0.87722332  1
  Fe  Fe42  1  -0.00027936  -0.00012425  0.50042262  1
  Fe  Fe43  1  0.87211601  0.37789985  0.37364283  1
  Fe  Fe44  1  0.25112128  0.25504538  0.25200562  1
  Fe  Fe45  1  -0.00140860  0.00098648  0.75062213  1
  Fe  Fe46  1  0.00041779  0.75018939  -0.00089343  1
  Fe  Fe47  1  0.50215265  0.25063761  0.25000961  1
  Fe  Fe48  1  0.12670889  0.12863976  0.12394641  1
  Fe  Fe49  1  0.25402080  0.74851317  0.75258979  1
  Fe  Fe50  1  0.87371247  0.87515586  0.37192990  1
  Fe  Fe51  1  0.25103712  0.00169434  0.74767878  1
  Fe  Fe52  1  -0.00012342  0.49997350  0.74982148  1
  Fe  Fe53  1  0.74820529  0.74803133  0.00068102  1
  Fe  Fe54  1  0.74797524  0.25053145  0.50185059  1
  Fe  Fe55  1  0.62530288  0.87057796  0.62992842  1
  Fe  Fe56  1  0.50170084  -0.00093090  0.00023111  1
  Fe  Fe57  1  0.50015511  0.75000272  0.49822731  1
  Fe  Fe58  1  0.74681510  0.50247695  0.74918777  1
  Fe  Fe59  1  0.37827536  0.62519939  0.12351112  1
  Fe  Fe60  1  0.37832757  0.37826772  0.87742091  1
  Fe  Fe61  1  0.62408123  0.12303083  0.37506294  1
  Fe  Fe62  1  0.37959459  0.37371896  0.12170125  1
  Fe  Fe63  1  0.74654452  0.25034948  0.24715659  1
  Fe  Fe64  1  0.50057920  0.25004566  0.75216682  1
  Fe  Fe65  1  0.12669615  0.87112288  0.12483401  1
  Fe  Fe66  1  0.00013709  0.00006270  0.24873175  1
  Fe  Fe67  1  0.62568731  0.87397566  0.37181937  1
  Fe  Fe68  1  0.75077781  0.74783144  0.49789779  1
  Fe  Fe69  1  -0.00196325  0.74910190  0.75192252  1
  Fe  Fe70  1  0.12536820  0.37567052  0.87731254  1
  Fe  Fe71  1  0.37578204  0.12745765  0.12308551  1
  Fe  Fe72  1  0.24870579  0.49986669  0.74723487  1
  Fe  Fe73  1  0.87261447  0.12485611  0.87676979  1
  Fe  Fe74  1  0.24985081  0.74676565  0.50110039  1
  Fe  Fe75  1  0.50485390  0.50329394  0.75149630  1
  Fe  Fe76  1  0.12475387  0.87183317  0.62542952  1
  Fe  Fe77  1  0.62390781  0.62612568  0.37265891  1
  Fe  Fe78  1  -0.00126780  0.49844718  0.00173570  1
  Fe  Fe79  1  0.87366296  0.87448600  0.62673624  1
  Fe  Fe80  1  0.12593706  0.12531846  0.37498312  1
  Fe  Fe81  1  0.37396224  0.62070706  0.37684267  1
  Fe  Fe82  1  0.25334954  0.25151295  0.75036531  1
  Fe  Fe83  1  0.87021328  0.37650345  0.87631291  1
  Fe  Fe84  1  0.87092874  0.87595106  0.87403022  1
  Fe  Fe85  1  0.49943307  -0.00122319  0.24983392  1
  Fe  Fe86  1  -0.00212133  0.25078911  0.75092216  1
  Fe  Fe87  1  0.74719253  -0.00263412  0.00221250  1
  Fe  Fe88  1  0.50019350  0.49926321  0.25148318  1
  Fe  Fe89  1  0.87277518  0.12431144  0.37428686  1
  Co  Co90  1  0.37314971  0.88009688  0.87568521  1
  Co  Co91  1  0.87422719  0.61984508  0.37399541  1
  Co  Co92  1  0.50562194  0.50015500  0.49839698  1
  Co  Co93  1  0.62717827  0.87342561  0.87149722  1
  Co  Co94  1  0.12422438  0.62672791  0.12473990  1
  Co  Co95  1  0.25264419  0.25202961  -0.00318482  1
  Co  Co96  1  0.37300980  0.61907972  0.87437698  1
  Co  Co97  1  0.37665432  0.37801893  0.37711750  1
  Co  Co98  1  0.62790826  0.62567058  0.87567955  1
  Co  Co99  1  0.24924846  0.00155135  0.00290478  1
  Co  Co100  1  0.62290765  0.63002948  0.62567927  1
  Co  Co101  1  0.12443464  0.62748216  0.62755817  1
  Co  Co102  1  0.12565179  0.37317300  0.12364681  1
  Co  Co103  1  0.87622571  0.12521816  0.62433545  1
  Co  Co104  1  0.50387189  0.50264856  -0.00257494  1
  Co  Co105  1  0.74815465  0.50215714  0.00489602  1
  Co  Co106  1  0.75103400  0.74626681  0.25043277  1
  Co  Co107  1  0.25318289  0.49766200  0.24509916  1
  Co  Co108  1  0.62662714  0.37654584  0.87568269  1
  Co  Co109  1  0.62344499  0.37458100  0.62750289  1
  Co  Co110  1  0.12492136  0.37904808  0.37445439  1
  Co  Co111  1  0.74973173  0.00338307  0.74835858  1
  Co  Co112  1  0.37811037  0.12600999  0.62238504  1
  Co  Co113  1  0.50256656  0.24876334  -0.00211000  1
  Co  Co114  1  0.49629544  0.74993557  0.25349449  1
  Co  Co115  1  0.50193138  -0.00449300  0.49990516  1
  Co  Co116  1  0.75230682  0.74605217  0.75121407  1
  Co  Co117  1  0.62015114  0.37709145  0.12328281  1
  Co  Co118  1  0.00009555  0.74887475  0.25379917  1
  Co  Co119  1  0.61903762  0.62923998  0.12498382  1
  Co  Co120  1  0.62125597  0.12527465  0.62361623  1
  Co  Co121  1  0.49598924  0.74799077  0.75550843  1
  Co  Co122  1  0.87340672  0.37460546  0.12613810  1
  Co  Co123  1  0.62667644  0.37525552  0.37214641  1
  Co  Co124  1  0.62390385  0.12324724  0.12519088  1
  Co  Co125  1  0.25350257  0.74695179  -0.00160877  1
  Co  Co126  1  0.24879706  0.49921741  0.50327003  1
  Co  Co127  1  0.74825539  -0.00028352  0.24867785  1
