# generated using pymatgen
data_Fe45Co19
_symmetry_space_group_name_H-M   'P 1'
_cell_length_a   11.41552779
_cell_length_b   11.41521668
_cell_length_c   11.41451183
_cell_angle_alpha   89.99441389
_cell_angle_beta   90.01462862
_cell_angle_gamma   90.00419402
_symmetry_Int_Tables_number   1
_chemical_formula_structural   Fe45Co19
_chemical_formula_sum   'Fe90 Co38'
_cell_volume   1487.43323305
_cell_formula_units_Z   2
loop_
 _symmetry_equiv_pos_site_id
 _symmetry_equiv_pos_as_xyz
  1  'x, y, z'
loop_
 _atom_site_type_symbol
 _atom_site_label
 _atom_site_symmetry_multiplicity
 _atom_site_fract_x
 _atom_site_fract_y
 _atom_site_fract_z
 _atom_site_occupancy
  Fe  Fe0  1  0.12355824  0.87694667  0.62461910  1
  Fe  Fe1  1  0.87917719  0.37309303  0.62771560  1
  Fe  Fe2  1  0.75142598  0.00255933  0.00148588  1
  Fe  Fe3  1  0.75080767  0.75048183  -0.00006104  1
  Fe  Fe4  1  0.24705310  0.00460437  0.24217902  1
  Fe  Fe5  1  0.49857642  0.49799243  0.00061833  1
  Fe  Fe6  1  0.62517406  0.62242687  0.87531215  1
  Fe  Fe7  1  0.37149823  0.37438083  0.62058855  1
  Fe  Fe8  1  0.13001223  0.37407571  0.37896368  1
  Fe  Fe9  1  0.00172608  0.49629279  0.24979956  1
  Fe  Fe10  1  0.49789603  0.75184717  -0.00207907  1
  Fe  Fe11  1  0.75156453  0.00072956  0.74841621  1
  Fe  Fe12  1  0.12654839  0.36777327  0.12452690  1
  Fe  Fe13  1  0.00042898  0.74990765  0.49982641  1
  Fe  Fe14  1  0.37579813  0.62200873  0.37589139  1
  Fe  Fe15  1  0.75039763  0.49767870  0.50095011  1
  Fe  Fe16  1  0.62458191  0.62303333  0.37505634  1
  Fe  Fe17  1  0.37327366  0.37060002  0.12402807  1
  Fe  Fe18  1  0.75209127  0.00027548  0.50124653  1
  Fe  Fe19  1  0.12726041  0.12593869  0.37405874  1
  Fe  Fe20  1  -0.00037573  0.00010260  0.49814122  1
  Fe  Fe21  1  0.87854071  0.87587201  0.12687285  1
  Fe  Fe22  1  0.00498476  0.25102847  0.50179070  1
  Fe  Fe23  1  0.24723668  0.24881376  0.74596048  1
  Fe  Fe24  1  0.12440832  0.62470898  0.37245309  1
  Fe  Fe25  1  0.75207434  0.00381161  0.24864756  1
  Fe  Fe26  1  0.12488222  0.87534207  0.36985754  1
  Fe  Fe27  1  0.49868750  0.00126460  0.50086448  1
  Fe  Fe28  1  0.00343138  0.00450637  0.00629255  1
  Fe  Fe29  1  0.37328847  0.62420079  0.12342143  1
  Fe  Fe30  1  0.87541529  0.12850332  0.87374059  1
  Fe  Fe31  1  0.87431626  0.37321108  0.37379038  1
  Fe  Fe32  1  0.75115535  0.75226575  0.50031649  1
  Fe  Fe33  1  0.62335937  0.37292592  0.12514054  1
  Fe  Fe34  1  0.49816529  0.00232432  0.24702176  1
  Fe  Fe35  1  0.49787252  0.24913441  0.25571973  1
  Fe  Fe36  1  0.49632396  0.24769888  0.49484472  1
  Fe  Fe37  1  0.87573867  0.62426762  0.87573960  1
  Fe  Fe38  1  0.74883413  0.24920392  0.49967982  1
  Fe  Fe39  1  0.24875345  0.74925148  0.75197866  1
  Fe  Fe40  1  0.75147904  0.49603888  0.75175147  1
  Fe  Fe41  1  0.25032663  0.00315536  0.50318907  1
  Fe  Fe42  1  0.50020061  -0.00054948  0.75119272  1
  Fe  Fe43  1  0.62506343  0.87783370  0.37346240  1
  Fe  Fe44  1  0.37085236  0.62262202  0.87750880  1
  Fe  Fe45  1  0.12692910  0.62753905  0.12502065  1
  Fe  Fe46  1  0.37431301  0.62550642  0.62335781  1
  Fe  Fe47  1  0.74842286  0.25081601  -0.00299975  1
  Fe  Fe48  1  0.37419674  0.12170637  0.87700476  1
  Fe  Fe49  1  0.62597158  0.87649328  0.87539818  1
  Fe  Fe50  1  0.37271038  0.37582833  0.87546079  1
  Fe  Fe51  1  0.49696003  0.75152764  0.25044328  1
  Fe  Fe52  1  0.12552419  0.37707667  0.87200874  1
  Fe  Fe53  1  0.00170753  0.74925904  0.00078856  1
  Fe  Fe54  1  0.62274398  0.37315527  0.62433292  1
  Fe  Fe55  1  0.87659340  0.37011017  0.12489504  1
  Fe  Fe56  1  0.49747797  0.49895676  0.74840116  1
  Fe  Fe57  1  0.50010045  0.24993607  0.75247103  1
  Fe  Fe58  1  0.50099077  0.24842511  -0.00386811  1
  Fe  Fe59  1  0.62403998  0.12636494  0.12468616  1
  Fe  Fe60  1  0.75010825  0.49656353  -0.00047772  1
  Fe  Fe61  1  0.50001711  0.75148940  0.49919692  1
  Fe  Fe62  1  0.87525722  0.62558637  0.62629439  1
  Fe  Fe63  1  0.25064273  0.49777631  0.24872169  1
  Fe  Fe64  1  0.87844385  0.12710665  0.62671325  1
  Fe  Fe65  1  0.24955032  0.00145385  0.74886897  1
  Fe  Fe66  1  0.87690792  0.87539782  0.87531754  1
  Fe  Fe67  1  0.12318528  0.61984851  0.62689350  1
  Fe  Fe68  1  0.49935192  0.49664121  0.25133635  1
  Fe  Fe69  1  0.87613658  0.62239536  0.12474460  1
  Fe  Fe70  1  0.24845254  0.74942016  0.49877177  1
  Fe  Fe71  1  0.74878231  0.49703081  0.24883085  1
  Fe  Fe72  1  0.62621636  0.87415084  0.62662283  1
  Fe  Fe73  1  0.87804507  0.87560731  0.37169781  1
  Fe  Fe74  1  0.12516371  0.12528408  0.87518907  1
  Fe  Fe75  1  -0.00033388  0.00060769  0.75041648  1
  Fe  Fe76  1  0.12651204  0.87565544  0.87784900  1
  Fe  Fe77  1  0.37146491  0.87612934  0.12092769  1
  Fe  Fe78  1  0.87543090  0.12760907  0.37239863  1
  Fe  Fe79  1  0.75105454  0.74920140  0.24935335  1
  Fe  Fe80  1  0.62362636  0.62530907  0.12462721  1
  Fe  Fe81  1  0.62622636  0.62526235  0.62657243  1
  Fe  Fe82  1  0.62369372  0.12673425  0.62584465  1
  Fe  Fe83  1  0.37194624  0.87888941  0.37448966  1
  Fe  Fe84  1  0.00097524  0.74949974  0.75063698  1
  Fe  Fe85  1  0.87556778  0.62340604  0.37386771  1
  Fe  Fe86  1  0.37344303  0.87504205  0.62644425  1
  Fe  Fe87  1  0.00285055  0.49729889  -0.00097963  1
  Fe  Fe88  1  0.49820852  0.75034375  0.75275908  1
  Fe  Fe89  1  0.62513686  0.87447562  0.12501082  1
  Co  Co90  1  0.37159024  0.12083697  0.37378478  1
  Co  Co91  1  0.37138975  0.87966361  0.87600546  1
  Co  Co92  1  0.12517222  0.13623858  0.12437068  1
  Co  Co93  1  0.00068468  0.25017129  -0.00433910  1
  Co  Co94  1  0.74697243  0.25016821  0.25050743  1
  Co  Co95  1  0.62588679  0.12336670  0.87378447  1
  Co  Co96  1  0.25399065  0.25005216  0.25349650  1
  Co  Co97  1  0.25299612  0.49984554  0.74921702  1
  Co  Co98  1  0.62515576  0.37590922  0.37651942  1
  Co  Co99  1  0.12130924  0.12132558  0.62523781  1
  Co  Co100  1  0.00184781  0.25049853  0.25373236  1
  Co  Co101  1  0.25008517  0.75025914  -0.00181314  1
  Co  Co102  1  0.50073241  0.00030370  0.00085001  1
  Co  Co103  1  0.24861409  0.50382134  0.50033749  1
  Co  Co104  1  0.37772957  0.12504087  0.62780938  1
  Co  Co105  1  0.12445292  0.87014086  0.12732760  1
  Co  Co106  1  0.24935690  0.24467786  0.50436154  1
  Co  Co107  1  0.75133807  0.75124123  0.75218423  1
  Co  Co108  1  0.50074720  0.50002649  0.50176772  1
  Co  Co109  1  0.00261750  0.00574316  0.24581779  1
  Co  Co110  1  0.25388401  0.74898912  0.25098910  1
  Co  Co111  1  0.12601180  0.37977549  0.62461824  1
  Co  Co112  1  -0.00131590  0.49925134  0.49779052  1
  Co  Co113  1  0.62552941  0.12273854  0.37543239  1
  Co  Co114  1  0.24529919  0.00321952  0.00497809  1
  Co  Co115  1  0.24796318  0.49656160  0.00213276  1
  Co  Co116  1  0.62303546  0.37771190  0.87447500  1
  Co  Co117  1  0.37077623  0.37720344  0.37967083  1
  Co  Co118  1  -0.00251475  0.49994861  0.75281295  1
  Co  Co119  1  0.87579658  0.13198481  0.12540519  1
  Co  Co120  1  0.00500379  0.25050619  0.74875788  1
  Co  Co121  1  0.74822264  0.25160627  0.75079236  1
  Co  Co122  1  0.25032891  0.24947840  -0.00494622  1
  Co  Co123  1  0.87783201  0.87515348  0.62614243  1
  Co  Co124  1  0.87699032  0.37194475  0.87426169  1
  Co  Co125  1  0.37555542  0.12999475  0.12196599  1
  Co  Co126  1  -0.00202045  0.74775929  0.24945035  1
  Co  Co127  1  0.12634115  0.62273908  0.87544856  1
