# generated using pymatgen
data_Fe45Co19
_symmetry_space_group_name_H-M   'P 1'
_cell_length_a   11.41441158
_cell_length_b   11.41623467
_cell_length_c   11.41466458
_cell_angle_alpha   89.99906705
_cell_angle_beta   90.01591464
_cell_angle_gamma   90.00280245
_symmetry_Int_Tables_number   1
_chemical_formula_structural   Fe45Co19
_chemical_formula_sum   'Fe90 Co38'
_cell_volume   1487.44032976
_cell_formula_units_Z   2
loop_
 _symmetry_equiv_pos_site_id
 _symmetry_equiv_pos_as_xyz
  1  'x, y, z'
loop_
 _atom_site_type_symbol
 _atom_site_label
 _atom_site_symmetry_multiplicity
 _atom_site_fract_x
 _atom_site_fract_y
 _atom_site_fract_z
 _atom_site_occupancy
  Fe  Fe0  1  0.12537407  0.37337476  0.12425638  1
  Fe  Fe1  1  0.00029248  0.00011145  0.74967649  1
  Fe  Fe2  1  0.62375329  0.62489730  0.87437788  1
  Fe  Fe3  1  0.12568983  0.12681233  0.12687874  1
  Fe  Fe4  1  0.75216594  0.74631806  -0.00011241  1
  Fe  Fe5  1  0.00153686  0.00037364  0.49943118  1
  Fe  Fe6  1  0.12678067  0.87540078  0.87585352  1
  Fe  Fe7  1  0.87163225  0.37621399  0.12478889  1
  Fe  Fe8  1  0.74755719  0.50093820  0.25325389  1
  Fe  Fe9  1  0.62390874  0.62262330  0.12401779  1
  Fe  Fe10  1  0.37560736  0.87417923  0.37739065  1
  Fe  Fe11  1  0.37546288  0.62548549  0.87260653  1
  Fe  Fe12  1  0.37495045  0.62374427  0.37702427  1
  Fe  Fe13  1  0.62608815  0.37210951  0.38141304  1
  Fe  Fe14  1  0.62141173  0.62858626  0.37744521  1
  Fe  Fe15  1  0.12403042  0.62152330  0.87085573  1
  Fe  Fe16  1  0.25082497  0.49743763  0.25273892  1
  Fe  Fe17  1  0.49839663  0.75437973  0.74749633  1
  Fe  Fe18  1  0.38012309  0.12219085  0.87285117  1
  Fe  Fe19  1  0.50057943  -0.00170725  0.24857889  1
  Fe  Fe20  1  0.74718180  0.24886830  0.74938258  1
  Fe  Fe21  1  0.87558912  0.87422977  0.87466985  1
  Fe  Fe22  1  0.74713658  0.00429269  0.49585746  1
  Fe  Fe23  1  -0.00260908  0.00108372  0.00003083  1
  Fe  Fe24  1  0.74938054  0.75088425  0.25258022  1
  Fe  Fe25  1  0.24900782  0.74998837  0.25146331  1
  Fe  Fe26  1  0.37701377  0.62183008  0.12738432  1
  Fe  Fe27  1  0.37689848  0.37288850  0.62386754  1
  Fe  Fe28  1  0.00174229  0.75097111  0.74782056  1
  Fe  Fe29  1  0.87448399  0.62538968  0.62580850  1
  Fe  Fe30  1  0.75022670  -0.00279525  0.25354370  1
  Fe  Fe31  1  0.87405604  0.87553535  0.62122920  1
  Fe  Fe32  1  0.12650431  0.37502270  0.62596796  1
  Fe  Fe33  1  0.62365633  0.87633854  0.87837713  1
  Fe  Fe34  1  0.00430946  0.74908868  0.49936770  1
  Fe  Fe35  1  0.12907356  0.62150554  0.62750588  1
  Fe  Fe36  1  0.62416719  0.12134649  0.87573767  1
  Fe  Fe37  1  0.25108661  0.50077477  -0.00049241  1
  Fe  Fe38  1  0.37250057  0.62493390  0.62417312  1
  Fe  Fe39  1  -0.00380098  0.24941494  0.00095717  1
  Fe  Fe40  1  0.74851819  0.74780294  0.49856538  1
  Fe  Fe41  1  0.12374309  0.62537640  0.12803554  1
  Fe  Fe42  1  -0.00100832  0.49793108  0.24994528  1
  Fe  Fe43  1  0.12404033  0.37606495  0.87435752  1
  Fe  Fe44  1  0.87390004  0.12362976  0.62516946  1
  Fe  Fe45  1  0.25212757  0.24850151  0.00069423  1
  Fe  Fe46  1  0.37705898  0.12741928  0.37215132  1
  Fe  Fe47  1  0.37001105  0.87726877  0.62341295  1
  Fe  Fe48  1  -0.00467382  0.50236888  0.00009342  1
  Fe  Fe49  1  0.49859322  0.74981541  0.00060607  1
  Fe  Fe50  1  0.75305411  0.25072710  0.25480581  1
  Fe  Fe51  1  0.87338688  0.37519823  0.87472829  1
  Fe  Fe52  1  0.12634529  0.87500050  0.37507311  1
  Fe  Fe53  1  0.49997127  0.75043148  0.25038593  1
  Fe  Fe54  1  0.37326358  0.87467427  0.12377643  1
  Fe  Fe55  1  0.12325756  0.12797244  0.37258553  1
  Fe  Fe56  1  0.74915524  -0.00102746  0.75031643  1
  Fe  Fe57  1  0.37660636  0.37648207  0.12571766  1
  Fe  Fe58  1  0.25200523  0.00201352  -0.00003941  1
  Fe  Fe59  1  0.62670029  0.12475244  0.12610174  1
  Fe  Fe60  1  0.87318154  0.12513690  0.12606489  1
  Fe  Fe61  1  0.37641019  0.37430799  0.87554110  1
  Fe  Fe62  1  0.74843235  0.50133998  0.74824167  1
  Fe  Fe63  1  0.62575820  0.87474351  0.12425296  1
  Fe  Fe64  1  0.12273533  0.12677857  0.87435855  1
  Fe  Fe65  1  0.25041238  0.00087875  0.25001020  1
  Fe  Fe66  1  -0.00252747  0.25145589  0.74816710  1
  Fe  Fe67  1  -0.00416772  0.25020832  0.49863437  1
  Fe  Fe68  1  0.50139087  0.00223965  0.49963039  1
  Fe  Fe69  1  0.87513978  0.87227738  0.12535321  1
  Fe  Fe70  1  0.62560669  0.37680890  0.87763541  1
  Fe  Fe71  1  0.37713885  0.12419886  0.62802680  1
  Fe  Fe72  1  0.12613606  0.12622186  0.62459918  1
  Fe  Fe73  1  -0.00045851  0.74729666  0.00140598  1
  Fe  Fe74  1  0.24977246  0.74827399  -0.00070452  1
  Fe  Fe75  1  0.12966301  0.87752736  0.62457381  1
  Fe  Fe76  1  0.00106434  0.50063415  0.50044329  1
  Fe  Fe77  1  0.62590890  0.87503194  0.62079045  1
  Fe  Fe78  1  0.25201614  0.24992780  0.49779244  1
  Fe  Fe79  1  0.12411152  0.37309964  0.37425073  1
  Fe  Fe80  1  0.62624699  0.37727210  0.12286450  1
  Fe  Fe81  1  0.50142477  0.24874154  0.00163560  1
  Fe  Fe82  1  -0.00064868  -0.00302509  0.24960497  1
  Fe  Fe83  1  0.25069906  0.24958789  0.75107573  1
  Fe  Fe84  1  0.50188854  0.50042174  0.50166152  1
  Fe  Fe85  1  0.87820681  0.62618297  0.37338014  1
  Fe  Fe86  1  0.49950166  0.25368871  0.24974013  1
  Fe  Fe87  1  0.50131045  0.49772796  0.74816824  1
  Fe  Fe88  1  0.74879283  0.75098646  0.74903203  1
  Fe  Fe89  1  0.86893328  0.37605179  0.62017410  1
  Co  Co90  1  0.37552752  0.12638668  0.12771988  1
  Co  Co91  1  0.62314836  0.62671203  0.62680866  1
  Co  Co92  1  0.62806324  0.37295000  0.61960950  1
  Co  Co93  1  0.25158827  0.25272464  0.25048536  1
  Co  Co94  1  -0.00306659  0.49717747  0.74728126  1
  Co  Co95  1  0.12490145  0.62301384  0.37219347  1
  Co  Co96  1  0.24746511  0.74862339  0.49874019  1
  Co  Co97  1  0.62360575  0.12574143  0.62687234  1
  Co  Co98  1  0.75175357  0.24254044  0.49736801  1
  Co  Co99  1  0.50204703  -0.00558490  0.74758809  1
  Co  Co100  1  0.25038639  0.00418595  0.49729779  1
  Co  Co101  1  0.74947773  0.24853601  -0.00097694  1
  Co  Co102  1  0.87360508  0.37823048  0.37811419  1
  Co  Co103  1  0.62212149  0.12653980  0.37063942  1
  Co  Co104  1  0.87567656  0.62627848  0.87005553  1
  Co  Co105  1  0.24915436  0.49739481  0.49883902  1
  Co  Co106  1  0.50322029  0.49890422  0.25363723  1
  Co  Co107  1  -0.00381849  0.25215688  0.24885466  1
  Co  Co108  1  0.75169251  -0.00001814  0.00042525  1
  Co  Co109  1  0.87414423  0.12556004  0.87233395  1
  Co  Co110  1  0.37452996  0.87659699  0.87664757  1
  Co  Co111  1  0.24988696  0.75138089  0.75032185  1
  Co  Co112  1  0.62266799  0.87372885  0.37702121  1
  Co  Co113  1  0.74745717  0.50631622  0.49855879  1
  Co  Co114  1  0.49964255  -0.00013830  0.00446938  1
  Co  Co115  1  0.50393970  0.25244579  0.75089020  1
  Co  Co116  1  0.25300823  0.49675665  0.75010058  1
  Co  Co117  1  0.00219886  0.75362700  0.25094148  1
  Co  Co118  1  0.12667337  0.87558321  0.12336694  1
  Co  Co119  1  0.75282704  0.50391237  -0.00046741  1
  Co  Co120  1  0.49899337  0.50054313  -0.00089772  1
  Co  Co121  1  0.87489140  0.62592809  0.13075947  1
  Co  Co122  1  0.24862178  0.00176669  0.75213415  1
  Co  Co123  1  0.87525789  0.87372634  0.37857395  1
  Co  Co124  1  0.87851797  0.12241119  0.37381831  1
  Co  Co125  1  0.49997890  0.24633792  0.50085510  1
  Co  Co126  1  0.37799528  0.37519806  0.37703113  1
  Co  Co127  1  0.49830939  0.75081264  0.50304514  1
