# generated using pymatgen
data_Fe45Co19
_symmetry_space_group_name_H-M   'P 1'
_cell_length_a   11.41356244
_cell_length_b   11.41422811
_cell_length_c   11.41406517
_cell_angle_alpha   90.00560318
_cell_angle_beta   90.00639561
_cell_angle_gamma   89.99277619
_symmetry_Int_Tables_number   1
_chemical_formula_structural   Fe45Co19
_chemical_formula_sum   'Fe90 Co38'
_cell_volume   1486.99019913
_cell_formula_units_Z   2
loop_
 _symmetry_equiv_pos_site_id
 _symmetry_equiv_pos_as_xyz
  1  'x, y, z'
loop_
 _atom_site_type_symbol
 _atom_site_label
 _atom_site_symmetry_multiplicity
 _atom_site_fract_x
 _atom_site_fract_y
 _atom_site_fract_z
 _atom_site_occupancy
  Fe  Fe0  1  -0.00154960  0.75023176  0.00148356  1
  Fe  Fe1  1  0.62684629  0.37796282  0.12333773  1
  Fe  Fe2  1  0.25197694  0.00063858  0.24763672  1
  Fe  Fe3  1  0.62533796  0.87150213  0.12383409  1
  Fe  Fe4  1  0.25019203  0.25009897  0.75217028  1
  Fe  Fe5  1  0.75102871  0.74690326  0.24822222  1
  Fe  Fe6  1  0.87554368  0.62143373  0.12746565  1
  Fe  Fe7  1  0.24588301  0.50536363  0.24991480  1
  Fe  Fe8  1  -0.00009509  0.00067053  0.00135080  1
  Fe  Fe9  1  0.74938816  0.74681605  0.75307298  1
  Fe  Fe10  1  0.12930966  0.87122859  0.12550266  1
  Fe  Fe11  1  0.87554127  0.37747625  0.12953956  1
  Fe  Fe12  1  0.37344778  0.37910868  0.37355025  1
  Fe  Fe13  1  0.87732694  0.37687107  0.87559192  1
  Fe  Fe14  1  0.74787498  -0.00184215  0.49795821  1
  Fe  Fe15  1  0.37501762  0.62566137  0.62612643  1
  Fe  Fe16  1  0.12350970  0.87561564  0.87552076  1
  Fe  Fe17  1  0.24748978  0.50413156  0.49796597  1
  Fe  Fe18  1  0.49945368  0.49876388  0.50226837  1
  Fe  Fe19  1  0.12344408  0.37570948  0.37358284  1
  Fe  Fe20  1  0.12211194  0.62718173  0.62317138  1
  Fe  Fe21  1  0.50089532  0.75087166  0.50105109  1
  Fe  Fe22  1  -0.00116400  0.24939476  0.75013565  1
  Fe  Fe23  1  0.74815872  -0.00032770  0.24996192  1
  Fe  Fe24  1  0.11752282  0.63255186  0.37492958  1
  Fe  Fe25  1  0.37697031  0.12443752  0.37488241  1
  Fe  Fe26  1  0.36877589  0.37125067  0.12370869  1
  Fe  Fe27  1  0.12532584  0.62403055  0.87870777  1
  Fe  Fe28  1  0.62486497  0.12705919  0.87615625  1
  Fe  Fe29  1  0.37742609  0.12712214  0.87795027  1
  Fe  Fe30  1  0.87619955  0.12495149  0.37367646  1
  Fe  Fe31  1  0.75027468  0.25187970  0.75040475  1
  Fe  Fe32  1  0.49743181  0.74733617  0.24775263  1
  Fe  Fe33  1  0.49841415  0.74695408  -0.00122880  1
  Fe  Fe34  1  0.37413782  0.37603839  0.87852736  1
  Fe  Fe35  1  0.00025586  0.50153239  0.74789161  1
  Fe  Fe36  1  0.00008098  0.25153153  0.49966853  1
  Fe  Fe37  1  0.87357321  0.87497021  0.62812559  1
  Fe  Fe38  1  0.12072735  0.12540151  0.87674198  1
  Fe  Fe39  1  0.24998021  0.74847925  0.75284209  1
  Fe  Fe40  1  0.00127303  -0.00358175  0.24899155  1
  Fe  Fe41  1  0.50178394  -0.00407900  0.50016357  1
  Fe  Fe42  1  0.62297407  0.62474855  0.37238623  1
  Fe  Fe43  1  0.87107197  0.87633681  0.12207226  1
  Fe  Fe44  1  0.49893116  0.25203237  0.24950093  1
  Fe  Fe45  1  0.36841038  0.62664944  0.11969100  1
  Fe  Fe46  1  0.75239679  0.25076735  -0.00033027  1
  Fe  Fe47  1  0.49875677  -0.00125237  0.24744204  1
  Fe  Fe48  1  0.75544831  0.50169866  0.49447782  1
  Fe  Fe49  1  0.62496382  0.37865911  0.87816291  1
  Fe  Fe50  1  0.62475788  0.37645704  0.37528989  1
  Fe  Fe51  1  0.62411857  0.12589466  0.12511247  1
  Fe  Fe52  1  0.00137981  -0.00421037  0.49931848  1
  Fe  Fe53  1  0.37671940  0.87393063  0.87420623  1
  Fe  Fe54  1  0.75124958  0.74886427  0.49892453  1
  Fe  Fe55  1  0.37526191  0.87177618  0.62765687  1
  Fe  Fe56  1  -0.00080090  0.74992334  0.75083457  1
  Fe  Fe57  1  0.12582825  0.87285150  0.62553704  1
  Fe  Fe58  1  0.87418056  0.87721382  0.87624067  1
  Fe  Fe59  1  0.24949948  0.00097419  0.75116806  1
  Fe  Fe60  1  0.50148345  -0.00108493  0.74916372  1
  Fe  Fe61  1  0.00584573  0.49635228  0.00530504  1
  Fe  Fe62  1  0.62314036  0.12523485  0.37486509  1
  Fe  Fe63  1  0.12617951  0.37624147  0.62508483  1
  Fe  Fe64  1  0.62572581  0.87347263  0.87748146  1
  Fe  Fe65  1  0.24952315  -0.00235457  0.49986349  1
  Fe  Fe66  1  0.37529681  0.12581287  0.62485114  1
  Fe  Fe67  1  0.00212153  0.24988782  0.24886934  1
  Fe  Fe68  1  0.87666402  0.62186478  0.87666416  1
  Fe  Fe69  1  0.62496645  0.62085467  0.87953834  1
  Fe  Fe70  1  0.50060569  0.25462008  0.74744461  1
  Fe  Fe71  1  0.49969712  0.49915616  0.74932206  1
  Fe  Fe72  1  0.87578533  0.12278877  0.62537735  1
  Fe  Fe73  1  0.49831777  0.25373217  0.50180801  1
  Fe  Fe74  1  0.49979845  0.00040246  0.00284042  1
  Fe  Fe75  1  0.49931936  0.50140352  0.24439617  1
  Fe  Fe76  1  0.37373511  0.87231803  0.37400316  1
  Fe  Fe77  1  0.25049669  0.25054364  0.49776015  1
  Fe  Fe78  1  0.12483668  0.12501803  0.62550307  1
  Fe  Fe79  1  0.75142800  0.25107575  0.49878795  1
  Fe  Fe80  1  0.87547758  0.12490660  0.12387417  1
  Fe  Fe81  1  0.74931126  0.00113944  0.75227764  1
  Fe  Fe82  1  0.24992480  0.50092512  0.75167914  1
  Fe  Fe83  1  0.25204138  0.00100331  0.00177922  1
  Fe  Fe84  1  0.87507309  0.87249812  0.37331896  1
  Fe  Fe85  1  0.12415929  0.12239525  0.37380234  1
  Fe  Fe86  1  0.62425541  0.12515672  0.62394528  1
  Fe  Fe87  1  0.62770008  0.62300314  0.62581774  1
  Fe  Fe88  1  0.87430785  0.37837101  0.62484647  1
  Fe  Fe89  1  0.74914801  0.25115700  0.25093405  1
  Co  Co90  1  0.62469399  0.87183572  0.37101996  1
  Co  Co91  1  0.74845044  0.50140472  0.25308378  1
  Co  Co92  1  0.75254998  0.49951881  0.00165945  1
  Co  Co93  1  0.74775183  0.00248332  -0.00019043  1
  Co  Co94  1  0.75267015  0.74676495  -0.00078484  1
  Co  Co95  1  0.37341839  0.62281542  0.87615612  1
  Co  Co96  1  0.87465334  0.62487167  0.62593597  1
  Co  Co97  1  -0.00218521  0.75321933  0.24368678  1
  Co  Co98  1  -0.00003130  0.25333009  0.00232780  1
  Co  Co99  1  0.62941686  0.37828243  0.62302008  1
  Co  Co100  1  0.25210878  0.74627239  0.25347970  1
  Co  Co101  1  0.24577855  0.49659512  0.00021157  1
  Co  Co102  1  0.87744187  0.37455666  0.37097298  1
  Co  Co103  1  0.12492186  0.12520195  0.12498957  1
  Co  Co104  1  0.12655184  0.87150195  0.37257924  1
  Co  Co105  1  0.00528760  0.50108239  0.24859879  1
  Co  Co106  1  0.12731382  0.63062431  0.12214084  1
  Co  Co107  1  0.36992735  0.37712662  0.62435073  1
  Co  Co108  1  0.50226272  0.25200429  0.00131910  1
  Co  Co109  1  0.50251490  0.74684771  0.75241476  1
  Co  Co110  1  0.37408746  0.87089792  0.12439176  1
  Co  Co111  1  -0.00193757  0.49999508  0.49911307  1
  Co  Co112  1  0.25016886  0.24666274  0.25436269  1
  Co  Co113  1  0.37881533  0.62295366  0.37604480  1
  Co  Co114  1  0.62692987  0.87338474  0.62689386  1
  Co  Co115  1  0.49665656  0.50091979  0.00410394  1
  Co  Co116  1  0.25001911  0.75285205  -0.00538573  1
  Co  Co117  1  -0.00356803  0.75341274  0.50275606  1
  Co  Co118  1  0.88043169  0.62747911  0.37078462  1
  Co  Co119  1  0.12975199  0.37104041  0.12904487  1
  Co  Co120  1  0.75060750  0.50058334  0.75230620  1
  Co  Co121  1  0.24485310  0.24978885  -0.00337701  1
  Co  Co122  1  0.37494442  0.13021394  0.12315370  1
  Co  Co123  1  0.12286904  0.37581076  0.87165709  1
  Co  Co124  1  0.62735371  0.62518565  0.12311435  1
  Co  Co125  1  0.87675847  0.12459590  0.87619342  1
  Co  Co126  1  0.00066874  -0.00044431  0.74980434  1
  Co  Co127  1  0.25159029  0.74778424  0.49886155  1
