# generated using pymatgen
data_Fe45Co19
_symmetry_space_group_name_H-M   'P 1'
_cell_length_a   11.41355999
_cell_length_b   11.41349697
_cell_length_c   11.41451094
_cell_angle_alpha   90.00128616
_cell_angle_beta   90.00438884
_cell_angle_gamma   89.99637575
_symmetry_Int_Tables_number   1
_chemical_formula_structural   Fe45Co19
_chemical_formula_sum   'Fe90 Co38'
_cell_volume   1486.95272078
_cell_formula_units_Z   2
loop_
 _symmetry_equiv_pos_site_id
 _symmetry_equiv_pos_as_xyz
  1  'x, y, z'
loop_
 _atom_site_type_symbol
 _atom_site_label
 _atom_site_symmetry_multiplicity
 _atom_site_fract_x
 _atom_site_fract_y
 _atom_site_fract_z
 _atom_site_occupancy
  Fe  Fe0  1  0.75249019  0.74931384  0.50086344  1
  Fe  Fe1  1  0.74892314  0.24840516  0.24800248  1
  Fe  Fe2  1  0.49617059  -0.00214939  0.49856333  1
  Fe  Fe3  1  0.75149353  0.75089941  0.00024701  1
  Fe  Fe4  1  0.24980552  0.50062137  0.74711241  1
  Fe  Fe5  1  0.37525124  0.87380286  0.12613203  1
  Fe  Fe6  1  0.00412037  0.00505442  0.74616749  1
  Fe  Fe7  1  0.62449083  0.12449938  0.87791414  1
  Fe  Fe8  1  0.49853852  0.24972650  0.49504819  1
  Fe  Fe9  1  0.74916976  0.75117371  0.24863936  1
  Fe  Fe10  1  0.12638834  0.62462078  0.87564128  1
  Fe  Fe11  1  0.62705066  0.62517424  0.37516358  1
  Fe  Fe12  1  0.25490785  0.25111868  0.00081796  1
  Fe  Fe13  1  0.25018510  0.49759392  0.00088585  1
  Fe  Fe14  1  0.87493175  0.37698777  0.87751907  1
  Fe  Fe15  1  0.62359676  0.87443378  0.12309205  1
  Fe  Fe16  1  0.75141287  0.24920950  0.50019060  1
  Fe  Fe17  1  0.37290575  0.37387961  0.37149260  1
  Fe  Fe18  1  0.75097081  0.75046787  0.75014989  1
  Fe  Fe19  1  0.62702289  0.37635095  0.37543313  1
  Fe  Fe20  1  0.24629537  0.00277410  0.24434362  1
  Fe  Fe21  1  0.24904857  0.75436179  -0.00224405  1
  Fe  Fe22  1  0.37471695  0.62729819  0.62490372  1
  Fe  Fe23  1  0.87898851  0.87454047  0.12607360  1
  Fe  Fe24  1  0.00169173  0.24921729  0.25012605  1
  Fe  Fe25  1  0.87320862  0.62151621  0.87530061  1
  Fe  Fe26  1  0.12488209  0.62604218  0.12421907  1
  Fe  Fe27  1  0.49724460  0.49646032  -0.00030761  1
  Fe  Fe28  1  0.62512223  0.12281347  0.37473596  1
  Fe  Fe29  1  0.12406643  0.37335554  0.62287334  1
  Fe  Fe30  1  0.62641502  0.37552135  0.87556982  1
  Fe  Fe31  1  0.25094896  0.24604731  0.74962691  1
  Fe  Fe32  1  0.49767341  0.49923019  0.49950630  1
  Fe  Fe33  1  0.75135737  0.50119972  0.50257806  1
  Fe  Fe34  1  0.49963331  0.49976659  0.75033304  1
  Fe  Fe35  1  0.62277130  0.12600285  0.62469177  1
  Fe  Fe36  1  0.87779896  0.12543856  0.12498452  1
  Fe  Fe37  1  0.49703546  0.24721099  0.75497272  1
  Fe  Fe38  1  0.25331035  0.24918964  0.49867575  1
  Fe  Fe39  1  0.87587377  0.37621911  0.37221458  1
  Fe  Fe40  1  0.75097160  0.00065681  0.50130037  1
  Fe  Fe41  1  0.25003810  0.75049766  0.25008176  1
  Fe  Fe42  1  0.24506500  0.49643241  0.25147273  1
  Fe  Fe43  1  0.62610329  0.62496427  0.87717675  1
  Fe  Fe44  1  0.50071270  -0.00092157  0.25180537  1
  Fe  Fe45  1  0.87700607  0.12393835  0.87419145  1
  Fe  Fe46  1  -0.00000025  0.50433251  0.49525549  1
  Fe  Fe47  1  0.62058286  0.62756991  0.12190635  1
  Fe  Fe48  1  0.49837283  -0.00150437  -0.00212114  1
  Fe  Fe49  1  0.75092319  -0.00016422  0.00162524  1
  Fe  Fe50  1  0.00527076  -0.00107195  0.00391270  1
  Fe  Fe51  1  0.87715017  0.37568007  0.62631719  1
  Fe  Fe52  1  0.25111607  0.75277234  0.50055123  1
  Fe  Fe53  1  0.12569863  0.12398248  0.37641779  1
  Fe  Fe54  1  0.62266979  0.87522250  0.62494489  1
  Fe  Fe55  1  0.62432840  0.62533708  0.62572063  1
  Fe  Fe56  1  0.87757956  0.87634020  0.62477628  1
  Fe  Fe57  1  0.75205848  0.25044704  0.74979354  1
  Fe  Fe58  1  0.37313538  0.62385915  0.87530903  1
  Fe  Fe59  1  0.62359838  0.37341090  0.62534325  1
  Fe  Fe60  1  0.12539013  0.62490010  0.62187253  1
  Fe  Fe61  1  -0.00296508  0.24558359  0.50179619  1
  Fe  Fe62  1  0.49924977  0.75137891  0.25299251  1
  Fe  Fe63  1  0.87803839  0.87747658  0.87431822  1
  Fe  Fe64  1  0.49953396  0.75305785  0.75396031  1
  Fe  Fe65  1  0.12557808  0.87413921  0.62675108  1
  Fe  Fe66  1  0.12611832  0.37278317  0.87492780  1
  Fe  Fe67  1  0.36841531  0.88077256  0.87010469  1
  Fe  Fe68  1  0.25210199  0.00093024  0.50434831  1
  Fe  Fe69  1  0.37546843  0.37298120  0.62655560  1
  Fe  Fe70  1  0.12463078  0.87706989  0.37419458  1
  Fe  Fe71  1  0.49980203  0.49969319  0.25041321  1
  Fe  Fe72  1  0.12805361  0.12351466  0.87850313  1
  Fe  Fe73  1  0.62153719  0.37128768  0.12420510  1
  Fe  Fe74  1  0.74758132  -0.00030843  0.75029541  1
  Fe  Fe75  1  0.87757423  0.87686395  0.37567854  1
  Fe  Fe76  1  0.74945379  -0.00026660  0.24764294  1
  Fe  Fe77  1  0.75133612  0.24960541  0.00242932  1
  Fe  Fe78  1  0.37163604  0.62369676  0.37521004  1
  Fe  Fe79  1  0.87652160  0.12197115  0.37428371  1
  Fe  Fe80  1  0.37797784  0.12939988  0.12652798  1
  Fe  Fe81  1  0.12176759  0.37272900  0.12295294  1
  Fe  Fe82  1  0.37401374  0.62463208  0.12413677  1
  Fe  Fe83  1  0.00216663  0.75107286  -0.00280139  1
  Fe  Fe84  1  0.00090114  0.74707747  0.25411093  1
  Fe  Fe85  1  0.75007937  0.49893004  0.24577471  1
  Fe  Fe86  1  0.87832496  0.62134329  0.12459740  1
  Fe  Fe87  1  0.00120410  0.74907360  0.75050013  1
  Fe  Fe88  1  0.00111768  0.49914459  0.75163402  1
  Fe  Fe89  1  0.49784278  0.75310640  0.49643820  1
  Co  Co90  1  0.62725680  0.87509462  0.87722455  1
  Co  Co91  1  0.12252498  0.37099306  0.38029047  1
  Co  Co92  1  0.00335226  0.00206716  0.24710154  1
  Co  Co93  1  0.87226178  0.12419190  0.62730566  1
  Co  Co94  1  0.36977752  0.87758153  0.37242765  1
  Co  Co95  1  0.49627420  0.25250070  -0.00400510  1
  Co  Co96  1  0.00024738  0.74907968  0.49871832  1
  Co  Co97  1  0.37520095  0.37336525  0.12977902  1
  Co  Co98  1  0.87949705  0.37552856  0.12526343  1
  Co  Co99  1  0.50294525  0.24988588  0.25420386  1
  Co  Co100  1  0.37079712  0.11965882  0.87798029  1
  Co  Co101  1  0.87705315  0.62399242  0.62714149  1
  Co  Co102  1  0.12570286  0.13031912  0.62202094  1
  Co  Co103  1  0.00162589  0.00161367  0.50316464  1
  Co  Co104  1  0.62092892  0.12460137  0.12301501  1
  Co  Co105  1  0.00040364  0.24870670  0.75104137  1
  Co  Co106  1  0.62792485  0.87524156  0.37530088  1
  Co  Co107  1  0.12661388  0.88038808  0.87127767  1
  Co  Co108  1  0.12465179  0.13097626  0.12198498  1
  Co  Co109  1  0.24593750  0.25105196  0.25067322  1
  Co  Co110  1  0.24882210  0.00666437  0.74308629  1
  Co  Co111  1  0.87140535  0.62444472  0.37249066  1
  Co  Co112  1  0.12278453  0.86915381  0.12782853  1
  Co  Co113  1  -0.00197195  0.24934769  -0.00256421  1
  Co  Co114  1  0.00460467  0.50079205  0.25265327  1
  Co  Co115  1  0.37965533  0.12623857  0.62472824  1
  Co  Co116  1  0.00239815  0.49982909  -0.00122415  1
  Co  Co117  1  0.49501407  0.75333247  -0.00405913  1
  Co  Co118  1  0.25192697  0.49721469  0.50023540  1
  Co  Co119  1  0.37505720  0.87418274  0.62954579  1
  Co  Co120  1  0.37163733  0.37691831  0.87166474  1
  Co  Co121  1  0.74782299  0.49894514  0.00382449  1
  Co  Co122  1  0.74914576  0.49903835  0.74845417  1
  Co  Co123  1  0.24750777  -0.00289496  0.00784786  1
  Co  Co124  1  0.24835919  0.74782881  0.75109499  1
  Co  Co125  1  0.50139426  0.00059994  0.75182418  1
  Co  Co126  1  0.37242405  0.12372053  0.37137300  1
  Co  Co127  1  0.13029214  0.62699328  0.37689655  1
