# generated using pymatgen
data_Fe45Co19
_symmetry_space_group_name_H-M   'P 1'
_cell_length_a   11.41548046
_cell_length_b   11.41545154
_cell_length_c   11.41523541
_cell_angle_alpha   89.99195391
_cell_angle_beta   90.00989719
_cell_angle_gamma   90.00039733
_symmetry_Int_Tables_number   1
_chemical_formula_structural   Fe45Co19
_chemical_formula_sum   'Fe90 Co38'
_cell_volume   1487.55198231
_cell_formula_units_Z   2
loop_
 _symmetry_equiv_pos_site_id
 _symmetry_equiv_pos_as_xyz
  1  'x, y, z'
loop_
 _atom_site_type_symbol
 _atom_site_label
 _atom_site_symmetry_multiplicity
 _atom_site_fract_x
 _atom_site_fract_y
 _atom_site_fract_z
 _atom_site_occupancy
  Fe  Fe0  1  0.37616361  0.12542039  0.12387658  1
  Fe  Fe1  1  0.25365277  0.74793891  0.24883741  1
  Fe  Fe2  1  0.62449887  0.37432453  0.62632744  1
  Fe  Fe3  1  0.62210209  0.62843659  0.12352861  1
  Fe  Fe4  1  0.00022120  0.49905699  0.25008688  1
  Fe  Fe5  1  -0.00199745  0.75053552  0.24868383  1
  Fe  Fe6  1  0.00047336  0.49862486  0.49891269  1
  Fe  Fe7  1  0.12418159  0.62561801  0.37518519  1
  Fe  Fe8  1  0.50187788  0.50119698  0.25235780  1
  Fe  Fe9  1  0.74722618  0.49881375  0.49827473  1
  Fe  Fe10  1  0.12484224  0.87157761  0.87554450  1
  Fe  Fe11  1  0.49965635  0.25002584  0.75326076  1
  Fe  Fe12  1  0.49870363  0.25083580  0.49927010  1
  Fe  Fe13  1  0.62880877  0.62598985  0.87654726  1
  Fe  Fe14  1  0.12482835  0.37417082  0.12622244  1
  Fe  Fe15  1  0.12519194  0.12419226  0.37672352  1
  Fe  Fe16  1  0.38006907  0.87219585  0.12597563  1
  Fe  Fe17  1  0.49961115  0.50159121  0.75081035  1
  Fe  Fe18  1  -0.00014781  0.24921442  0.25155377  1
  Fe  Fe19  1  0.12607472  0.12384203  0.87653249  1
  Fe  Fe20  1  -0.00229474  0.24908471  0.74924834  1
  Fe  Fe21  1  0.00112537  -0.00220937  0.00144416  1
  Fe  Fe22  1  0.25202381  0.25255075  -0.00017751  1
  Fe  Fe23  1  0.12573169  0.62807014  0.62402677  1
  Fe  Fe24  1  -0.00219460  0.50039538  -0.00043325  1
  Fe  Fe25  1  0.25133814  0.50206182  0.24947157  1
  Fe  Fe26  1  0.62686753  0.87259565  0.87459460  1
  Fe  Fe27  1  0.87382087  0.37483285  0.62533655  1
  Fe  Fe28  1  0.37664013  0.87667385  0.37395996  1
  Fe  Fe29  1  0.74912268  0.50128819  0.75070071  1
  Fe  Fe30  1  0.75053765  0.24804662  0.25072356  1
  Fe  Fe31  1  0.25088947  0.49980832  0.49953349  1
  Fe  Fe32  1  0.00025360  -0.00147104  0.74911825  1
  Fe  Fe33  1  0.75050296  0.25242169  -0.00009580  1
  Fe  Fe34  1  0.37548580  0.37528819  0.37347056  1
  Fe  Fe35  1  0.37408991  0.12417885  0.87458198  1
  Fe  Fe36  1  0.49974071  0.49689998  -0.00120885  1
  Fe  Fe37  1  0.12554105  0.37448977  0.62545886  1
  Fe  Fe38  1  0.62027704  0.87528927  0.62953276  1
  Fe  Fe39  1  0.12712004  0.37517533  0.87326628  1
  Fe  Fe40  1  0.25050001  0.00127872  0.24703601  1
  Fe  Fe41  1  0.87359642  0.12344429  0.87498049  1
  Fe  Fe42  1  0.00206110  0.00091452  0.24777085  1
  Fe  Fe43  1  0.49727251  0.00025839  0.50228911  1
  Fe  Fe44  1  0.87403427  0.62333508  0.12364017  1
  Fe  Fe45  1  0.12313366  0.12624648  0.62408315  1
  Fe  Fe46  1  0.87379873  0.87740132  0.62347008  1
  Fe  Fe47  1  0.25227600  0.00077700  0.74745602  1
  Fe  Fe48  1  0.62701464  0.12618307  0.87570541  1
  Fe  Fe49  1  0.74965932  0.00097919  0.75010541  1
  Fe  Fe50  1  0.62399070  0.12476772  0.62729295  1
  Fe  Fe51  1  -0.00019229  0.25109551  -0.00051177  1
  Fe  Fe52  1  0.12361015  0.62957315  0.87704586  1
  Fe  Fe53  1  0.87166252  0.37731125  0.87469883  1
  Fe  Fe54  1  0.24915655  -0.00312285  0.00311769  1
  Fe  Fe55  1  0.25137905  0.25009504  0.49957235  1
  Fe  Fe56  1  -0.00052895  0.50229010  0.75091905  1
  Fe  Fe57  1  0.62256689  0.87705235  0.37105749  1
  Fe  Fe58  1  0.49801984  0.25296635  -0.00223500  1
  Fe  Fe59  1  0.74732946  0.49972936  0.24979032  1
  Fe  Fe60  1  0.25194715  0.49839828  0.00174507  1
  Fe  Fe61  1  0.87456784  0.12440513  0.12258979  1
  Fe  Fe62  1  0.87408643  0.37556920  0.37451140  1
  Fe  Fe63  1  0.37463871  0.37398350  0.62887463  1
  Fe  Fe64  1  0.62258294  0.12393906  0.37522068  1
  Fe  Fe65  1  0.00034473  0.75205672  0.49940283  1
  Fe  Fe66  1  0.50420978  -0.00053574  0.00163611  1
  Fe  Fe67  1  0.12610273  0.62834600  0.12303983  1
  Fe  Fe68  1  0.25037543  0.24906736  0.24988034  1
  Fe  Fe69  1  0.87302367  0.87111496  0.87484508  1
  Fe  Fe70  1  0.25033843  0.50333540  0.74970064  1
  Fe  Fe71  1  0.49983922  0.24792002  0.25059034  1
  Fe  Fe72  1  0.74594505  0.75317052  0.49980800  1
  Fe  Fe73  1  0.87299592  0.62582581  0.37637547  1
  Fe  Fe74  1  0.87338868  0.87792792  0.37618601  1
  Fe  Fe75  1  0.37420295  0.62561335  0.87792683  1
  Fe  Fe76  1  0.87266273  0.87645973  0.12426117  1
  Fe  Fe77  1  0.62449271  0.37335809  0.12523276  1
  Fe  Fe78  1  0.74780906  0.74924001  0.25004220  1
  Fe  Fe79  1  0.12883465  0.87108042  0.62595527  1
  Fe  Fe80  1  0.87412388  0.62623291  0.62442134  1
  Fe  Fe81  1  0.62274018  0.62544876  0.62194468  1
  Fe  Fe82  1  0.12626613  0.87440907  0.37220990  1
  Fe  Fe83  1  0.37719404  0.63043186  0.62187023  1
  Fe  Fe84  1  0.75106087  0.24734148  0.50133408  1
  Fe  Fe85  1  0.74560221  0.00240126  0.24602665  1
  Fe  Fe86  1  0.37694290  0.87525049  0.87176817  1
  Fe  Fe87  1  0.25298516  -0.00060894  0.50265554  1
  Fe  Fe88  1  0.87593214  0.11994822  0.38017215  1
  Fe  Fe89  1  0.37904298  0.62578374  0.37838780  1
  Co  Co90  1  0.75102545  0.74937817  0.00206578  1
  Co  Co91  1  0.37652555  0.37582758  0.12817484  1
  Co  Co92  1  0.74900255  0.49967948  0.00210485  1
  Co  Co93  1  0.50002368  0.74629917  0.75317501  1
  Co  Co94  1  0.37653863  0.12694394  0.62731660  1
  Co  Co95  1  0.49967204  0.74780929  0.25260239  1
  Co  Co96  1  0.62462233  0.12881396  0.12250369  1
  Co  Co97  1  0.62576502  0.37293000  0.37506697  1
  Co  Co98  1  0.87335959  0.62692628  0.87396575  1
  Co  Co99  1  0.49973055  0.75113683  -0.00375360  1
  Co  Co100  1  0.75153165  0.24840250  0.74893205  1
  Co  Co101  1  0.37847990  0.62530808  0.12255180  1
  Co  Co102  1  0.74743648  -0.00075396  0.00043405  1
  Co  Co103  1  0.74339988  -0.00102651  0.50137573  1
  Co  Co104  1  0.37692102  0.87116694  0.62754172  1
  Co  Co105  1  0.25224618  0.74827220  0.75303854  1
  Co  Co106  1  0.12548429  0.12631204  0.12322169  1
  Co  Co107  1  0.24853974  0.24750123  0.75113063  1
  Co  Co108  1  0.50290325  0.75423073  0.49776611  1
  Co  Co109  1  0.12518020  0.87164211  0.12648063  1
  Co  Co110  1  0.25306468  0.75284725  0.00058254  1
  Co  Co111  1  0.62366047  0.87127732  0.12502724  1
  Co  Co112  1  0.00505425  -0.00394603  0.50081317  1
  Co  Co113  1  0.49990220  0.00229733  0.75200512  1
  Co  Co114  1  0.50164913  0.00244584  0.24578372  1
  Co  Co115  1  0.87481009  0.37470666  0.12597835  1
  Co  Co116  1  -0.00099099  0.75000752  0.74787812  1
  Co  Co117  1  0.87595545  0.11993556  0.62286877  1
  Co  Co118  1  -0.00178687  0.25165078  0.49964434  1
  Co  Co119  1  0.12617737  0.37555978  0.37432937  1
  Co  Co120  1  0.49949760  0.49646589  0.49993104  1
  Co  Co121  1  -0.00309376  0.75071430  0.00209728  1
  Co  Co122  1  0.25095216  0.75096828  0.49687931  1
  Co  Co123  1  0.37563200  0.12335746  0.37424387  1
  Co  Co124  1  0.74882926  0.74961631  0.74682021  1
  Co  Co125  1  0.62517295  0.62467927  0.37809949  1
  Co  Co126  1  0.37310643  0.37636464  0.87053926  1
  Co  Co127  1  0.62674209  0.37568795  0.87381915  1
