# generated using pymatgen
data_Fe45Co19
_symmetry_space_group_name_H-M   'P 1'
_cell_length_a   11.41571521
_cell_length_b   11.41573151
_cell_length_c   11.41520575
_cell_angle_alpha   90.00096337
_cell_angle_beta   89.99739760
_cell_angle_gamma   89.99950985
_symmetry_Int_Tables_number   1
_chemical_formula_structural   Fe45Co19
_chemical_formula_sum   'Fe90 Co38'
_cell_volume   1487.61522579
_cell_formula_units_Z   2
loop_
 _symmetry_equiv_pos_site_id
 _symmetry_equiv_pos_as_xyz
  1  'x, y, z'
loop_
 _atom_site_type_symbol
 _atom_site_label
 _atom_site_symmetry_multiplicity
 _atom_site_fract_x
 _atom_site_fract_y
 _atom_site_fract_z
 _atom_site_occupancy
  Fe  Fe0  1  0.74725459  0.75209909  0.24808414  1
  Fe  Fe1  1  0.12388531  0.62686232  0.87422574  1
  Fe  Fe2  1  -0.00261037  0.75191205  0.50195465  1
  Fe  Fe3  1  -0.00463904  0.49954182  0.49911003  1
  Fe  Fe4  1  0.74954444  0.00441188  0.49692782  1
  Fe  Fe5  1  0.62556652  0.87852404  0.62467199  1
  Fe  Fe6  1  0.50255902  0.24969658  0.75418792  1
  Fe  Fe7  1  0.50248708  0.25047214  0.24585975  1
  Fe  Fe8  1  0.87505246  0.12474265  0.12211003  1
  Fe  Fe9  1  0.62500599  0.37972316  0.11878623  1
  Fe  Fe10  1  0.12465301  0.37378255  0.62588137  1
  Fe  Fe11  1  -0.00124116  0.24995669  0.24826036  1
  Fe  Fe12  1  0.75079249  0.25266612  -0.00169759  1
  Fe  Fe13  1  0.62643544  0.62309185  0.87899041  1
  Fe  Fe14  1  0.74988147  0.00201151  0.24977909  1
  Fe  Fe15  1  0.12541763  0.62555641  0.62494942  1
  Fe  Fe16  1  0.37600196  0.87325818  0.37179495  1
  Fe  Fe17  1  0.75335929  0.49926734  0.75625038  1
  Fe  Fe18  1  0.37540707  0.12497182  0.62806743  1
  Fe  Fe19  1  0.12368448  0.62347256  0.37712378  1
  Fe  Fe20  1  0.49800002  0.49942741  0.75515602  1
  Fe  Fe21  1  0.87292729  0.62661703  0.62529607  1
  Fe  Fe22  1  -0.00267997  0.24686599  0.50191523  1
  Fe  Fe23  1  0.12419379  0.12371099  0.37493788  1
  Fe  Fe24  1  0.37501933  0.37261114  0.62772499  1
  Fe  Fe25  1  0.25396929  0.50240942  -0.00387053  1
  Fe  Fe26  1  0.62276015  0.87765200  0.37399376  1
  Fe  Fe27  1  0.00098983  0.74958972  0.24939226  1
  Fe  Fe28  1  0.74860121  0.74969689  0.49864205  1
  Fe  Fe29  1  0.62714053  0.37552724  0.62720235  1
  Fe  Fe30  1  0.87321829  0.37211522  0.62565594  1
  Fe  Fe31  1  0.00170050  0.24799442  -0.00043600  1
  Fe  Fe32  1  0.00034241  0.00156922  0.24624792  1
  Fe  Fe33  1  0.12484458  0.37624438  0.12344955  1
  Fe  Fe34  1  0.87768388  0.87714934  0.87526552  1
  Fe  Fe35  1  0.12428819  0.37511141  0.87410519  1
  Fe  Fe36  1  0.75423186  0.49695869  0.24974219  1
  Fe  Fe37  1  0.62775112  0.37142825  0.37339730  1
  Fe  Fe38  1  0.25094909  0.74933362  0.49818843  1
  Fe  Fe39  1  0.50049824  -0.00015643  -0.00139050  1
  Fe  Fe40  1  -0.00437733  0.50044061  -0.00244346  1
  Fe  Fe41  1  0.00077710  0.75295037  0.00210978  1
  Fe  Fe42  1  0.24878461  -0.00117092  0.00094986  1
  Fe  Fe43  1  0.25088496  0.50160494  0.25061288  1
  Fe  Fe44  1  0.50368665  0.75083976  0.74899797  1
  Fe  Fe45  1  0.50192878  0.74996702  0.49939630  1
  Fe  Fe46  1  0.50275028  0.24968573  0.50054634  1
  Fe  Fe47  1  0.37361508  0.12497576  0.12448408  1
  Fe  Fe48  1  0.37626985  0.62527493  0.62590786  1
  Fe  Fe49  1  0.37627952  0.37462453  0.37378893  1
  Fe  Fe50  1  0.37502690  0.12556754  0.87431937  1
  Fe  Fe51  1  0.62523750  0.12343593  0.12274747  1
  Fe  Fe52  1  0.37708337  0.12588986  0.37368845  1
  Fe  Fe53  1  -0.00128962  0.75360826  0.74598034  1
  Fe  Fe54  1  -0.00336301  0.49914725  0.25124520  1
  Fe  Fe55  1  0.37365377  0.87114848  0.12722087  1
  Fe  Fe56  1  0.62570811  0.62233957  0.62613773  1
  Fe  Fe57  1  0.25174515  0.49921090  0.50067761  1
  Fe  Fe58  1  0.74853332  0.24930899  0.75467521  1
  Fe  Fe59  1  0.12714877  0.62434417  0.12306980  1
  Fe  Fe60  1  0.49970384  0.00040496  0.24954130  1
  Fe  Fe61  1  0.25215874  0.49906295  0.75232912  1
  Fe  Fe62  1  0.24774462  0.24829693  -0.00129238  1
  Fe  Fe63  1  0.74977654  -0.00294688  -0.00102497  1
  Fe  Fe64  1  0.24895659  0.75213998  0.75133468  1
  Fe  Fe65  1  0.00009621  0.24480840  0.74874153  1
  Fe  Fe66  1  0.49828845  0.50336051  0.24662803  1
  Fe  Fe67  1  0.50071296  0.49849253  0.49955489  1
  Fe  Fe68  1  -0.00257684  0.00106293  0.50644138  1
  Fe  Fe69  1  0.75189690  0.49912212  0.49861597  1
  Fe  Fe70  1  0.87570579  0.87661868  0.37385254  1
  Fe  Fe71  1  0.12288092  0.11958787  0.87261026  1
  Fe  Fe72  1  0.24999858  0.24988874  0.49998450  1
  Fe  Fe73  1  0.74860638  0.75075477  0.75145046  1
  Fe  Fe74  1  0.62520600  0.62367382  0.37312427  1
  Fe  Fe75  1  0.25217598  0.00073360  0.50090300  1
  Fe  Fe76  1  0.37661158  0.87625077  0.62651574  1
  Fe  Fe77  1  -0.00273302  0.50172884  0.75084880  1
  Fe  Fe78  1  0.87347222  0.62611578  0.12427636  1
  Fe  Fe79  1  0.12420696  0.87803762  0.37586848  1
  Fe  Fe80  1  0.12160087  0.87899310  0.87248614  1
  Fe  Fe81  1  0.12348517  0.37468558  0.37525299  1
  Fe  Fe82  1  0.74882938  0.00020804  0.75413521  1
  Fe  Fe83  1  0.62375086  0.12245171  0.62614930  1
  Fe  Fe84  1  0.37808823  0.87265098  0.87564147  1
  Fe  Fe85  1  0.50340192  0.74685221  0.00539726  1
  Fe  Fe86  1  0.24908689  0.24931258  0.24974528  1
  Fe  Fe87  1  0.74929856  0.75309348  0.00221369  1
  Fe  Fe88  1  0.37460906  0.37416416  0.12122703  1
  Fe  Fe89  1  0.12823409  0.87522040  0.12732773  1
  Co  Co90  1  0.24593292  0.74845064  0.25389655  1
  Co  Co91  1  0.86807100  0.87551619  0.62462171  1
  Co  Co92  1  0.62239451  0.12642088  0.37245365  1
  Co  Co93  1  0.12864567  0.87527626  0.62384651  1
  Co  Co94  1  0.12602679  0.12610630  0.12593862  1
  Co  Co95  1  0.49334071  0.50550556  0.00004614  1
  Co  Co96  1  0.87375369  0.62827567  0.37347836  1
  Co  Co97  1  0.63108302  0.61898894  0.12263524  1
  Co  Co98  1  0.37563953  0.63158743  0.87410046  1
  Co  Co99  1  0.62183163  0.37788471  0.87996414  1
  Co  Co100  1  0.74877471  0.24921918  0.24500679  1
  Co  Co101  1  0.87686020  0.12146146  0.87723509  1
  Co  Co102  1  -0.00185253  -0.00053106  0.74280064  1
  Co  Co103  1  0.37711382  0.62525650  0.37498730  1
  Co  Co104  1  0.24836686  0.25015509  0.75249704  1
  Co  Co105  1  0.74784132  0.24638798  0.50023266  1
  Co  Co106  1  0.87282666  0.36935808  0.37597790  1
  Co  Co107  1  0.36968125  0.63078927  0.12593117  1
  Co  Co108  1  0.50096493  0.24767658  0.00060839  1
  Co  Co109  1  0.37656758  0.37068259  0.87759689  1
  Co  Co110  1  0.25001029  0.00104447  0.24944383  1
  Co  Co111  1  0.12922513  0.12437299  0.62563528  1
  Co  Co112  1  0.50141231  0.00012087  0.75334040  1
  Co  Co113  1  0.24626201  0.75297079  -0.00296228  1
  Co  Co114  1  0.62582286  0.12478291  0.87853641  1
  Co  Co115  1  0.00252628  -0.00104290  0.00485511  1
  Co  Co116  1  0.75806320  0.49727514  -0.00517251  1
  Co  Co117  1  0.62282406  0.87857378  0.12559008  1
  Co  Co118  1  0.62344494  0.87344831  0.87671080  1
  Co  Co119  1  0.87738111  0.37315138  0.12330620  1
  Co  Co120  1  0.49863298  0.00043478  0.49938218  1
  Co  Co121  1  0.87931589  0.37003998  0.87296499  1
  Co  Co122  1  0.86952008  0.12517230  0.62722740  1
  Co  Co123  1  0.87467678  0.87569237  0.12622327  1
  Co  Co124  1  0.25170074  -0.00170993  0.75072991  1
  Co  Co125  1  0.87627099  0.12568078  0.37285597  1
  Co  Co126  1  0.87631838  0.63215784  0.87598470  1
  Co  Co127  1  0.50444218  0.74746835  0.24756677  1
