# generated using pymatgen
data_Fe45Co19
_symmetry_space_group_name_H-M   'P 1'
_cell_length_a   11.41435493
_cell_length_b   11.41416522
_cell_length_c   11.41386119
_cell_angle_alpha   90.00669669
_cell_angle_beta   90.00192644
_cell_angle_gamma   90.00016478
_symmetry_Int_Tables_number   1
_chemical_formula_structural   Fe45Co19
_chemical_formula_sum   'Fe90 Co38'
_cell_volume   1487.05869580
_cell_formula_units_Z   2
loop_
 _symmetry_equiv_pos_site_id
 _symmetry_equiv_pos_as_xyz
  1  'x, y, z'
loop_
 _atom_site_type_symbol
 _atom_site_label
 _atom_site_symmetry_multiplicity
 _atom_site_fract_x
 _atom_site_fract_y
 _atom_site_fract_z
 _atom_site_occupancy
  Fe  Fe0  1  0.87465387  0.37184801  0.37640668  1
  Fe  Fe1  1  0.50025433  0.49689366  0.49914887  1
  Fe  Fe2  1  0.49922407  0.75065106  -0.00188102  1
  Fe  Fe3  1  0.37347339  0.37574496  0.87622694  1
  Fe  Fe4  1  0.37626101  0.62630501  0.37590261  1
  Fe  Fe5  1  0.24930942  0.25081423  0.00003111  1
  Fe  Fe6  1  0.62535782  0.87911691  0.12269394  1
  Fe  Fe7  1  0.49714747  0.00213269  -0.00466460  1
  Fe  Fe8  1  0.37767425  0.62381059  0.62510701  1
  Fe  Fe9  1  0.49966873  0.75132869  0.24772444  1
  Fe  Fe10  1  0.87392317  0.87533243  0.37814799  1
  Fe  Fe11  1  0.00062243  0.24931581  0.25163787  1
  Fe  Fe12  1  0.74707061  0.75088701  0.74898304  1
  Fe  Fe13  1  0.50067620  0.00117822  0.25113170  1
  Fe  Fe14  1  0.25172146  0.75326384  0.24870781  1
  Fe  Fe15  1  0.12295344  0.37436515  0.62121300  1
  Fe  Fe16  1  0.74993356  0.24500962  0.24589477  1
  Fe  Fe17  1  0.37611707  0.87515652  0.87285511  1
  Fe  Fe18  1  0.00456964  0.00059018  0.50306977  1
  Fe  Fe19  1  -0.00092566  0.75038013  0.00080591  1
  Fe  Fe20  1  0.62360060  0.62548275  0.87322415  1
  Fe  Fe21  1  0.24846999  0.49882996  0.75124259  1
  Fe  Fe22  1  0.24941933  0.49900807  0.49887956  1
  Fe  Fe23  1  0.37206148  0.12192495  0.12375573  1
  Fe  Fe24  1  0.87441075  0.37228992  0.87637175  1
  Fe  Fe25  1  0.00010828  0.74961924  0.74856988  1
  Fe  Fe26  1  0.00079885  -0.00180750  0.25134549  1
  Fe  Fe27  1  0.74496182  0.00325680  0.50136876  1
  Fe  Fe28  1  0.87727220  0.37351069  0.62190814  1
  Fe  Fe29  1  0.50146899  0.49901914  0.25041971  1
  Fe  Fe30  1  0.12619393  0.62372962  0.87741045  1
  Fe  Fe31  1  0.37372464  0.37344846  0.37414935  1
  Fe  Fe32  1  0.25174340  0.74796091  0.75026724  1
  Fe  Fe33  1  0.62609084  0.37118587  0.87783534  1
  Fe  Fe34  1  0.12675616  0.12241377  0.12555937  1
  Fe  Fe35  1  0.62719620  0.37062804  0.37567170  1
  Fe  Fe36  1  0.75194571  0.49964156  0.00041068  1
  Fe  Fe37  1  0.62233219  0.87973079  0.63045852  1
  Fe  Fe38  1  0.75057184  0.49980656  0.74773642  1
  Fe  Fe39  1  0.12601371  0.87470307  0.37554951  1
  Fe  Fe40  1  0.87330374  0.12318111  0.37516523  1
  Fe  Fe41  1  0.24946579  0.49924129  0.25038513  1
  Fe  Fe42  1  0.62659667  0.37159174  0.12243819  1
  Fe  Fe43  1  -0.00212596  0.50027906  0.25144385  1
  Fe  Fe44  1  0.49982560  0.24731304  0.24814182  1
  Fe  Fe45  1  0.12298384  0.62719047  0.37480963  1
  Fe  Fe46  1  0.12815302  0.12475967  0.37464493  1
  Fe  Fe47  1  0.75025922  0.24898847  0.74840387  1
  Fe  Fe48  1  0.37613324  0.87783382  0.62490027  1
  Fe  Fe49  1  0.50001240  0.49970147  -0.00046200  1
  Fe  Fe50  1  0.12434905  0.37450218  0.12689629  1
  Fe  Fe51  1  0.62629021  0.12542832  0.87385738  1
  Fe  Fe52  1  0.75175688  0.75146570  0.24899611  1
  Fe  Fe53  1  0.25213161  0.75201056  -0.00020690  1
  Fe  Fe54  1  0.87483233  0.87733041  0.12478880  1
  Fe  Fe55  1  0.12286351  0.62437350  0.62331351  1
  Fe  Fe56  1  0.37555647  0.37481188  0.12467672  1
  Fe  Fe57  1  0.62351660  0.37196586  0.62266637  1
  Fe  Fe58  1  0.74996931  0.75077967  -0.00125773  1
  Fe  Fe59  1  -0.00149195  0.49884136  0.00088107  1
  Fe  Fe60  1  -0.00116348  -0.00069530  0.74991026  1
  Fe  Fe61  1  0.12514931  0.12592250  0.87338051  1
  Fe  Fe62  1  0.87541831  0.12505026  0.62512893  1
  Fe  Fe63  1  0.37514772  0.87688850  0.37719666  1
  Fe  Fe64  1  0.25091129  0.00186930  0.74987419  1
  Fe  Fe65  1  0.87434097  0.87415321  0.62458425  1
  Fe  Fe66  1  0.75158050  0.50108729  0.24964351  1
  Fe  Fe67  1  0.50285164  0.75167429  0.50285213  1
  Fe  Fe68  1  0.00090396  0.25127773  0.74895823  1
  Fe  Fe69  1  0.24936905  0.24998586  0.50045293  1
  Fe  Fe70  1  0.37410731  0.12299611  0.37714679  1
  Fe  Fe71  1  0.49752845  0.24932753  0.75128577  1
  Fe  Fe72  1  -0.00134778  0.00083706  -0.00340908  1
  Fe  Fe73  1  0.62582133  0.87537737  0.37377401  1
  Fe  Fe74  1  0.25020704  0.25131203  0.74904007  1
  Fe  Fe75  1  0.12487581  0.62562825  0.12564602  1
  Fe  Fe76  1  0.87588224  0.63046175  0.37885169  1
  Fe  Fe77  1  0.87446531  0.62622125  0.87411530  1
  Fe  Fe78  1  0.37467332  0.62438969  0.12423783  1
  Fe  Fe79  1  0.24838313  0.75200632  0.50236810  1
  Fe  Fe80  1  0.75458367  0.00366685  -0.00407015  1
  Fe  Fe81  1  0.62510497  0.62588570  0.37668382  1
  Fe  Fe82  1  0.12640110  0.87708632  0.12469860  1
  Fe  Fe83  1  0.50004849  0.49876853  0.75037367  1
  Fe  Fe84  1  -0.00078154  0.49966795  0.75008114  1
  Fe  Fe85  1  0.37749101  0.12356575  0.62256867  1
  Fe  Fe86  1  -0.00239229  0.24884481  0.00081996  1
  Fe  Fe87  1  0.75139127  0.50114992  0.50189894  1
  Fe  Fe88  1  0.12486953  0.87550110  0.87268530  1
  Fe  Fe89  1  0.62628389  0.62517646  0.12527191  1
  Co  Co90  1  -0.00142373  0.75307345  0.24934797  1
  Co  Co91  1  0.37458293  0.37556494  0.62536343  1
  Co  Co92  1  0.24638476  -0.00022724  0.50189955  1
  Co  Co93  1  0.24962018  0.49775416  0.00103815  1
  Co  Co94  1  0.37661612  0.87859794  0.12401010  1
  Co  Co95  1  0.37049168  0.12701529  0.87549198  1
  Co  Co96  1  0.87497500  0.62573566  0.12501819  1
  Co  Co97  1  0.62460798  0.87831928  0.87504365  1
  Co  Co98  1  0.49877072  0.25038128  0.49860558  1
  Co  Co99  1  0.50006233  0.74998565  0.75083226  1
  Co  Co100  1  0.12527302  0.12674082  0.62774606  1
  Co  Co101  1  0.00341834  0.75325970  0.50255084  1
  Co  Co102  1  0.75356513  0.24498530  0.00180447  1
  Co  Co103  1  0.62529233  0.12841578  0.37473548  1
  Co  Co104  1  0.87833940  0.12226965  0.12812049  1
  Co  Co105  1  0.12527817  0.37432728  0.37591775  1
  Co  Co106  1  0.37484648  0.62246779  0.87492259  1
  Co  Co107  1  0.25072263  0.24909434  0.24939051  1
  Co  Co108  1  0.62229679  0.62261675  0.62535825  1
  Co  Co109  1  0.12406741  0.37353309  0.87568468  1
  Co  Co110  1  0.24931682  -0.00149442  -0.00375065  1
  Co  Co111  1  0.75057656  0.24654767  0.50232341  1
  Co  Co112  1  0.62172323  0.12645156  0.62747204  1
  Co  Co113  1  0.87527264  0.62817365  0.62456255  1
  Co  Co114  1  0.25078605  -0.00217696  0.25101069  1
  Co  Co115  1  0.87429067  0.37355603  0.12594703  1
  Co  Co116  1  0.49803791  0.24728142  -0.00034837  1
  Co  Co117  1  0.00095705  0.24658903  0.49800169  1
  Co  Co118  1  -0.00222250  0.50064579  0.49813093  1
  Co  Co119  1  0.87722030  0.12791732  0.87086137  1
  Co  Co120  1  0.49759999  0.00404471  0.75334463  1
  Co  Co121  1  0.74511090  0.75177959  0.50315208  1
  Co  Co122  1  0.50488781  0.00032063  0.49824643  1
  Co  Co123  1  0.74858585  0.00054146  0.25073439  1
  Co  Co124  1  0.12675540  0.87566147  0.62962840  1
  Co  Co125  1  0.87552711  0.87242495  0.87356248  1
  Co  Co126  1  0.62426988  0.12142333  0.12150077  1
  Co  Co127  1  0.75220235  0.00122047  0.75092839  1
