# generated using pymatgen
data_Fe45Co19
_symmetry_space_group_name_H-M   'P 1'
_cell_length_a   11.41496768
_cell_length_b   11.41484790
_cell_length_c   11.41426556
_cell_angle_alpha   90.01174294
_cell_angle_beta   89.99697294
_cell_angle_gamma   90.00876253
_symmetry_Int_Tables_number   1
_chemical_formula_structural   Fe45Co19
_chemical_formula_sum   'Fe90 Co38'
_cell_volume   1487.28011958
_cell_formula_units_Z   2
loop_
 _symmetry_equiv_pos_site_id
 _symmetry_equiv_pos_as_xyz
  1  'x, y, z'
loop_
 _atom_site_type_symbol
 _atom_site_label
 _atom_site_symmetry_multiplicity
 _atom_site_fract_x
 _atom_site_fract_y
 _atom_site_fract_z
 _atom_site_occupancy
  Fe  Fe0  1  0.24715840  0.75327057  0.75190992  1
  Fe  Fe1  1  0.87501942  0.37246897  0.12578946  1
  Fe  Fe2  1  0.87691272  0.62482438  0.12059870  1
  Fe  Fe3  1  -0.00309910  -0.00103791  0.00179684  1
  Fe  Fe4  1  0.87295513  0.12832030  0.62683584  1
  Fe  Fe5  1  0.62719479  0.87487428  0.62301373  1
  Fe  Fe6  1  0.12776403  0.37931694  0.37849281  1
  Fe  Fe7  1  0.24690037  0.25046030  0.25122340  1
  Fe  Fe8  1  0.62490501  0.37386701  0.62470452  1
  Fe  Fe9  1  0.62511914  0.37513699  0.37542917  1
  Fe  Fe10  1  0.00142582  0.74750133  0.25129983  1
  Fe  Fe11  1  0.24822146  0.49971884  0.74647450  1
  Fe  Fe12  1  0.00112204  0.50133106  0.50332118  1
  Fe  Fe13  1  0.00160844  0.50128340  0.25003968  1
  Fe  Fe14  1  0.49943132  0.00066586  0.25096537  1
  Fe  Fe15  1  0.87276470  0.12429122  0.87289129  1
  Fe  Fe16  1  0.87773831  0.87396890  0.37793422  1
  Fe  Fe17  1  0.12386918  0.87500987  0.12611645  1
  Fe  Fe18  1  0.62663812  0.12575423  0.12641967  1
  Fe  Fe19  1  0.62524093  0.62246859  0.87260943  1
  Fe  Fe20  1  0.24915615  0.24734232  0.50049906  1
  Fe  Fe21  1  -0.00022894  0.49916145  0.74709946  1
  Fe  Fe22  1  0.12524970  0.12163099  0.62410580  1
  Fe  Fe23  1  0.37488629  0.37221040  0.62518618  1
  Fe  Fe24  1  0.75135266  0.49674125  0.74888126  1
  Fe  Fe25  1  0.62892772  0.87761009  0.87586820  1
  Fe  Fe26  1  0.24607802  0.74794945  0.25157416  1
  Fe  Fe27  1  0.62691200  0.87780597  0.37477972  1
  Fe  Fe28  1  0.37605372  0.62809746  0.62765630  1
  Fe  Fe29  1  0.87617601  0.62538457  0.87775548  1
  Fe  Fe30  1  0.49754830  0.00234389  0.50202883  1
  Fe  Fe31  1  0.74985372  0.25027400  -0.00113232  1
  Fe  Fe32  1  0.12444796  0.37586958  0.12394917  1
  Fe  Fe33  1  0.25053128  -0.00230366  0.74969534  1
  Fe  Fe34  1  0.24655046  0.24846517  0.74994137  1
  Fe  Fe35  1  0.87470608  0.37570091  0.37601613  1
  Fe  Fe36  1  0.00311725  0.74836596  0.49971921  1
  Fe  Fe37  1  0.24881288  0.50028909  -0.00124071  1
  Fe  Fe38  1  0.37400584  0.87424797  0.37538887  1
  Fe  Fe39  1  0.75465841  0.00042011  0.50164849  1
  Fe  Fe40  1  0.37365954  0.62566702  0.12414250  1
  Fe  Fe41  1  0.75240745  0.50113644  0.25078095  1
  Fe  Fe42  1  0.62743782  0.87497238  0.12642021  1
  Fe  Fe43  1  0.24760247  0.00012813  0.25333253  1
  Fe  Fe44  1  0.12033603  0.12560993  0.12839710  1
  Fe  Fe45  1  0.37448289  0.12600142  0.37524675  1
  Fe  Fe46  1  0.75605213  0.00350473  0.24897466  1
  Fe  Fe47  1  0.50044752  -0.00050286  0.74727141  1
  Fe  Fe48  1  0.37584241  0.37429473  0.87285390  1
  Fe  Fe49  1  0.62926874  0.12364335  0.87124821  1
  Fe  Fe50  1  0.12378113  0.37570397  0.87212755  1
  Fe  Fe51  1  -0.00460949  -0.00352289  0.74775592  1
  Fe  Fe52  1  0.87560316  0.37311704  0.87183686  1
  Fe  Fe53  1  0.50249952  0.24850980  0.74848169  1
  Fe  Fe54  1  -0.00146371  0.75428949  0.75124087  1
  Fe  Fe55  1  0.87307614  0.87235059  0.12173685  1
  Fe  Fe56  1  0.62700914  0.12505889  0.37710682  1
  Fe  Fe57  1  0.12175256  0.62451148  0.87522400  1
  Fe  Fe58  1  0.00070891  0.25041805  -0.00290619  1
  Fe  Fe59  1  0.24586401  0.75011709  0.49993894  1
  Fe  Fe60  1  0.37714805  0.62573798  0.87135980  1
  Fe  Fe61  1  0.37436143  0.12508593  0.12623539  1
  Fe  Fe62  1  0.24828068  0.24825858  -0.00114578  1
  Fe  Fe63  1  0.49869950  0.50101357  0.25061417  1
  Fe  Fe64  1  0.50149668  0.75128498  -0.00192945  1
  Fe  Fe65  1  0.62788406  0.62345146  0.37681521  1
  Fe  Fe66  1  0.12293850  0.12114352  0.87389986  1
  Fe  Fe67  1  0.37143043  0.62264502  0.37645081  1
  Fe  Fe68  1  0.37391126  0.87395205  0.62507615  1
  Fe  Fe69  1  0.75181696  0.75286871  0.75038707  1
  Fe  Fe70  1  0.37286092  0.37722816  0.37661476  1
  Fe  Fe71  1  0.50023466  0.74934031  0.25184883  1
  Fe  Fe72  1  0.62680341  0.62438024  0.12467142  1
  Fe  Fe73  1  0.50075787  0.00009632  0.00006135  1
  Fe  Fe74  1  0.37510082  0.37463360  0.12483111  1
  Fe  Fe75  1  0.62747455  0.62590891  0.62484034  1
  Fe  Fe76  1  0.37531220  0.12415136  0.87340837  1
  Fe  Fe77  1  0.24958564  -0.00015581  -0.00023440  1
  Fe  Fe78  1  0.62606924  0.37554424  0.12472978  1
  Fe  Fe79  1  0.75239891  0.74835183  0.25271298  1
  Fe  Fe80  1  0.49906693  0.50070809  0.50242023  1
  Fe  Fe81  1  0.37482839  0.87466825  0.12517897  1
  Fe  Fe82  1  0.50046489  0.49987765  -0.00216632  1
  Fe  Fe83  1  0.50174823  0.74997437  0.49914430  1
  Fe  Fe84  1  0.24757209  0.75131151  -0.00289655  1
  Fe  Fe85  1  0.75053857  0.25169649  0.50084291  1
  Fe  Fe86  1  0.00118953  0.24868041  0.50033037  1
  Fe  Fe87  1  0.50067907  0.24963620  0.25181592  1
  Fe  Fe88  1  0.87248682  0.62628043  0.62215240  1
  Fe  Fe89  1  0.50055254  0.24855839  -0.00129278  1
  Co  Co90  1  0.87608855  0.87076407  0.62068229  1
  Co  Co91  1  -0.00463044  -0.00155226  0.24900309  1
  Co  Co92  1  0.00223806  0.24733175  0.75002374  1
  Co  Co93  1  0.25166178  0.00064500  0.49835932  1
  Co  Co94  1  0.74785316  0.74742073  -0.00172166  1
  Co  Co95  1  0.12423127  0.87721774  0.62362969  1
  Co  Co96  1  -0.00055196  0.49621960  -0.00083478  1
  Co  Co97  1  0.75332028  -0.00399596  0.74588946  1
  Co  Co98  1  0.74943397  0.24924875  0.25140845  1
  Co  Co99  1  0.12656850  0.62096491  0.37633861  1
  Co  Co100  1  0.62821834  0.12490277  0.62444538  1
  Co  Co101  1  0.12276601  0.87802117  0.87444509  1
  Co  Co102  1  0.87760802  0.37330576  0.62507437  1
  Co  Co103  1  0.25027229  0.50164683  0.50819359  1
  Co  Co104  1  0.00277455  0.25390575  0.25429458  1
  Co  Co105  1  0.12325872  0.37252919  0.62475127  1
  Co  Co106  1  0.75138825  0.49829758  -0.00185179  1
  Co  Co107  1  0.50311692  0.75331923  0.75034514  1
  Co  Co108  1  0.24869290  0.50056944  0.24674335  1
  Co  Co109  1  0.12298003  0.62778537  0.62796201  1
  Co  Co110  1  -0.00336918  0.00283945  0.50220922  1
  Co  Co111  1  0.87877923  0.13147479  0.12611429  1
  Co  Co112  1  0.37331076  0.12582508  0.62688124  1
  Co  Co113  1  0.00193401  0.75315544  -0.00151197  1
  Co  Co114  1  0.62388334  0.37507321  0.87463799  1
  Co  Co115  1  0.12154956  0.12175198  0.37471492  1
  Co  Co116  1  0.87170502  0.87604269  0.87917584  1
  Co  Co117  1  0.50068547  0.49866639  0.74691961  1
  Co  Co118  1  0.74985495  0.49706932  0.50157485  1
  Co  Co119  1  0.49972766  0.24855784  0.50006345  1
  Co  Co120  1  0.37616323  0.87643511  0.87523774  1
  Co  Co121  1  0.87659041  0.12778372  0.37452467  1
  Co  Co122  1  0.12122278  0.87756339  0.37698231  1
  Co  Co123  1  0.74905271  0.25317725  0.74869734  1
  Co  Co124  1  0.74835587  0.75138995  0.49755755  1
  Co  Co125  1  0.87562234  0.62371814  0.37872933  1
  Co  Co126  1  0.12295433  0.62458872  0.12149976  1
  Co  Co127  1  0.75155138  0.00391648  0.00353594  1
