# generated using pymatgen
data_Fe45Co19
_symmetry_space_group_name_H-M   'P 1'
_cell_length_a   11.41681652
_cell_length_b   11.41510274
_cell_length_c   11.41389509
_cell_angle_alpha   89.99445410
_cell_angle_beta   89.99869159
_cell_angle_gamma   89.99885892
_symmetry_Int_Tables_number   1
_chemical_formula_structural   Fe45Co19
_chemical_formula_sum   'Fe90 Co38'
_cell_volume   1487.50598013
_cell_formula_units_Z   2
loop_
 _symmetry_equiv_pos_site_id
 _symmetry_equiv_pos_as_xyz
  1  'x, y, z'
loop_
 _atom_site_type_symbol
 _atom_site_label
 _atom_site_symmetry_multiplicity
 _atom_site_fract_x
 _atom_site_fract_y
 _atom_site_fract_z
 _atom_site_occupancy
  Fe  Fe0  1  0.24986523  0.49904713  0.24865560  1
  Fe  Fe1  1  0.49781503  0.74846140  0.75031370  1
  Fe  Fe2  1  0.62466352  0.37429955  0.12403487  1
  Fe  Fe3  1  0.75055445  0.75180949  0.75158488  1
  Fe  Fe4  1  0.00064608  0.50024655  0.00111982  1
  Fe  Fe5  1  0.12669099  0.37600418  0.62389545  1
  Fe  Fe6  1  -0.00055239  -0.00139007  0.25121968  1
  Fe  Fe7  1  -0.00314777  0.24762742  0.50170329  1
  Fe  Fe8  1  0.75151700  0.00079204  0.49859226  1
  Fe  Fe9  1  0.75073232  0.50184767  0.24609453  1
  Fe  Fe10  1  -0.00142620  0.50084910  0.24884343  1
  Fe  Fe11  1  0.37390594  0.37622578  0.87612900  1
  Fe  Fe12  1  0.24998625  -0.00170158  0.24866163  1
  Fe  Fe13  1  0.49741483  0.24879313  0.00170508  1
  Fe  Fe14  1  0.49972771  0.24982839  0.75069709  1
  Fe  Fe15  1  0.24930293  0.49790742  0.00285508  1
  Fe  Fe16  1  0.12650588  0.12591257  0.12369676  1
  Fe  Fe17  1  0.25076594  0.25305368  0.24650209  1
  Fe  Fe18  1  0.87435185  0.11917931  0.87133960  1
  Fe  Fe19  1  0.50118667  0.24908101  0.49916130  1
  Fe  Fe20  1  -0.00103097  0.24754556  0.74846298  1
  Fe  Fe21  1  0.62502541  0.87296200  0.62455642  1
  Fe  Fe22  1  0.00021452  0.50050772  0.74807656  1
  Fe  Fe23  1  0.87414801  0.37582461  0.37516389  1
  Fe  Fe24  1  -0.00074220  0.75337407  0.49803449  1
  Fe  Fe25  1  0.37598074  0.87689863  0.62594798  1
  Fe  Fe26  1  0.87599703  0.37528967  0.12359169  1
  Fe  Fe27  1  0.50037602  0.00162027  0.49973318  1
  Fe  Fe28  1  0.25210230  0.24865433  0.50105037  1
  Fe  Fe29  1  0.87510559  0.62614384  0.37630079  1
  Fe  Fe30  1  0.49797759  0.74689095  0.00161801  1
  Fe  Fe31  1  0.87375786  0.62301810  0.87574493  1
  Fe  Fe32  1  0.50038323  -0.00081619  0.24717065  1
  Fe  Fe33  1  0.75212392  0.25004008  -0.00232201  1
  Fe  Fe34  1  0.12427186  0.87875451  0.87525664  1
  Fe  Fe35  1  0.37593474  0.87692836  0.87630074  1
  Fe  Fe36  1  0.74927538  0.24917942  0.24976206  1
  Fe  Fe37  1  0.62678717  0.62480900  0.87488344  1
  Fe  Fe38  1  0.87578594  0.87523288  0.12475511  1
  Fe  Fe39  1  -0.00071329  0.24733017  -0.00124469  1
  Fe  Fe40  1  0.37872306  0.37532234  0.37380127  1
  Fe  Fe41  1  0.62758723  0.12634988  0.62818614  1
  Fe  Fe42  1  0.12668591  0.12214303  0.87549220  1
  Fe  Fe43  1  0.62676792  0.37516435  0.87450288  1
  Fe  Fe44  1  0.50108412  0.50242644  0.00290322  1
  Fe  Fe45  1  -0.00292250  0.00219731  0.49945854  1
  Fe  Fe46  1  0.87313536  0.12272899  0.12561434  1
  Fe  Fe47  1  0.37617477  0.62559993  0.37374231  1
  Fe  Fe48  1  0.12488342  0.12565584  0.37553871  1
  Fe  Fe49  1  0.74657048  0.50202864  0.50393529  1
  Fe  Fe50  1  0.12611187  0.62377095  0.87431526  1
  Fe  Fe51  1  0.62438986  0.87256734  0.12399095  1
  Fe  Fe52  1  0.00066858  0.75179952  0.75049908  1
  Fe  Fe53  1  0.87296709  0.87724986  0.62690364  1
  Fe  Fe54  1  0.62590859  0.12373644  0.37235650  1
  Fe  Fe55  1  0.37474398  0.87522541  0.37494370  1
  Fe  Fe56  1  0.12706482  0.87789831  0.62368681  1
  Fe  Fe57  1  0.75095255  0.24817940  0.49942281  1
  Fe  Fe58  1  0.37584510  0.37667848  0.62311800  1
  Fe  Fe59  1  0.62502913  0.12456850  0.12354864  1
  Fe  Fe60  1  0.12568159  0.62790689  0.12594871  1
  Fe  Fe61  1  0.25119934  0.24788131  0.74911592  1
  Fe  Fe62  1  0.37618079  0.12602531  0.37114113  1
  Fe  Fe63  1  -0.00012245  0.75050814  -0.00132875  1
  Fe  Fe64  1  0.50279893  0.50020157  0.74716659  1
  Fe  Fe65  1  0.25022915  0.75101810  0.75168705  1
  Fe  Fe66  1  0.37380005  0.62280367  0.62362589  1
  Fe  Fe67  1  0.62467520  0.37603562  0.37456011  1
  Fe  Fe68  1  0.12282687  0.62473803  0.37589132  1
  Fe  Fe69  1  0.87245809  0.37506977  0.62595307  1
  Fe  Fe70  1  0.37277876  0.62280384  0.87573252  1
  Fe  Fe71  1  0.50396570  -0.00010621  0.75310265  1
  Fe  Fe72  1  0.37365617  0.87039565  0.12493844  1
  Fe  Fe73  1  0.25283051  0.00382056  0.50207780  1
  Fe  Fe74  1  0.75181694  0.75007521  0.24949687  1
  Fe  Fe75  1  0.12304932  0.37516230  0.37593854  1
  Fe  Fe76  1  0.12496169  0.87248569  0.12519227  1
  Fe  Fe77  1  0.12530738  0.37408008  0.87497066  1
  Fe  Fe78  1  0.25006462  0.75000024  0.49832395  1
  Fe  Fe79  1  0.75182969  0.74952856  -0.00044960  1
  Fe  Fe80  1  0.50072593  0.50287302  0.24701299  1
  Fe  Fe81  1  0.12653945  0.62358471  0.62366218  1
  Fe  Fe82  1  0.50009929  0.74962315  0.49870542  1
  Fe  Fe83  1  0.87482522  0.62649511  0.62464153  1
  Fe  Fe84  1  0.74659878  -0.00236833  -0.00404484  1
  Fe  Fe85  1  -0.00147049  0.24958647  0.24958615  1
  Fe  Fe86  1  0.62675783  0.87440540  0.37470128  1
  Fe  Fe87  1  0.87431648  0.37850734  0.87444774  1
  Fe  Fe88  1  0.62538728  0.62694619  0.37477346  1
  Fe  Fe89  1  0.37425909  0.12182045  0.87764986  1
  Co  Co90  1  0.74799424  0.50100802  0.74716475  1
  Co  Co91  1  0.37145565  0.62791233  0.12573819  1
  Co  Co92  1  0.25057156  -0.00165505  0.00289866  1
  Co  Co93  1  -0.00059497  0.75185323  0.25288770  1
  Co  Co94  1  0.00067848  0.00071733  0.00221373  1
  Co  Co95  1  0.24944476  0.49921386  0.74969683  1
  Co  Co96  1  0.74876232  -0.00081151  0.24911264  1
  Co  Co97  1  0.00168698  -0.00084018  0.74773192  1
  Co  Co98  1  0.62580561  0.62757963  0.12475054  1
  Co  Co99  1  0.50275374  0.24831630  0.24913232  1
  Co  Co100  1  0.24888119  0.75094462  -0.00400301  1
  Co  Co101  1  0.12163367  0.37385258  0.12395329  1
  Co  Co102  1  0.37918076  0.12448840  0.62706953  1
  Co  Co103  1  0.75044023  0.75022056  0.49983788  1
  Co  Co104  1  0.37454272  0.12602319  0.12568285  1
  Co  Co105  1  0.50103853  0.75086260  0.25087546  1
  Co  Co106  1  0.62522032  0.37068924  0.62580153  1
  Co  Co107  1  0.12580998  0.87873834  0.37823409  1
  Co  Co108  1  0.87068878  0.12181518  0.62954130  1
  Co  Co109  1  0.75171075  0.25067284  0.75327253  1
  Co  Co110  1  0.50071389  -0.00071875  0.00209718  1
  Co  Co111  1  0.87777442  0.87688806  0.87519592  1
  Co  Co112  1  0.62356566  0.12840655  0.87664825  1
  Co  Co113  1  0.24771508  0.75093845  0.25457011  1
  Co  Co114  1  0.87706645  0.62615976  0.12346102  1
  Co  Co115  1  0.25071925  0.49949373  0.49681933  1
  Co  Co116  1  0.62403862  0.63021697  0.62613799  1
  Co  Co117  1  0.25085892  0.00052182  0.74953695  1
  Co  Co118  1  0.87291171  0.87563434  0.37399750  1
  Co  Co119  1  -0.00097415  0.49913637  0.50127731  1
  Co  Co120  1  0.37793123  0.37544697  0.12553144  1
  Co  Co121  1  0.74892485  0.49958556  0.00220921  1
  Co  Co122  1  0.87485730  0.12508251  0.37185427  1
  Co  Co123  1  0.12457633  0.12427775  0.62419253  1
  Co  Co124  1  0.50310744  0.50112789  0.50111365  1
  Co  Co125  1  0.25036572  0.25099497  0.00073173  1
  Co  Co126  1  0.74362474  -0.00440148  0.75580510  1
  Co  Co127  1  0.62085153  0.86834602  0.87739820  1
