# generated using pymatgen
data_Fe45Co19
_symmetry_space_group_name_H-M   'P 1'
_cell_length_a   11.41552850
_cell_length_b   11.41649816
_cell_length_c   11.41437747
_cell_angle_alpha   89.99561490
_cell_angle_beta   90.00804219
_cell_angle_gamma   89.99869599
_symmetry_Int_Tables_number   1
_chemical_formula_structural   Fe45Co19
_chemical_formula_sum   'Fe90 Co38'
_cell_volume   1487.58283379
_cell_formula_units_Z   2
loop_
 _symmetry_equiv_pos_site_id
 _symmetry_equiv_pos_as_xyz
  1  'x, y, z'
loop_
 _atom_site_type_symbol
 _atom_site_label
 _atom_site_symmetry_multiplicity
 _atom_site_fract_x
 _atom_site_fract_y
 _atom_site_fract_z
 _atom_site_occupancy
  Fe  Fe0  1  0.62553530  0.37727661  0.37452502  1
  Fe  Fe1  1  0.50019030  0.50111879  0.50032339  1
  Fe  Fe2  1  0.24911338  -0.00103367  0.74948112  1
  Fe  Fe3  1  0.75235274  0.75242107  0.74909032  1
  Fe  Fe4  1  -0.00470897  0.25446929  0.24994970  1
  Fe  Fe5  1  0.87481769  0.12575287  0.37321306  1
  Fe  Fe6  1  0.24952801  0.75175622  0.25280306  1
  Fe  Fe7  1  0.50164846  0.75006707  0.24912202  1
  Fe  Fe8  1  0.74940309  0.49902985  0.75047124  1
  Fe  Fe9  1  0.49790359  0.74752846  0.00270173  1
  Fe  Fe10  1  -0.00287650  0.75115956  0.25034330  1
  Fe  Fe11  1  0.87767973  0.37476081  0.87829489  1
  Fe  Fe12  1  0.24812847  0.00091678  0.49116981  1
  Fe  Fe13  1  0.75256161  0.74988300  0.00307838  1
  Fe  Fe14  1  0.37249039  0.87615338  0.87727908  1
  Fe  Fe15  1  0.87508572  0.12544079  0.87534796  1
  Fe  Fe16  1  0.75176847  -0.00138617  0.24650346  1
  Fe  Fe17  1  0.75066876  -0.00338731  0.74840920  1
  Fe  Fe18  1  0.37008219  0.62549146  0.62499960  1
  Fe  Fe19  1  0.24979598  0.24785339  0.00206927  1
  Fe  Fe20  1  0.75038204  0.25315423  0.24891261  1
  Fe  Fe21  1  0.37326560  0.12431681  0.62259327  1
  Fe  Fe22  1  0.75125796  0.00017964  0.00242354  1
  Fe  Fe23  1  0.62444798  0.62600084  0.87573021  1
  Fe  Fe24  1  0.49863475  0.74991323  0.49840716  1
  Fe  Fe25  1  0.62508585  0.87490034  0.87660470  1
  Fe  Fe26  1  0.62707049  0.62441765  0.37309351  1
  Fe  Fe27  1  0.00134350  0.24995683  0.75048833  1
  Fe  Fe28  1  0.49748633  0.75096021  0.75022661  1
  Fe  Fe29  1  0.24696946  0.49904451  0.25062786  1
  Fe  Fe30  1  0.00066459  0.74975109  0.49624500  1
  Fe  Fe31  1  0.12499938  0.37243489  0.37677059  1
  Fe  Fe32  1  0.62424282  0.12598710  0.62435892  1
  Fe  Fe33  1  0.37383117  0.12473847  0.87466617  1
  Fe  Fe34  1  0.37184943  0.87468854  0.62272595  1
  Fe  Fe35  1  0.50046989  -0.00006168  0.75061996  1
  Fe  Fe36  1  0.50014410  0.49926761  0.74945773  1
  Fe  Fe37  1  0.50104017  -0.00270348  0.49815143  1
  Fe  Fe38  1  0.62233967  0.37495296  0.87806831  1
  Fe  Fe39  1  0.87548936  0.62248079  0.37232757  1
  Fe  Fe40  1  0.24952859  0.00239161  0.00462428  1
  Fe  Fe41  1  0.36873334  0.62295181  0.87400375  1
  Fe  Fe42  1  0.12544167  0.12667134  0.62041307  1
  Fe  Fe43  1  0.00226644  0.49999609  0.74992539  1
  Fe  Fe44  1  0.50070464  0.24938964  0.75135690  1
  Fe  Fe45  1  0.24773316  0.74843141  0.00095667  1
  Fe  Fe46  1  0.00023706  -0.00098800  0.75019275  1
  Fe  Fe47  1  0.49731225  0.50230351  0.00381303  1
  Fe  Fe48  1  0.12574517  0.12414875  0.87542241  1
  Fe  Fe49  1  0.12417695  0.62503124  0.12865674  1
  Fe  Fe50  1  0.49781171  0.25133069  0.49519569  1
  Fe  Fe51  1  0.74900080  0.25145249  0.75013570  1
  Fe  Fe52  1  0.62411151  0.12448758  0.37338325  1
  Fe  Fe53  1  0.75117454  0.75112307  0.50166331  1
  Fe  Fe54  1  0.37467468  0.37344300  0.12623365  1
  Fe  Fe55  1  0.00158124  0.50085218  0.49736870  1
  Fe  Fe56  1  0.25377514  0.24742235  0.25557126  1
  Fe  Fe57  1  0.74960963  0.50148267  0.00203162  1
  Fe  Fe58  1  0.12561295  0.87430482  0.62174147  1
  Fe  Fe59  1  0.12168592  0.12648135  0.13051779  1
  Fe  Fe60  1  -0.00049085  -0.00018722  0.49441342  1
  Fe  Fe61  1  0.37460205  0.87620934  0.12796778  1
  Fe  Fe62  1  0.37839144  0.12435187  0.12995276  1
  Fe  Fe63  1  0.12334363  0.87758283  0.12862284  1
  Fe  Fe64  1  0.62219091  0.12783183  0.12643707  1
  Fe  Fe65  1  0.75154429  0.25158375  0.49963436  1
  Fe  Fe66  1  0.50102934  0.50060750  0.24740453  1
  Fe  Fe67  1  0.62496608  0.62599270  0.62612709  1
  Fe  Fe68  1  0.24895441  0.25029044  0.74893914  1
  Fe  Fe69  1  0.75134536  -0.00264461  0.50161263  1
  Fe  Fe70  1  0.12764724  0.37626855  0.87774123  1
  Fe  Fe71  1  0.87629814  0.12441449  0.62503924  1
  Fe  Fe72  1  0.12516673  0.87672389  0.87784871  1
  Fe  Fe73  1  0.37344077  0.37500996  0.62232999  1
  Fe  Fe74  1  0.62679217  0.87435215  0.37420430  1
  Fe  Fe75  1  0.50080984  0.00163458  0.00099204  1
  Fe  Fe76  1  0.87585314  0.37556942  0.62430065  1
  Fe  Fe77  1  0.74960801  0.50020210  0.50181593  1
  Fe  Fe78  1  0.87873419  0.62562276  0.87783526  1
  Fe  Fe79  1  0.87619035  0.62538984  0.62535032  1
  Fe  Fe80  1  0.12572189  0.37207449  0.62047638  1
  Fe  Fe81  1  0.75112076  0.75055944  0.24655181  1
  Fe  Fe82  1  0.12861537  0.62672247  0.62464841  1
  Fe  Fe83  1  0.00246314  0.75064849  0.75314860  1
  Fe  Fe84  1  0.37282320  0.62384566  0.37412183  1
  Fe  Fe85  1  0.74884326  0.24913809  0.00068126  1
  Fe  Fe86  1  0.00430903  0.49899655  0.00557605  1
  Fe  Fe87  1  0.37243095  0.37558312  0.87724605  1
  Fe  Fe88  1  -0.00163700  0.00197050  0.00244558  1
  Fe  Fe89  1  0.75237919  0.49789295  0.24523372  1
  Co  Co90  1  0.24919823  0.50118026  0.00577249  1
  Co  Co91  1  0.49864042  0.24786890  -0.00022941  1
  Co  Co92  1  0.37136601  0.62622711  0.12917513  1
  Co  Co93  1  0.62392262  0.37368020  0.62371343  1
  Co  Co94  1  0.87404686  0.37796440  0.37674689  1
  Co  Co95  1  0.25438777  0.24770259  0.49431005  1
  Co  Co96  1  0.87837120  0.62417670  0.12545858  1
  Co  Co97  1  0.12351275  0.87438435  0.37128414  1
  Co  Co98  1  0.62328417  0.37440529  0.12339040  1
  Co  Co99  1  0.37608796  0.87565368  0.37161012  1
  Co  Co100  1  0.87470540  0.37412281  0.12042755  1
  Co  Co101  1  0.87990285  0.87443980  0.62360762  1
  Co  Co102  1  0.24832594  0.49731561  0.74714730  1
  Co  Co103  1  0.62619990  0.62500389  0.12491679  1
  Co  Co104  1  0.11990522  0.13001170  0.37245486  1
  Co  Co105  1  0.00304824  0.24895087  -0.00085457  1
  Co  Co106  1  0.62318248  0.87372933  0.62515821  1
  Co  Co107  1  0.00055684  0.49484109  0.24889764  1
  Co  Co108  1  0.38070131  0.11981694  0.37236149  1
  Co  Co109  1  -0.00297373  -0.00018825  0.25212501  1
  Co  Co110  1  0.37455634  0.38067171  0.37391969  1
  Co  Co111  1  0.12730191  0.62133432  0.87599130  1
  Co  Co112  1  0.24782564  0.75229341  0.75242869  1
  Co  Co113  1  0.62645499  0.12379564  0.87435011  1
  Co  Co114  1  0.24814516  0.00286252  0.25344869  1
  Co  Co115  1  0.87330662  0.87396046  0.37412885  1
  Co  Co116  1  0.00403606  0.74926165  0.00051873  1
  Co  Co117  1  0.50434534  -0.00303172  0.24887864  1
  Co  Co118  1  0.12433437  0.62499257  0.37153184  1
  Co  Co119  1  0.87822366  0.87444481  0.12400902  1
  Co  Co120  1  0.12834856  0.37010342  0.12762187  1
  Co  Co121  1  0.50012612  0.25320315  0.25369708  1
  Co  Co122  1  0.62406193  0.87347014  0.12289768  1
  Co  Co123  1  0.87667992  0.12819866  0.12525933  1
  Co  Co124  1  0.24718736  0.50097038  0.49866444  1
  Co  Co125  1  0.24998934  0.75066660  0.49516682  1
  Co  Co126  1  -0.00419365  0.24997411  0.49928883  1
  Co  Co127  1  0.87631046  0.87494254  0.87714323  1
