# generated using pymatgen
data_Fe45Co19
_symmetry_space_group_name_H-M   'P 1'
_cell_length_a   11.41425282
_cell_length_b   11.41603140
_cell_length_c   11.41516618
_cell_angle_alpha   90.00004537
_cell_angle_beta   90.00075577
_cell_angle_gamma   89.99695314
_symmetry_Int_Tables_number   1
_chemical_formula_structural   Fe45Co19
_chemical_formula_sum   'Fe90 Co38'
_cell_volume   1487.45857539
_cell_formula_units_Z   2
loop_
 _symmetry_equiv_pos_site_id
 _symmetry_equiv_pos_as_xyz
  1  'x, y, z'
loop_
 _atom_site_type_symbol
 _atom_site_label
 _atom_site_symmetry_multiplicity
 _atom_site_fract_x
 _atom_site_fract_y
 _atom_site_fract_z
 _atom_site_occupancy
  Fe  Fe0  1  0.37284657  0.12426929  0.12391530  1
  Fe  Fe1  1  0.62388797  0.37597037  0.12528241  1
  Fe  Fe2  1  0.87416192  0.12435980  0.12547544  1
  Fe  Fe3  1  0.62221826  0.87509488  0.36876074  1
  Fe  Fe4  1  0.37422543  0.37526327  0.12482156  1
  Fe  Fe5  1  0.24775425  0.75254249  0.50067431  1
  Fe  Fe6  1  0.24501594  0.49991413  0.24785242  1
  Fe  Fe7  1  0.24971191  0.50173225  0.75017711  1
  Fe  Fe8  1  0.62721845  0.37429425  0.37409775  1
  Fe  Fe9  1  0.37323112  0.62477138  0.12581890  1
  Fe  Fe10  1  0.12389904  0.12259017  0.62594504  1
  Fe  Fe11  1  0.00135204  -0.00109168  0.00006704  1
  Fe  Fe12  1  0.00201370  0.74970029  0.49861947  1
  Fe  Fe13  1  0.24942818  -0.00153180  0.75132539  1
  Fe  Fe14  1  0.24999063  0.74953774  0.24987331  1
  Fe  Fe15  1  0.87504308  0.37684329  0.62525554  1
  Fe  Fe16  1  0.37542661  0.87484611  0.62370761  1
  Fe  Fe17  1  0.87462854  0.87277741  0.12429806  1
  Fe  Fe18  1  0.62614080  0.12494697  0.12939397  1
  Fe  Fe19  1  0.12470232  0.37478969  0.37476646  1
  Fe  Fe20  1  0.00247314  0.25108077  0.24657540  1
  Fe  Fe21  1  0.62159305  0.37525429  0.87300353  1
  Fe  Fe22  1  0.12497472  0.37193087  0.87827609  1
  Fe  Fe23  1  0.62406144  0.37580499  0.62695087  1
  Fe  Fe24  1  0.87599420  0.37526548  0.87695450  1
  Fe  Fe25  1  0.49892733  0.74872636  0.74776439  1
  Fe  Fe26  1  0.25160688  0.25002784  0.75054252  1
  Fe  Fe27  1  0.24916313  0.49829947  0.50286541  1
  Fe  Fe28  1  0.00090039  -0.00018413  0.25039803  1
  Fe  Fe29  1  0.37136644  0.62552233  0.37700904  1
  Fe  Fe30  1  0.37416040  0.87336366  0.87621003  1
  Fe  Fe31  1  0.62554909  0.12338152  0.62516964  1
  Fe  Fe32  1  0.75246186  -0.00437678  0.74913685  1
  Fe  Fe33  1  0.74993041  0.25075691  0.00154387  1
  Fe  Fe34  1  0.87772673  0.12034452  0.62529105  1
  Fe  Fe35  1  0.37734007  0.37514850  0.62826854  1
  Fe  Fe36  1  0.62272781  0.87296230  0.13161306  1
  Fe  Fe37  1  0.62715580  0.87121239  0.87473965  1
  Fe  Fe38  1  -0.00035135  0.50098971  0.75334559  1
  Fe  Fe39  1  0.49864136  0.50095098  0.25168119  1
  Fe  Fe40  1  0.12436132  0.62617851  0.62588997  1
  Fe  Fe41  1  0.12932635  0.12657061  0.37323055  1
  Fe  Fe42  1  0.74951115  0.50409722  0.75299537  1
  Fe  Fe43  1  0.12845066  0.87428111  0.12428379  1
  Fe  Fe44  1  0.74751507  -0.00267071  0.00411709  1
  Fe  Fe45  1  0.37479252  0.12508309  0.87652003  1
  Fe  Fe46  1  0.49879593  0.25053833  -0.00087173  1
  Fe  Fe47  1  0.87245616  0.12769491  0.37144818  1
  Fe  Fe48  1  0.12552743  0.12608100  0.87777847  1
  Fe  Fe49  1  0.49922664  0.50069021  0.49973871  1
  Fe  Fe50  1  0.24814521  0.50071734  -0.00055548  1
  Fe  Fe51  1  0.87619989  0.62296936  0.37605948  1
  Fe  Fe52  1  0.00110279  0.24852441  0.50019527  1
  Fe  Fe53  1  0.75098879  0.25103098  0.50044553  1
  Fe  Fe54  1  0.12728291  0.87340236  0.87759059  1
  Fe  Fe55  1  0.00087784  0.49972198  0.49900767  1
  Fe  Fe56  1  0.49950829  0.00252627  0.49456965  1
  Fe  Fe57  1  0.87338404  0.12231562  0.87704967  1
  Fe  Fe58  1  0.49961381  0.50123276  -0.00114050  1
  Fe  Fe59  1  0.87863251  0.62425148  0.12188839  1
  Fe  Fe60  1  0.49943507  -0.00001862  0.75022132  1
  Fe  Fe61  1  0.50016730  0.24756280  0.49836253  1
  Fe  Fe62  1  0.49945911  0.74934253  0.00352330  1
  Fe  Fe63  1  0.62516532  0.87500674  0.62440347  1
  Fe  Fe64  1  0.87765276  0.87394573  0.37476360  1
  Fe  Fe65  1  0.50038724  0.74853724  0.49808433  1
  Fe  Fe66  1  0.74892175  0.50289647  -0.00257530  1
  Fe  Fe67  1  0.62594130  0.12413553  0.87487902  1
  Fe  Fe68  1  0.75372907  0.49841733  0.25093745  1
  Fe  Fe69  1  0.75094988  -0.00117359  0.49616996  1
  Fe  Fe70  1  0.50051058  -0.00230461  0.00217020  1
  Fe  Fe71  1  0.24905386  -0.00260129  0.49782311  1
  Fe  Fe72  1  0.75043179  0.24924292  0.74999465  1
  Fe  Fe73  1  0.37536847  0.62594993  0.87327907  1
  Fe  Fe74  1  0.62556463  0.62483360  0.12755053  1
  Fe  Fe75  1  0.49911354  0.24738637  0.25187621  1
  Fe  Fe76  1  -0.00457583  0.75508599  0.75145860  1
  Fe  Fe77  1  0.62668513  0.62440919  0.37259439  1
  Fe  Fe78  1  0.25356975  -0.00199264  0.25088947  1
  Fe  Fe79  1  0.87487079  0.62479553  0.62447629  1
  Fe  Fe80  1  0.88011511  0.37803336  0.12251614  1
  Fe  Fe81  1  0.37368389  0.12460626  0.62340713  1
  Fe  Fe82  1  -0.00145161  0.24828347  0.75145014  1
  Fe  Fe83  1  0.00251380  0.74720739  0.25009710  1
  Fe  Fe84  1  0.12269622  0.37481005  0.62690582  1
  Fe  Fe85  1  0.37175947  0.37221009  0.37396699  1
  Fe  Fe86  1  0.12020593  0.87833035  0.62446541  1
  Fe  Fe87  1  0.75015326  0.75125801  0.49921303  1
  Fe  Fe88  1  0.12337636  0.62974823  0.87557123  1
  Fe  Fe89  1  0.62614839  0.62499057  0.62512667  1
  Co  Co90  1  0.37513955  0.87470416  0.12569337  1
  Co  Co91  1  0.12715096  0.12088984  0.12465805  1
  Co  Co92  1  0.36808264  0.12882267  0.37651717  1
  Co  Co93  1  -0.00027272  -0.00240783  0.75587196  1
  Co  Co94  1  0.00116135  0.75349062  0.00104075  1
  Co  Co95  1  0.75329624  0.74808921  0.25027358  1
  Co  Co96  1  0.25084185  -0.00104420  -0.00103971  1
  Co  Co97  1  0.74971553  0.49944773  0.49892408  1
  Co  Co98  1  0.37320767  0.62663236  0.62303072  1
  Co  Co99  1  0.25065055  0.25124956  0.00237211  1
  Co  Co100  1  0.12338285  0.62644068  0.12280005  1
  Co  Co101  1  0.75360631  0.75109367  0.74728702  1
  Co  Co102  1  0.62302902  0.62902398  0.87478010  1
  Co  Co103  1  0.75232071  -0.00314789  0.25006186  1
  Co  Co104  1  0.12742609  0.62415347  0.37711760  1
  Co  Co105  1  0.00317454  0.50198442  -0.00386063  1
  Co  Co106  1  0.00103230  0.00405577  0.49316062  1
  Co  Co107  1  0.37730794  0.87224176  0.37459712  1
  Co  Co108  1  0.24808782  0.25289866  0.50423519  1
  Co  Co109  1  0.24892286  0.75164959  0.74811003  1
  Co  Co110  1  0.37548995  0.37636162  0.87434281  1
  Co  Co111  1  0.24695079  0.25235467  0.24413576  1
  Co  Co112  1  0.12150742  0.37754752  0.12116430  1
  Co  Co113  1  0.74788288  0.74814596  0.00317849  1
  Co  Co114  1  0.87745703  0.37455689  0.37579220  1
  Co  Co115  1  0.87885149  0.87858329  0.62020697  1
  Co  Co116  1  0.62995041  0.12551881  0.37115578  1
  Co  Co117  1  0.75166605  0.25545571  0.24642309  1
  Co  Co118  1  0.00227947  0.50151279  0.25175810  1
  Co  Co119  1  0.25196615  0.74821875  0.00112329  1
  Co  Co120  1  0.49663503  0.74558065  0.24959427  1
  Co  Co121  1  0.49567366  0.00455736  0.25234837  1
  Co  Co122  1  0.87633601  0.62876401  0.87762934  1
  Co  Co123  1  0.49974733  0.50385725  0.74882284  1
  Co  Co124  1  0.87055645  0.87453540  0.87999049  1
  Co  Co125  1  -0.00053609  0.24631018  0.00177748  1
  Co  Co126  1  0.49932892  0.24683181  0.75032493  1
  Co  Co127  1  0.12439173  0.87478503  0.37329078  1
