# generated using pymatgen
data_Fe45Co19
_symmetry_space_group_name_H-M   'P 1'
_cell_length_a   11.41611691
_cell_length_b   11.41658706
_cell_length_c   11.41571199
_cell_angle_alpha   89.99800862
_cell_angle_beta   90.00250341
_cell_angle_gamma   89.99815869
_symmetry_Int_Tables_number   1
_chemical_formula_structural   Fe45Co19
_chemical_formula_sum   'Fe90 Co38'
_cell_volume   1487.84504479
_cell_formula_units_Z   2
loop_
 _symmetry_equiv_pos_site_id
 _symmetry_equiv_pos_as_xyz
  1  'x, y, z'
loop_
 _atom_site_type_symbol
 _atom_site_label
 _atom_site_symmetry_multiplicity
 _atom_site_fract_x
 _atom_site_fract_y
 _atom_site_fract_z
 _atom_site_occupancy
  Fe  Fe0  1  -0.00124931  0.25074856  0.25130280  1
  Fe  Fe1  1  0.00207485  0.50058229  0.50585204  1
  Fe  Fe2  1  0.25197166  -0.00086190  0.74886156  1
  Fe  Fe3  1  0.75361505  0.74817591  0.49905555  1
  Fe  Fe4  1  -0.00031120  0.24987799  -0.00311209  1
  Fe  Fe5  1  0.24685903  0.25324639  0.49756687  1
  Fe  Fe6  1  0.62569365  0.12625904  0.37384595  1
  Fe  Fe7  1  0.37885745  0.12082839  0.87538056  1
  Fe  Fe8  1  0.87698435  0.37865778  0.37743797  1
  Fe  Fe9  1  0.87322129  0.37333428  0.12251802  1
  Fe  Fe10  1  0.62296441  0.62175570  0.87276000  1
  Fe  Fe11  1  0.24682602  -0.00142597  0.50053276  1
  Fe  Fe12  1  0.75500781  0.74749257  0.25097967  1
  Fe  Fe13  1  -0.00171565  0.00122377  0.24821473  1
  Fe  Fe14  1  0.12773967  0.13023879  0.12451047  1
  Fe  Fe15  1  0.12038115  0.87484033  0.37472670  1
  Fe  Fe16  1  0.12520918  0.37486451  0.87332757  1
  Fe  Fe17  1  0.75183207  0.50072593  0.25051680  1
  Fe  Fe18  1  0.37691900  0.37570528  0.37430203  1
  Fe  Fe19  1  0.62533910  0.87366216  0.37387647  1
  Fe  Fe20  1  0.50066356  0.00252962  0.24818798  1
  Fe  Fe21  1  0.24999871  0.74966811  0.75188850  1
  Fe  Fe22  1  -0.00130910  0.50061679  0.74780059  1
  Fe  Fe23  1  0.62797262  0.12983764  0.12570524  1
  Fe  Fe24  1  0.37482801  0.12678729  0.62271148  1
  Fe  Fe25  1  0.74865871  0.25436561  0.49841763  1
  Fe  Fe26  1  0.49896599  0.74957429  0.00012672  1
  Fe  Fe27  1  0.25467195  0.25139961  0.75235207  1
  Fe  Fe28  1  0.37190173  0.62479007  0.12688514  1
  Fe  Fe29  1  0.00191710  0.24964612  0.50409774  1
  Fe  Fe30  1  0.37649861  0.87649342  0.37437250  1
  Fe  Fe31  1  0.75227894  0.24827865  0.75231140  1
  Fe  Fe32  1  0.37472400  0.87358327  0.62443042  1
  Fe  Fe33  1  0.74851980  0.49684097  -0.00262108  1
  Fe  Fe34  1  -0.00099599  0.00289404  0.74238978  1
  Fe  Fe35  1  0.24878964  0.75019825  0.49710529  1
  Fe  Fe36  1  0.37444491  0.62602403  0.62237380  1
  Fe  Fe37  1  0.49830970  0.74914886  0.75017950  1
  Fe  Fe38  1  0.25225090  0.49915638  0.74799215  1
  Fe  Fe39  1  0.00129740  0.50031165  0.24386015  1
  Fe  Fe40  1  0.62506737  0.62428945  0.37653771  1
  Fe  Fe41  1  0.74817004  0.49989737  0.50527073  1
  Fe  Fe42  1  0.24532966  0.49586997  0.24815617  1
  Fe  Fe43  1  0.50365133  0.49865513  0.50466955  1
  Fe  Fe44  1  0.87642451  0.12339531  0.37930646  1
  Fe  Fe45  1  0.75145994  0.74787433  0.75183621  1
  Fe  Fe46  1  0.12377787  0.62302246  0.87773875  1
  Fe  Fe47  1  0.87740311  0.87786030  0.87399530  1
  Fe  Fe48  1  0.62774354  0.62587167  0.12441809  1
  Fe  Fe49  1  0.12316091  0.62485561  0.37338482  1
  Fe  Fe50  1  0.62566284  0.87137696  0.62469526  1
  Fe  Fe51  1  0.24777935  0.49573057  0.00327049  1
  Fe  Fe52  1  0.00028859  0.00024934  0.00151827  1
  Fe  Fe53  1  0.50338985  0.25342127  0.49969871  1
  Fe  Fe54  1  0.62492547  0.12754951  0.62597150  1
  Fe  Fe55  1  0.62723243  0.37108495  0.12827310  1
  Fe  Fe56  1  0.12379840  0.87672072  0.87332835  1
  Fe  Fe57  1  0.12473558  0.87237530  0.12591466  1
  Fe  Fe58  1  0.62685875  0.87459655  0.12535130  1
  Fe  Fe59  1  0.37535127  0.62207490  0.87736266  1
  Fe  Fe60  1  0.25038192  0.00013730  -0.00005139  1
  Fe  Fe61  1  0.49928799  0.25212535  -0.00137782  1
  Fe  Fe62  1  0.00059963  0.74847394  0.74896992  1
  Fe  Fe63  1  0.75251692  0.00114190  0.25111909  1
  Fe  Fe64  1  0.62129083  0.37747342  0.86804725  1
  Fe  Fe65  1  0.50194084  -0.00089318  0.50178054  1
  Fe  Fe66  1  0.37505659  0.12580967  0.37518724  1
  Fe  Fe67  1  0.75189772  0.75130526  -0.00196482  1
  Fe  Fe68  1  0.50090691  0.49869239  0.24835363  1
  Fe  Fe69  1  0.74970388  0.00127164  0.74966194  1
  Fe  Fe70  1  0.62031836  0.87764522  0.87583244  1
  Fe  Fe71  1  0.24931823  0.75133544  -0.00173699  1
  Fe  Fe72  1  0.87203192  0.12804210  0.12218659  1
  Fe  Fe73  1  0.24674126  0.49810631  0.50082744  1
  Fe  Fe74  1  0.74988369  0.00158736  -0.00185475  1
  Fe  Fe75  1  -0.00513268  0.74691554  0.24609203  1
  Fe  Fe76  1  0.87553846  0.37579810  0.87378425  1
  Fe  Fe77  1  0.49999408  0.49807075  0.00363899  1
  Fe  Fe78  1  -0.00148494  0.74992239  0.50305923  1
  Fe  Fe79  1  0.75104412  -0.00233416  0.49993913  1
  Fe  Fe80  1  0.37482364  0.62257847  0.37437995  1
  Fe  Fe81  1  0.49932638  0.74851206  0.25167548  1
  Fe  Fe82  1  0.37231468  0.13118557  0.12688783  1
  Fe  Fe83  1  0.12317810  0.12407126  0.37634543  1
  Fe  Fe84  1  0.37462447  0.87442025  0.12549633  1
  Fe  Fe85  1  0.24835345  0.00031469  0.25076836  1
  Fe  Fe86  1  0.62080586  0.12377329  0.87379872  1
  Fe  Fe87  1  0.87712392  0.62301449  0.87905361  1
  Fe  Fe88  1  -0.00203015  0.24745029  0.74721536  1
  Fe  Fe89  1  0.12469907  0.12407848  0.87270777  1
  Co  Co90  1  0.75340679  0.50264177  0.74920466  1
  Co  Co91  1  0.12610015  0.37365813  0.62881733  1
  Co  Co92  1  0.25137756  0.25012646  -0.00704505  1
  Co  Co93  1  0.12633003  0.62802389  0.12341267  1
  Co  Co94  1  0.87795474  0.87666567  0.37553844  1
  Co  Co95  1  0.37320533  0.37076740  0.12697960  1
  Co  Co96  1  0.37709295  0.38018523  0.87592983  1
  Co  Co97  1  0.37410947  0.37338004  0.62203611  1
  Co  Co98  1  0.87281734  0.87653573  0.12396005  1
  Co  Co99  1  0.87707477  0.62045215  0.37706567  1
  Co  Co100  1  0.62516093  0.62739077  0.62662203  1
  Co  Co101  1  0.62634743  0.37396245  0.63252722  1
  Co  Co102  1  -0.00070344  0.75168040  0.00053472  1
  Co  Co103  1  0.50087876  0.25039776  0.25320688  1
  Co  Co104  1  0.12672319  0.62500345  0.62560431  1
  Co  Co105  1  0.49548139  0.50212740  0.74468049  1
  Co  Co106  1  0.49957509  0.00189670  0.00550287  1
  Co  Co107  1  0.74837176  0.25175920  -0.00682258  1
  Co  Co108  1  0.12580484  0.36737967  0.12267181  1
  Co  Co109  1  0.25014221  0.75051673  0.25309168  1
  Co  Co110  1  0.62594977  0.37762561  0.37268615  1
  Co  Co111  1  0.24697685  0.25301457  0.25677057  1
  Co  Co112  1  0.87341538  0.87442268  0.62603793  1
  Co  Co113  1  0.87288424  0.62217479  0.11851219  1
  Co  Co114  1  0.12660285  0.87334123  0.62586602  1
  Co  Co115  1  0.11993372  0.37685565  0.37632128  1
  Co  Co116  1  0.87672173  0.12229343  0.87576288  1
  Co  Co117  1  0.12988249  0.12762096  0.62619783  1
  Co  Co118  1  0.37741366  0.87695208  0.87549186  1
  Co  Co119  1  0.00175582  0.00064770  0.50586146  1
  Co  Co120  1  0.87501302  0.62563868  0.62560264  1
  Co  Co121  1  0.00269781  0.49656835  0.00202591  1
  Co  Co122  1  0.87052618  0.12601558  0.62187892  1
  Co  Co123  1  0.49864107  0.74945944  0.49838690  1
  Co  Co124  1  0.49544147  0.25020231  0.74997304  1
  Co  Co125  1  0.87442802  0.37402925  0.62537722  1
  Co  Co126  1  0.75434210  0.25077927  0.25565154  1
  Co  Co127  1  0.50024975  -0.00106629  0.74453263  1
