# generated using pymatgen
data_Fe45Co19
_symmetry_space_group_name_H-M   'P 1'
_cell_length_a   11.41510490
_cell_length_b   11.41517010
_cell_length_c   11.41518748
_cell_angle_alpha   89.98904281
_cell_angle_beta   89.99504870
_cell_angle_gamma   89.99756011
_symmetry_Int_Tables_number   1
_chemical_formula_structural   Fe45Co19
_chemical_formula_sum   'Fe90 Co38'
_cell_volume   1487.46012771
_cell_formula_units_Z   2
loop_
 _symmetry_equiv_pos_site_id
 _symmetry_equiv_pos_as_xyz
  1  'x, y, z'
loop_
 _atom_site_type_symbol
 _atom_site_label
 _atom_site_symmetry_multiplicity
 _atom_site_fract_x
 _atom_site_fract_y
 _atom_site_fract_z
 _atom_site_occupancy
  Fe  Fe0  1  0.37627932  0.87748476  0.87404177  1
  Fe  Fe1  1  0.37755457  0.37767794  0.37698642  1
  Fe  Fe2  1  0.12667488  0.37236743  0.12359947  1
  Fe  Fe3  1  0.37578871  0.37362652  0.87494266  1
  Fe  Fe4  1  0.49840458  0.74993169  0.50015072  1
  Fe  Fe5  1  0.87256416  0.12517885  0.12584850  1
  Fe  Fe6  1  0.87575712  0.37332665  0.87275349  1
  Fe  Fe7  1  -0.00091354  0.74833308  0.25046821  1
  Fe  Fe8  1  0.25083360  0.75174082  0.00026982  1
  Fe  Fe9  1  -0.00110491  0.25158067  0.25112723  1
  Fe  Fe10  1  0.25133959  0.74953830  0.24969879  1
  Fe  Fe11  1  0.87406907  0.12386204  0.37490903  1
  Fe  Fe12  1  0.62399827  0.62447288  0.87633337  1
  Fe  Fe13  1  0.25021543  0.00127999  0.49949796  1
  Fe  Fe14  1  0.25254822  0.25071578  0.25113659  1
  Fe  Fe15  1  0.37555114  0.12275443  0.37521919  1
  Fe  Fe16  1  0.50002421  0.75071163  0.24915955  1
  Fe  Fe17  1  0.62413732  0.62638386  0.37480681  1
  Fe  Fe18  1  0.50088536  0.50044254  0.24886169  1
  Fe  Fe19  1  -0.00035116  -0.00089580  0.00169136  1
  Fe  Fe20  1  0.12268064  0.37066245  0.87523559  1
  Fe  Fe21  1  0.12602144  0.12673451  0.12474105  1
  Fe  Fe22  1  0.12109541  0.13000481  0.87732017  1
  Fe  Fe23  1  0.50033338  0.49846873  0.74957684  1
  Fe  Fe24  1  0.49592412  0.24750504  0.50487377  1
  Fe  Fe25  1  0.12627447  0.87573917  0.37301729  1
  Fe  Fe26  1  -0.00105877  0.49881813  0.50044287  1
  Fe  Fe27  1  0.74918722  -0.00109224  -0.00109811  1
  Fe  Fe28  1  0.74764721  0.50059465  0.49932463  1
  Fe  Fe29  1  0.25436556  0.50156249  0.50288368  1
  Fe  Fe30  1  0.49835019  0.49897859  0.00052111  1
  Fe  Fe31  1  0.37586684  0.87720886  0.62504543  1
  Fe  Fe32  1  0.12499025  0.62382147  0.37574614  1
  Fe  Fe33  1  0.87134367  0.87502592  0.12786031  1
  Fe  Fe34  1  0.25227107  0.50017918  0.24856052  1
  Fe  Fe35  1  0.00191147  0.49970737  0.74975667  1
  Fe  Fe36  1  0.50435960  -0.00104908  0.25109573  1
  Fe  Fe37  1  0.87253406  0.37654290  0.12899304  1
  Fe  Fe38  1  0.25120313  0.25095631  0.74712430  1
  Fe  Fe39  1  0.12390895  0.87483314  0.62416476  1
  Fe  Fe40  1  0.87191854  0.87477186  0.37276391  1
  Fe  Fe41  1  0.12489994  0.62450224  0.62453211  1
  Fe  Fe42  1  0.24788307  -0.00011368  0.00047849  1
  Fe  Fe43  1  0.12452008  0.62560830  0.12363280  1
  Fe  Fe44  1  -0.00009164  -0.00123401  0.49863318  1
  Fe  Fe45  1  0.50424178  0.00187354  0.74582999  1
  Fe  Fe46  1  0.37537052  0.87739192  0.37547517  1
  Fe  Fe47  1  0.75519748  0.25171348  0.50210464  1
  Fe  Fe48  1  0.12476536  0.12710614  0.37622518  1
  Fe  Fe49  1  0.62609333  0.12597965  0.37764543  1
  Fe  Fe50  1  0.75118706  0.74852638  0.49936996  1
  Fe  Fe51  1  0.62533712  0.37430438  0.12448000  1
  Fe  Fe52  1  0.37560382  0.62639631  0.87550224  1
  Fe  Fe53  1  0.62393850  0.37323961  0.37684359  1
  Fe  Fe54  1  0.74831742  0.00217332  0.74836334  1
  Fe  Fe55  1  0.12624221  0.37447096  0.37900876  1
  Fe  Fe56  1  0.24566185  0.00067409  0.75067335  1
  Fe  Fe57  1  0.12277595  0.12957659  0.62071480  1
  Fe  Fe58  1  0.37496511  0.12518891  0.12500712  1
  Fe  Fe59  1  0.00045208  0.00276087  0.74970439  1
  Fe  Fe60  1  0.62714413  0.12559915  0.12501962  1
  Fe  Fe61  1  0.00039664  0.00010081  0.24938227  1
  Fe  Fe62  1  -0.00116025  0.74960442  0.49972473  1
  Fe  Fe63  1  0.75034354  0.74973706  -0.00320888  1
  Fe  Fe64  1  0.87311595  0.37981295  0.37141333  1
  Fe  Fe65  1  0.62517499  0.37116927  0.62764954  1
  Fe  Fe66  1  0.50205923  0.75178345  0.75190253  1
  Fe  Fe67  1  0.49927156  0.25024160  -0.00172184  1
  Fe  Fe68  1  0.87383050  0.87450818  0.62720463  1
  Fe  Fe69  1  0.37467260  0.12376970  0.87349434  1
  Fe  Fe70  1  0.62376327  0.62643489  0.62591665  1
  Fe  Fe71  1  0.75045875  0.49906403  -0.00204552  1
  Fe  Fe72  1  0.62681810  0.12837009  0.87230485  1
  Fe  Fe73  1  0.24992831  0.49928081  0.74881832  1
  Fe  Fe74  1  0.62427725  0.62695999  0.12298343  1
  Fe  Fe75  1  0.25216099  0.74850088  0.50100051  1
  Fe  Fe76  1  0.37608621  0.87602036  0.12412365  1
  Fe  Fe77  1  0.24910630  0.75024047  0.74921396  1
  Fe  Fe78  1  0.50335578  -0.00118862  -0.00019617  1
  Fe  Fe79  1  0.87562375  0.87323897  0.87173924  1
  Fe  Fe80  1  0.25160650  0.49898698  0.00024302  1
  Fe  Fe81  1  0.50094118  0.24973615  0.24957269  1
  Fe  Fe82  1  0.87399867  0.62198485  0.12824331  1
  Fe  Fe83  1  0.74856762  0.50006905  0.75200900  1
  Fe  Fe84  1  0.12188644  0.62740977  0.87693719  1
  Fe  Fe85  1  0.74644668  -0.00169835  0.50042930  1
  Fe  Fe86  1  0.12077030  0.87194618  0.87657509  1
  Fe  Fe87  1  0.75112387  0.25150927  -0.00153069  1
  Fe  Fe88  1  -0.00104839  0.49881499  0.00018415  1
  Fe  Fe89  1  0.87455366  0.62384535  0.62666647  1
  Co  Co90  1  0.37691180  0.37752813  0.62412364  1
  Co  Co91  1  0.74340840  0.50119413  0.25164095  1
  Co  Co92  1  0.37730939  0.62565631  0.62764904  1
  Co  Co93  1  -0.00386237  0.25135522  0.00318432  1
  Co  Co94  1  0.62550250  0.87273607  0.62383885  1
  Co  Co95  1  0.37632860  0.37384052  0.12494537  1
  Co  Co96  1  -0.00622885  0.25326682  0.49909577  1
  Co  Co97  1  -0.00371054  0.24886598  0.74547370  1
  Co  Co98  1  0.87599441  0.62108058  0.37417061  1
  Co  Co99  1  0.87729569  0.62523351  0.87306168  1
  Co  Co100  1  0.62568094  0.87300111  0.37538002  1
  Co  Co101  1  -0.00429651  0.75010725  0.00343477  1
  Co  Co102  1  0.75542090  0.24774509  0.74912301  1
  Co  Co103  1  0.49708729  0.24868286  0.74901384  1
  Co  Co104  1  0.50239954  0.00090949  0.50112476  1
  Co  Co105  1  0.75011287  0.74682430  0.25151502  1
  Co  Co106  1  0.00076526  0.74851025  0.74698076  1
  Co  Co107  1  0.87591493  0.12457992  0.87671663  1
  Co  Co108  1  0.25334553  0.24938263  -0.00099722  1
  Co  Co109  1  0.37262883  0.12073599  0.62714456  1
  Co  Co110  1  0.50255913  0.50158669  0.50157591  1
  Co  Co111  1  0.74615152  0.00138631  0.25192010  1
  Co  Co112  1  0.37556031  0.62625106  0.12368276  1
  Co  Co113  1  0.62756202  0.87345615  0.12576771  1
  Co  Co114  1  0.00384529  0.49885840  0.24939041  1
  Co  Co115  1  0.62761703  0.12941014  0.62398269  1
  Co  Co116  1  0.12481693  0.87401348  0.12656398  1
  Co  Co117  1  0.74929842  0.24996168  0.25115585  1
  Co  Co118  1  0.74785183  0.74794652  0.75131211  1
  Co  Co119  1  0.87538276  0.12092454  0.62212645  1
  Co  Co120  1  0.25528634  0.24948083  0.50026228  1
  Co  Co121  1  0.37606987  0.62280434  0.37429957  1
  Co  Co122  1  0.62469387  0.37281740  0.87346818  1
  Co  Co123  1  0.12534554  0.37273877  0.62235397  1
  Co  Co124  1  0.87366645  0.37982344  0.62736713  1
  Co  Co125  1  0.62639400  0.87697405  0.87365863  1
  Co  Co126  1  0.25023782  0.00110167  0.24889643  1
  Co  Co127  1  0.50163269  0.75274836  -0.00212980  1
