# generated using pymatgen
data_Fe45Co19
_symmetry_space_group_name_H-M   'P 1'
_cell_length_a   11.41494595
_cell_length_b   11.41501100
_cell_length_c   11.41366481
_cell_angle_alpha   90.00232339
_cell_angle_beta   90.00222519
_cell_angle_gamma   89.99885793
_symmetry_Int_Tables_number   1
_chemical_formula_structural   Fe45Co19
_chemical_formula_sum   'Fe90 Co38'
_cell_volume   1487.22030873
_cell_formula_units_Z   2
loop_
 _symmetry_equiv_pos_site_id
 _symmetry_equiv_pos_as_xyz
  1  'x, y, z'
loop_
 _atom_site_type_symbol
 _atom_site_label
 _atom_site_symmetry_multiplicity
 _atom_site_fract_x
 _atom_site_fract_y
 _atom_site_fract_z
 _atom_site_occupancy
  Fe  Fe0  1  0.12241498  0.12573811  0.37490314  1
  Fe  Fe1  1  0.62444639  0.62723061  0.62543861  1
  Fe  Fe2  1  0.49988743  -0.00184481  0.50046999  1
  Fe  Fe3  1  0.75145935  0.74918854  0.49679435  1
  Fe  Fe4  1  0.49818650  0.75284905  0.75232923  1
  Fe  Fe5  1  0.75135414  0.00218936  0.75045672  1
  Fe  Fe6  1  0.49925270  -0.00272195  0.24906149  1
  Fe  Fe7  1  0.49878924  0.75133194  0.49719095  1
  Fe  Fe8  1  0.37958498  0.62205192  0.36927734  1
  Fe  Fe9  1  0.25131793  0.24671084  0.24800039  1
  Fe  Fe10  1  0.00024912  0.24755777  0.00435514  1
  Fe  Fe11  1  0.87693168  0.87563516  0.87456944  1
  Fe  Fe12  1  0.75099700  0.50083029  0.75029350  1
  Fe  Fe13  1  0.12590638  0.37404439  0.37377094  1
  Fe  Fe14  1  0.37517066  0.12653918  0.62490011  1
  Fe  Fe15  1  0.62558227  0.87689945  0.87345972  1
  Fe  Fe16  1  0.87748869  0.62443194  0.87671998  1
  Fe  Fe17  1  0.37282761  0.62549398  0.87577613  1
  Fe  Fe18  1  0.74786564  0.24713654  -0.00302483  1
  Fe  Fe19  1  0.87479554  0.87507570  0.62398051  1
  Fe  Fe20  1  0.00170798  0.74812325  0.75166920  1
  Fe  Fe21  1  -0.00216064  0.75032893  0.49582919  1
  Fe  Fe22  1  0.49923476  0.49838469  0.75082463  1
  Fe  Fe23  1  0.62549489  0.37494361  0.62465067  1
  Fe  Fe24  1  0.74696649  0.50150277  0.25148842  1
  Fe  Fe25  1  -0.00318022  0.00257244  0.24825547  1
  Fe  Fe26  1  0.37666902  0.37838086  0.37041870  1
  Fe  Fe27  1  0.87773066  0.62598763  0.12516150  1
  Fe  Fe28  1  0.12670436  0.37255821  0.12626998  1
  Fe  Fe29  1  0.24932173  0.24960486  0.75221201  1
  Fe  Fe30  1  0.24905569  0.50051565  0.75130892  1
  Fe  Fe31  1  0.25150707  0.00199695  0.24900973  1
  Fe  Fe32  1  0.00002849  0.24784158  0.74477009  1
  Fe  Fe33  1  0.00190727  0.49977995  0.24996622  1
  Fe  Fe34  1  0.25235444  0.50040049  0.49802356  1
  Fe  Fe35  1  0.50284224  0.25127603  0.75463143  1
  Fe  Fe36  1  0.24913163  0.00310104  0.00157890  1
  Fe  Fe37  1  0.25011016  0.74820843  0.25029361  1
  Fe  Fe38  1  0.62877603  0.87546221  0.12627698  1
  Fe  Fe39  1  0.25018935  0.24974093  0.49846934  1
  Fe  Fe40  1  0.87447443  0.62545307  0.62379494  1
  Fe  Fe41  1  0.62346343  0.62819994  0.12624384  1
  Fe  Fe42  1  0.37281617  0.87442052  0.12463100  1
  Fe  Fe43  1  0.49951186  0.75152595  0.00017277  1
  Fe  Fe44  1  0.49787921  0.49699595  0.00307438  1
  Fe  Fe45  1  0.25341894  0.00042434  0.75119035  1
  Fe  Fe46  1  0.12624790  0.62629159  0.62326845  1
  Fe  Fe47  1  0.62548147  0.62363048  0.87535755  1
  Fe  Fe48  1  0.75351808  0.00175336  -0.00057337  1
  Fe  Fe49  1  0.12740054  0.37469279  0.62386811  1
  Fe  Fe50  1  -0.00114210  0.00321719  0.74588289  1
  Fe  Fe51  1  0.37497825  0.37411455  0.62603546  1
  Fe  Fe52  1  0.37743248  0.12320862  0.37474506  1
  Fe  Fe53  1  0.50139690  0.25190242  0.49813729  1
  Fe  Fe54  1  0.87502789  0.37381393  0.37632826  1
  Fe  Fe55  1  0.74553907  0.50112766  0.49764591  1
  Fe  Fe56  1  0.74914029  0.00063713  0.49819377  1
  Fe  Fe57  1  0.25192584  0.74900713  0.49652310  1
  Fe  Fe58  1  0.75157901  0.75036819  -0.00195442  1
  Fe  Fe59  1  0.37832913  0.12717695  0.87890045  1
  Fe  Fe60  1  0.12396684  0.37450669  0.87709382  1
  Fe  Fe61  1  0.75182462  0.50050825  0.00134829  1
  Fe  Fe62  1  0.75233355  0.74917023  0.25303874  1
  Fe  Fe63  1  0.00090796  0.50046160  0.75007203  1
  Fe  Fe64  1  0.62595513  0.87428411  0.62731468  1
  Fe  Fe65  1  0.12646881  0.87423060  0.62456716  1
  Fe  Fe66  1  0.62419131  0.12447799  0.62512110  1
  Fe  Fe67  1  0.62514665  0.12327888  0.12495412  1
  Fe  Fe68  1  0.12222537  0.62608990  0.12312082  1
  Fe  Fe69  1  0.49973605  -0.00199675  0.00098307  1
  Fe  Fe70  1  0.24901574  0.00102069  0.49900533  1
  Fe  Fe71  1  0.25129428  0.49838256  0.00249655  1
  Fe  Fe72  1  0.50079630  0.24989749  0.24859359  1
  Fe  Fe73  1  0.87700989  0.12618384  0.37864324  1
  Fe  Fe74  1  0.62703078  0.37323859  0.12458263  1
  Fe  Fe75  1  0.12219393  0.87581294  0.12609939  1
  Fe  Fe76  1  0.87331667  0.37268269  0.12691221  1
  Fe  Fe77  1  0.12421530  0.87661793  0.87513611  1
  Fe  Fe78  1  0.37506385  0.62558020  0.62574920  1
  Fe  Fe79  1  0.12197366  0.12425326  0.87603648  1
  Fe  Fe80  1  0.12313241  0.87514178  0.37352508  1
  Fe  Fe81  1  0.87568240  0.87456124  0.12638412  1
  Fe  Fe82  1  0.87282991  0.37284643  0.62213127  1
  Fe  Fe83  1  0.74794818  0.24674956  0.25442748  1
  Fe  Fe84  1  0.87567047  0.37318770  0.87579689  1
  Fe  Fe85  1  0.62626344  0.87498153  0.37280188  1
  Fe  Fe86  1  0.00145961  0.49886129  0.49895336  1
  Fe  Fe87  1  0.74863624  0.24806837  0.75178838  1
  Fe  Fe88  1  0.24844176  0.75068689  -0.00077867  1
  Fe  Fe89  1  0.37278521  0.87466349  0.62526189  1
  Co  Co90  1  0.12435158  0.12394779  0.12680406  1
  Co  Co91  1  0.50268394  0.49733430  0.24307224  1
  Co  Co92  1  0.87654564  0.87875294  0.37459185  1
  Co  Co93  1  0.00307088  0.24972365  0.50329339  1
  Co  Co94  1  -0.00129749  0.49685252  0.00259555  1
  Co  Co95  1  0.37264901  0.37166980  0.12604481  1
  Co  Co96  1  0.12541036  0.62295970  0.87806505  1
  Co  Co97  1  0.37323202  0.37358951  0.87632827  1
  Co  Co98  1  -0.00154100  0.74849623  0.25195202  1
  Co  Co99  1  0.62321010  0.12044886  0.87595427  1
  Co  Co100  1  0.12505385  0.62549620  0.37615242  1
  Co  Co101  1  0.50351007  0.25367398  -0.00056899  1
  Co  Co102  1  0.24771748  0.24727117  0.00157804  1
  Co  Co103  1  0.74545764  0.24961505  0.49661719  1
  Co  Co104  1  0.75134056  0.74960056  0.75204828  1
  Co  Co105  1  0.37364092  0.87496915  0.87778958  1
  Co  Co106  1  -0.00004298  0.75214474  -0.00108479  1
  Co  Co107  1  0.37827688  0.12532397  0.12308690  1
  Co  Co108  1  0.62102163  0.12178791  0.37453769  1
  Co  Co109  1  0.62065556  0.62608341  0.37284561  1
  Co  Co110  1  0.49685318  -0.00121542  0.74940634  1
  Co  Co111  1  0.37622460  0.62714200  0.12648811  1
  Co  Co112  1  -0.00079616  0.24997703  0.24909811  1
  Co  Co113  1  0.24917816  0.75050556  0.75168179  1
  Co  Co114  1  0.62756499  0.37945181  0.87612558  1
  Co  Co115  1  0.87218689  0.12720144  0.12514712  1
  Co  Co116  1  -0.00199797  0.00127246  0.00315957  1
  Co  Co117  1  0.87544761  0.62060528  0.37458017  1
  Co  Co118  1  0.62261366  0.37702388  0.37360969  1
  Co  Co119  1  0.24736775  0.50200352  0.24704441  1
  Co  Co120  1  0.49929398  0.75536795  0.24927729  1
  Co  Co121  1  0.87144923  0.12618369  0.62079067  1
  Co  Co122  1  0.12981009  0.12436172  0.62520045  1
  Co  Co123  1  0.37274255  0.87680478  0.37394431  1
  Co  Co124  1  0.00210672  0.00136330  0.50200504  1
  Co  Co125  1  0.50059548  0.49901495  0.50164531  1
  Co  Co126  1  0.87771409  0.12702880  0.87512746  1
  Co  Co127  1  0.75186367  0.00269557  0.25150776  1
