# generated using pymatgen
data_Fe45Co19
_symmetry_space_group_name_H-M   'P 1'
_cell_length_a   11.41360764
_cell_length_b   11.41417457
_cell_length_c   11.41444066
_cell_angle_alpha   89.99555125
_cell_angle_beta   90.00472766
_cell_angle_gamma   89.99087570
_symmetry_Int_Tables_number   1
_chemical_formula_structural   Fe45Co19
_chemical_formula_sum   'Fe90 Co38'
_cell_volume   1487.03803147
_cell_formula_units_Z   2
loop_
 _symmetry_equiv_pos_site_id
 _symmetry_equiv_pos_as_xyz
  1  'x, y, z'
loop_
 _atom_site_type_symbol
 _atom_site_label
 _atom_site_symmetry_multiplicity
 _atom_site_fract_x
 _atom_site_fract_y
 _atom_site_fract_z
 _atom_site_occupancy
  Fe  Fe0  1  -0.00254711  -0.00306557  -0.00088152  1
  Fe  Fe1  1  -0.00146681  0.75036826  0.50162124  1
  Fe  Fe2  1  -0.00107367  0.75061813  0.00076803  1
  Fe  Fe3  1  0.12901597  0.62336597  0.62251277  1
  Fe  Fe4  1  0.37640527  0.87368389  0.87203815  1
  Fe  Fe5  1  0.62471668  0.87558506  0.62778406  1
  Fe  Fe6  1  0.75112730  0.74926086  0.74985929  1
  Fe  Fe7  1  0.49764480  0.74708353  0.74529630  1
  Fe  Fe8  1  0.50100689  0.75267229  0.00145400  1
  Fe  Fe9  1  0.62244715  0.37372719  0.87322503  1
  Fe  Fe10  1  0.49983021  0.50012391  0.00018461  1
  Fe  Fe11  1  0.25135202  0.00066449  0.25091632  1
  Fe  Fe12  1  0.37525316  0.12335126  0.37785770  1
  Fe  Fe13  1  0.00042918  0.50249763  0.74936240  1
  Fe  Fe14  1  0.50066817  0.50143545  0.24924105  1
  Fe  Fe15  1  0.49854123  0.24894562  0.50276311  1
  Fe  Fe16  1  0.25447915  -0.00271146  0.00089734  1
  Fe  Fe17  1  0.12586969  0.12404048  0.87794791  1
  Fe  Fe18  1  0.74960074  0.49769593  -0.00106303  1
  Fe  Fe19  1  0.87920933  0.37179740  0.37173959  1
  Fe  Fe20  1  0.75175364  0.00214326  0.75432239  1
  Fe  Fe21  1  0.75110438  0.25292918  0.49833050  1
  Fe  Fe22  1  0.50047012  0.24969610  -0.00027903  1
  Fe  Fe23  1  -0.00234072  0.00248813  0.24959877  1
  Fe  Fe24  1  0.37546336  0.12660635  0.87688448  1
  Fe  Fe25  1  0.00198988  0.74732785  0.74768030  1
  Fe  Fe26  1  0.24811278  0.24792484  0.24544465  1
  Fe  Fe27  1  0.62739963  0.62641618  0.12327177  1
  Fe  Fe28  1  0.25057355  0.24859503  0.74968043  1
  Fe  Fe29  1  0.00009483  0.49816477  0.50156477  1
  Fe  Fe30  1  0.24939456  0.50063377  0.24986300  1
  Fe  Fe31  1  0.37220951  0.88118989  0.62238152  1
  Fe  Fe32  1  0.74938376  0.49792100  0.25270592  1
  Fe  Fe33  1  0.12127277  0.37407327  0.37040474  1
  Fe  Fe34  1  0.37677782  0.37473929  0.87385122  1
  Fe  Fe35  1  0.74970929  -0.00190818  0.50035832  1
  Fe  Fe36  1  0.62521103  0.12108556  0.11928324  1
  Fe  Fe37  1  0.75014503  -0.00874160  -0.00489501  1
  Fe  Fe38  1  0.12554207  0.87380089  0.87555999  1
  Fe  Fe39  1  0.00007217  0.00196466  0.49944269  1
  Fe  Fe40  1  0.12394997  0.87533973  0.37427649  1
  Fe  Fe41  1  0.12222138  0.12710217  0.37320792  1
  Fe  Fe42  1  -0.00067999  0.00242790  0.75193547  1
  Fe  Fe43  1  0.25396136  0.75202236  0.49580822  1
  Fe  Fe44  1  0.87790823  0.37262059  0.62726887  1
  Fe  Fe45  1  0.12716623  0.87774742  0.62447019  1
  Fe  Fe46  1  0.87489830  0.62694127  0.87561558  1
  Fe  Fe47  1  0.49852095  0.50002720  0.49998266  1
  Fe  Fe48  1  0.62516439  0.62714690  0.87630596  1
  Fe  Fe49  1  0.24775271  0.25207849  0.50129187  1
  Fe  Fe50  1  0.37538255  0.62633629  0.87492377  1
  Fe  Fe51  1  0.37365350  0.37297201  0.12445153  1
  Fe  Fe52  1  0.74786519  0.75216509  0.25003955  1
  Fe  Fe53  1  0.25048544  0.50011119  -0.00073446  1
  Fe  Fe54  1  0.62582380  0.12588313  0.37708246  1
  Fe  Fe55  1  0.62343194  0.37458779  0.62669980  1
  Fe  Fe56  1  0.00392205  0.25035395  0.00422068  1
  Fe  Fe57  1  0.37414856  0.62768849  0.12721010  1
  Fe  Fe58  1  0.74976674  0.24930898  0.24889492  1
  Fe  Fe59  1  0.12539395  0.87508810  0.12597544  1
  Fe  Fe60  1  0.87718853  0.37650753  0.12691172  1
  Fe  Fe61  1  0.62088507  0.87698690  0.37355738  1
  Fe  Fe62  1  0.12622707  0.12502322  0.62581227  1
  Fe  Fe63  1  0.87655198  0.37186957  0.87581960  1
  Fe  Fe64  1  0.49943218  0.00437960  0.74969167  1
  Fe  Fe65  1  0.62593686  0.12607296  0.62508610  1
  Fe  Fe66  1  0.75030460  0.24750384  0.75385923  1
  Fe  Fe67  1  0.62866546  0.62395132  0.62121974  1
  Fe  Fe68  1  0.87178401  0.62632073  0.12410363  1
  Fe  Fe69  1  0.24979478  0.75013963  0.74953789  1
  Fe  Fe70  1  0.74969192  -0.00025877  0.25039251  1
  Fe  Fe71  1  0.62705361  0.62325902  0.37860746  1
  Fe  Fe72  1  0.37890276  0.87368828  0.13172017  1
  Fe  Fe73  1  0.12759385  0.62630606  0.12353090  1
  Fe  Fe74  1  0.37621551  0.37460982  0.37286008  1
  Fe  Fe75  1  0.75002893  0.50011959  0.74995792  1
  Fe  Fe76  1  0.49702877  0.75070070  0.49882118  1
  Fe  Fe77  1  0.87553583  0.12637544  0.62367914  1
  Fe  Fe78  1  0.12725210  0.62398566  0.37695998  1
  Fe  Fe79  1  0.24989844  0.50178436  0.75120114  1
  Fe  Fe80  1  0.87568723  0.87517971  0.62687611  1
  Fe  Fe81  1  0.00003604  0.74778461  0.25036818  1
  Fe  Fe82  1  0.50102164  0.24614681  0.24837548  1
  Fe  Fe83  1  0.37537244  0.37697678  0.62755748  1
  Fe  Fe84  1  0.87190446  0.62532129  0.37944112  1
  Fe  Fe85  1  0.12500423  0.37490555  0.87420363  1
  Fe  Fe86  1  0.87554850  0.87565754  0.37455479  1
  Fe  Fe87  1  0.00131022  0.50109820  0.00019105  1
  Fe  Fe88  1  0.87246963  0.12303647  0.12131059  1
  Fe  Fe89  1  0.62368541  0.37498736  0.12617395  1
  Co  Co90  1  0.12471667  0.37856046  0.12764372  1
  Co  Co91  1  0.49992449  0.00621475  0.24972044  1
  Co  Co92  1  0.87799820  0.87101078  0.87039256  1
  Co  Co93  1  0.75195662  0.49241232  0.49972008  1
  Co  Co94  1  0.24725003  0.25109913  0.00054868  1
  Co  Co95  1  0.87567831  0.87396420  0.12788993  1
  Co  Co96  1  0.49891330  0.24600438  0.74919726  1
  Co  Co97  1  0.12473188  0.37524501  0.62838120  1
  Co  Co98  1  0.24954506  0.49500919  0.49777224  1
  Co  Co99  1  0.74823223  0.25362430  0.00135057  1
  Co  Co100  1  0.24972488  0.00108717  0.75331516  1
  Co  Co101  1  0.37414366  0.62235715  0.37353314  1
  Co  Co102  1  -0.00047711  0.24484668  0.24338485  1
  Co  Co103  1  0.62170381  0.87686378  0.12673188  1
  Co  Co104  1  0.50283683  0.74634427  0.25317669  1
  Co  Co105  1  0.37481419  0.12651718  0.12266353  1
  Co  Co106  1  0.37152751  0.12194013  0.62247115  1
  Co  Co107  1  -0.00026945  0.50614832  0.25051128  1
  Co  Co108  1  0.62476135  0.12417458  0.87892526  1
  Co  Co109  1  0.00211058  0.24965954  0.50113746  1
  Co  Co110  1  0.00120325  0.24641731  0.75198315  1
  Co  Co111  1  0.24592830  0.00154046  0.49563027  1
  Co  Co112  1  0.12640264  0.11937153  0.12285442  1
  Co  Co113  1  0.74938945  0.75562100  -0.00069985  1
  Co  Co114  1  0.62129397  0.87366389  0.87063682  1
  Co  Co115  1  0.49610668  -0.00289421  -0.00152473  1
  Co  Co116  1  0.87395278  0.12642715  0.37615696  1
  Co  Co117  1  0.87200402  0.62502917  0.62226906  1
  Co  Co118  1  0.62118475  0.37377991  0.37455283  1
  Co  Co119  1  0.74938162  0.75617178  0.49985410  1
  Co  Co120  1  0.50281441  0.00056004  0.50193487  1
  Co  Co121  1  0.50187600  0.50365525  0.74957792  1
  Co  Co122  1  0.37846855  0.87951625  0.37350264  1
  Co  Co123  1  0.12633487  0.62713308  0.87656639  1
  Co  Co124  1  0.25273546  0.75314153  0.00097096  1
  Co  Co125  1  0.37128201  0.62188324  0.62319811  1
  Co  Co126  1  0.24918526  0.75145151  0.25324934  1
  Co  Co127  1  0.87503474  0.12788842  0.88053149  1
