# generated using pymatgen
data_Fe45Co19
_symmetry_space_group_name_H-M   'P 1'
_cell_length_a   11.41636708
_cell_length_b   11.41520459
_cell_length_c   11.41529503
_cell_angle_alpha   90.00350888
_cell_angle_beta   90.00418179
_cell_angle_gamma   90.00489013
_symmetry_Int_Tables_number   1
_chemical_formula_structural   Fe45Co19
_chemical_formula_sum   'Fe90 Co38'
_cell_volume   1487.64312950
_cell_formula_units_Z   2
loop_
 _symmetry_equiv_pos_site_id
 _symmetry_equiv_pos_as_xyz
  1  'x, y, z'
loop_
 _atom_site_type_symbol
 _atom_site_label
 _atom_site_symmetry_multiplicity
 _atom_site_fract_x
 _atom_site_fract_y
 _atom_site_fract_z
 _atom_site_occupancy
  Fe  Fe0  1  0.12616752  0.12164978  0.62414914  1
  Fe  Fe1  1  0.87473879  0.12928098  0.87873616  1
  Fe  Fe2  1  0.25287592  0.50173953  0.25360611  1
  Fe  Fe3  1  0.24742191  0.49756397  0.49672107  1
  Fe  Fe4  1  0.00207459  0.49625824  0.00074750  1
  Fe  Fe5  1  0.12700075  0.37478279  0.12803543  1
  Fe  Fe6  1  0.74895650  0.74997286  0.50139356  1
  Fe  Fe7  1  0.37458011  0.62762512  0.87662939  1
  Fe  Fe8  1  0.37438599  0.37290484  0.87602839  1
  Fe  Fe9  1  0.62686512  0.12537855  0.12466753  1
  Fe  Fe10  1  0.00054761  -0.00140735  0.49997894  1
  Fe  Fe11  1  0.87701793  0.37193325  0.87549749  1
  Fe  Fe12  1  0.37446916  0.87233261  0.37390617  1
  Fe  Fe13  1  0.74938841  0.00037725  0.49991956  1
  Fe  Fe14  1  0.50030675  0.24955939  0.74801881  1
  Fe  Fe15  1  0.87421206  0.37171508  0.12335975  1
  Fe  Fe16  1  0.62391383  0.62343847  0.87383173  1
  Fe  Fe17  1  0.12184293  0.87884016  0.87255556  1
  Fe  Fe18  1  0.37318171  0.12421436  0.62290063  1
  Fe  Fe19  1  0.49581335  0.50335842  0.25076927  1
  Fe  Fe20  1  0.24581044  0.75147356  0.49809016  1
  Fe  Fe21  1  0.12348267  0.62398987  0.87486722  1
  Fe  Fe22  1  0.37375217  0.37334103  0.12649151  1
  Fe  Fe23  1  0.62845534  0.87388883  0.37224857  1
  Fe  Fe24  1  0.00014879  0.75213173  0.50058005  1
  Fe  Fe25  1  0.62507418  0.12408707  0.87534278  1
  Fe  Fe26  1  0.87413595  0.12901124  0.37822019  1
  Fe  Fe27  1  0.74766823  0.25041371  0.74859579  1
  Fe  Fe28  1  0.24996572  0.50018327  -0.00084629  1
  Fe  Fe29  1  -0.00458242  0.74575213  0.24910884  1
  Fe  Fe30  1  0.62929780  0.87360359  0.12946962  1
  Fe  Fe31  1  0.50251468  0.25061893  0.00077125  1
  Fe  Fe32  1  -0.00596521  -0.00118302  0.00220147  1
  Fe  Fe33  1  0.25155658  0.49966726  0.75110906  1
  Fe  Fe34  1  0.50049231  0.25016972  0.25002572  1
  Fe  Fe35  1  0.11904889  0.62091032  0.37540162  1
  Fe  Fe36  1  0.74991392  0.49817073  -0.00163948  1
  Fe  Fe37  1  0.12332947  0.87515644  0.37192763  1
  Fe  Fe38  1  0.24788774  0.75147375  0.74906035  1
  Fe  Fe39  1  0.50378126  0.74966864  0.50239896  1
  Fe  Fe40  1  0.49935361  0.00080664  0.74907350  1
  Fe  Fe41  1  -0.00031176  0.49710682  0.74872066  1
  Fe  Fe42  1  0.62686170  0.87512675  0.87307623  1
  Fe  Fe43  1  0.37384547  0.37514467  0.62382006  1
  Fe  Fe44  1  0.50016216  0.74512691  0.24952130  1
  Fe  Fe45  1  0.75668010  0.50436640  0.24975593  1
  Fe  Fe46  1  0.75229065  -0.00080352  0.00244479  1
  Fe  Fe47  1  0.62737891  0.62306780  0.37601346  1
  Fe  Fe48  1  0.25101668  0.00313017  0.25099863  1
  Fe  Fe49  1  0.12363428  0.12245598  0.87714645  1
  Fe  Fe50  1  0.75029077  0.24902769  0.25192768  1
  Fe  Fe51  1  0.12361403  0.62312696  0.62437221  1
  Fe  Fe52  1  0.24935161  0.24815788  0.75173369  1
  Fe  Fe53  1  0.62316929  0.37816154  0.87060762  1
  Fe  Fe54  1  0.87498546  0.62180716  0.62237284  1
  Fe  Fe55  1  0.74985601  0.74990732  0.00148400  1
  Fe  Fe56  1  0.25323111  0.00092327  0.00064362  1
  Fe  Fe57  1  0.50087475  0.49715882  0.49862457  1
  Fe  Fe58  1  0.50564486  0.25415567  0.50137740  1
  Fe  Fe59  1  0.62629450  0.12569751  0.37728952  1
  Fe  Fe60  1  -0.00557393  0.00342439  0.24837331  1
  Fe  Fe61  1  0.00110566  0.24835909  0.24680381  1
  Fe  Fe62  1  0.50175403  0.74872900  0.00289428  1
  Fe  Fe63  1  0.49990313  0.00013730  0.00147342  1
  Fe  Fe64  1  0.12409138  0.12557576  0.37478866  1
  Fe  Fe65  1  0.75281874  0.00174918  0.74921141  1
  Fe  Fe66  1  0.24653128  0.75168884  0.00022626  1
  Fe  Fe67  1  0.12368092  0.87619712  0.12818937  1
  Fe  Fe68  1  0.87412053  0.12924148  0.62190919  1
  Fe  Fe69  1  0.00012304  0.75137911  0.74936482  1
  Fe  Fe70  1  0.37392818  0.62454436  0.62164553  1
  Fe  Fe71  1  0.87845212  0.62644717  0.87858247  1
  Fe  Fe72  1  0.62591778  0.37864483  0.12838441  1
  Fe  Fe73  1  0.00331083  0.25012261  0.75013784  1
  Fe  Fe74  1  0.74952338  0.74728946  0.74792140  1
  Fe  Fe75  1  0.87527981  0.87599751  0.62612434  1
  Fe  Fe76  1  0.24868282  0.24700912  0.00152076  1
  Fe  Fe77  1  0.50244066  0.74778797  0.74588601  1
  Fe  Fe78  1  0.24728668  0.25268660  0.49610469  1
  Fe  Fe79  1  0.37195035  0.87641510  0.62386115  1
  Fe  Fe80  1  0.87198598  0.87430259  0.37186226  1
  Fe  Fe81  1  0.37646687  0.87394544  0.87434288  1
  Fe  Fe82  1  0.49840034  0.50080883  0.00045618  1
  Fe  Fe83  1  0.00225659  0.25671093  0.50084436  1
  Fe  Fe84  1  0.50103464  0.00081643  0.25020339  1
  Fe  Fe85  1  0.37382001  0.87270431  0.12741492  1
  Fe  Fe86  1  0.50069936  -0.00115912  0.49988068  1
  Fe  Fe87  1  0.12467290  0.62510396  0.12524490  1
  Fe  Fe88  1  0.37585304  0.12740551  0.37539908  1
  Fe  Fe89  1  0.75315113  0.49233880  0.49877502  1
  Co  Co90  1  0.74611509  0.25647974  0.49935436  1
  Co  Co91  1  0.12649180  0.37493649  0.87441207  1
  Co  Co92  1  0.00450382  0.25164970  0.00125102  1
  Co  Co93  1  0.62688739  0.87805895  0.62648663  1
  Co  Co94  1  0.37670305  0.12623023  0.12589340  1
  Co  Co95  1  0.37693888  0.12575182  0.87590936  1
  Co  Co96  1  0.24842987  0.24781804  0.25121614  1
  Co  Co97  1  0.75546277  0.50150559  0.75399750  1
  Co  Co98  1  0.62730053  0.61749280  0.62439613  1
  Co  Co99  1  -0.00034313  0.49304875  0.50408324  1
  Co  Co100  1  0.12095289  0.37753079  0.36961938  1
  Co  Co101  1  0.12441120  0.87857535  0.62623541  1
  Co  Co102  1  0.87357868  0.37233149  0.62820337  1
  Co  Co103  1  0.12808057  0.37529682  0.62731217  1
  Co  Co104  1  0.49417599  0.50216104  0.75078701  1
  Co  Co105  1  0.87252033  0.13065340  0.12124139  1
  Co  Co106  1  0.25107829  0.00085163  0.75150332  1
  Co  Co107  1  0.12418282  0.12187583  0.12363952  1
  Co  Co108  1  0.74426599  0.25393995  -0.00121835  1
  Co  Co109  1  0.62578831  0.37790330  0.36931987  1
  Co  Co110  1  0.24847351  0.74676258  0.25208925  1
  Co  Co111  1  0.87257266  0.87227384  0.12922872  1
  Co  Co112  1  0.24880915  -0.00122448  0.49556886  1
  Co  Co113  1  0.62602168  0.62193074  0.12487617  1
  Co  Co114  1  0.87945166  0.37366029  0.37182578  1
  Co  Co115  1  0.75215615  0.00521829  0.25032742  1
  Co  Co116  1  0.87708204  0.62651075  0.11681805  1
  Co  Co117  1  0.87391290  0.87268688  0.87348549  1
  Co  Co118  1  0.75338788  0.74196232  0.25050890  1
  Co  Co119  1  0.62605130  0.38103937  0.63057458  1
  Co  Co120  1  0.37574136  0.37232699  0.37458909  1
  Co  Co121  1  0.00289486  0.75428363  0.00050251  1
  Co  Co122  1  0.37200881  0.62648219  0.12270629  1
  Co  Co123  1  -0.00486987  0.50175046  0.24540114  1
  Co  Co124  1  0.87766072  0.62239380  0.38161287  1
  Co  Co125  1  0.37557906  0.62706190  0.37929641  1
  Co  Co126  1  -0.00403996  0.00267357  0.74940914  1
  Co  Co127  1  0.62615907  0.12401190  0.62382827  1
