# generated using pymatgen
data_Fe45Co19
_symmetry_space_group_name_H-M   'P 1'
_cell_length_a   11.41654503
_cell_length_b   11.41469560
_cell_length_c   11.41649970
_cell_angle_alpha   89.99935633
_cell_angle_beta   89.99626114
_cell_angle_gamma   90.00110230
_symmetry_Int_Tables_number   1
_chemical_formula_structural   Fe45Co19
_chemical_formula_sum   'Fe90 Co38'
_cell_volume   1487.75698212
_cell_formula_units_Z   2
loop_
 _symmetry_equiv_pos_site_id
 _symmetry_equiv_pos_as_xyz
  1  'x, y, z'
loop_
 _atom_site_type_symbol
 _atom_site_label
 _atom_site_symmetry_multiplicity
 _atom_site_fract_x
 _atom_site_fract_y
 _atom_site_fract_z
 _atom_site_occupancy
  Fe  Fe0  1  0.62677787  0.62418280  0.12755862  1
  Fe  Fe1  1  0.37235274  0.12593113  0.12545476  1
  Fe  Fe2  1  0.25122874  0.50105350  0.49959585  1
  Fe  Fe3  1  0.50065323  0.74885067  0.00111974  1
  Fe  Fe4  1  0.49865592  0.74787468  0.49930110  1
  Fe  Fe5  1  0.37449794  0.62406628  0.12675514  1
  Fe  Fe6  1  0.00279393  0.25029818  -0.00425260  1
  Fe  Fe7  1  0.75273831  -0.00257257  0.24933620  1
  Fe  Fe8  1  0.37477452  0.12506909  0.37617973  1
  Fe  Fe9  1  0.37359930  0.37288807  0.37571037  1
  Fe  Fe10  1  0.87659131  0.62861715  0.87392166  1
  Fe  Fe11  1  0.62499660  0.62127302  0.37469250  1
  Fe  Fe12  1  0.74894450  0.25368004  0.24956621  1
  Fe  Fe13  1  0.25054720  0.75049129  0.74568974  1
  Fe  Fe14  1  0.62585356  0.12626254  0.37403020  1
  Fe  Fe15  1  0.87349526  0.37500440  0.87420279  1
  Fe  Fe16  1  0.12625275  0.87806306  0.12354412  1
  Fe  Fe17  1  0.11976567  0.12492493  0.63020164  1
  Fe  Fe18  1  0.87448025  0.87091801  0.87670932  1
  Fe  Fe19  1  0.75244369  0.00004391  0.00001154  1
  Fe  Fe20  1  0.24930360  0.74962771  0.00163832  1
  Fe  Fe21  1  0.87707033  0.12583352  0.12617903  1
  Fe  Fe22  1  0.37749485  0.87953201  0.62167700  1
  Fe  Fe23  1  0.37399192  0.87380319  0.87590181  1
  Fe  Fe24  1  0.75100944  0.50138872  -0.00009541  1
  Fe  Fe25  1  0.12491633  0.12437661  0.12421146  1
  Fe  Fe26  1  0.24887030  0.24646969  0.50379944  1
  Fe  Fe27  1  0.87272675  0.37665919  0.62332525  1
  Fe  Fe28  1  0.87533451  0.87373268  0.62288970  1
  Fe  Fe29  1  0.49963970  0.75173788  0.25069312  1
  Fe  Fe30  1  0.00305391  0.75036898  0.74757157  1
  Fe  Fe31  1  0.74708152  0.25242968  0.74819556  1
  Fe  Fe32  1  -0.00094758  -0.00073664  -0.00199381  1
  Fe  Fe33  1  0.37042320  0.87787696  0.37769618  1
  Fe  Fe34  1  0.75122334  0.00164649  0.49917922  1
  Fe  Fe35  1  0.25138403  0.00249898  0.74771619  1
  Fe  Fe36  1  0.87613108  0.12404586  0.62799206  1
  Fe  Fe37  1  0.00087510  0.49878411  0.25079831  1
  Fe  Fe38  1  0.12389126  0.87563983  0.61871063  1
  Fe  Fe39  1  0.00000537  0.50114256  -0.00007174  1
  Fe  Fe40  1  -0.00077607  0.50312402  0.50084554  1
  Fe  Fe41  1  0.87484101  0.63122985  0.12639466  1
  Fe  Fe42  1  0.87765643  0.87172754  0.37701018  1
  Fe  Fe43  1  0.62450014  0.87482132  0.87567502  1
  Fe  Fe44  1  0.37845098  0.37092162  0.87410268  1
  Fe  Fe45  1  0.62582699  0.87538919  0.37661258  1
  Fe  Fe46  1  0.12524498  0.37637165  0.62551980  1
  Fe  Fe47  1  0.00197908  0.25267005  0.25199457  1
  Fe  Fe48  1  0.24677689  0.49631600  0.25060667  1
  Fe  Fe49  1  0.24835277  0.75294539  0.25017920  1
  Fe  Fe50  1  0.50162813  0.25353412  0.24815756  1
  Fe  Fe51  1  -0.00087592  0.24899075  0.50110040  1
  Fe  Fe52  1  0.87544260  0.62756724  0.37194188  1
  Fe  Fe53  1  0.62257169  0.12687204  0.87468776  1
  Fe  Fe54  1  0.50303724  0.25100440  0.50136008  1
  Fe  Fe55  1  0.37669140  0.62334252  0.62537487  1
  Fe  Fe56  1  0.24655953  0.25252398  0.25008772  1
  Fe  Fe57  1  0.87660522  0.37406812  0.12438794  1
  Fe  Fe58  1  0.74746254  0.74703903  0.74819431  1
  Fe  Fe59  1  0.25263486  0.49836066  0.75099557  1
  Fe  Fe60  1  0.62573559  0.12491765  0.12540676  1
  Fe  Fe61  1  0.37435895  0.62648524  0.87539438  1
  Fe  Fe62  1  0.50126026  0.49434675  0.24998519  1
  Fe  Fe63  1  0.62597375  0.38359872  0.62294757  1
  Fe  Fe64  1  0.24646655  0.25042705  -0.00367279  1
  Fe  Fe65  1  0.87748700  0.12556754  0.87079044  1
  Fe  Fe66  1  0.49964284  0.74969176  0.74905192  1
  Fe  Fe67  1  0.49771054  -0.00089505  0.25006257  1
  Fe  Fe68  1  -0.00017056  -0.00320629  0.25204916  1
  Fe  Fe69  1  0.62337022  0.87589054  0.62386027  1
  Fe  Fe70  1  0.37503897  0.37342967  0.62511557  1
  Fe  Fe71  1  0.12572088  0.62802469  0.37781766  1
  Fe  Fe72  1  0.62245357  0.12009136  0.62588834  1
  Fe  Fe73  1  0.62359531  0.62221264  0.87247995  1
  Fe  Fe74  1  0.62615428  0.87495689  0.12428515  1
  Fe  Fe75  1  0.75028414  -0.00176792  0.75127199  1
  Fe  Fe76  1  0.49915188  0.49727537  0.00125680  1
  Fe  Fe77  1  0.87224958  0.37439341  0.37838069  1
  Fe  Fe78  1  0.12530630  0.12351523  0.37483555  1
  Fe  Fe79  1  0.74979494  0.24915396  -0.00059599  1
  Fe  Fe80  1  0.74892678  0.74499375  0.50188710  1
  Fe  Fe81  1  0.37377493  0.62429768  0.37277097  1
  Fe  Fe82  1  0.87285987  0.12733881  0.37500680  1
  Fe  Fe83  1  0.12765513  0.87670229  0.87510157  1
  Fe  Fe84  1  0.49690258  0.00050085  -0.00003969  1
  Fe  Fe85  1  0.12517515  0.62377075  0.12500259  1
  Fe  Fe86  1  0.25003892  0.49708898  -0.00074744  1
  Fe  Fe87  1  0.37716287  0.12825083  0.87080673  1
  Fe  Fe88  1  0.12636652  0.62417113  0.87268486  1
  Fe  Fe89  1  -0.00122297  0.49987088  0.74923825  1
  Co  Co90  1  0.38046792  0.12453967  0.62661723  1
  Co  Co91  1  0.25367776  0.74751620  0.50206543  1
  Co  Co92  1  0.25221552  0.00274462  -0.00253502  1
  Co  Co93  1  0.75137876  0.50111467  0.75190072  1
  Co  Co94  1  0.49559461  0.49994039  0.49723276  1
  Co  Co95  1  0.12471029  0.37476581  0.37990778  1
  Co  Co96  1  0.12407601  0.37807460  0.87272395  1
  Co  Co97  1  0.62857666  0.37634887  0.37849316  1
  Co  Co98  1  0.12223073  0.12299536  0.87062914  1
  Co  Co99  1  0.24871301  0.24901351  0.74982035  1
  Co  Co100  1  0.74854054  0.75130458  0.25154478  1
  Co  Co101  1  0.87541364  0.62578011  0.62862021  1
  Co  Co102  1  0.24851050  0.00630027  0.50344545  1
  Co  Co103  1  -0.00134615  -0.00589780  0.75059975  1
  Co  Co104  1  0.24958174  -0.00160633  0.25034728  1
  Co  Co105  1  0.49962248  0.25010210  0.00392982  1
  Co  Co106  1  0.49923985  -0.00193193  0.75375767  1
  Co  Co107  1  0.12756201  0.62217658  0.62604809  1
  Co  Co108  1  0.75310961  0.50646428  0.49945155  1
  Co  Co109  1  0.12355075  0.37428951  0.12311039  1
  Co  Co110  1  0.74760808  0.24751885  0.50426106  1
  Co  Co111  1  0.49686225  0.49895138  0.75221230  1
  Co  Co112  1  0.37518883  0.87366460  0.12394324  1
  Co  Co113  1  -0.00161884  0.00368605  0.49831051  1
  Co  Co114  1  0.00455121  0.75282383  0.24920098  1
  Co  Co115  1  0.62075136  0.62113311  0.62523558  1
  Co  Co116  1  0.75253147  0.49810585  0.24923006  1
  Co  Co117  1  0.50528910  0.25308282  0.74522648  1
  Co  Co118  1  0.62458963  0.37506607  0.87667047  1
  Co  Co119  1  -0.00041393  0.74539064  0.50251785  1
  Co  Co120  1  -0.00160550  0.25520700  0.75046955  1
  Co  Co121  1  0.74673840  0.74783193  -0.00110544  1
  Co  Co122  1  0.62799070  0.37469734  0.12211825  1
  Co  Co123  1  0.50088611  0.00134862  0.49596690  1
  Co  Co124  1  0.87407341  0.87113815  0.12272824  1
  Co  Co125  1  0.00481062  0.75005091  -0.00045896  1
  Co  Co126  1  0.37116167  0.37431721  0.12545775  1
  Co  Co127  1  0.12642168  0.87425770  0.38141025  1
