# generated using pymatgen
data_Fe45Co19
_symmetry_space_group_name_H-M   'P 1'
_cell_length_a   11.41433061
_cell_length_b   11.41493816
_cell_length_c   11.41466197
_cell_angle_alpha   89.99475883
_cell_angle_beta   90.01025081
_cell_angle_gamma   90.00101946
_symmetry_Int_Tables_number   1
_chemical_formula_structural   Fe45Co19
_chemical_formula_sum   'Fe90 Co38'
_cell_volume   1487.26054319
_cell_formula_units_Z   2
loop_
 _symmetry_equiv_pos_site_id
 _symmetry_equiv_pos_as_xyz
  1  'x, y, z'
loop_
 _atom_site_type_symbol
 _atom_site_label
 _atom_site_symmetry_multiplicity
 _atom_site_fract_x
 _atom_site_fract_y
 _atom_site_fract_z
 _atom_site_occupancy
  Fe  Fe0  1  0.37174809  0.12907293  0.37526664  1
  Fe  Fe1  1  0.75271865  0.74704620  0.00139958  1
  Fe  Fe2  1  0.87578692  0.12613783  0.87673107  1
  Fe  Fe3  1  0.87496965  0.37232243  0.37998591  1
  Fe  Fe4  1  0.74810957  0.00075352  0.50082644  1
  Fe  Fe5  1  0.87559465  0.87647074  0.37589792  1
  Fe  Fe6  1  0.75547380  0.50220150  0.74864500  1
  Fe  Fe7  1  0.75047415  -0.00024901  0.00165852  1
  Fe  Fe8  1  0.62537080  0.12578707  0.37429917  1
  Fe  Fe9  1  0.24812373  0.74832815  0.00123653  1
  Fe  Fe10  1  0.24914843  0.25391386  0.74623982  1
  Fe  Fe11  1  0.12334106  0.87232965  0.62176500  1
  Fe  Fe12  1  0.37061800  0.62401026  0.37471923  1
  Fe  Fe13  1  0.75120678  0.74815023  0.24930735  1
  Fe  Fe14  1  0.12565288  0.12755630  0.62467828  1
  Fe  Fe15  1  0.37706023  0.62496597  0.87887903  1
  Fe  Fe16  1  0.49956452  0.25184118  0.25030708  1
  Fe  Fe17  1  0.50084288  0.74803858  0.50057601  1
  Fe  Fe18  1  0.49877084  0.74621054  0.24917734  1
  Fe  Fe19  1  0.74971634  0.74976270  0.50080180  1
  Fe  Fe20  1  0.50263241  0.25092680  0.00018705  1
  Fe  Fe21  1  0.00251636  0.75111424  0.25526962  1
  Fe  Fe22  1  0.62631914  0.87569171  0.62672359  1
  Fe  Fe23  1  0.37423730  0.37532364  0.12435620  1
  Fe  Fe24  1  0.37481320  0.87373863  0.62586369  1
  Fe  Fe25  1  0.37348664  0.12709329  0.12520680  1
  Fe  Fe26  1  0.50064603  0.00011077  0.00014649  1
  Fe  Fe27  1  0.12838411  0.12462040  0.37360224  1
  Fe  Fe28  1  0.50087959  0.50139529  0.49813814  1
  Fe  Fe29  1  0.87315086  0.12895958  0.62083783  1
  Fe  Fe30  1  -0.00052287  0.49834569  0.25428433  1
  Fe  Fe31  1  0.75121308  0.25032370  0.74886721  1
  Fe  Fe32  1  0.37404088  0.87465172  0.87435688  1
  Fe  Fe33  1  0.75194336  0.00126366  0.24975684  1
  Fe  Fe34  1  0.24889573  -0.00072177  -0.00047868  1
  Fe  Fe35  1  0.12269623  0.87361344  0.87368801  1
  Fe  Fe36  1  0.12480116  0.12549180  0.87324227  1
  Fe  Fe37  1  0.50000005  -0.00039107  0.49935223  1
  Fe  Fe38  1  -0.00023769  0.00167448  0.49861569  1
  Fe  Fe39  1  0.37421832  0.37457046  0.87390815  1
  Fe  Fe40  1  0.24623984  0.25174134  -0.00019536  1
  Fe  Fe41  1  0.37272008  0.12565489  0.87377387  1
  Fe  Fe42  1  0.12036762  0.37737063  0.87033772  1
  Fe  Fe43  1  0.24935960  0.74768336  0.74911192  1
  Fe  Fe44  1  0.75192147  0.74653168  0.74821333  1
  Fe  Fe45  1  0.12403166  0.87728699  0.12871460  1
  Fe  Fe46  1  0.62358379  0.62324022  0.12217545  1
  Fe  Fe47  1  -0.00126878  0.74856724  0.00255524  1
  Fe  Fe48  1  0.50147172  0.25018603  0.74945686  1
  Fe  Fe49  1  0.87539671  0.12664704  0.12427710  1
  Fe  Fe50  1  0.37451328  0.62356800  0.62538725  1
  Fe  Fe51  1  0.12719218  0.37330535  0.37722682  1
  Fe  Fe52  1  0.75491246  0.50228297  -0.00041641  1
  Fe  Fe53  1  0.24791884  -0.00218608  0.74864681  1
  Fe  Fe54  1  0.25141642  -0.00098719  0.50051077  1
  Fe  Fe55  1  0.12511157  0.12418108  0.12790558  1
  Fe  Fe56  1  0.87929898  0.37447067  0.87611229  1
  Fe  Fe57  1  0.50010724  0.25214199  0.50048301  1
  Fe  Fe58  1  0.75078834  0.25013522  0.25094406  1
  Fe  Fe59  1  0.75083244  0.50058812  0.25035775  1
  Fe  Fe60  1  0.50069169  0.50177808  0.75260099  1
  Fe  Fe61  1  0.62455804  0.37634474  0.37415814  1
  Fe  Fe62  1  0.12238725  0.62270809  0.12752668  1
  Fe  Fe63  1  0.62710645  0.12492947  0.87526343  1
  Fe  Fe64  1  0.62714022  0.37536954  0.12432879  1
  Fe  Fe65  1  0.37551272  0.12622462  0.62560261  1
  Fe  Fe66  1  0.62802242  0.87452693  0.87372014  1
  Fe  Fe67  1  0.25001482  0.49904534  0.24908064  1
  Fe  Fe68  1  0.87505617  0.87452052  0.87402741  1
  Fe  Fe69  1  0.24758820  0.49666065  0.50526849  1
  Fe  Fe70  1  0.49875141  0.00071689  0.25048833  1
  Fe  Fe71  1  0.24781698  0.50003613  -0.00170581  1
  Fe  Fe72  1  0.12021466  0.62287045  0.87120366  1
  Fe  Fe73  1  0.62503797  0.37677300  0.62593629  1
  Fe  Fe74  1  0.87536527  0.62370692  0.37654012  1
  Fe  Fe75  1  -0.00329274  0.74870113  0.74521086  1
  Fe  Fe76  1  0.50127853  0.00051236  0.75031889  1
  Fe  Fe77  1  0.87735160  0.37452649  0.12374301  1
  Fe  Fe78  1  -0.00065842  0.24897048  0.25265178  1
  Fe  Fe79  1  0.37338533  0.87303601  0.12553428  1
  Fe  Fe80  1  0.49909942  0.50100677  0.24994693  1
  Fe  Fe81  1  0.37171801  0.87179749  0.37461631  1
  Fe  Fe82  1  0.62570229  0.87526660  0.12652860  1
  Fe  Fe83  1  0.62498696  0.87324898  0.37388684  1
  Fe  Fe84  1  0.12214437  0.37532520  0.12472093  1
  Fe  Fe85  1  -0.00047537  -0.00024247  0.00086074  1
  Fe  Fe86  1  0.50248615  0.74814252  0.75100555  1
  Fe  Fe87  1  0.62774624  0.37679483  0.87580992  1
  Fe  Fe88  1  -0.00225575  0.00056680  0.74759805  1
  Fe  Fe89  1  0.74978296  0.49942409  0.50097602  1
  Co  Co90  1  0.62588773  0.12556441  0.12640311  1
  Co  Co91  1  0.87620944  0.62536667  0.61881594  1
  Co  Co92  1  0.62444269  0.12509823  0.62452345  1
  Co  Co93  1  0.62668972  0.62548365  0.37468780  1
  Co  Co94  1  0.87632571  0.87370063  0.12645209  1
  Co  Co95  1  0.75013521  0.25129046  -0.00021300  1
  Co  Co96  1  0.12739122  0.62188263  0.37716349  1
  Co  Co97  1  0.24917521  0.25292576  0.24893816  1
  Co  Co98  1  0.37381940  0.37635435  0.37542825  1
  Co  Co99  1  0.12669505  0.87902325  0.37572745  1
  Co  Co100  1  0.25024924  0.50074037  0.75001319  1
  Co  Co101  1  0.25014500  0.25368087  0.50379911  1
  Co  Co102  1  0.87885538  0.62396877  0.12938540  1
  Co  Co103  1  0.25294850  -0.00106247  0.25077869  1
  Co  Co104  1  0.50120492  0.75306855  0.00032329  1
  Co  Co105  1  0.75301224  0.00270566  0.74845733  1
  Co  Co106  1  0.00341807  0.24880841  0.49779951  1
  Co  Co107  1  0.00108779  0.49920847  0.50016065  1
  Co  Co108  1  0.74475002  0.25151514  0.49974676  1
  Co  Co109  1  0.87246709  0.12620405  0.37764305  1
  Co  Co110  1  -0.00545177  0.50126621  0.74419652  1
  Co  Co111  1  0.11961247  0.37498216  0.62808085  1
  Co  Co112  1  0.37846064  0.37747487  0.62608257  1
  Co  Co113  1  0.24886423  0.74949292  0.50057793  1
  Co  Co114  1  0.12332317  0.62544603  0.62476157  1
  Co  Co115  1  0.37472655  0.62346391  0.12256272  1
  Co  Co116  1  0.62610079  0.62308522  0.62524880  1
  Co  Co117  1  -0.00238971  0.24765056  0.74927797  1
  Co  Co118  1  0.00255876  0.24961671  0.00023235  1
  Co  Co119  1  0.87504102  0.87527516  0.62271249  1
  Co  Co120  1  0.62567584  0.62422742  0.87721685  1
  Co  Co121  1  -0.00109013  0.50142030  0.00008991  1
  Co  Co122  1  0.00114024  0.74963241  0.49572854  1
  Co  Co123  1  -0.00312567  0.00124434  0.25164623  1
  Co  Co124  1  0.50021108  0.49617065  -0.00061330  1
  Co  Co125  1  0.24711944  0.74866743  0.24932726  1
  Co  Co126  1  0.87917198  0.62613740  0.87467439  1
  Co  Co127  1  0.87655633  0.37107319  0.62081304  1
