# generated using pymatgen
data_Fe45Co19
_symmetry_space_group_name_H-M   'P 1'
_cell_length_a   11.41550231
_cell_length_b   11.41548469
_cell_length_c   11.41426478
_cell_angle_alpha   90.00813651
_cell_angle_beta   90.01350879
_cell_angle_gamma   90.00334856
_symmetry_Int_Tables_number   1
_chemical_formula_structural   Fe45Co19
_chemical_formula_sum   'Fe90 Co38'
_cell_volume   1487.43264123
_cell_formula_units_Z   2
loop_
 _symmetry_equiv_pos_site_id
 _symmetry_equiv_pos_as_xyz
  1  'x, y, z'
loop_
 _atom_site_type_symbol
 _atom_site_label
 _atom_site_symmetry_multiplicity
 _atom_site_fract_x
 _atom_site_fract_y
 _atom_site_fract_z
 _atom_site_occupancy
  Fe  Fe0  1  0.37704128  0.12456827  0.87722714  1
  Fe  Fe1  1  0.87459816  0.37958645  0.37698894  1
  Fe  Fe2  1  0.12719215  0.37531278  0.62618632  1
  Fe  Fe3  1  0.12232323  0.37280473  0.87513781  1
  Fe  Fe4  1  -0.00072423  -0.00083695  0.74836889  1
  Fe  Fe5  1  0.12784081  0.87394776  0.62896982  1
  Fe  Fe6  1  0.24659438  0.00394785  0.49745719  1
  Fe  Fe7  1  0.24903618  0.50098641  -0.00304528  1
  Fe  Fe8  1  0.25032701  0.00130729  0.25181740  1
  Fe  Fe9  1  0.50052324  0.24940292  0.74852106  1
  Fe  Fe10  1  0.50261148  0.00223019  0.75048722  1
  Fe  Fe11  1  0.62816957  0.87514963  0.62747541  1
  Fe  Fe12  1  0.50119024  -0.00008957  0.25003145  1
  Fe  Fe13  1  0.62639295  0.87310694  0.87245104  1
  Fe  Fe14  1  0.25193150  0.50070472  0.24961767  1
  Fe  Fe15  1  0.00068525  0.25069854  0.50220109  1
  Fe  Fe16  1  0.37576870  0.87767952  0.37611044  1
  Fe  Fe17  1  0.75280984  0.24888926  0.75107592  1
  Fe  Fe18  1  0.25049317  0.24808602  0.25131974  1
  Fe  Fe19  1  0.24699723  0.50059948  0.50045486  1
  Fe  Fe20  1  0.87178842  0.87000506  0.37294723  1
  Fe  Fe21  1  0.87384833  0.62276515  0.62251639  1
  Fe  Fe22  1  0.24732645  0.24634733  0.49784591  1
  Fe  Fe23  1  0.50136716  0.49720482  0.74896361  1
  Fe  Fe24  1  0.00108253  -0.00137169  0.49875660  1
  Fe  Fe25  1  -0.00452399  -0.00468504  0.24823012  1
  Fe  Fe26  1  0.12509324  0.87183009  0.12588112  1
  Fe  Fe27  1  0.25021044  0.74887928  0.50097853  1
  Fe  Fe28  1  -0.00131574  -0.00333846  0.00191451  1
  Fe  Fe29  1  0.37504749  0.62406243  0.37558910  1
  Fe  Fe30  1  0.12350797  0.37603090  0.12475545  1
  Fe  Fe31  1  0.75043338  0.25106018  0.49947778  1
  Fe  Fe32  1  0.50139530  0.49721927  0.50406570  1
  Fe  Fe33  1  0.00288623  0.74585602  0.49965063  1
  Fe  Fe34  1  0.75017620  0.74660762  -0.00342150  1
  Fe  Fe35  1  0.74616232  0.50427554  0.75044151  1
  Fe  Fe36  1  0.00000913  0.50455663  0.25226212  1
  Fe  Fe37  1  0.87725879  0.37754892  0.87583145  1
  Fe  Fe38  1  0.62468216  0.37671933  0.12474971  1
  Fe  Fe39  1  -0.00486754  0.25156191  0.24570040  1
  Fe  Fe40  1  0.62841457  0.12415840  0.62603410  1
  Fe  Fe41  1  0.49994518  0.75059124  0.74925533  1
  Fe  Fe42  1  0.87281274  0.37801105  0.62412308  1
  Fe  Fe43  1  0.37310432  0.62223600  0.62765396  1
  Fe  Fe44  1  0.62512827  0.12494307  0.37397639  1
  Fe  Fe45  1  0.75006084  0.50256609  -0.00232497  1
  Fe  Fe46  1  0.12319104  0.37506709  0.37366074  1
  Fe  Fe47  1  0.62491160  0.87413224  0.37463783  1
  Fe  Fe48  1  0.87772547  0.12628600  0.87564710  1
  Fe  Fe49  1  0.00176194  0.50042889  0.74717089  1
  Fe  Fe50  1  0.37474828  0.87635338  0.12286027  1
  Fe  Fe51  1  0.12234872  0.12411573  0.12593645  1
  Fe  Fe52  1  0.87237416  0.87432168  0.62513681  1
  Fe  Fe53  1  0.62294549  0.62450528  0.37789922  1
  Fe  Fe54  1  0.37482278  0.37264264  0.87509792  1
  Fe  Fe55  1  0.49810247  0.75193046  0.50254326  1
  Fe  Fe56  1  0.87563001  0.12544335  0.37337361  1
  Fe  Fe57  1  0.62974852  0.87457263  0.12594943  1
  Fe  Fe58  1  0.24732013  -0.00241822  -0.00496201  1
  Fe  Fe59  1  0.50377274  0.00015173  -0.00056520  1
  Fe  Fe60  1  0.49918322  0.74944986  0.24868381  1
  Fe  Fe61  1  0.24931220  0.24767804  0.74917941  1
  Fe  Fe62  1  0.37663152  0.62545326  0.12146261  1
  Fe  Fe63  1  0.37556139  0.37595756  0.12346090  1
  Fe  Fe64  1  0.37374305  0.12296092  0.62324449  1
  Fe  Fe65  1  0.12657126  0.87205816  0.37264826  1
  Fe  Fe66  1  0.12060383  0.12661049  0.87415450  1
  Fe  Fe67  1  0.74817846  0.74785685  0.50082234  1
  Fe  Fe68  1  0.37474696  0.12367791  0.12360201  1
  Fe  Fe69  1  0.87506524  0.12368977  0.62442933  1
  Fe  Fe70  1  0.74937495  -0.00016235  0.49851414  1
  Fe  Fe71  1  0.37519434  0.37476028  0.37662733  1
  Fe  Fe72  1  0.12224736  0.63051886  0.87049842  1
  Fe  Fe73  1  0.25099874  0.75311991  -0.00483919  1
  Fe  Fe74  1  0.12744960  0.62964991  0.12766509  1
  Fe  Fe75  1  0.74939752  0.50214396  0.25103529  1
  Fe  Fe76  1  0.75419261  0.25169154  0.00211262  1
  Fe  Fe77  1  0.00181407  0.50351019  0.00025485  1
  Fe  Fe78  1  0.75186229  -0.00058882  -0.00287628  1
  Fe  Fe79  1  0.37260328  0.87948273  0.62703165  1
  Fe  Fe80  1  0.87679546  0.87039046  0.87384713  1
  Fe  Fe81  1  0.62080575  0.62371695  0.12140651  1
  Fe  Fe82  1  0.24810536  0.24995338  0.00115700  1
  Fe  Fe83  1  0.49930381  0.25051830  0.24912752  1
  Fe  Fe84  1  0.50050638  0.25064980  0.50244229  1
  Fe  Fe85  1  0.37939039  0.62596270  0.87615237  1
  Fe  Fe86  1  0.62511777  0.37292207  0.87570112  1
  Fe  Fe87  1  0.87544544  0.62759096  0.12566765  1
  Fe  Fe88  1  0.62970538  0.12594531  0.12544577  1
  Fe  Fe89  1  0.62555871  0.37604224  0.37505536  1
  Co  Co90  1  0.49863017  0.49534409  -0.00238802  1
  Co  Co91  1  0.11995804  0.87154088  0.87095456  1
  Co  Co92  1  0.25568059  0.75112566  0.24996148  1
  Co  Co93  1  0.50128759  0.75495792  0.00109870  1
  Co  Co94  1  0.75125661  0.74545449  0.75109257  1
  Co  Co95  1  0.12883496  0.62631562  0.62908417  1
  Co  Co96  1  -0.00393383  0.74927603  0.74387402  1
  Co  Co97  1  -0.00004746  0.74985787  0.00201783  1
  Co  Co98  1  0.75233485  0.25363296  0.24958826  1
  Co  Co99  1  0.24853565  0.00125977  0.75459154  1
  Co  Co100  1  0.50322279  -0.00130546  0.50206883  1
  Co  Co101  1  0.74594625  0.49996262  0.50134095  1
  Co  Co102  1  0.49874113  0.50070373  0.25045178  1
  Co  Co103  1  0.62773942  0.37274087  0.62693131  1
  Co  Co104  1  0.24974108  0.49987385  0.75454701  1
  Co  Co105  1  0.74667977  0.74457405  0.25049361  1
  Co  Co106  1  0.37809089  0.12390848  0.37646829  1
  Co  Co107  1  0.12871695  0.62668070  0.37226950  1
  Co  Co108  1  0.87582500  0.38195325  0.12347817  1
  Co  Co109  1  0.87850792  0.62406120  0.87347909  1
  Co  Co110  1  0.00474235  0.50260066  0.50086066  1
  Co  Co111  1  0.75147027  -0.00057016  0.25281630  1
  Co  Co112  1  0.11884516  0.12527209  0.37023522  1
  Co  Co113  1  0.62332088  0.62687360  0.62437346  1
  Co  Co114  1  0.87264660  0.12195878  0.12526932  1
  Co  Co115  1  -0.00187290  0.25174640  0.74687151  1
  Co  Co116  1  0.37096364  0.37468172  0.62492229  1
  Co  Co117  1  0.50054704  0.25007590  0.00266892  1
  Co  Co118  1  0.87309390  0.62408625  0.37834170  1
  Co  Co119  1  0.25419605  0.75120758  0.75356831  1
  Co  Co120  1  0.37949534  0.87774007  0.87406954  1
  Co  Co121  1  0.61986881  0.62580161  0.87603386  1
  Co  Co122  1  0.62661467  0.12783213  0.87636495  1
  Co  Co123  1  0.12363066  0.12319064  0.62634102  1
  Co  Co124  1  0.87067813  0.87032889  0.12505803  1
  Co  Co125  1  -0.00157443  0.74951136  0.25224088  1
  Co  Co126  1  -0.00254450  0.25063372  0.00346753  1
  Co  Co127  1  0.75242395  0.00064269  0.75228383  1
