# generated using pymatgen
data_Fe45Co19
_symmetry_space_group_name_H-M   'P 1'
_cell_length_a   11.41484476
_cell_length_b   11.41548498
_cell_length_c   11.41543042
_cell_angle_alpha   89.99800871
_cell_angle_beta   90.00024267
_cell_angle_gamma   89.99940974
_symmetry_Int_Tables_number   1
_chemical_formula_structural   Fe45Co19
_chemical_formula_sum   'Fe90 Co38'
_cell_volume   1487.49894914
_cell_formula_units_Z   2
loop_
 _symmetry_equiv_pos_site_id
 _symmetry_equiv_pos_as_xyz
  1  'x, y, z'
loop_
 _atom_site_type_symbol
 _atom_site_label
 _atom_site_symmetry_multiplicity
 _atom_site_fract_x
 _atom_site_fract_y
 _atom_site_fract_z
 _atom_site_occupancy
  Fe  Fe0  1  0.25067772  0.50275631  0.00011354  1
  Fe  Fe1  1  -0.00203712  0.75081894  0.00096565  1
  Fe  Fe2  1  0.87737894  0.87572371  0.37593254  1
  Fe  Fe3  1  0.74933346  0.25054891  -0.00222654  1
  Fe  Fe4  1  -0.00008280  0.74906705  0.24912884  1
  Fe  Fe5  1  0.87796649  0.87530541  0.62396784  1
  Fe  Fe6  1  0.12655632  0.12498579  0.12615664  1
  Fe  Fe7  1  0.62592900  0.37480932  0.12546122  1
  Fe  Fe8  1  0.37502090  0.37558856  0.12586061  1
  Fe  Fe9  1  0.75240065  0.75081111  0.00030461  1
  Fe  Fe10  1  0.00135871  0.25553038  0.75045831  1
  Fe  Fe11  1  0.37320677  0.87408032  0.12641674  1
  Fe  Fe12  1  0.62276237  0.12697636  0.37760744  1
  Fe  Fe13  1  0.24931680  0.74836397  0.49983873  1
  Fe  Fe14  1  0.37557808  0.12468522  0.37572531  1
  Fe  Fe15  1  0.75148976  -0.00055818  0.50050448  1
  Fe  Fe16  1  0.75171492  0.75142222  0.25004856  1
  Fe  Fe17  1  0.62920388  0.87807789  0.12465963  1
  Fe  Fe18  1  0.87531747  0.87518884  0.87352795  1
  Fe  Fe19  1  0.74964699  0.25197182  0.50143915  1
  Fe  Fe20  1  0.12599863  0.62229718  0.62566395  1
  Fe  Fe21  1  0.87769345  0.12733146  0.37711994  1
  Fe  Fe22  1  0.49766184  -0.00188005  0.74929765  1
  Fe  Fe23  1  0.00070567  0.49881270  0.49954819  1
  Fe  Fe24  1  0.62273842  0.62778595  0.87370823  1
  Fe  Fe25  1  0.50076323  0.50379285  0.74669294  1
  Fe  Fe26  1  0.62437533  0.87431681  0.37854699  1
  Fe  Fe27  1  0.37014099  0.12356027  0.62797887  1
  Fe  Fe28  1  0.49906074  -0.00029139  0.50268897  1
  Fe  Fe29  1  0.75056547  0.25016495  0.25123991  1
  Fe  Fe30  1  0.25144201  0.74681452  0.74843499  1
  Fe  Fe31  1  0.87736088  0.62199271  0.87277887  1
  Fe  Fe32  1  0.75173358  0.49689035  0.25491788  1
  Fe  Fe33  1  0.25090054  0.74597951  0.00074888  1
  Fe  Fe34  1  0.50008791  0.75077066  0.00313927  1
  Fe  Fe35  1  0.87470712  0.62425432  0.37787315  1
  Fe  Fe36  1  0.62651784  0.62840613  0.37913547  1
  Fe  Fe37  1  0.12092821  0.37177491  0.36921923  1
  Fe  Fe38  1  0.37241140  0.37922234  0.62400049  1
  Fe  Fe39  1  0.12516780  0.87492347  0.12511466  1
  Fe  Fe40  1  0.12645493  0.12752242  0.87126094  1
  Fe  Fe41  1  0.25233693  0.24772916  0.25053365  1
  Fe  Fe42  1  0.75019638  0.00081085  0.75033828  1
  Fe  Fe43  1  0.37662116  0.37432479  0.37588698  1
  Fe  Fe44  1  0.62242611  0.37033517  0.37799194  1
  Fe  Fe45  1  0.74955843  0.50001972  -0.00319032  1
  Fe  Fe46  1  0.24454289  0.00338136  0.50075165  1
  Fe  Fe47  1  0.49694432  0.74877094  0.74109360  1
  Fe  Fe48  1  0.24856412  0.24976475  0.49989131  1
  Fe  Fe49  1  0.00031548  0.25332690  0.00229114  1
  Fe  Fe50  1  0.87498856  0.62282167  0.12562753  1
  Fe  Fe51  1  0.12245678  0.62324241  0.87428860  1
  Fe  Fe52  1  0.49994407  0.75016075  0.25073929  1
  Fe  Fe53  1  0.12909013  0.37747550  0.62819430  1
  Fe  Fe54  1  0.50111272  0.49959492  0.25119994  1
  Fe  Fe55  1  0.62452748  0.12544549  0.62481601  1
  Fe  Fe56  1  0.49697565  0.25040007  0.74879533  1
  Fe  Fe57  1  0.00224586  -0.00103211  0.74961825  1
  Fe  Fe58  1  0.62581490  0.62374286  0.12612201  1
  Fe  Fe59  1  0.24963770  0.74760802  0.24953746  1
  Fe  Fe60  1  0.37427846  0.37645932  0.87417105  1
  Fe  Fe61  1  0.37366366  0.87631656  0.37686151  1
  Fe  Fe62  1  0.37605910  0.62446044  0.37731097  1
  Fe  Fe63  1  0.24925608  0.50163336  0.24938125  1
  Fe  Fe64  1  0.12512316  0.87260680  0.87470645  1
  Fe  Fe65  1  0.50032245  0.00061850  0.24941836  1
  Fe  Fe66  1  0.00049820  0.00224024  0.25085293  1
  Fe  Fe67  1  0.62432227  0.12371781  0.12252019  1
  Fe  Fe68  1  0.12335661  0.62370804  0.37367335  1
  Fe  Fe69  1  0.25166471  0.00063700  -0.00231529  1
  Fe  Fe70  1  0.49977262  0.50016909  0.00046992  1
  Fe  Fe71  1  0.75127617  0.74891720  0.74750104  1
  Fe  Fe72  1  0.62476913  0.37550104  0.87168588  1
  Fe  Fe73  1  0.87109838  0.12187570  0.12433179  1
  Fe  Fe74  1  0.00339261  0.24940376  0.50312004  1
  Fe  Fe75  1  0.74928186  0.24995811  0.75112213  1
  Fe  Fe76  1  0.87728726  0.12683884  0.87392128  1
  Fe  Fe77  1  0.37853007  0.12552689  0.12238730  1
  Fe  Fe78  1  0.87754578  0.12511212  0.62594467  1
  Fe  Fe79  1  -0.00031241  0.00001828  -0.00141401  1
  Fe  Fe80  1  0.87141682  0.37721090  0.62608203  1
  Fe  Fe81  1  0.37463123  0.87312740  0.87370013  1
  Fe  Fe82  1  0.12500175  0.87692842  0.37453196  1
  Fe  Fe83  1  0.62486438  0.87390484  0.87320617  1
  Fe  Fe84  1  0.00115264  0.49544411  0.00222432  1
  Fe  Fe85  1  0.50359531  0.50018202  0.50156255  1
  Fe  Fe86  1  0.87372531  0.62304947  0.62341937  1
  Fe  Fe87  1  0.25114812  0.25020385  -0.00235624  1
  Fe  Fe88  1  0.62096038  0.12373444  0.87700155  1
  Fe  Fe89  1  0.12406604  0.87424772  0.62468362  1
  Co  Co90  1  0.87190006  0.37578746  0.12485606  1
  Co  Co91  1  -0.00167302  0.50022342  0.24904185  1
  Co  Co92  1  0.37102312  0.62018732  0.61927699  1
  Co  Co93  1  0.00268011  0.00202378  0.50081021  1
  Co  Co94  1  0.49999690  0.25356587  -0.00121214  1
  Co  Co95  1  0.37071460  0.87729911  0.62260002  1
  Co  Co96  1  -0.00030030  0.49717585  0.74878946  1
  Co  Co97  1  0.62533335  0.37354881  0.62663102  1
  Co  Co98  1  0.25193336  0.25242565  0.75040592  1
  Co  Co99  1  0.24785379  -0.00257063  0.75222937  1
  Co  Co100  1  0.37707407  0.62463545  0.12659424  1
  Co  Co101  1  0.37892223  0.62715843  0.87572755  1
  Co  Co102  1  0.74869050  0.49555265  0.49775203  1
  Co  Co103  1  0.75084956  -0.00042654  -0.00463445  1
  Co  Co104  1  0.12348091  0.12733426  0.37229061  1
  Co  Co105  1  0.74877847  0.00145478  0.25469617  1
  Co  Co106  1  0.87385367  0.37514169  0.87503223  1
  Co  Co107  1  0.12779357  0.37414114  0.12772215  1
  Co  Co108  1  0.25144532  0.50369265  0.75427992  1
  Co  Co109  1  0.87986468  0.37186867  0.37642319  1
  Co  Co110  1  0.74836060  0.50202314  0.75075112  1
  Co  Co111  1  0.49821325  -0.00366490  -0.00015391  1
  Co  Co112  1  0.50004786  0.24946731  0.24851807  1
  Co  Co113  1  0.25126992  0.00202018  0.24848362  1
  Co  Co114  1  0.12705399  0.37598548  0.87545096  1
  Co  Co115  1  0.49752800  0.75007381  0.50343623  1
  Co  Co116  1  0.62914578  0.62643748  0.62136700  1
  Co  Co117  1  0.24587852  0.49749083  0.49465708  1
  Co  Co118  1  0.49579488  0.24962240  0.50482742  1
  Co  Co119  1  0.12336910  0.62485568  0.12445096  1
  Co  Co120  1  0.75235430  0.75363221  0.50142794  1
  Co  Co121  1  -0.00329906  0.24746775  0.24432684  1
  Co  Co122  1  0.37579876  0.12430830  0.87409642  1
  Co  Co123  1  0.87514951  0.87835923  0.12639381  1
  Co  Co124  1  0.00137481  0.74800302  0.49995812  1
  Co  Co125  1  0.00020673  0.74849672  0.74890839  1
  Co  Co126  1  0.12526951  0.12654048  0.63023259  1
  Co  Co127  1  0.62606544  0.87638949  0.62432105  1
