# generated using pymatgen
data_Fe45Co19
_symmetry_space_group_name_H-M   'P 1'
_cell_length_a   11.41476685
_cell_length_b   11.41519706
_cell_length_c   11.41520946
_cell_angle_alpha   90.00153459
_cell_angle_beta   90.00869335
_cell_angle_gamma   90.00284038
_symmetry_Int_Tables_number   1
_chemical_formula_structural   Fe45Co19
_chemical_formula_sum   'Fe90 Co38'
_cell_volume   1487.42246751
_cell_formula_units_Z   2
loop_
 _symmetry_equiv_pos_site_id
 _symmetry_equiv_pos_as_xyz
  1  'x, y, z'
loop_
 _atom_site_type_symbol
 _atom_site_label
 _atom_site_symmetry_multiplicity
 _atom_site_fract_x
 _atom_site_fract_y
 _atom_site_fract_z
 _atom_site_occupancy
  Fe  Fe0  1  0.75098268  0.49989024  0.24760929  1
  Fe  Fe1  1  0.00221197  0.25002879  0.25007743  1
  Fe  Fe2  1  0.00170047  0.74870712  0.75433636  1
  Fe  Fe3  1  0.62490184  0.12187806  0.87303448  1
  Fe  Fe4  1  0.12781742  0.12283811  0.37521542  1
  Fe  Fe5  1  0.62482171  0.62492036  0.37344685  1
  Fe  Fe6  1  0.12474687  0.37812819  0.62403936  1
  Fe  Fe7  1  0.37694380  0.87874067  0.87703625  1
  Fe  Fe8  1  0.62265040  0.87874414  0.12645280  1
  Fe  Fe9  1  0.00415128  0.24821289  0.50220881  1
  Fe  Fe10  1  0.37400106  0.12279150  0.12207723  1
  Fe  Fe11  1  0.25044472  0.74816175  0.75282156  1
  Fe  Fe12  1  0.74878541  0.75081752  0.50013500  1
  Fe  Fe13  1  0.87634345  0.37406110  0.62546113  1
  Fe  Fe14  1  0.62328450  0.87537151  0.62745471  1
  Fe  Fe15  1  0.62407143  0.37420245  0.12386517  1
  Fe  Fe16  1  0.62260191  0.62480410  0.62698315  1
  Fe  Fe17  1  0.37117220  0.12434194  0.62294898  1
  Fe  Fe18  1  0.87564517  0.62512855  0.37499833  1
  Fe  Fe19  1  0.62494601  0.62363583  0.12346787  1
  Fe  Fe20  1  0.37272795  0.37694081  0.37797474  1
  Fe  Fe21  1  -0.00049145  -0.00160085  0.75008021  1
  Fe  Fe22  1  0.87581451  0.87355335  0.37351584  1
  Fe  Fe23  1  0.37381507  0.37503323  0.12322106  1
  Fe  Fe24  1  0.50327242  0.75045081  -0.00213865  1
  Fe  Fe25  1  0.24764128  0.24873500  0.74881208  1
  Fe  Fe26  1  0.87276319  0.62906854  0.12070241  1
  Fe  Fe27  1  0.62442930  0.12223208  0.37307323  1
  Fe  Fe28  1  0.49887425  0.74895474  0.50127411  1
  Fe  Fe29  1  0.62611342  0.12358516  0.12713735  1
  Fe  Fe30  1  0.74913401  0.75152681  0.24883362  1
  Fe  Fe31  1  0.12593854  0.37503813  0.12379928  1
  Fe  Fe32  1  0.49796048  -0.00161326  0.50239457  1
  Fe  Fe33  1  0.00210766  -0.00101258  0.50095724  1
  Fe  Fe34  1  0.49762058  0.24861083  0.24980043  1
  Fe  Fe35  1  0.00104861  0.50185343  0.24859066  1
  Fe  Fe36  1  0.00237034  0.74878155  0.24676095  1
  Fe  Fe37  1  0.75032144  0.25008218  0.25065892  1
  Fe  Fe38  1  0.37441732  0.37781217  0.62267826  1
  Fe  Fe39  1  0.12663516  0.37869786  0.37677865  1
  Fe  Fe40  1  0.75410620  -0.00041838  0.00158728  1
  Fe  Fe41  1  0.62523747  0.37608730  0.87522430  1
  Fe  Fe42  1  0.25121902  0.50353120  0.75089412  1
  Fe  Fe43  1  -0.00068516  0.50194546  0.75114179  1
  Fe  Fe44  1  0.87335281  0.62664634  0.88028895  1
  Fe  Fe45  1  0.25030974  0.25099873  0.24962448  1
  Fe  Fe46  1  0.12560369  0.87377384  0.37166247  1
  Fe  Fe47  1  0.24799784  0.74699440  0.50157678  1
  Fe  Fe48  1  0.00306334  0.74847549  0.49940888  1
  Fe  Fe49  1  0.49847230  0.24834434  0.74953360  1
  Fe  Fe50  1  0.12377097  0.12341420  0.12348253  1
  Fe  Fe51  1  0.87621569  0.37303639  0.12377487  1
  Fe  Fe52  1  0.87666228  0.87220600  0.62491929  1
  Fe  Fe53  1  0.62582905  0.12420941  0.62705161  1
  Fe  Fe54  1  0.24674930  0.75377285  -0.00208524  1
  Fe  Fe55  1  0.25155562  0.00065035  0.75178775  1
  Fe  Fe56  1  0.74785638  0.75045923  0.75357305  1
  Fe  Fe57  1  0.24828625  0.24896377  -0.00107107  1
  Fe  Fe58  1  0.49992955  0.24720056  -0.00163982  1
  Fe  Fe59  1  -0.00334419  -0.00144227  0.24580721  1
  Fe  Fe60  1  0.37442556  0.87421526  0.37618649  1
  Fe  Fe61  1  0.12115753  0.12409435  0.87571115  1
  Fe  Fe62  1  0.50034770  0.75112244  0.75401723  1
  Fe  Fe63  1  0.62355605  0.37615910  0.37380246  1
  Fe  Fe64  1  0.74850591  0.25089187  0.50057496  1
  Fe  Fe65  1  0.12668303  0.87399041  0.62768221  1
  Fe  Fe66  1  0.75108964  0.50009422  0.75124620  1
  Fe  Fe67  1  0.12330064  0.37534414  0.87554655  1
  Fe  Fe68  1  0.87514240  0.12478140  0.37429042  1
  Fe  Fe69  1  0.75356360  0.25018403  -0.00278217  1
  Fe  Fe70  1  0.87687483  0.12567943  0.62651047  1
  Fe  Fe71  1  0.50060928  0.25155405  0.50152446  1
  Fe  Fe72  1  0.87738668  0.37572943  0.37578112  1
  Fe  Fe73  1  0.49655367  0.50108534  0.24781564  1
  Fe  Fe74  1  0.49550002  0.75003357  0.24661052  1
  Fe  Fe75  1  0.49763139  0.50068751  -0.00108309  1
  Fe  Fe76  1  0.49824637  0.50059143  0.75234564  1
  Fe  Fe77  1  0.13242527  0.62474309  0.12545496  1
  Fe  Fe78  1  0.25350909  -0.00350950  0.24758174  1
  Fe  Fe79  1  0.75345763  -0.00232727  0.75065746  1
  Fe  Fe80  1  0.00153657  0.50189706  0.00064775  1
  Fe  Fe81  1  0.75087916  -0.00222269  0.50028061  1
  Fe  Fe82  1  0.37356320  0.37254928  0.87515813  1
  Fe  Fe83  1  0.75256157  0.25127853  0.75245912  1
  Fe  Fe84  1  0.37246352  0.62390152  0.37441836  1
  Fe  Fe85  1  0.87626233  0.62729953  0.62466798  1
  Fe  Fe86  1  0.62340316  0.87651430  0.37278516  1
  Fe  Fe87  1  0.87689032  0.87175364  0.88025003  1
  Fe  Fe88  1  0.74866927  0.50015761  0.50154470  1
  Fe  Fe89  1  0.37257852  0.12476292  0.37740473  1
  Co  Co90  1  0.12631013  0.12116092  0.62623028  1
  Co  Co91  1  0.12634405  0.62476999  0.37090769  1
  Co  Co92  1  0.87579756  0.86883879  0.12213778  1
  Co  Co93  1  0.00040660  0.50260104  0.50071114  1
  Co  Co94  1  0.62572312  0.62105303  0.87515207  1
  Co  Co95  1  0.37126311  0.62638890  0.11997088  1
  Co  Co96  1  0.12669553  0.62302587  0.87570552  1
  Co  Co97  1  0.49559340  0.00170036  0.74806832  1
  Co  Co98  1  0.25193654  0.49789513  0.24924621  1
  Co  Co99  1  0.50098683  0.00328197  -0.00044469  1
  Co  Co100  1  0.87920659  0.12397545  0.87354311  1
  Co  Co101  1  0.25329086  0.75284351  0.24839004  1
  Co  Co102  1  0.87609227  0.12856868  0.12597280  1
  Co  Co103  1  0.24874313  -0.00430000  0.49996189  1
  Co  Co104  1  0.00735760  0.74900930  0.00043849  1
  Co  Co105  1  -0.00189022  -0.00176111  0.00289037  1
  Co  Co106  1  0.75363245  -0.00204475  0.24872036  1
  Co  Co107  1  0.24723842  0.00008157  -0.00177165  1
  Co  Co108  1  0.62356250  0.88153252  0.87339238  1
  Co  Co109  1  0.12267983  0.62687762  0.62877081  1
  Co  Co110  1  0.00198399  0.25088238  0.74867384  1
  Co  Co111  1  -0.00067459  0.25018504  -0.00146390  1
  Co  Co112  1  0.37784145  0.62539856  0.62697237  1
  Co  Co113  1  0.12607777  0.87627996  0.12619448  1
  Co  Co114  1  0.49491923  0.00032723  0.24994363  1
  Co  Co115  1  0.37369126  0.12570701  0.87605056  1
  Co  Co116  1  0.24712311  0.25110141  0.50149684  1
  Co  Co117  1  0.25063390  0.49710251  -0.00268252  1
  Co  Co118  1  0.37256117  0.87283305  0.62687726  1
  Co  Co119  1  0.37601117  0.87499308  0.11887417  1
  Co  Co120  1  0.12399608  0.87793230  0.87334183  1
  Co  Co121  1  0.87817379  0.37715724  0.87554332  1
  Co  Co122  1  0.37419772  0.62686056  0.87818838  1
  Co  Co123  1  0.62430972  0.37567055  0.62799303  1
  Co  Co124  1  0.24794959  0.50636459  0.50270616  1
  Co  Co125  1  0.74252359  0.75283843  -0.00132797  1
  Co  Co126  1  0.75046063  0.49817176  0.00091948  1
  Co  Co127  1  0.50154966  0.50067550  0.49949624  1
