# generated using pymatgen
data_Fe45Co19
_symmetry_space_group_name_H-M   'P 1'
_cell_length_a   11.41560738
_cell_length_b   11.41522392
_cell_length_c   11.41540151
_cell_angle_alpha   90.00012156
_cell_angle_beta   90.00031615
_cell_angle_gamma   89.99217185
_symmetry_Int_Tables_number   1
_chemical_formula_structural   Fe45Co19
_chemical_formula_sum   'Fe90 Co38'
_cell_volume   1487.56052858
_cell_formula_units_Z   2
loop_
 _symmetry_equiv_pos_site_id
 _symmetry_equiv_pos_as_xyz
  1  'x, y, z'
loop_
 _atom_site_type_symbol
 _atom_site_label
 _atom_site_symmetry_multiplicity
 _atom_site_fract_x
 _atom_site_fract_y
 _atom_site_fract_z
 _atom_site_occupancy
  Fe  Fe0  1  0.62634914  0.37243954  0.37662248  1
  Fe  Fe1  1  0.62774623  0.37253904  0.62665342  1
  Fe  Fe2  1  0.12502407  0.87163527  0.87284870  1
  Fe  Fe3  1  -0.00214282  0.24916908  0.25174990  1
  Fe  Fe4  1  0.87484879  0.87781729  0.38017906  1
  Fe  Fe5  1  0.37685013  0.12497844  0.12483333  1
  Fe  Fe6  1  0.87419285  0.62465907  0.37830355  1
  Fe  Fe7  1  -0.00102866  0.74697829  0.00110240  1
  Fe  Fe8  1  -0.00246506  0.75157707  0.25060787  1
  Fe  Fe9  1  0.37709027  0.62567188  0.37912504  1
  Fe  Fe10  1  -0.00013465  0.50159262  0.50307388  1
  Fe  Fe11  1  0.37832737  0.12344560  0.87256704  1
  Fe  Fe12  1  0.37405676  0.37393094  0.37858189  1
  Fe  Fe13  1  0.37661604  0.87620117  0.12461601  1
  Fe  Fe14  1  0.74964941  0.49996128  0.25069991  1
  Fe  Fe15  1  0.12447195  0.12569530  0.37522520  1
  Fe  Fe16  1  0.62444090  0.87565979  0.37513416  1
  Fe  Fe17  1  0.37540879  0.37694928  0.12323287  1
  Fe  Fe18  1  0.74943642  0.24673894  0.50175131  1
  Fe  Fe19  1  0.24972510  -0.00053022  0.25050856  1
  Fe  Fe20  1  0.49700944  0.75087357  0.74742622  1
  Fe  Fe21  1  0.74980195  0.75069609  0.50058366  1
  Fe  Fe22  1  0.87328496  0.37502415  0.12299215  1
  Fe  Fe23  1  0.49725389  0.49915359  0.74777489  1
  Fe  Fe24  1  -0.00275881  0.50107600  0.24778364  1
  Fe  Fe25  1  0.75018108  0.74898457  -0.00215932  1
  Fe  Fe26  1  0.25229086  0.25160889  0.75069833  1
  Fe  Fe27  1  0.12437524  0.12530539  0.12503223  1
  Fe  Fe28  1  0.75288941  0.75017436  0.75024426  1
  Fe  Fe29  1  0.12322955  0.37911582  0.87444865  1
  Fe  Fe30  1  0.75445054  0.00210527  0.75339964  1
  Fe  Fe31  1  0.50131705  0.25097481  -0.00411356  1
  Fe  Fe32  1  0.24997596  0.24940860  0.25089967  1
  Fe  Fe33  1  0.62334488  0.62325028  0.87127875  1
  Fe  Fe34  1  0.87412287  0.12392643  0.12235755  1
  Fe  Fe35  1  0.12214321  0.12666026  0.87127351  1
  Fe  Fe36  1  0.37227513  0.37623455  0.62077305  1
  Fe  Fe37  1  0.87669370  0.62146198  0.87407576  1
  Fe  Fe38  1  0.87456987  0.37603632  0.37958221  1
  Fe  Fe39  1  0.12430410  0.37402452  0.37654271  1
  Fe  Fe40  1  0.00081603  -0.00204224  -0.00176994  1
  Fe  Fe41  1  0.62554734  0.62496852  0.62522345  1
  Fe  Fe42  1  0.75109727  0.75110871  0.25159020  1
  Fe  Fe43  1  0.24949935  -0.00113214  0.74925901  1
  Fe  Fe44  1  0.50022731  0.74759416  -0.00190173  1
  Fe  Fe45  1  0.49914048  0.75191503  0.25098138  1
  Fe  Fe46  1  0.24822993  0.75046451  0.50076877  1
  Fe  Fe47  1  0.50442756  0.00089878  0.50212776  1
  Fe  Fe48  1  0.87412009  0.12139147  0.37949055  1
  Fe  Fe49  1  0.62721875  0.37460985  0.87123699  1
  Fe  Fe50  1  -0.00415425  0.74970075  0.74655808  1
  Fe  Fe51  1  0.12442775  0.62171335  0.87257058  1
  Fe  Fe52  1  0.37578393  0.87565524  0.87491770  1
  Fe  Fe53  1  0.50490354  0.00097677  0.00122015  1
  Fe  Fe54  1  0.00465430  -0.00242189  0.50448434  1
  Fe  Fe55  1  0.62574105  0.87617942  0.87439574  1
  Fe  Fe56  1  0.25195176  0.74568749  0.00025941  1
  Fe  Fe57  1  -0.00720396  0.25343935  0.74728814  1
  Fe  Fe58  1  0.12552496  0.37613821  0.12575387  1
  Fe  Fe59  1  0.25192588  0.75051569  0.25021139  1
  Fe  Fe60  1  0.50258169  0.49929641  0.50043540  1
  Fe  Fe61  1  0.62452771  0.62643824  0.12628766  1
  Fe  Fe62  1  0.00034822  0.25191152  -0.00020997  1
  Fe  Fe63  1  0.24807053  0.00099945  -0.00221319  1
  Fe  Fe64  1  0.37738066  0.12421296  0.37692348  1
  Fe  Fe65  1  0.12575606  0.37234129  0.62310822  1
  Fe  Fe66  1  0.62494171  0.62595600  0.37607161  1
  Fe  Fe67  1  0.74604735  0.00078734  0.24816490  1
  Fe  Fe68  1  0.12590328  0.87333226  0.12520124  1
  Fe  Fe69  1  0.24556487  0.00144573  0.50383945  1
  Fe  Fe70  1  0.62737909  0.87509210  0.62740509  1
  Fe  Fe71  1  0.25545904  0.74850549  0.74891655  1
  Fe  Fe72  1  0.50163432  0.49900390  0.25050840  1
  Fe  Fe73  1  0.74944749  0.24581042  -0.00604959  1
  Fe  Fe74  1  0.12320646  0.62694844  0.37422728  1
  Fe  Fe75  1  -0.00134047  -0.00270879  0.74873008  1
  Fe  Fe76  1  0.00080640  -0.00127558  0.24971138  1
  Fe  Fe77  1  0.12608353  0.62525193  0.62597896  1
  Fe  Fe78  1  0.75203729  0.24824123  0.25224351  1
  Fe  Fe79  1  0.24918164  0.24914300  -0.00192083  1
  Fe  Fe80  1  0.62608702  0.37241362  0.12445417  1
  Fe  Fe81  1  0.37296025  0.38100829  0.87727730  1
  Fe  Fe82  1  0.37675765  0.12548514  0.62654056  1
  Fe  Fe83  1  0.87173844  0.87568940  0.12202673  1
  Fe  Fe84  1  0.37625010  0.87706895  0.37947934  1
  Fe  Fe85  1  0.62383630  0.12828726  0.63199644  1
  Fe  Fe86  1  0.25131013  0.50187354  0.25028906  1
  Fe  Fe87  1  0.75511165  0.49861964  0.74730265  1
  Fe  Fe88  1  0.50002014  0.24920359  0.25146370  1
  Fe  Fe89  1  0.74909565  0.50170029  -0.00026647  1
  Co  Co90  1  0.37394643  0.87596334  0.62133231  1
  Co  Co91  1  0.50118725  0.25005418  0.50196331  1
  Co  Co92  1  0.62455598  0.12712912  0.37383174  1
  Co  Co93  1  0.12497244  0.87403827  0.37492497  1
  Co  Co94  1  0.87965626  0.12465170  0.87598742  1
  Co  Co95  1  0.37876319  0.62333535  0.12557676  1
  Co  Co96  1  0.24929223  0.24713355  0.49974564  1
  Co  Co97  1  0.62625878  0.87137925  0.12390010  1
  Co  Co98  1  0.87552180  0.87368237  0.87609665  1
  Co  Co99  1  0.75662580  0.24822989  0.75122447  1
  Co  Co100  1  0.00022402  0.50200869  0.00317551  1
  Co  Co101  1  0.87560557  0.12178961  0.62196032  1
  Co  Co102  1  0.87199435  0.62569250  0.62283773  1
  Co  Co103  1  0.50286795  -0.00047407  0.25008377  1
  Co  Co104  1  0.87557798  0.37846385  0.87741640  1
  Co  Co105  1  0.49555202  0.25603975  0.75099231  1
  Co  Co106  1  0.37637984  0.62134269  0.87396879  1
  Co  Co107  1  0.24720315  0.50147232  0.49877404  1
  Co  Co108  1  0.37597427  0.62434545  0.62138622  1
  Co  Co109  1  0.62516070  0.12908643  0.12571962  1
  Co  Co110  1  0.25050982  0.49975579  0.74757653  1
  Co  Co111  1  0.87166219  0.62586411  0.12557253  1
  Co  Co112  1  0.74724186  0.50084897  0.50011273  1
  Co  Co113  1  0.12491951  0.62672046  0.12867857  1
  Co  Co114  1  0.74698618  0.00277736  -0.00312113  1
  Co  Co115  1  0.49891591  -0.00520562  0.74802921  1
  Co  Co116  1  -0.00041133  0.75060642  0.50200363  1
  Co  Co117  1  0.87301020  0.87630553  0.62282193  1
  Co  Co118  1  0.50404527  0.49988404  -0.00074671  1
  Co  Co119  1  0.74355233  0.00127502  0.50225758  1
  Co  Co120  1  0.62073727  0.12550640  0.86802996  1
  Co  Co121  1  0.12632305  0.87118305  0.62867983  1
  Co  Co122  1  0.87233473  0.37484902  0.61947568  1
  Co  Co123  1  0.24729668  0.50359633  0.00196541  1
  Co  Co124  1  -0.00084380  0.24867118  0.49922494  1
  Co  Co125  1  0.50410064  0.75177223  0.50309055  1
  Co  Co126  1  0.12332001  0.12935623  0.62971498  1
  Co  Co127  1  -0.00230180  0.49822002  0.74483615  1
