# generated using pymatgen
data_Fe45Co19
_symmetry_space_group_name_H-M   'P 1'
_cell_length_a   11.41691241
_cell_length_b   11.41490704
_cell_length_c   11.41451984
_cell_angle_alpha   89.99785259
_cell_angle_beta   89.99296405
_cell_angle_gamma   90.00310012
_symmetry_Int_Tables_number   1
_chemical_formula_structural   Fe45Co19
_chemical_formula_sum   'Fe90 Co38'
_cell_volume   1487.57438438
_cell_formula_units_Z   2
loop_
 _symmetry_equiv_pos_site_id
 _symmetry_equiv_pos_as_xyz
  1  'x, y, z'
loop_
 _atom_site_type_symbol
 _atom_site_label
 _atom_site_symmetry_multiplicity
 _atom_site_fract_x
 _atom_site_fract_y
 _atom_site_fract_z
 _atom_site_occupancy
  Fe  Fe0  1  0.24997145  0.75044724  -0.00074578  1
  Fe  Fe1  1  -0.00046636  0.50133463  0.24945571  1
  Fe  Fe2  1  0.37459134  0.37002552  0.38024290  1
  Fe  Fe3  1  0.50299563  0.25310194  0.74367300  1
  Fe  Fe4  1  0.62460156  0.62210618  0.12554905  1
  Fe  Fe5  1  0.49781477  -0.00014213  0.74866917  1
  Fe  Fe6  1  0.37609072  0.87769796  0.12747407  1
  Fe  Fe7  1  0.24938269  0.50118044  0.50178026  1
  Fe  Fe8  1  0.62819811  0.87678401  0.62382343  1
  Fe  Fe9  1  0.37561158  0.12653282  0.87331195  1
  Fe  Fe10  1  0.25205432  0.00113104  0.25480430  1
  Fe  Fe11  1  -0.00304336  0.49972737  0.50181699  1
  Fe  Fe12  1  0.87454701  0.12444285  0.62444413  1
  Fe  Fe13  1  0.50177225  0.75255659  0.25104319  1
  Fe  Fe14  1  -0.00223373  -0.00076256  0.25109190  1
  Fe  Fe15  1  0.37830573  0.12353513  0.12769534  1
  Fe  Fe16  1  0.37480954  0.87430677  0.87345704  1
  Fe  Fe17  1  0.49898012  0.49664329  0.25054696  1
  Fe  Fe18  1  0.24980958  0.24922000  0.00067194  1
  Fe  Fe19  1  0.74959541  0.74938938  0.24788100  1
  Fe  Fe20  1  0.12572885  0.37510258  0.12548643  1
  Fe  Fe21  1  0.12433810  0.37718184  0.62727298  1
  Fe  Fe22  1  0.74939993  0.50109703  -0.00230289  1
  Fe  Fe23  1  0.74948784  0.24942710  0.49933088  1
  Fe  Fe24  1  0.87728940  0.62881114  0.37355064  1
  Fe  Fe25  1  -0.00118704  0.75154052  0.74610331  1
  Fe  Fe26  1  0.62400848  0.88197146  0.12617890  1
  Fe  Fe27  1  0.12260390  0.62496705  0.87344817  1
  Fe  Fe28  1  -0.00075800  0.49774717  -0.00046641  1
  Fe  Fe29  1  -0.00113490  0.75350275  0.00434944  1
  Fe  Fe30  1  0.50173950  0.75032396  0.74669751  1
  Fe  Fe31  1  0.25190704  0.50229450  0.74788226  1
  Fe  Fe32  1  0.12411968  0.12133272  0.62616171  1
  Fe  Fe33  1  0.12166735  0.62757381  0.37792237  1
  Fe  Fe34  1  0.87241614  0.62354312  0.62657720  1
  Fe  Fe35  1  0.12158563  0.12554887  0.37612010  1
  Fe  Fe36  1  0.87283413  0.37142900  0.87315411  1
  Fe  Fe37  1  0.24921576  0.25003112  0.25196250  1
  Fe  Fe38  1  0.37788405  0.62489680  0.87305448  1
  Fe  Fe39  1  0.50041426  0.75275758  0.00192097  1
  Fe  Fe40  1  0.50470081  0.75027486  0.49948354  1
  Fe  Fe41  1  0.62243126  0.12413227  0.87576598  1
  Fe  Fe42  1  0.37622216  0.37462347  0.87285774  1
  Fe  Fe43  1  -0.00111650  0.24655186  0.75160867  1
  Fe  Fe44  1  0.37763525  0.62650426  0.37880397  1
  Fe  Fe45  1  0.37537864  0.87407409  0.62103971  1
  Fe  Fe46  1  0.25119968  0.00079699  -0.00172318  1
  Fe  Fe47  1  0.75099844  0.00272151  0.75227779  1
  Fe  Fe48  1  0.25162291  0.00065671  0.49668894  1
  Fe  Fe49  1  0.75007340  0.74850212  0.49852411  1
  Fe  Fe50  1  0.49987204  -0.00021485  0.49257499  1
  Fe  Fe51  1  0.75263328  0.00010996  0.49584669  1
  Fe  Fe52  1  0.75078711  0.50097754  0.25244315  1
  Fe  Fe53  1  0.50176982  0.25081303  0.00291209  1
  Fe  Fe54  1  0.62821164  0.37339621  0.37517263  1
  Fe  Fe55  1  0.75042862  0.00385628  0.25443551  1
  Fe  Fe56  1  0.87466064  0.12245358  0.12107851  1
  Fe  Fe57  1  0.87519376  0.37182043  0.37450282  1
  Fe  Fe58  1  0.37550087  0.12809888  0.61959158  1
  Fe  Fe59  1  0.12184805  0.87118175  0.37627854  1
  Fe  Fe60  1  0.75003376  0.75248002  0.00217797  1
  Fe  Fe61  1  0.12399806  0.12451534  0.12345414  1
  Fe  Fe62  1  0.00090165  0.25090849  0.50249273  1
  Fe  Fe63  1  0.50407275  0.24977785  0.24884124  1
  Fe  Fe64  1  -0.00436893  -0.00365887  0.49989444  1
  Fe  Fe65  1  0.24918091  0.24772747  0.74722736  1
  Fe  Fe66  1  0.37581778  0.62488380  0.12524750  1
  Fe  Fe67  1  0.87616120  0.87801094  0.87477004  1
  Fe  Fe68  1  0.25158356  0.49941340  0.00015945  1
  Fe  Fe69  1  0.62571228  0.37530140  0.87111372  1
  Fe  Fe70  1  0.12527974  0.87679377  0.62516143  1
  Fe  Fe71  1  0.87237348  0.37561437  0.12522785  1
  Fe  Fe72  1  0.62159201  0.62476741  0.87398170  1
  Fe  Fe73  1  0.12326100  0.37474214  0.37512699  1
  Fe  Fe74  1  0.62544408  0.12276980  0.62238524  1
  Fe  Fe75  1  0.25028694  0.74854229  0.74600113  1
  Fe  Fe76  1  0.62336538  0.87708863  0.87437236  1
  Fe  Fe77  1  0.12523059  0.87886466  0.87116541  1
  Fe  Fe78  1  0.24980369  0.74869625  0.25216345  1
  Fe  Fe79  1  0.12518840  0.62381905  0.12438328  1
  Fe  Fe80  1  0.86970964  0.37556936  0.62816648  1
  Fe  Fe81  1  -0.00215914  0.24933784  0.24786880  1
  Fe  Fe82  1  0.74890006  0.74973547  0.75177390  1
  Fe  Fe83  1  0.12480674  0.37361766  0.87385333  1
  Fe  Fe84  1  0.49984035  0.49737542  0.00148910  1
  Fe  Fe85  1  0.50443735  0.49703669  0.50526327  1
  Fe  Fe86  1  0.25197703  0.49963053  0.25210987  1
  Fe  Fe87  1  0.12550893  0.87613948  0.12661143  1
  Fe  Fe88  1  0.87748932  0.62661022  0.87643083  1
  Fe  Fe89  1  0.74734499  0.24798682  0.00145643  1
  Co  Co90  1  0.49731508  -0.00040843  -0.00290445  1
  Co  Co91  1  0.62940218  0.87459031  0.37496167  1
  Co  Co92  1  0.37160020  0.37239722  0.62230416  1
  Co  Co93  1  0.00255271  -0.00192383  -0.00039632  1
  Co  Co94  1  0.24280272  0.24886570  0.50043418  1
  Co  Co95  1  0.37604263  0.13241712  0.37728220  1
  Co  Co96  1  -0.00024221  0.74952447  0.24513971  1
  Co  Co97  1  0.00011351  0.25096708  0.00009424  1
  Co  Co98  1  0.24775689  0.74859565  0.50216091  1
  Co  Co99  1  0.87388752  0.62277021  0.12389424  1
  Co  Co100  1  0.62361338  0.11938395  0.12457829  1
  Co  Co101  1  0.74844464  -0.00090825  -0.00383532  1
  Co  Co102  1  0.37816398  0.62663828  0.62319714  1
  Co  Co103  1  0.75023455  0.50380516  0.75482473  1
  Co  Co104  1  0.63531965  0.37749375  0.62742383  1
  Co  Co105  1  0.86954063  0.87617553  0.62630276  1
  Co  Co106  1  0.87523593  0.87106430  0.37259977  1
  Co  Co107  1  0.62520098  0.12866116  0.37669452  1
  Co  Co108  1  0.50648269  0.25413156  0.50418619  1
  Co  Co109  1  -0.00315440  0.49838195  0.75047522  1
  Co  Co110  1  0.12162469  0.62344323  0.62535357  1
  Co  Co111  1  -0.00394667  0.00152908  0.74936778  1
  Co  Co112  1  0.74992429  0.24682844  0.24815470  1
  Co  Co113  1  0.25476038  0.00096303  0.74785063  1
  Co  Co114  1  0.62838590  0.37752252  0.12636098  1
  Co  Co115  1  0.75157089  0.50155808  0.49545297  1
  Co  Co116  1  0.74897508  0.24303145  0.75074580  1
  Co  Co117  1  0.12562059  0.12311322  0.87423573  1
  Co  Co118  1  0.87665402  0.12413044  0.87934949  1
  Co  Co119  1  0.87277272  0.87974441  0.12700929  1
  Co  Co120  1  0.62877869  0.62427310  0.62598085  1
  Co  Co121  1  0.62280116  0.62417548  0.37343225  1
  Co  Co122  1  0.50050154  0.49726091  0.74462483  1
  Co  Co123  1  0.87739142  0.12790103  0.37678739  1
  Co  Co124  1  0.49934164  0.00087338  0.25786345  1
  Co  Co125  1  -0.00334813  0.75140964  0.50521754  1
  Co  Co126  1  0.37423176  0.37307165  0.12535686  1
  Co  Co127  1  0.37387280  0.87078068  0.37581234  1
