# generated using pymatgen
data_Fe45Co19
_symmetry_space_group_name_H-M   'P 1'
_cell_length_a   11.41374419
_cell_length_b   11.41483625
_cell_length_c   11.41537376
_cell_angle_alpha   90.00719656
_cell_angle_beta   89.99491634
_cell_angle_gamma   90.00000280
_symmetry_Int_Tables_number   1
_chemical_formula_structural   Fe45Co19
_chemical_formula_sum   'Fe90 Co38'
_cell_volume   1487.26360736
_cell_formula_units_Z   2
loop_
 _symmetry_equiv_pos_site_id
 _symmetry_equiv_pos_as_xyz
  1  'x, y, z'
loop_
 _atom_site_type_symbol
 _atom_site_label
 _atom_site_symmetry_multiplicity
 _atom_site_fract_x
 _atom_site_fract_y
 _atom_site_fract_z
 _atom_site_occupancy
  Fe  Fe0  1  0.12233934  0.12279841  0.62305408  1
  Fe  Fe1  1  0.75159488  -0.00378711  0.50200763  1
  Fe  Fe2  1  0.11733121  0.37376337  0.13042442  1
  Fe  Fe3  1  0.24798546  0.49928137  0.00298205  1
  Fe  Fe4  1  0.37171674  0.87624886  0.37228059  1
  Fe  Fe5  1  0.62603378  0.12629487  0.62328373  1
  Fe  Fe6  1  0.12165276  0.37765172  0.87520999  1
  Fe  Fe7  1  0.75162366  -0.00161562  -0.00010060  1
  Fe  Fe8  1  0.75172875  0.74804751  0.74799908  1
  Fe  Fe9  1  0.12079921  0.37991142  0.62103277  1
  Fe  Fe10  1  0.24820513  0.24898704  0.24967531  1
  Fe  Fe11  1  0.12347773  0.87339724  0.12903407  1
  Fe  Fe12  1  0.75037909  -0.00032859  0.24917554  1
  Fe  Fe13  1  0.12683360  0.87333490  0.37241551  1
  Fe  Fe14  1  0.87629291  0.62376693  0.12666059  1
  Fe  Fe15  1  0.87707791  0.62377961  0.87594529  1
  Fe  Fe16  1  0.75101907  0.50099710  0.74447305  1
  Fe  Fe17  1  0.37343199  0.87371880  0.87341579  1
  Fe  Fe18  1  0.24762459  0.50118880  0.25132172  1
  Fe  Fe19  1  0.12550092  0.12510211  0.37516908  1
  Fe  Fe20  1  0.50430103  0.74890858  0.25321726  1
  Fe  Fe21  1  0.62660343  0.37841759  0.12440172  1
  Fe  Fe22  1  0.37169378  0.62452196  0.87657300  1
  Fe  Fe23  1  0.12339951  0.12665052  0.87569969  1
  Fe  Fe24  1  0.12244667  0.87233880  0.87236353  1
  Fe  Fe25  1  0.75204896  0.24837635  0.24953851  1
  Fe  Fe26  1  0.50090761  0.24990536  0.24961240  1
  Fe  Fe27  1  0.88001604  0.62324287  0.62002768  1
  Fe  Fe28  1  0.50038505  0.74891621  0.75065185  1
  Fe  Fe29  1  -0.00167499  0.25287801  0.49664676  1
  Fe  Fe30  1  0.49954357  0.25267699  -0.00014310  1
  Fe  Fe31  1  0.50055049  0.74942183  -0.00073782  1
  Fe  Fe32  1  0.62756038  0.12426349  0.37569147  1
  Fe  Fe33  1  0.37557170  0.37723554  0.12680067  1
  Fe  Fe34  1  0.50086412  -0.00227949  -0.00070011  1
  Fe  Fe35  1  0.87389572  0.37669640  0.37120312  1
  Fe  Fe36  1  0.74745477  0.50452377  0.25050157  1
  Fe  Fe37  1  0.62706053  0.62402914  0.87697356  1
  Fe  Fe38  1  0.75024122  -0.00122622  0.74896976  1
  Fe  Fe39  1  0.62668803  0.37802302  0.87525410  1
  Fe  Fe40  1  0.50127462  0.25148638  0.49859470  1
  Fe  Fe41  1  -0.00090247  0.74931805  0.00136459  1
  Fe  Fe42  1  0.49975654  0.25010351  0.75116202  1
  Fe  Fe43  1  0.37529129  0.62346860  0.37627939  1
  Fe  Fe44  1  0.12344016  0.62599215  0.12529011  1
  Fe  Fe45  1  0.50629220  0.49949130  0.49869861  1
  Fe  Fe46  1  0.37485945  0.12360743  0.62440598  1
  Fe  Fe47  1  0.37631646  0.62455332  0.12541152  1
  Fe  Fe48  1  0.37434432  0.37604999  0.37442094  1
  Fe  Fe49  1  0.24993432  0.25166320  0.50022747  1
  Fe  Fe50  1  0.62544629  0.12514164  0.12448046  1
  Fe  Fe51  1  0.88159697  0.87317578  0.62888551  1
  Fe  Fe52  1  -0.00012557  -0.00364165  0.49843173  1
  Fe  Fe53  1  0.87643152  0.12586622  0.87338449  1
  Fe  Fe54  1  0.37481786  0.12289243  0.12525279  1
  Fe  Fe55  1  0.50052019  -0.00265644  0.49670747  1
  Fe  Fe56  1  0.24400551  0.74582894  0.74681121  1
  Fe  Fe57  1  0.62614731  0.87433109  0.12587065  1
  Fe  Fe58  1  -0.00004845  -0.00044772  -0.00053868  1
  Fe  Fe59  1  0.37300643  0.87556834  0.62502003  1
  Fe  Fe60  1  0.12411811  0.62476602  0.37892358  1
  Fe  Fe61  1  0.24967315  0.75092673  0.00200970  1
  Fe  Fe62  1  -0.00091816  0.00095919  0.25105230  1
  Fe  Fe63  1  0.87683595  0.12645742  0.62384191  1
  Fe  Fe64  1  0.24933005  0.75055408  0.50106414  1
  Fe  Fe65  1  0.24711257  0.25160841  0.74693713  1
  Fe  Fe66  1  0.75456213  0.25460428  0.00114510  1
  Fe  Fe67  1  0.37626536  0.37725672  0.62416090  1
  Fe  Fe68  1  0.87618463  0.87325221  0.87361975  1
  Fe  Fe69  1  0.24671571  0.25099915  0.00276600  1
  Fe  Fe70  1  0.62390090  0.87116428  0.62363062  1
  Fe  Fe71  1  0.87942442  0.37796766  0.87214705  1
  Fe  Fe72  1  0.87182127  0.87165166  0.37100886  1
  Fe  Fe73  1  0.50107198  0.50145184  0.75058858  1
  Fe  Fe74  1  0.24775422  -0.00164132  0.00233758  1
  Fe  Fe75  1  0.24513430  0.50331825  0.74727388  1
  Fe  Fe76  1  0.75099414  0.74933934  0.00256626  1
  Fe  Fe77  1  0.62678426  0.12506997  0.87609237  1
  Fe  Fe78  1  0.87103020  0.62780005  0.37735402  1
  Fe  Fe79  1  0.37353026  0.12360108  0.37373480  1
  Fe  Fe80  1  0.37169882  0.37647378  0.87445865  1
  Fe  Fe81  1  0.24716432  -0.00012726  0.74902845  1
  Fe  Fe82  1  0.50215319  -0.00095952  0.75119937  1
  Fe  Fe83  1  0.75208649  0.25171054  0.74850262  1
  Fe  Fe84  1  0.37270418  0.12500560  0.87587367  1
  Fe  Fe85  1  0.50459743  0.50260320  0.25225365  1
  Fe  Fe86  1  0.37424578  0.87450821  0.12968856  1
  Fe  Fe87  1  0.87812990  0.12570847  0.12508317  1
  Fe  Fe88  1  0.75058673  0.25447495  0.50030133  1
  Fe  Fe89  1  0.37627064  0.62409676  0.62251823  1
  Co  Co90  1  0.00031661  0.50494779  0.25408045  1
  Co  Co91  1  -0.00122740  0.49953419  0.00275663  1
  Co  Co92  1  0.87760866  0.37714340  0.13176493  1
  Co  Co93  1  0.62433869  0.62784353  0.62161064  1
  Co  Co94  1  -0.00115301  0.74739699  0.25149860  1
  Co  Co95  1  -0.00092286  0.00218319  0.75090123  1
  Co  Co96  1  0.12582193  0.37481716  0.37342068  1
  Co  Co97  1  0.11997443  0.62306425  0.61627550  1
  Co  Co98  1  0.24876590  -0.00137051  0.49965549  1
  Co  Co99  1  0.24985495  0.74538834  0.25172340  1
  Co  Co100  1  -0.00289123  0.24681964  0.25457319  1
  Co  Co101  1  0.74866848  0.49681147  0.50210345  1
  Co  Co102  1  0.25117573  0.49989617  0.49910544  1
  Co  Co103  1  0.12276283  0.87456430  0.62700696  1
  Co  Co104  1  -0.00033025  0.75390722  0.49677399  1
  Co  Co105  1  0.87892467  0.37590417  0.62577436  1
  Co  Co106  1  0.62709306  0.37402038  0.37225224  1
  Co  Co107  1  -0.00452206  0.49703652  0.49344918  1
  Co  Co108  1  0.63076417  0.87162432  0.37589172  1
  Co  Co109  1  0.00221353  0.50437424  0.74979355  1
  Co  Co110  1  0.49606528  0.75199835  0.49721386  1
  Co  Co111  1  0.75472365  0.75297128  0.50555388  1
  Co  Co112  1  0.74871252  0.74801023  0.24458958  1
  Co  Co113  1  0.63084786  0.63126621  0.38153172  1
  Co  Co114  1  0.00265273  0.74362842  0.74993808  1
  Co  Co115  1  0.00181438  0.25041287  0.74841504  1
  Co  Co116  1  0.87706867  0.87523432  0.12629031  1
  Co  Co117  1  0.62412940  0.37395282  0.62687523  1
  Co  Co118  1  0.62385363  0.62286519  0.12090063  1
  Co  Co119  1  0.75485901  0.49844721  0.00121384  1
  Co  Co120  1  0.50274287  -0.00108562  0.25263069  1
  Co  Co121  1  0.87304062  0.12276080  0.37832093  1
  Co  Co122  1  -0.00284426  0.25231855  -0.00042285  1
  Co  Co123  1  0.49773444  0.49913082  -0.00187627  1
  Co  Co124  1  0.62821810  0.87254163  0.87505810  1
  Co  Co125  1  0.24798451  0.00279299  0.24842873  1
  Co  Co126  1  0.12068098  0.12599126  0.12539947  1
  Co  Co127  1  0.12490452  0.62440209  0.88019895  1
