# generated using pymatgen
data_Fe45Co19
_symmetry_space_group_name_H-M   'P 1'
_cell_length_a   11.41537154
_cell_length_b   11.41500388
_cell_length_c   11.41582190
_cell_angle_alpha   90.01089309
_cell_angle_beta   89.99298479
_cell_angle_gamma   90.00002386
_symmetry_Int_Tables_number   1
_chemical_formula_structural   Fe45Co19
_chemical_formula_sum   'Fe90 Co38'
_cell_volume   1487.55587671
_cell_formula_units_Z   2
loop_
 _symmetry_equiv_pos_site_id
 _symmetry_equiv_pos_as_xyz
  1  'x, y, z'
loop_
 _atom_site_type_symbol
 _atom_site_label
 _atom_site_symmetry_multiplicity
 _atom_site_fract_x
 _atom_site_fract_y
 _atom_site_fract_z
 _atom_site_occupancy
  Fe  Fe0  1  0.37671595  0.87237803  0.37286530  1
  Fe  Fe1  1  0.37223307  0.62700185  0.12865413  1
  Fe  Fe2  1  0.75231258  -0.00224644  0.74998966  1
  Fe  Fe3  1  0.62508953  0.87532702  0.62529786  1
  Fe  Fe4  1  0.75182189  0.75303416  0.24794348  1
  Fe  Fe5  1  0.37811789  0.62447882  0.87293795  1
  Fe  Fe6  1  0.50017719  0.00203535  0.00085043  1
  Fe  Fe7  1  0.63028848  0.61889868  0.62924452  1
  Fe  Fe8  1  0.00217600  0.74727327  0.00073180  1
  Fe  Fe9  1  0.37892572  0.37461435  0.87673826  1
  Fe  Fe10  1  0.62660050  0.62109919  0.12347278  1
  Fe  Fe11  1  0.50150274  0.25029846  0.74761374  1
  Fe  Fe12  1  -0.00345542  0.00083446  0.24931156  1
  Fe  Fe13  1  0.25019352  0.50033063  -0.00004264  1
  Fe  Fe14  1  0.12481225  0.62186881  0.37259868  1
  Fe  Fe15  1  0.49885376  0.00246110  0.74813425  1
  Fe  Fe16  1  0.50020360  -0.00019409  0.24968837  1
  Fe  Fe17  1  0.24875343  0.74858433  -0.00098066  1
  Fe  Fe18  1  -0.00244046  0.00331262  -0.00079590  1
  Fe  Fe19  1  0.12347272  0.37716592  0.12748394  1
  Fe  Fe20  1  0.13019329  0.12539698  0.62843867  1
  Fe  Fe21  1  0.12651650  0.12443247  0.12644532  1
  Fe  Fe22  1  0.74731642  0.25221313  0.49926775  1
  Fe  Fe23  1  0.24885319  0.25042077  0.49896212  1
  Fe  Fe24  1  0.62750519  0.62354975  0.37272948  1
  Fe  Fe25  1  0.24735698  0.74851383  0.49881578  1
  Fe  Fe26  1  0.49874600  0.50018836  0.24867180  1
  Fe  Fe27  1  0.50160535  0.74755022  0.00086455  1
  Fe  Fe28  1  0.00032144  0.25244175  0.74702991  1
  Fe  Fe29  1  0.25043097  0.50037758  0.50035651  1
  Fe  Fe30  1  0.49918128  0.00309230  0.50164690  1
  Fe  Fe31  1  0.62899891  0.12632951  0.12670754  1
  Fe  Fe32  1  0.24858156  0.25183535  0.25198014  1
  Fe  Fe33  1  0.25209807  0.00135203  0.49847073  1
  Fe  Fe34  1  0.87366642  0.12566333  0.37476190  1
  Fe  Fe35  1  0.87141147  0.12815012  0.62592418  1
  Fe  Fe36  1  -0.00437507  0.50586802  0.50287835  1
  Fe  Fe37  1  -0.00244719  0.74962394  0.25179222  1
  Fe  Fe38  1  0.37510227  0.87216529  0.12798016  1
  Fe  Fe39  1  0.87734242  0.87204907  0.62100203  1
  Fe  Fe40  1  -0.00091377  0.74746138  0.74691894  1
  Fe  Fe41  1  0.75105153  -0.00024874  0.50093913  1
  Fe  Fe42  1  0.74874418  0.74858207  0.75405763  1
  Fe  Fe43  1  0.37517460  0.37325121  0.62297078  1
  Fe  Fe44  1  0.37305095  0.12623591  0.12631772  1
  Fe  Fe45  1  0.24939532  0.75148839  0.75033380  1
  Fe  Fe46  1  0.50277050  0.25075173  0.24918069  1
  Fe  Fe47  1  0.37541036  0.87374467  0.62464143  1
  Fe  Fe48  1  0.37410970  0.62647286  0.62624253  1
  Fe  Fe49  1  0.62498917  0.87449948  0.37385892  1
  Fe  Fe50  1  0.12275344  0.87550148  0.87511445  1
  Fe  Fe51  1  0.12346477  0.62242718  0.87204460  1
  Fe  Fe52  1  0.50356407  0.24951376  0.00118681  1
  Fe  Fe53  1  0.75237960  -0.00360787  0.24864106  1
  Fe  Fe54  1  0.50349150  0.74695692  0.50101681  1
  Fe  Fe55  1  0.74806739  0.74803613  -0.00174494  1
  Fe  Fe56  1  0.75024844  0.74883222  0.49855063  1
  Fe  Fe57  1  0.12399657  0.87643500  0.12525441  1
  Fe  Fe58  1  0.50064919  0.50271482  0.50112606  1
  Fe  Fe59  1  0.12289674  0.87470670  0.62233401  1
  Fe  Fe60  1  0.62569267  0.12400433  0.37448756  1
  Fe  Fe61  1  -0.00587283  0.50020112  0.74699007  1
  Fe  Fe62  1  0.25146806  -0.00023525  -0.00137910  1
  Fe  Fe63  1  0.37435003  0.62687323  0.37239291  1
  Fe  Fe64  1  0.25200039  0.49721221  0.74893417  1
  Fe  Fe65  1  0.12552422  0.12335757  0.37266781  1
  Fe  Fe66  1  0.12210478  0.37800677  0.37607738  1
  Fe  Fe67  1  0.12550890  0.62218107  0.12824263  1
  Fe  Fe68  1  0.75286766  0.49508478  0.24995294  1
  Fe  Fe69  1  0.00138623  0.25030675  0.00135103  1
  Fe  Fe70  1  0.75157109  0.00005695  0.00009804  1
  Fe  Fe71  1  0.87197350  0.13125795  0.12584671  1
  Fe  Fe72  1  0.87694985  0.87282155  0.87755228  1
  Fe  Fe73  1  0.12761347  0.12536711  0.87231142  1
  Fe  Fe74  1  0.62335514  0.87541776  0.87610550  1
  Fe  Fe75  1  0.87505659  0.62150052  0.12213749  1
  Fe  Fe76  1  0.74751366  0.25828130  0.75192898  1
  Fe  Fe77  1  0.37773192  0.87391073  0.87439581  1
  Fe  Fe78  1  0.62242263  0.37641799  0.37613825  1
  Fe  Fe79  1  0.37457548  0.37414510  0.12543151  1
  Fe  Fe80  1  0.24859994  0.25159610  -0.00202967  1
  Fe  Fe81  1  0.62647562  0.12540881  0.87338657  1
  Fe  Fe82  1  0.12237254  0.37697007  0.87294723  1
  Fe  Fe83  1  0.00129221  0.24754401  0.50180180  1
  Fe  Fe84  1  0.11994643  0.87674434  0.37694340  1
  Fe  Fe85  1  -0.00124288  0.00075469  0.74824226  1
  Fe  Fe86  1  0.87362756  0.12921701  0.87365936  1
  Fe  Fe87  1  0.87798762  0.37423182  0.37661041  1
  Fe  Fe88  1  0.50211532  0.24670415  0.50287990  1
  Fe  Fe89  1  0.37673881  0.37389362  0.37570968  1
  Co  Co90  1  0.88047925  0.37191130  0.87920284  1
  Co  Co91  1  0.87676168  0.87341674  0.12082502  1
  Co  Co92  1  0.24538519  0.75170435  0.25247263  1
  Co  Co93  1  0.74900378  0.25456287  0.25378287  1
  Co  Co94  1  0.50394065  0.74784854  0.24976155  1
  Co  Co95  1  0.25209258  0.49732388  0.25112549  1
  Co  Co96  1  -0.00048166  0.74233641  0.49931987  1
  Co  Co97  1  0.37475486  0.12755161  0.87459888  1
  Co  Co98  1  0.12688628  0.62341444  0.62707229  1
  Co  Co99  1  0.62672807  0.37968437  0.62377085  1
  Co  Co100  1  0.12367649  0.37737593  0.62343435  1
  Co  Co101  1  0.25077051  -0.00143380  0.25090875  1
  Co  Co102  1  0.75208426  0.49765888  -0.00638319  1
  Co  Co103  1  0.62095235  0.61991325  0.87389358  1
  Co  Co104  1  0.00136569  0.49883003  0.00138927  1
  Co  Co105  1  0.75137355  0.49812761  0.49685856  1
  Co  Co106  1  0.00068855  0.25034046  0.25071578  1
  Co  Co107  1  0.61794524  0.38014518  0.87647647  1
  Co  Co108  1  0.62736705  0.37744760  0.12333214  1
  Co  Co109  1  0.87138724  0.62520351  0.37252376  1
  Co  Co110  1  0.50280164  0.74896012  0.74772930  1
  Co  Co111  1  0.62902273  0.12495724  0.62641796  1
  Co  Co112  1  0.87708547  0.87470617  0.37914867  1
  Co  Co113  1  0.87362177  0.37511767  0.62157852  1
  Co  Co114  1  0.74683792  0.25420097  -0.00348108  1
  Co  Co115  1  0.25084022  -0.00384231  0.75207253  1
  Co  Co116  1  0.49801104  0.49836983  0.74606841  1
  Co  Co117  1  0.37581814  0.12723709  0.37332715  1
  Co  Co118  1  -0.00401413  0.49878652  0.24971236  1
  Co  Co119  1  -0.00115639  0.00607274  0.50317580  1
  Co  Co120  1  0.62445839  0.87490607  0.12345153  1
  Co  Co121  1  0.87415629  0.37262187  0.12268804  1
  Co  Co122  1  0.87795347  0.62649748  0.87711021  1
  Co  Co123  1  0.75464284  0.49572130  0.75827618  1
  Co  Co124  1  0.37048517  0.12706764  0.62722569  1
  Co  Co125  1  0.25047878  0.25605671  0.75185812  1
  Co  Co126  1  0.49667842  0.50173117  0.00497288  1
  Co  Co127  1  0.86735545  0.62470883  0.62632255  1
