# generated using pymatgen
data_Fe45Co19
_symmetry_space_group_name_H-M   'P 1'
_cell_length_a   11.40739063
_cell_length_b   11.40519828
_cell_length_c   11.40865277
_cell_angle_alpha   90.00796851
_cell_angle_beta   90.00260647
_cell_angle_gamma   89.99574278
_symmetry_Int_Tables_number   1
_chemical_formula_structural   Fe45Co19
_chemical_formula_sum   'Fe90 Co38'
_cell_volume   1484.30622930
_cell_formula_units_Z   2
loop_
 _symmetry_equiv_pos_site_id
 _symmetry_equiv_pos_as_xyz
  1  'x, y, z'
loop_
 _atom_site_type_symbol
 _atom_site_label
 _atom_site_symmetry_multiplicity
 _atom_site_fract_x
 _atom_site_fract_y
 _atom_site_fract_z
 _atom_site_occupancy
  Fe  Fe0  1  0.25277199  0.50243307  0.49692877  1
  Fe  Fe1  1  0.74653814  0.25428903  0.75403669  1
  Fe  Fe2  1  0.87741068  0.87443710  0.37598722  1
  Fe  Fe3  1  0.24927617  0.25055802  0.75105507  1
  Fe  Fe4  1  0.74703239  0.25209912  0.49834408  1
  Fe  Fe5  1  0.62731120  0.12595012  0.12279400  1
  Fe  Fe6  1  0.12863348  0.37655024  0.62404791  1
  Fe  Fe7  1  0.87529652  0.87412898  0.12357938  1
  Fe  Fe8  1  0.37850071  0.37151377  0.87455444  1
  Fe  Fe9  1  0.49620150  0.00166792  0.00400347  1
  Fe  Fe10  1  -0.00056777  0.00072333  0.24995763  1
  Fe  Fe11  1  -0.00215215  0.50024012  0.50302047  1
  Fe  Fe12  1  0.25236629  -0.00167108  0.49673608  1
  Fe  Fe13  1  0.25013138  0.50077108  -0.00436286  1
  Fe  Fe14  1  0.49985016  0.74892281  0.74778635  1
  Fe  Fe15  1  0.87929053  0.12632635  0.87554879  1
  Fe  Fe16  1  0.37738179  0.12960985  0.87548649  1
  Fe  Fe17  1  0.49857472  -0.00081052  0.24739644  1
  Fe  Fe18  1  0.87489818  0.12523733  0.12409544  1
  Fe  Fe19  1  0.25197810  0.74755758  0.49683137  1
  Fe  Fe20  1  0.87180587  0.12369433  0.62424392  1
  Fe  Fe21  1  0.25145194  -0.00028031  -0.00072550  1
  Fe  Fe22  1  0.49663218  0.49988667  0.00319963  1
  Fe  Fe23  1  0.62647069  0.87619903  0.12389371  1
  Fe  Fe24  1  0.12159247  0.87519387  0.87208949  1
  Fe  Fe25  1  0.12745572  0.62210000  0.12531571  1
  Fe  Fe26  1  0.12241723  0.87355998  0.37664435  1
  Fe  Fe27  1  0.62689006  0.87885199  0.62451760  1
  Fe  Fe28  1  0.25281486  0.74738322  0.75190283  1
  Fe  Fe29  1  0.88043157  0.87562157  0.87282439  1
  Fe  Fe30  1  0.12174352  0.12413059  0.37768465  1
  Fe  Fe31  1  0.00114272  0.74716545  0.24733899  1
  Fe  Fe32  1  0.62230750  0.62454188  0.37348138  1
  Fe  Fe33  1  0.00083116  0.25132363  0.24852017  1
  Fe  Fe34  1  0.12167235  0.12384450  0.87507946  1
  Fe  Fe35  1  0.62832653  0.37482441  0.12236046  1
  Fe  Fe36  1  0.74883419  0.75009181  0.75223565  1
  Fe  Fe37  1  0.88039074  0.62290714  0.87206652  1
  Fe  Fe38  1  0.25101208  0.00088857  0.75198473  1
  Fe  Fe39  1  0.12195428  0.37707775  0.37604744  1
  Fe  Fe40  1  0.49674526  0.74804144  0.00572293  1
  Fe  Fe41  1  -0.00074297  0.24971037  0.50210287  1
  Fe  Fe42  1  0.37306251  0.37352276  0.62476496  1
  Fe  Fe43  1  0.37627213  0.87312174  0.87719549  1
  Fe  Fe44  1  0.87856441  0.62640833  0.37534884  1
  Fe  Fe45  1  0.12807871  0.12526995  0.12489377  1
  Fe  Fe46  1  0.24821025  0.25062773  0.25329044  1
  Fe  Fe47  1  0.87625833  0.37441099  0.37505477  1
  Fe  Fe48  1  0.50241459  0.75046942  0.50181290  1
  Fe  Fe49  1  0.86855605  0.37780655  0.62625448  1
  Fe  Fe50  1  0.62171845  0.87520791  0.87665103  1
  Fe  Fe51  1  0.36818621  0.37416234  0.12479883  1
  Fe  Fe52  1  0.12122127  0.37709784  0.87353913  1
  Fe  Fe53  1  0.49908341  0.49838789  0.74922563  1
  Fe  Fe54  1  0.50082597  0.49940655  0.50075842  1
  Fe  Fe55  1  0.74815192  0.75025699  0.49862142  1
  Fe  Fe56  1  0.00154527  0.74733257  0.00149710  1
  Fe  Fe57  1  0.62799851  0.62049654  0.62624060  1
  Fe  Fe58  1  0.75082595  -0.00060607  0.49574215  1
  Fe  Fe59  1  0.75235586  0.49739569  -0.00664463  1
  Fe  Fe60  1  0.37403185  0.87542934  0.62501267  1
  Fe  Fe61  1  0.12828355  0.87373170  0.12445434  1
  Fe  Fe62  1  0.75163469  0.00074294  -0.00224344  1
  Fe  Fe63  1  0.12854343  0.12322664  0.62254853  1
  Fe  Fe64  1  0.62313488  0.12437966  0.37476750  1
  Fe  Fe65  1  0.49972100  0.25024171  0.24551072  1
  Fe  Fe66  1  0.75159876  0.49931700  0.25374367  1
  Fe  Fe67  1  0.37835094  0.37340944  0.37631752  1
  Fe  Fe68  1  0.62139508  0.13023534  0.87787383  1
  Fe  Fe69  1  0.74945086  0.00095999  0.75456461  1
  Fe  Fe70  1  0.49920490  0.00418390  0.74670141  1
  Fe  Fe71  1  0.12261092  0.62315651  0.87024896  1
  Fe  Fe72  1  0.86982565  0.62210937  0.62772985  1
  Fe  Fe73  1  0.75047726  0.25018645  0.25102800  1
  Fe  Fe74  1  0.00014242  0.25051192  0.74564993  1
  Fe  Fe75  1  0.75124988  -0.00025085  0.25216942  1
  Fe  Fe76  1  0.74846371  0.75084470  0.25128099  1
  Fe  Fe77  1  0.12820004  0.62421918  0.62574876  1
  Fe  Fe78  1  0.62121371  0.62414153  0.87640094  1
  Fe  Fe79  1  0.49870879  0.50064160  0.24678557  1
  Fe  Fe80  1  0.87606877  0.37826232  0.12377967  1
  Fe  Fe81  1  0.25129900  -0.00129252  0.25179164  1
  Fe  Fe82  1  0.37697106  0.12674638  0.37624066  1
  Fe  Fe83  1  0.00250930  0.25264228  0.00361035  1
  Fe  Fe84  1  -0.00107077  0.75373937  0.50830633  1
  Fe  Fe85  1  0.37944316  0.86957082  0.37083883  1
  Fe  Fe86  1  0.62982164  0.62318456  0.12347178  1
  Fe  Fe87  1  0.24951640  0.50401543  0.25688586  1
  Fe  Fe88  1  0.50299568  0.24790936  0.50663265  1
  Fe  Fe89  1  0.75194328  0.74935386  -0.00282442  1
  Co  Co90  1  0.74961050  0.50080558  0.49354637  1
  Co  Co91  1  0.24964054  0.25118823  0.49668356  1
  Co  Co92  1  -0.00034129  0.75143601  0.74405360  1
  Co  Co93  1  0.24812852  0.74848051  -0.00433085  1
  Co  Co94  1  0.36894760  0.12624861  0.62460229  1
  Co  Co95  1  0.62203210  0.87683517  0.37498287  1
  Co  Co96  1  0.49688713  0.24994092  0.00717979  1
  Co  Co97  1  0.50281192  0.24872092  0.74177506  1
  Co  Co98  1  0.86828607  0.87738507  0.62703998  1
  Co  Co99  1  0.38126123  0.62791197  0.37335409  1
  Co  Co100  1  0.25324877  0.49931127  0.75110610  1
  Co  Co101  1  0.74773490  0.49767426  0.75889260  1
  Co  Co102  1  0.63014150  0.12103261  0.62457015  1
  Co  Co103  1  0.36898771  0.12630448  0.12543863  1
  Co  Co104  1  0.12891662  0.37830059  0.12685446  1
  Co  Co105  1  -0.00042221  -0.00221250  0.50487592  1
  Co  Co106  1  0.00122847  0.50100526  0.00224046  1
  Co  Co107  1  0.24591253  0.74648746  0.25493262  1
  Co  Co108  1  0.00081744  -0.00022344  0.00226537  1
  Co  Co109  1  0.37042442  0.87040240  0.12705855  1
  Co  Co110  1  -0.00023162  0.50067499  0.24963990  1
  Co  Co111  1  0.13190136  0.87490457  0.62648395  1
  Co  Co112  1  0.87696244  0.12581816  0.37642280  1
  Co  Co113  1  0.88220098  0.37483881  0.87443711  1
  Co  Co114  1  0.24738337  0.25070413  -0.00271436  1
  Co  Co115  1  0.37486963  0.62466398  0.62455865  1
  Co  Co116  1  0.61764314  0.37174351  0.87775889  1
  Co  Co117  1  0.11848190  0.62542956  0.37940721  1
  Co  Co118  1  0.87236094  0.62374864  0.12499176  1
  Co  Co119  1  0.00015362  0.49864283  0.74379013  1
  Co  Co120  1  0.49723657  0.00138113  0.50154002  1
  Co  Co121  1  0.50449959  0.74842132  0.24376863  1
  Co  Co122  1  0.00032287  0.00005018  0.74329315  1
  Co  Co123  1  0.36870510  0.62702238  0.12674332  1
  Co  Co124  1  0.62158805  0.37352340  0.37418604  1
  Co  Co125  1  0.62897907  0.37999288  0.62544682  1
  Co  Co126  1  0.75288729  0.25227339  -0.00247147  1
  Co  Co127  1  0.37782763  0.62551302  0.87516474  1
