# generated using pymatgen
data_Fe45Co19
_symmetry_space_group_name_H-M   'P 1'
_cell_length_a   11.41628522
_cell_length_b   11.41329271
_cell_length_c   11.41540309
_cell_angle_alpha   89.99943135
_cell_angle_beta   89.99833891
_cell_angle_gamma   89.99297750
_symmetry_Int_Tables_number   1
_chemical_formula_structural   Fe45Co19
_chemical_formula_sum   'Fe90 Co38'
_cell_volume   1487.39738555
_cell_formula_units_Z   2
loop_
 _symmetry_equiv_pos_site_id
 _symmetry_equiv_pos_as_xyz
  1  'x, y, z'
loop_
 _atom_site_type_symbol
 _atom_site_label
 _atom_site_symmetry_multiplicity
 _atom_site_fract_x
 _atom_site_fract_y
 _atom_site_fract_z
 _atom_site_occupancy
  Fe  Fe0  1  0.62585410  0.37689394  0.62606232  1
  Fe  Fe1  1  0.74888715  0.75395743  0.49684728  1
  Fe  Fe2  1  0.87452898  0.12126585  0.62467700  1
  Fe  Fe3  1  0.62572584  0.37258747  0.87311812  1
  Fe  Fe4  1  0.37597075  0.62561043  0.37859584  1
  Fe  Fe5  1  0.62386566  0.62573416  0.37500403  1
  Fe  Fe6  1  0.12643033  0.12514477  0.87275484  1
  Fe  Fe7  1  0.12496096  0.62410197  0.62397077  1
  Fe  Fe8  1  0.62470116  0.62275577  0.12572648  1
  Fe  Fe9  1  0.74786429  0.00031253  -0.00076836  1
  Fe  Fe10  1  -0.00164179  0.50022973  0.00121935  1
  Fe  Fe11  1  0.87910343  0.37368760  0.37511687  1
  Fe  Fe12  1  0.75152937  0.49912003  0.75223825  1
  Fe  Fe13  1  0.00300166  0.24532855  0.50032513  1
  Fe  Fe14  1  0.87370846  0.62604636  0.62505182  1
  Fe  Fe15  1  0.62398192  0.37355350  0.37399617  1
  Fe  Fe16  1  0.74749616  0.24862892  0.50076211  1
  Fe  Fe17  1  0.49752786  0.25025105  0.24842838  1
  Fe  Fe18  1  0.50210018  0.24881248  0.50027900  1
  Fe  Fe19  1  0.87812186  0.62415208  0.37397655  1
  Fe  Fe20  1  0.37871122  0.87918526  0.62519970  1
  Fe  Fe21  1  0.75164059  0.49910112  0.25076486  1
  Fe  Fe22  1  0.25132821  0.50059124  0.74984164  1
  Fe  Fe23  1  -0.00154781  0.24869484  0.74912423  1
  Fe  Fe24  1  0.37486068  0.87458543  0.12549113  1
  Fe  Fe25  1  0.37598716  0.63094470  0.87444155  1
  Fe  Fe26  1  0.25286019  0.49804487  -0.00331851  1
  Fe  Fe27  1  0.37523172  0.37529641  0.62220501  1
  Fe  Fe28  1  0.75107132  0.49874494  0.49786718  1
  Fe  Fe29  1  0.49799822  0.49642122  0.25125948  1
  Fe  Fe30  1  0.87518063  0.37408006  0.12527211  1
  Fe  Fe31  1  0.62263768  0.62849632  0.87636340  1
  Fe  Fe32  1  0.37595025  0.12257322  0.37851221  1
  Fe  Fe33  1  0.12663515  0.87287723  0.87428934  1
  Fe  Fe34  1  0.37321240  0.62309653  0.12471739  1
  Fe  Fe35  1  0.74553772  0.00107957  0.75477121  1
  Fe  Fe36  1  0.12461213  0.37449062  0.87465719  1
  Fe  Fe37  1  0.12540502  0.37569937  0.62280842  1
  Fe  Fe38  1  -0.00402958  0.00509332  0.25196665  1
  Fe  Fe39  1  0.00233417  0.24747150  0.00156595  1
  Fe  Fe40  1  0.24937527  0.75005727  0.25107596  1
  Fe  Fe41  1  0.87319699  0.12748185  0.87532602  1
  Fe  Fe42  1  0.62569510  0.12340429  0.12735483  1
  Fe  Fe43  1  0.00271502  0.24668142  0.24939515  1
  Fe  Fe44  1  0.87416782  0.87879376  0.62421031  1
  Fe  Fe45  1  0.74898609  0.25065812  0.00103284  1
  Fe  Fe46  1  0.37627743  0.12748578  0.87458065  1
  Fe  Fe47  1  0.49869279  0.25340174  0.00258631  1
  Fe  Fe48  1  0.12933758  0.37334335  0.12509353  1
  Fe  Fe49  1  0.50316808  0.75471054  0.50074814  1
  Fe  Fe50  1  0.75073810  0.49849394  -0.00030698  1
  Fe  Fe51  1  -0.00133604  0.49958204  0.75019944  1
  Fe  Fe52  1  0.49928380  0.50146018  0.74948210  1
  Fe  Fe53  1  0.25111737  0.24924668  0.74810527  1
  Fe  Fe54  1  0.00010011  0.75231615  0.74955937  1
  Fe  Fe55  1  0.37169730  0.12661494  0.12242958  1
  Fe  Fe56  1  0.24877828  0.75350308  0.50096862  1
  Fe  Fe57  1  0.24969796  0.25011356  0.25384996  1
  Fe  Fe58  1  0.62325264  0.11935211  0.62424645  1
  Fe  Fe59  1  0.87593050  0.62773434  0.87666055  1
  Fe  Fe60  1  0.74811498  -0.00149203  0.49120434  1
  Fe  Fe61  1  0.25032042  -0.00049130  -0.00132143  1
  Fe  Fe62  1  0.12388753  0.87772639  0.12547127  1
  Fe  Fe63  1  0.49755156  0.75032648  0.24879214  1
  Fe  Fe64  1  0.87408463  0.37398782  0.62544925  1
  Fe  Fe65  1  0.25308416  -0.00013369  0.25041466  1
  Fe  Fe66  1  0.25000008  0.49782199  0.25574971  1
  Fe  Fe67  1  0.74893536  0.75085489  0.00323468  1
  Fe  Fe68  1  0.00036218  0.00158109  -0.00151018  1
  Fe  Fe69  1  0.75142137  0.75039669  0.25055403  1
  Fe  Fe70  1  0.12188420  0.62205108  0.37781419  1
  Fe  Fe71  1  0.25254841  0.00118474  0.74833915  1
  Fe  Fe72  1  0.00067527  0.74782069  0.24742325  1
  Fe  Fe73  1  0.62462190  0.87819749  0.12967698  1
  Fe  Fe74  1  0.12644896  0.62916497  0.87541929  1
  Fe  Fe75  1  0.12210196  0.88083010  0.62504438  1
  Fe  Fe76  1  0.74717272  0.75190237  0.74918570  1
  Fe  Fe77  1  0.62680322  0.62447184  0.62313354  1
  Fe  Fe78  1  0.24766108  0.24619407  0.50058927  1
  Fe  Fe79  1  0.50103172  -0.00091053  -0.00157512  1
  Fe  Fe80  1  0.12689044  0.62472107  0.12288122  1
  Fe  Fe81  1  0.75036692  0.24759661  0.25000105  1
  Fe  Fe82  1  0.87565886  0.87637171  0.12616748  1
  Fe  Fe83  1  0.87373609  0.87392089  0.87556544  1
  Fe  Fe84  1  0.12453051  0.87869028  0.37530292  1
  Fe  Fe85  1  0.49834463  0.49672006  0.00084117  1
  Fe  Fe86  1  0.37515178  0.62524865  0.62227319  1
  Fe  Fe87  1  0.37731792  0.87034909  0.87336814  1
  Fe  Fe88  1  -0.00111115  0.75168323  0.50119683  1
  Fe  Fe89  1  0.50150055  0.24793331  0.74806759  1
  Co  Co90  1  0.25019914  0.00121891  0.50298746  1
  Co  Co91  1  0.87352067  0.62535805  0.12480229  1
  Co  Co92  1  0.87324888  0.12507712  0.12329801  1
  Co  Co93  1  0.87871305  0.87299567  0.37328682  1
  Co  Co94  1  0.87455865  0.37156791  0.87560472  1
  Co  Co95  1  0.00064927  0.75147860  0.00141244  1
  Co  Co96  1  0.49957584  0.75074639  0.00552398  1
  Co  Co97  1  0.50214414  0.49915063  0.49966204  1
  Co  Co98  1  0.12763568  0.11994861  0.37385379  1
  Co  Co99  1  0.00115308  0.49931084  0.24560900  1
  Co  Co100  1  0.12300460  0.12127422  0.62802111  1
  Co  Co101  1  0.75392900  0.00206188  0.25377634  1
  Co  Co102  1  0.74914787  0.24719194  0.74694056  1
  Co  Co103  1  0.12124122  0.37590173  0.37695513  1
  Co  Co104  1  0.12893082  0.12306857  0.12557497  1
  Co  Co105  1  0.25018147  0.49898459  0.49821519  1
  Co  Co106  1  0.36983803  0.37476612  0.12615140  1
  Co  Co107  1  -0.00187123  -0.00003748  0.75426872  1
  Co  Co108  1  -0.00249658  0.49960479  0.50330332  1
  Co  Co109  1  0.24915528  0.24975596  -0.00284290  1
  Co  Co110  1  -0.00111607  0.00307636  0.49651130  1
  Co  Co111  1  0.24972446  0.75140337  0.74522519  1
  Co  Co112  1  0.37638024  0.37275466  0.87219251  1
  Co  Co113  1  0.62648112  0.87982843  0.62525944  1
  Co  Co114  1  0.37909330  0.12301317  0.62406453  1
  Co  Co115  1  0.62634200  0.37503801  0.12656487  1
  Co  Co116  1  0.50270725  0.75049458  0.74486750  1
  Co  Co117  1  0.62189498  0.87607771  0.36773500  1
  Co  Co118  1  0.62274761  0.12543439  0.37134850  1
  Co  Co119  1  0.25044175  0.75206241  0.00330742  1
  Co  Co120  1  0.37410966  0.87506206  0.37553268  1
  Co  Co121  1  0.49550315  0.00242178  0.24895651  1
  Co  Co122  1  0.62401304  0.13006440  0.87768098  1
  Co  Co123  1  0.50220213  0.00036358  0.75552180  1
  Co  Co124  1  0.37629330  0.37287718  0.37901122  1
  Co  Co125  1  0.50229400  -0.00265404  0.49577127  1
  Co  Co126  1  0.62286737  0.87016113  0.87634786  1
  Co  Co127  1  0.87425596  0.12919825  0.37716266  1
