# generated using pymatgen
data_Fe45Co19
_symmetry_space_group_name_H-M   'P 1'
_cell_length_a   11.41669915
_cell_length_b   11.41584304
_cell_length_c   11.41597204
_cell_angle_alpha   89.99444288
_cell_angle_beta   90.00059073
_cell_angle_gamma   89.99642361
_symmetry_Int_Tables_number   1
_chemical_formula_structural   Fe45Co19
_chemical_formula_sum   'Fe90 Co38'
_cell_volume   1487.85784473
_cell_formula_units_Z   2
loop_
 _symmetry_equiv_pos_site_id
 _symmetry_equiv_pos_as_xyz
  1  'x, y, z'
loop_
 _atom_site_type_symbol
 _atom_site_label
 _atom_site_symmetry_multiplicity
 _atom_site_fract_x
 _atom_site_fract_y
 _atom_site_fract_z
 _atom_site_occupancy
  Fe  Fe0  1  -0.00390753  0.49743593  0.00027277  1
  Fe  Fe1  1  -0.00183541  0.50161608  0.74874227  1
  Fe  Fe2  1  0.50020720  0.75260155  0.50092117  1
  Fe  Fe3  1  0.12618012  0.37647603  0.62203787  1
  Fe  Fe4  1  0.75266333  0.50280894  0.75294264  1
  Fe  Fe5  1  0.62607346  0.12329156  0.62330305  1
  Fe  Fe6  1  0.12489618  0.12401805  0.62206112  1
  Fe  Fe7  1  0.50262190  0.49789185  0.24611990  1
  Fe  Fe8  1  0.24859545  0.74927499  0.75071078  1
  Fe  Fe9  1  0.37523784  0.12288449  0.62580435  1
  Fe  Fe10  1  0.75516422  -0.00073465  -0.00155744  1
  Fe  Fe11  1  -0.00078367  0.74691093  0.74798064  1
  Fe  Fe12  1  0.50437859  0.75095140  0.24910990  1
  Fe  Fe13  1  0.62554393  0.62142428  0.37465274  1
  Fe  Fe14  1  0.12420842  0.87460961  0.62388664  1
  Fe  Fe15  1  0.49760620  0.74902880  0.00179427  1
  Fe  Fe16  1  0.87639594  0.12767106  0.12804244  1
  Fe  Fe17  1  0.62832285  0.62289237  0.12227256  1
  Fe  Fe18  1  0.74940457  -0.00268980  0.75242117  1
  Fe  Fe19  1  0.25193543  -0.00254833  0.49762210  1
  Fe  Fe20  1  0.62854299  0.87685085  0.12392161  1
  Fe  Fe21  1  0.87306729  0.37376536  0.62686099  1
  Fe  Fe22  1  0.87340958  0.37554170  0.12858168  1
  Fe  Fe23  1  0.25021998  0.50072167  0.24946630  1
  Fe  Fe24  1  0.12282864  0.12421920  0.37567909  1
  Fe  Fe25  1  0.87313847  0.62319333  0.12739193  1
  Fe  Fe26  1  0.50282398  -0.00527028  0.74852053  1
  Fe  Fe27  1  0.37627953  0.37583396  0.37391279  1
  Fe  Fe28  1  0.12421345  0.37544691  0.12698696  1
  Fe  Fe29  1  0.49902671  -0.00358471  0.49961560  1
  Fe  Fe30  1  0.87279474  0.62155072  0.37168205  1
  Fe  Fe31  1  0.25203704  0.25026731  0.49906724  1
  Fe  Fe32  1  0.25408243  0.50034752  0.00066139  1
  Fe  Fe33  1  0.24912463  0.25011617  0.00063312  1
  Fe  Fe34  1  0.12405732  0.62257149  0.37553096  1
  Fe  Fe35  1  0.75043373  0.74797066  0.49677743  1
  Fe  Fe36  1  0.37381095  0.87548048  0.12894744  1
  Fe  Fe37  1  0.12084451  0.12646221  0.87733604  1
  Fe  Fe38  1  -0.00137340  0.75123544  0.00265388  1
  Fe  Fe39  1  0.49766640  0.50034256  0.75086380  1
  Fe  Fe40  1  0.50418075  0.25106325  0.25014488  1
  Fe  Fe41  1  -0.00026772  0.00112993  0.74893014  1
  Fe  Fe42  1  0.87623323  0.87433017  0.13118841  1
  Fe  Fe43  1  0.74599787  0.25365897  0.25380599  1
  Fe  Fe44  1  0.37723542  0.12183305  0.37179831  1
  Fe  Fe45  1  -0.00146516  0.74834247  0.49846706  1
  Fe  Fe46  1  0.75311850  0.75079923  -0.00193253  1
  Fe  Fe47  1  0.87803877  0.12930837  0.87283271  1
  Fe  Fe48  1  0.49930937  0.25076573  0.00053526  1
  Fe  Fe49  1  0.49877619  0.50165305  0.50249932  1
  Fe  Fe50  1  0.62533907  0.12347437  0.87674970  1
  Fe  Fe51  1  0.37735866  0.62672920  0.37196790  1
  Fe  Fe52  1  0.49920219  0.00031690  0.00238002  1
  Fe  Fe53  1  0.87335493  0.12767859  0.62656163  1
  Fe  Fe54  1  0.24687851  0.74971325  0.24957809  1
  Fe  Fe55  1  -0.00368338  -0.00142923  0.49848074  1
  Fe  Fe56  1  0.50134163  0.25069670  0.74961703  1
  Fe  Fe57  1  0.12296618  0.37454538  0.87545803  1
  Fe  Fe58  1  0.24846941  -0.00022403  0.75125062  1
  Fe  Fe59  1  0.37586771  0.12555049  0.87430162  1
  Fe  Fe60  1  0.24921852  0.25071078  0.74871324  1
  Fe  Fe61  1  0.50049486  0.24973010  0.50007198  1
  Fe  Fe62  1  0.37455871  0.62831498  0.62724498  1
  Fe  Fe63  1  0.62568566  0.37651850  0.87723022  1
  Fe  Fe64  1  0.87494297  0.12709627  0.37267035  1
  Fe  Fe65  1  0.25057575  0.74977134  0.00097495  1
  Fe  Fe66  1  0.12102838  0.87517641  0.87701913  1
  Fe  Fe67  1  0.25309669  0.50125971  0.49994220  1
  Fe  Fe68  1  0.24892925  -0.00083150  0.00113687  1
  Fe  Fe69  1  0.75233870  0.25207135  -0.00230621  1
  Fe  Fe70  1  0.25050618  0.75041468  0.49898455  1
  Fe  Fe71  1  0.62418820  0.62729787  0.87661580  1
  Fe  Fe72  1  0.62591046  0.37688663  0.62446020  1
  Fe  Fe73  1  0.87257720  0.87189684  0.62511172  1
  Fe  Fe74  1  0.12375662  0.62456696  0.12430280  1
  Fe  Fe75  1  0.25168139  0.49978738  0.75026803  1
  Fe  Fe76  1  0.62830503  0.62693575  0.62632808  1
  Fe  Fe77  1  0.24732059  0.24966399  0.25141040  1
  Fe  Fe78  1  0.12222149  0.87542849  0.37251194  1
  Fe  Fe79  1  0.62786166  0.12485915  0.12499570  1
  Fe  Fe80  1  0.62828570  0.87782723  0.37343213  1
  Fe  Fe81  1  0.75235912  0.00027789  0.49748196  1
  Fe  Fe82  1  0.37487379  0.12509069  0.12756977  1
  Fe  Fe83  1  0.12330996  0.62405967  0.87701629  1
  Fe  Fe84  1  0.74808721  0.25253660  0.49793020  1
  Fe  Fe85  1  0.49603433  0.49958113  0.00166323  1
  Fe  Fe86  1  -0.00238579  0.50041666  0.50027417  1
  Fe  Fe87  1  -0.00068797  0.25272716  0.49862204  1
  Fe  Fe88  1  0.37684998  0.87330803  0.87437810  1
  Fe  Fe89  1  0.12052058  0.12284872  0.12536259  1
  Co  Co90  1  -0.00370238  -0.00019006  0.00122554  1
  Co  Co91  1  0.75079391  0.00168658  0.25017244  1
  Co  Co92  1  0.75385392  0.49946299  -0.00302636  1
  Co  Co93  1  0.87854878  0.87342293  0.87260985  1
  Co  Co94  1  0.00190702  0.25214723  0.25239573  1
  Co  Co95  1  0.74563564  0.49765217  0.24992724  1
  Co  Co96  1  0.87443983  0.37800771  0.37341795  1
  Co  Co97  1  0.24665122  0.00047393  0.24968166  1
  Co  Co98  1  0.37596826  0.62676638  0.87370095  1
  Co  Co99  1  0.37540340  0.37460639  0.62456863  1
  Co  Co100  1  0.50288055  0.75324606  0.74714374  1
  Co  Co101  1  0.62389059  0.87368297  0.87996022  1
  Co  Co102  1  -0.00102982  0.00052728  0.25156312  1
  Co  Co103  1  0.74927957  0.75014357  0.75424909  1
  Co  Co104  1  0.12595433  0.62425723  0.62364217  1
  Co  Co105  1  0.74529700  0.24994864  0.75072082  1
  Co  Co106  1  -0.00113143  0.25284356  0.00250859  1
  Co  Co107  1  0.37469223  0.62634516  0.12794368  1
  Co  Co108  1  0.75104209  0.49954178  0.50098994  1
  Co  Co109  1  0.00408322  0.25024190  0.74633174  1
  Co  Co110  1  0.37460748  0.37286184  0.87626138  1
  Co  Co111  1  0.12619307  0.37755055  0.37641552  1
  Co  Co112  1  0.12292935  0.87554216  0.12538726  1
  Co  Co113  1  0.87764450  0.62713579  0.87690026  1
  Co  Co114  1  0.87375213  0.87268919  0.37222978  1
  Co  Co115  1  0.87228285  0.62770256  0.62396445  1
  Co  Co116  1  0.63153499  0.87412023  0.62168831  1
  Co  Co117  1  0.62487146  0.12244807  0.37594621  1
  Co  Co118  1  0.62682480  0.37459125  0.11999185  1
  Co  Co119  1  0.00083574  0.74682014  0.25099739  1
  Co  Co120  1  0.37172656  0.87415103  0.62580750  1
  Co  Co121  1  0.74755660  0.74788037  0.25030898  1
  Co  Co122  1  0.62250793  0.37869624  0.37862945  1
  Co  Co123  1  0.00123805  0.50042208  0.24985133  1
  Co  Co124  1  0.37429602  0.37259201  0.12649460  1
  Co  Co125  1  0.87659129  0.37170107  0.87113653  1
  Co  Co126  1  0.37561027  0.87403869  0.37005792  1
  Co  Co127  1  0.50390365  -0.00080067  0.24794042  1
