# generated using pymatgen
data_Fe45Co19
_symmetry_space_group_name_H-M   'P 1'
_cell_length_a   11.41468085
_cell_length_b   11.41416913
_cell_length_c   11.41481213
_cell_angle_alpha   90.00043547
_cell_angle_beta   90.00261719
_cell_angle_gamma   90.00819439
_symmetry_Int_Tables_number   1
_chemical_formula_structural   Fe45Co19
_chemical_formula_sum   'Fe90 Co38'
_cell_volume   1487.22555565
_cell_formula_units_Z   2
loop_
 _symmetry_equiv_pos_site_id
 _symmetry_equiv_pos_as_xyz
  1  'x, y, z'
loop_
 _atom_site_type_symbol
 _atom_site_label
 _atom_site_symmetry_multiplicity
 _atom_site_fract_x
 _atom_site_fract_y
 _atom_site_fract_z
 _atom_site_occupancy
  Fe  Fe0  1  0.50153053  0.25185876  0.00222653  1
  Fe  Fe1  1  0.87623152  0.12413550  0.62518647  1
  Fe  Fe2  1  0.62284954  0.12357313  0.37507902  1
  Fe  Fe3  1  0.74939623  0.24942976  0.25014467  1
  Fe  Fe4  1  0.12913146  0.37528377  0.63010368  1
  Fe  Fe5  1  0.00162505  0.50003298  0.50021017  1
  Fe  Fe6  1  0.00062162  0.00263773  0.25034632  1
  Fe  Fe7  1  0.74880181  0.75244015  0.00459697  1
  Fe  Fe8  1  0.49748645  0.74895133  0.74975064  1
  Fe  Fe9  1  0.62357311  0.37469672  0.37551919  1
  Fe  Fe10  1  0.62720700  0.37620883  0.12516788  1
  Fe  Fe11  1  0.87471855  0.62423402  0.12547628  1
  Fe  Fe12  1  0.37170866  0.87512138  0.37047026  1
  Fe  Fe13  1  -0.00047491  0.49487333  -0.00018642  1
  Fe  Fe14  1  0.25279339  0.49912785  -0.00208482  1
  Fe  Fe15  1  0.87435092  0.37523326  0.37610945  1
  Fe  Fe16  1  0.25226163  0.74805051  0.75017797  1
  Fe  Fe17  1  0.62541028  0.62766225  0.37296365  1
  Fe  Fe18  1  0.87486303  0.37470699  0.62712829  1
  Fe  Fe19  1  0.74894275  0.00042013  0.75082218  1
  Fe  Fe20  1  0.50133620  -0.00401892  0.00083148  1
  Fe  Fe21  1  0.12524226  0.87512520  0.37329727  1
  Fe  Fe22  1  0.12558387  0.12498909  0.62557069  1
  Fe  Fe23  1  0.49703177  0.25152969  0.49778481  1
  Fe  Fe24  1  -0.00026394  0.25287927  0.24782188  1
  Fe  Fe25  1  0.25768250  0.50357301  0.75331452  1
  Fe  Fe26  1  0.25191510  0.49794438  0.49974294  1
  Fe  Fe27  1  0.00133630  0.74898595  0.74793448  1
  Fe  Fe28  1  0.49580471  0.24575533  0.75023042  1
  Fe  Fe29  1  0.49827015  0.75236793  0.49846741  1
  Fe  Fe30  1  0.00114940  0.75036014  -0.00130059  1
  Fe  Fe31  1  0.62589136  0.87295729  0.36999378  1
  Fe  Fe32  1  0.62077338  0.37642185  0.87270199  1
  Fe  Fe33  1  0.12501058  0.12727593  0.12348772  1
  Fe  Fe34  1  0.12477704  0.62283431  0.87438764  1
  Fe  Fe35  1  0.37289588  0.37421695  0.12544685  1
  Fe  Fe36  1  0.87551991  0.12689700  0.87645630  1
  Fe  Fe37  1  0.61981135  0.12223075  0.62286761  1
  Fe  Fe38  1  0.12707212  0.62376461  0.62485681  1
  Fe  Fe39  1  0.62312903  0.12358470  0.87626117  1
  Fe  Fe40  1  0.62053554  0.62460998  0.62374186  1
  Fe  Fe41  1  0.12484763  0.87848366  0.62557548  1
  Fe  Fe42  1  0.75000377  0.75018837  0.50029767  1
  Fe  Fe43  1  0.62387258  0.87527896  0.62786125  1
  Fe  Fe44  1  0.12485054  0.87402431  0.12845885  1
  Fe  Fe45  1  0.24795744  0.75088975  0.00070124  1
  Fe  Fe46  1  0.25364171  0.00576287  0.75326636  1
  Fe  Fe47  1  0.87680749  0.87338640  0.37657297  1
  Fe  Fe48  1  0.37432325  0.62500495  0.37668702  1
  Fe  Fe49  1  0.25014958  0.50231111  0.24962417  1
  Fe  Fe50  1  0.24875933  0.75034459  0.49996491  1
  Fe  Fe51  1  0.74910878  -0.00006728  0.50001568  1
  Fe  Fe52  1  0.62667782  0.12309218  0.12491780  1
  Fe  Fe53  1  0.87556310  0.62547406  0.62280879  1
  Fe  Fe54  1  0.37471021  0.87854374  0.62484190  1
  Fe  Fe55  1  0.49944789  0.50133240  0.24879253  1
  Fe  Fe56  1  0.74788223  0.49984760  0.74862541  1
  Fe  Fe57  1  0.24895997  0.00462906  0.49562282  1
  Fe  Fe58  1  0.37532436  0.62717895  0.12290751  1
  Fe  Fe59  1  0.00016933  0.49918360  0.24997004  1
  Fe  Fe60  1  0.75044530  0.50051272  0.25095694  1
  Fe  Fe61  1  0.49940406  0.25021322  0.24909036  1
  Fe  Fe62  1  0.12476839  0.62364098  0.12395767  1
  Fe  Fe63  1  0.37384438  0.12411218  0.12290330  1
  Fe  Fe64  1  0.50288704  0.75295276  0.00506562  1
  Fe  Fe65  1  0.74682218  0.49769842  0.50209231  1
  Fe  Fe66  1  0.87642198  0.12639265  0.37701516  1
  Fe  Fe67  1  0.12730933  0.37415529  0.37413713  1
  Fe  Fe68  1  0.74962246  -0.00341948  0.00089240  1
  Fe  Fe69  1  0.37558847  0.87414695  0.87626860  1
  Fe  Fe70  1  0.00200576  0.25115400  0.50126725  1
  Fe  Fe71  1  0.74981353  0.49734234  -0.00093952  1
  Fe  Fe72  1  0.87613827  0.87482951  0.62507027  1
  Fe  Fe73  1  0.74729087  0.24989111  0.74964304  1
  Fe  Fe74  1  0.12520234  0.87646026  0.87186921  1
  Fe  Fe75  1  0.00030844  -0.00144145  -0.00140451  1
  Fe  Fe76  1  0.87424006  0.62511342  0.87421998  1
  Fe  Fe77  1  0.49668862  -0.00052403  0.24908388  1
  Fe  Fe78  1  0.24880700  -0.00113771  0.00068052  1
  Fe  Fe79  1  0.87338448  0.87268157  0.87266342  1
  Fe  Fe80  1  0.75361433  -0.00080912  0.24881369  1
  Fe  Fe81  1  0.74759553  0.25040082  0.50197523  1
  Fe  Fe82  1  0.37669994  0.37551236  0.62590287  1
  Fe  Fe83  1  0.62237063  0.62569181  0.87663673  1
  Fe  Fe84  1  0.00142018  0.25678124  -0.00142068  1
  Fe  Fe85  1  0.25191063  0.24688388  0.25357425  1
  Fe  Fe86  1  0.24844684  0.25232591  -0.00525398  1
  Fe  Fe87  1  0.00017621  0.74542572  0.25347576  1
  Fe  Fe88  1  0.87427759  0.12793388  0.12196945  1
  Fe  Fe89  1  0.00267747  0.25064440  0.75261379  1
  Co  Co90  1  0.61889577  0.37420687  0.62693772  1
  Co  Co91  1  0.12789993  0.37903374  0.87015989  1
  Co  Co92  1  0.62535327  0.87592147  0.13065292  1
  Co  Co93  1  0.49828260  -0.00037220  0.75262787  1
  Co  Co94  1  0.37819333  0.62968935  0.88059064  1
  Co  Co95  1  0.12330846  0.12480684  0.87609198  1
  Co  Co96  1  0.74957483  0.74657887  0.74810488  1
  Co  Co97  1  -0.00198867  0.50243237  0.74925125  1
  Co  Co98  1  0.87102604  0.37441677  0.12586208  1
  Co  Co99  1  0.62535931  0.87236915  0.87215637  1
  Co  Co100  1  0.49726869  0.74834231  0.24826122  1
  Co  Co101  1  0.37732117  0.12427855  0.88065612  1
  Co  Co102  1  0.25390669  0.24557186  0.75120161  1
  Co  Co103  1  0.62707756  0.62418483  0.12564367  1
  Co  Co104  1  0.74720761  0.25232787  -0.00203860  1
  Co  Co105  1  0.49879542  0.49813404  0.00295601  1
  Co  Co106  1  0.87282271  0.62327338  0.37776744  1
  Co  Co107  1  0.37763028  0.37349837  0.87443215  1
  Co  Co108  1  0.49658157  0.50481447  0.75135447  1
  Co  Co109  1  0.12237655  0.12847037  0.37498583  1
  Co  Co110  1  0.37552996  0.62557819  0.62016244  1
  Co  Co111  1  0.37788312  0.12136027  0.62000242  1
  Co  Co112  1  0.87952719  0.87383387  0.12567773  1
  Co  Co113  1  0.50133594  -0.00583970  0.49635527  1
  Co  Co114  1  0.87401565  0.37453174  0.87130518  1
  Co  Co115  1  0.24888187  0.74648333  0.24883324  1
  Co  Co116  1  0.12968363  0.37515209  0.12629487  1
  Co  Co117  1  0.12772777  0.62307031  0.37734020  1
  Co  Co118  1  0.37842196  0.12375578  0.37669115  1
  Co  Co119  1  0.37184773  0.87497226  0.12616891  1
  Co  Co120  1  0.24878380  0.00448805  0.24950753  1
  Co  Co121  1  0.37455972  0.37670349  0.37342274  1
  Co  Co122  1  0.00063845  0.00090690  0.49965196  1
  Co  Co123  1  -0.00185578  0.00000318  0.75133221  1
  Co  Co124  1  0.25175933  0.24960096  0.50019977  1
  Co  Co125  1  0.00284664  0.74934624  0.50103416  1
  Co  Co126  1  0.50064073  0.50016774  0.49750776  1
  Co  Co127  1  0.75410671  0.75048830  0.24741904  1
