# generated using pymatgen
data_Fe45Co19
_symmetry_space_group_name_H-M   'P 1'
_cell_length_a   11.41455566
_cell_length_b   11.41486019
_cell_length_c   11.41426050
_cell_angle_alpha   89.98912679
_cell_angle_beta   89.99489067
_cell_angle_gamma   90.00444403
_symmetry_Int_Tables_number   1
_chemical_formula_structural   Fe45Co19
_chemical_formula_sum   'Fe90 Co38'
_cell_volume   1487.22739266
_cell_formula_units_Z   2
loop_
 _symmetry_equiv_pos_site_id
 _symmetry_equiv_pos_as_xyz
  1  'x, y, z'
loop_
 _atom_site_type_symbol
 _atom_site_label
 _atom_site_symmetry_multiplicity
 _atom_site_fract_x
 _atom_site_fract_y
 _atom_site_fract_z
 _atom_site_occupancy
  Fe  Fe0  1  0.87613380  0.62752828  0.62389977  1
  Fe  Fe1  1  0.12462185  0.87769528  0.87483178  1
  Fe  Fe2  1  0.00203128  0.74891324  0.75090317  1
  Fe  Fe3  1  0.50125305  0.75053530  0.49974652  1
  Fe  Fe4  1  0.62801449  0.87531255  0.37296416  1
  Fe  Fe5  1  0.87771164  0.12567546  0.87706801  1
  Fe  Fe6  1  0.62580473  0.37610786  0.87531706  1
  Fe  Fe7  1  0.00375049  0.25047416  0.75003841  1
  Fe  Fe8  1  0.62684739  0.62299505  0.62394971  1
  Fe  Fe9  1  0.62791056  0.37520713  0.62451322  1
  Fe  Fe10  1  0.24605610  0.24893843  0.75185928  1
  Fe  Fe11  1  0.24847470  0.75259769  0.74679907  1
  Fe  Fe12  1  0.37417758  0.87324695  0.37421213  1
  Fe  Fe13  1  0.62487512  0.12462425  0.37638606  1
  Fe  Fe14  1  0.87898152  0.87301116  0.62296387  1
  Fe  Fe15  1  0.50036697  0.25012297  0.50018461  1
  Fe  Fe16  1  0.49592855  0.50014421  0.00081192  1
  Fe  Fe17  1  0.87689241  0.12702839  0.62346539  1
  Fe  Fe18  1  0.12291495  0.62112876  0.62153273  1
  Fe  Fe19  1  0.74949766  0.75036841  -0.00027685  1
  Fe  Fe20  1  0.12372906  0.87767580  0.37296313  1
  Fe  Fe21  1  0.49881778  0.49894199  0.49973082  1
  Fe  Fe22  1  0.12417575  0.12216000  0.37209823  1
  Fe  Fe23  1  0.37105861  0.37433230  0.87473380  1
  Fe  Fe24  1  0.87695446  0.87504537  0.87666395  1
  Fe  Fe25  1  0.87897058  0.12638694  0.37136253  1
  Fe  Fe26  1  0.62855427  0.62496981  0.37637474  1
  Fe  Fe27  1  0.12222085  0.37912810  0.62156374  1
  Fe  Fe28  1  0.49928343  0.49933569  0.24997699  1
  Fe  Fe29  1  0.74928662  0.75074235  0.74997877  1
  Fe  Fe30  1  0.37265807  0.12572522  0.62457547  1
  Fe  Fe31  1  0.12735031  0.62101441  0.87343861  1
  Fe  Fe32  1  0.50009199  0.24871063  -0.00195238  1
  Fe  Fe33  1  0.00286320  0.75094634  0.00145631  1
  Fe  Fe34  1  0.12034083  0.61802681  0.37679041  1
  Fe  Fe35  1  0.87667436  0.37544067  0.87199742  1
  Fe  Fe36  1  0.49812548  0.00166801  0.24874085  1
  Fe  Fe37  1  0.49772714  0.75045710  0.00217371  1
  Fe  Fe38  1  0.12422432  0.12203670  0.62345721  1
  Fe  Fe39  1  0.24947019  -0.00251894  0.50144558  1
  Fe  Fe40  1  0.24847940  0.00237518  0.00065352  1
  Fe  Fe41  1  0.24599876  0.25356892  0.49512530  1
  Fe  Fe42  1  0.74804788  0.24838852  0.24896724  1
  Fe  Fe43  1  0.24414185  0.24943534  -0.00155982  1
  Fe  Fe44  1  0.37413663  0.87816017  0.87394349  1
  Fe  Fe45  1  0.37502856  0.62510782  0.37461725  1
  Fe  Fe46  1  0.37296424  0.12656422  0.37474799  1
  Fe  Fe47  1  0.00075061  -0.00005655  0.00801642  1
  Fe  Fe48  1  0.75154713  0.49805567  -0.00042801  1
  Fe  Fe49  1  0.87559540  0.62715670  0.12394744  1
  Fe  Fe50  1  0.75141225  0.00168512  0.74933744  1
  Fe  Fe51  1  0.49852101  0.49896986  0.74965799  1
  Fe  Fe52  1  0.75489436  0.50146569  0.25193883  1
  Fe  Fe53  1  0.37317733  0.62381925  0.87372190  1
  Fe  Fe54  1  0.37201662  0.37350467  0.12517255  1
  Fe  Fe55  1  0.62571764  0.12504858  0.12212575  1
  Fe  Fe56  1  0.75316499  0.00026899  0.49859784  1
  Fe  Fe57  1  0.00047709  0.00046082  0.74883754  1
  Fe  Fe58  1  0.37382234  0.62579708  0.62375576  1
  Fe  Fe59  1  0.00673255  0.25177082  0.24945297  1
  Fe  Fe60  1  0.12743649  0.62227020  0.12662923  1
  Fe  Fe61  1  0.49862421  0.00051943  0.49954086  1
  Fe  Fe62  1  0.62537954  0.37504867  0.37501169  1
  Fe  Fe63  1  0.87599697  0.37269103  0.12643643  1
  Fe  Fe64  1  0.74733057  0.24689416  0.75234375  1
  Fe  Fe65  1  0.62569514  0.37508833  0.12465042  1
  Fe  Fe66  1  0.00173078  0.49868571  0.00016221  1
  Fe  Fe67  1  0.62376677  0.87775929  0.62474078  1
  Fe  Fe68  1  0.00254555  0.75079808  0.24830395  1
  Fe  Fe69  1  0.75826564  0.49755383  0.49810665  1
  Fe  Fe70  1  0.37353526  0.37376140  0.62409303  1
  Fe  Fe71  1  0.50130024  0.74901976  0.24927709  1
  Fe  Fe72  1  0.62454139  0.87912763  0.87718764  1
  Fe  Fe73  1  0.24990514  0.74790401  0.00041746  1
  Fe  Fe74  1  0.50211258  0.24651559  0.75122544  1
  Fe  Fe75  1  0.62721217  0.87681057  0.12618942  1
  Fe  Fe76  1  0.00362706  0.25097303  0.00081347  1
  Fe  Fe77  1  0.75308074  0.25052675  0.49890276  1
  Fe  Fe78  1  0.62452690  0.62394775  0.87590252  1
  Fe  Fe79  1  0.87408526  0.87159127  0.37245489  1
  Fe  Fe80  1  0.24698817  0.75120045  0.50002340  1
  Fe  Fe81  1  0.49892543  0.00437847  0.75018979  1
  Fe  Fe82  1  0.37034457  0.12804844  0.12633388  1
  Fe  Fe83  1  0.62482565  0.62313175  0.12389578  1
  Fe  Fe84  1  0.75478157  0.00216953  0.00393398  1
  Fe  Fe85  1  0.50054801  0.75063267  0.75014413  1
  Fe  Fe86  1  0.87522474  0.62442323  0.87500400  1
  Fe  Fe87  1  0.49905391  0.24964723  0.25042995  1
  Fe  Fe88  1  0.25095652  0.49656392  0.25210930  1
  Fe  Fe89  1  0.36996382  0.87231749  0.12843725  1
  Co  Co90  1  0.12532105  0.37906953  0.87447462  1
  Co  Co91  1  0.12675314  0.12455041  0.12943620  1
  Co  Co92  1  -0.00022231  0.50100509  0.74899207  1
  Co  Co93  1  0.75175307  0.25112149  -0.00139338  1
  Co  Co94  1  0.37300659  0.12536211  0.87547503  1
  Co  Co95  1  0.00179586  0.25019463  0.49981437  1
  Co  Co96  1  0.12185789  0.12143781  0.87529512  1
  Co  Co97  1  0.62577337  0.12152554  0.88015790  1
  Co  Co98  1  0.87639111  0.63199557  0.37581166  1
  Co  Co99  1  0.37800208  0.37424515  0.37563982  1
  Co  Co100  1  0.74835208  0.74644559  0.24775902  1
  Co  Co101  1  -0.00212054  -0.00339795  0.24563665  1
  Co  Co102  1  0.25047014  0.49905339  0.74714478  1
  Co  Co103  1  -0.00487414  0.50130112  0.24907977  1
  Co  Co104  1  0.49547556  -0.00025623  0.00437710  1
  Co  Co105  1  0.62627488  0.12476793  0.62167760  1
  Co  Co106  1  0.25163255  0.00053132  0.25059926  1
  Co  Co107  1  0.24754410  0.25449371  0.25479959  1
  Co  Co108  1  0.75223284  0.00378328  0.24926381  1
  Co  Co109  1  0.87297478  0.87042069  0.12695385  1
  Co  Co110  1  0.25249726  0.49874863  0.49820675  1
  Co  Co111  1  0.00396691  0.75143835  0.49838235  1
  Co  Co112  1  0.37632746  0.87533664  0.62489370  1
  Co  Co113  1  0.87787182  0.13075125  0.12696179  1
  Co  Co114  1  0.13013933  0.87422783  0.12544319  1
  Co  Co115  1  0.75131909  0.50154330  0.75002808  1
  Co  Co116  1  0.74867761  0.75191809  0.50270914  1
  Co  Co117  1  0.87477236  0.37070940  0.62979563  1
  Co  Co118  1  0.24929747  0.00012416  0.74886922  1
  Co  Co119  1  -0.00144624  0.00021162  0.49774322  1
  Co  Co120  1  0.25088828  0.50045722  0.00119298  1
  Co  Co121  1  0.12585381  0.37770174  0.12598187  1
  Co  Co122  1  0.12189012  0.87688179  0.62628167  1
  Co  Co123  1  0.87818823  0.36884390  0.36980095  1
  Co  Co124  1  0.11977853  0.38087510  0.37647852  1
  Co  Co125  1  0.37231867  0.62557490  0.12877236  1
  Co  Co126  1  -0.01014914  0.49639139  0.50012052  1
  Co  Co127  1  0.24565478  0.74718720  0.25508276  1
