# generated using pymatgen
data_Fe45Co19
_symmetry_space_group_name_H-M   'P 1'
_cell_length_a   11.41589588
_cell_length_b   11.41519304
_cell_length_c   11.41551209
_cell_angle_alpha   89.99970449
_cell_angle_beta   90.00189761
_cell_angle_gamma   90.00009760
_symmetry_Int_Tables_number   1
_chemical_formula_structural   Fe45Co19
_chemical_formula_sum   'Fe90 Co38'
_cell_volume   1487.60852067
_cell_formula_units_Z   2
loop_
 _symmetry_equiv_pos_site_id
 _symmetry_equiv_pos_as_xyz
  1  'x, y, z'
loop_
 _atom_site_type_symbol
 _atom_site_label
 _atom_site_symmetry_multiplicity
 _atom_site_fract_x
 _atom_site_fract_y
 _atom_site_fract_z
 _atom_site_occupancy
  Fe  Fe0  1  0.12619647  0.37179379  0.62717194  1
  Fe  Fe1  1  0.37483573  0.37540690  0.12547485  1
  Fe  Fe2  1  0.37524120  0.12750345  0.12641591  1
  Fe  Fe3  1  0.62688600  0.87527202  0.87680700  1
  Fe  Fe4  1  0.24952527  0.49969877  0.75280643  1
  Fe  Fe5  1  0.62650130  0.87508401  0.37503494  1
  Fe  Fe6  1  0.37349687  0.12395964  0.37308320  1
  Fe  Fe7  1  0.49894190  0.50072616  0.49916754  1
  Fe  Fe8  1  0.49970212  0.00111900  0.00083669  1
  Fe  Fe9  1  0.37541377  0.87101065  0.62580484  1
  Fe  Fe10  1  0.62229989  0.37279222  0.12453551  1
  Fe  Fe11  1  0.00528311  0.49518648  0.25002230  1
  Fe  Fe12  1  0.75262293  0.49762332  0.00117183  1
  Fe  Fe13  1  0.25230069  0.24828923  0.50283389  1
  Fe  Fe14  1  0.25153637  -0.00025421  0.50268526  1
  Fe  Fe15  1  0.12467788  0.87340034  0.62586958  1
  Fe  Fe16  1  0.87510672  0.87668987  0.87276259  1
  Fe  Fe17  1  0.87508269  0.62521574  0.87529339  1
  Fe  Fe18  1  0.37383093  0.12395281  0.87477492  1
  Fe  Fe19  1  0.75044865  0.24951303  0.50053869  1
  Fe  Fe20  1  -0.00069867  0.74843807  0.50050374  1
  Fe  Fe21  1  0.74978673  0.74698764  0.74750369  1
  Fe  Fe22  1  0.12574411  0.62345420  0.37540954  1
  Fe  Fe23  1  0.37468721  0.62242820  0.12579350  1
  Fe  Fe24  1  0.62428227  0.87116424  0.62347458  1
  Fe  Fe25  1  0.87580546  0.12689488  0.62885771  1
  Fe  Fe26  1  0.12557653  0.62834737  0.62799073  1
  Fe  Fe27  1  0.11919275  0.12575091  0.12388042  1
  Fe  Fe28  1  0.87551563  0.62392803  0.37367031  1
  Fe  Fe29  1  0.24532273  0.25350965  0.24907892  1
  Fe  Fe30  1  0.87982400  0.37108110  0.12546781  1
  Fe  Fe31  1  0.62441059  0.37478802  0.62387848  1
  Fe  Fe32  1  0.00035235  0.75084263  -0.00179322  1
  Fe  Fe33  1  0.49995119  0.75180897  -0.00049166  1
  Fe  Fe34  1  0.49862139  0.25044218  0.75253888  1
  Fe  Fe35  1  -0.00150609  0.00083916  0.50076277  1
  Fe  Fe36  1  0.37521204  0.62510660  0.87530814  1
  Fe  Fe37  1  0.75359453  0.24685495  0.00107732  1
  Fe  Fe38  1  0.37315418  0.62408433  0.37236920  1
  Fe  Fe39  1  0.74748155  0.49746410  0.24796780  1
  Fe  Fe40  1  0.87629101  0.62350417  0.12600298  1
  Fe  Fe41  1  0.62604076  0.12582177  0.87460512  1
  Fe  Fe42  1  0.24796777  0.25186724  -0.00463569  1
  Fe  Fe43  1  0.24977663  0.00290444  0.74634845  1
  Fe  Fe44  1  0.75092251  0.75058683  0.00316195  1
  Fe  Fe45  1  0.74853325  0.75055407  0.24685696  1
  Fe  Fe46  1  0.50110591  0.50088686  0.75080986  1
  Fe  Fe47  1  0.75079524  0.50241479  0.50286732  1
  Fe  Fe48  1  0.12580051  0.87519853  0.37632109  1
  Fe  Fe49  1  0.62255779  0.12625930  0.12778667  1
  Fe  Fe50  1  0.75088078  0.00150425  0.50110523  1
  Fe  Fe51  1  0.37493266  0.87610855  0.12486804  1
  Fe  Fe52  1  0.87436567  0.87431641  0.37500228  1
  Fe  Fe53  1  0.00066234  0.50210031  0.75164877  1
  Fe  Fe54  1  0.50267190  0.74979458  0.24723141  1
  Fe  Fe55  1  0.49845354  -0.00144350  0.49865326  1
  Fe  Fe56  1  0.62592101  0.62463890  0.37552936  1
  Fe  Fe57  1  0.12494030  0.12547693  0.37754424  1
  Fe  Fe58  1  0.00219110  0.75109016  0.24930587  1
  Fe  Fe59  1  0.37109932  0.37813370  0.37306794  1
  Fe  Fe60  1  0.12509227  0.87762581  0.87403596  1
  Fe  Fe61  1  0.62480166  0.37336779  0.87689859  1
  Fe  Fe62  1  0.24971816  0.75124358  -0.00195506  1
  Fe  Fe63  1  0.37406470  0.37371554  0.62790614  1
  Fe  Fe64  1  0.24752532  0.74922650  0.24822914  1
  Fe  Fe65  1  0.62430093  0.12582868  0.37281007  1
  Fe  Fe66  1  0.87860343  0.87806616  0.12549540  1
  Fe  Fe67  1  0.87566569  0.87307767  0.62532220  1
  Fe  Fe68  1  0.87379199  0.37516507  0.37442566  1
  Fe  Fe69  1  0.75405685  0.00403129  0.00184820  1
  Fe  Fe70  1  0.24675412  -0.00027571  0.24805250  1
  Fe  Fe71  1  0.24889206  0.49801955  -0.00284100  1
  Fe  Fe72  1  0.75075538  0.00065199  0.24798202  1
  Fe  Fe73  1  0.24827260  -0.00007543  0.00239503  1
  Fe  Fe74  1  0.24987417  0.50283181  0.50220013  1
  Fe  Fe75  1  0.87621488  0.37373175  0.62832473  1
  Fe  Fe76  1  0.87647869  0.12661879  0.37041862  1
  Fe  Fe77  1  -0.00088338  0.25084327  0.49934847  1
  Fe  Fe78  1  0.62639545  0.62509532  0.87764155  1
  Fe  Fe79  1  0.62195868  0.12645042  0.62502440  1
  Fe  Fe80  1  0.00105646  0.49941850  0.50145322  1
  Fe  Fe81  1  0.74889167  0.50080695  0.74885288  1
  Fe  Fe82  1  0.37308393  0.87421332  0.37278958  1
  Fe  Fe83  1  0.49804397  0.25127449  0.49687583  1
  Fe  Fe84  1  0.74975590  0.00096349  0.74829058  1
  Fe  Fe85  1  0.49951627  0.49871309  0.00008870  1
  Fe  Fe86  1  0.87740870  0.37145777  0.87291645  1
  Fe  Fe87  1  0.49958988  -0.00200604  0.75081561  1
  Fe  Fe88  1  0.37594215  0.62972214  0.62674606  1
  Fe  Fe89  1  0.12441958  0.62308538  0.12153018  1
  Co  Co90  1  0.12400168  0.12702462  0.62162265  1
  Co  Co91  1  0.24501165  0.49787041  0.24808977  1
  Co  Co92  1  0.87722498  0.62440692  0.62545025  1
  Co  Co93  1  0.00059046  0.00138908  0.74872815  1
  Co  Co94  1  0.49855513  -0.00020852  0.24984763  1
  Co  Co95  1  0.74913997  0.25105807  0.24831123  1
  Co  Co96  1  0.49854100  0.24898091  -0.00110553  1
  Co  Co97  1  0.87352179  0.12536596  0.86990722  1
  Co  Co98  1  0.88148629  0.12561452  0.13042005  1
  Co  Co99  1  0.49875635  0.75035701  0.49657031  1
  Co  Co100  1  0.62465514  0.87855532  0.12276930  1
  Co  Co101  1  0.24945784  0.74902948  0.49900086  1
  Co  Co102  1  0.24931518  0.24779791  0.75267662  1
  Co  Co103  1  0.37282707  0.87922358  0.87628104  1
  Co  Co104  1  -0.00264531  0.50066022  -0.00146721  1
  Co  Co105  1  -0.00274260  0.00132073  -0.00324984  1
  Co  Co106  1  0.75215029  0.74749582  0.50091893  1
  Co  Co107  1  0.49833242  0.25273344  0.25290569  1
  Co  Co108  1  0.49976152  0.75087346  0.75495801  1
  Co  Co109  1  0.12229376  0.37651197  0.87458124  1
  Co  Co110  1  0.00540495  0.25455882  0.25321505  1
  Co  Co111  1  0.37867470  0.12597953  0.62596269  1
  Co  Co112  1  0.37564517  0.37470748  0.87428949  1
  Co  Co113  1  0.74729837  0.25106834  0.74975451  1
  Co  Co114  1  0.62190586  0.62662334  0.62449885  1
  Co  Co115  1  0.12350560  0.87507938  0.12300243  1
  Co  Co116  1  0.50237149  0.49892280  0.25009649  1
  Co  Co117  1  0.00303627  -0.00176769  0.25211619  1
  Co  Co118  1  0.12264012  0.37500139  0.11798689  1
  Co  Co119  1  0.12707100  0.12106970  0.87591747  1
  Co  Co120  1  0.12474855  0.62470815  0.87654907  1
  Co  Co121  1  0.62584251  0.62319829  0.12183585  1
  Co  Co122  1  0.12881997  0.37474992  0.38158108  1
  Co  Co123  1  -0.00188520  0.24585135  -0.00471795  1
  Co  Co124  1  -0.00021505  0.74961820  0.75197409  1
  Co  Co125  1  0.62736527  0.37540986  0.37774236  1
  Co  Co126  1  0.25057236  0.75047031  0.75403461  1
  Co  Co127  1  0.00477033  0.24588426  0.75260150  1
