# generated using pymatgen
data_Fe45Co19
_symmetry_space_group_name_H-M   'P 1'
_cell_length_a   11.41486751
_cell_length_b   11.41585647
_cell_length_c   11.41461008
_cell_angle_alpha   90.00299041
_cell_angle_beta   89.99247576
_cell_angle_gamma   89.99743194
_symmetry_Int_Tables_number   1
_chemical_formula_structural   Fe45Co19
_chemical_formula_sum   'Fe90 Co38'
_cell_volume   1487.44340675
_cell_formula_units_Z   2
loop_
 _symmetry_equiv_pos_site_id
 _symmetry_equiv_pos_as_xyz
  1  'x, y, z'
loop_
 _atom_site_type_symbol
 _atom_site_label
 _atom_site_symmetry_multiplicity
 _atom_site_fract_x
 _atom_site_fract_y
 _atom_site_fract_z
 _atom_site_occupancy
  Fe  Fe0  1  0.50151630  0.25082421  0.74912869  1
  Fe  Fe1  1  0.37115444  0.87365655  0.62685073  1
  Fe  Fe2  1  0.62522504  0.87250912  0.87743951  1
  Fe  Fe3  1  0.12578519  0.87526779  0.87256460  1
  Fe  Fe4  1  0.12445544  0.87368257  0.37728440  1
  Fe  Fe5  1  -0.00054275  0.49931879  -0.00121259  1
  Fe  Fe6  1  0.24722782  0.24799127  0.50068496  1
  Fe  Fe7  1  0.37561073  0.12437434  0.12433000  1
  Fe  Fe8  1  0.75106201  0.75229733  0.74673467  1
  Fe  Fe9  1  0.12354030  0.11973717  0.62672042  1
  Fe  Fe10  1  0.49888674  0.75061407  0.50160105  1
  Fe  Fe11  1  0.25185295  0.24898186  -0.00066490  1
  Fe  Fe12  1  0.87267094  0.37798024  0.12417568  1
  Fe  Fe13  1  0.87441724  0.37561084  0.37474751  1
  Fe  Fe14  1  -0.00141802  0.75132437  0.50768317  1
  Fe  Fe15  1  0.50495798  0.49494397  -0.00049533  1
  Fe  Fe16  1  0.25060594  0.74906285  0.25099085  1
  Fe  Fe17  1  0.37633688  0.12495364  0.37547303  1
  Fe  Fe18  1  0.87393192  0.87421698  0.87420876  1
  Fe  Fe19  1  0.62410125  0.62588563  0.87520572  1
  Fe  Fe20  1  0.12540709  0.12607810  0.87266277  1
  Fe  Fe21  1  0.00146989  -0.00429816  0.24929175  1
  Fe  Fe22  1  0.62735967  0.37331686  0.37497703  1
  Fe  Fe23  1  -0.00169908  0.24926865  0.74784714  1
  Fe  Fe24  1  0.87326284  0.12540670  0.87375663  1
  Fe  Fe25  1  0.50054820  0.49978171  0.25113176  1
  Fe  Fe26  1  0.25161753  0.00099037  -0.00419349  1
  Fe  Fe27  1  0.62521371  0.62988374  0.37581518  1
  Fe  Fe28  1  -0.00075559  0.75359695  0.00379320  1
  Fe  Fe29  1  -0.00117363  0.24786627  0.50151149  1
  Fe  Fe30  1  -0.00074986  -0.00153394  0.00050435  1
  Fe  Fe31  1  0.74673016  -0.00183588  0.25380690  1
  Fe  Fe32  1  0.62485228  0.13011452  0.87629373  1
  Fe  Fe33  1  0.00017893  0.75178934  0.74371298  1
  Fe  Fe34  1  0.24950252  0.50127566  0.75264931  1
  Fe  Fe35  1  0.74964886  0.49980390  0.75220078  1
  Fe  Fe36  1  0.37163808  0.62673455  0.62544399  1
  Fe  Fe37  1  0.37324888  0.87672043  0.12329045  1
  Fe  Fe38  1  0.37394513  0.12529286  0.62692059  1
  Fe  Fe39  1  0.12418836  0.37375041  0.37659346  1
  Fe  Fe40  1  0.25105206  0.50218772  0.49685382  1
  Fe  Fe41  1  0.24900356  -0.00053100  0.25160374  1
  Fe  Fe42  1  0.62845214  0.12306894  0.62123845  1
  Fe  Fe43  1  0.00021172  0.25074108  0.24809083  1
  Fe  Fe44  1  0.50015734  0.50108300  0.49923086  1
  Fe  Fe45  1  0.62475611  0.12701329  0.12461687  1
  Fe  Fe46  1  0.49925490  0.00125674  -0.00211312  1
  Fe  Fe47  1  0.37514334  0.37389088  0.87397962  1
  Fe  Fe48  1  0.49711479  0.75027055  0.00007228  1
  Fe  Fe49  1  0.24882638  0.24938708  0.25092140  1
  Fe  Fe50  1  0.12675946  0.37596443  0.12465882  1
  Fe  Fe51  1  0.12399136  0.12277996  0.12594124  1
  Fe  Fe52  1  0.00224733  0.50043579  0.25036879  1
  Fe  Fe53  1  0.49972264  0.25108784  0.24900833  1
  Fe  Fe54  1  0.50124155  0.49931835  0.74922061  1
  Fe  Fe55  1  0.12196024  0.62546802  0.87344833  1
  Fe  Fe56  1  0.12392306  0.37279714  0.87423128  1
  Fe  Fe57  1  0.87161944  0.37393392  0.87595321  1
  Fe  Fe58  1  0.87455372  0.37742642  0.62502390  1
  Fe  Fe59  1  0.87579854  0.62576974  0.87381890  1
  Fe  Fe60  1  0.62648369  0.62531591  0.62506589  1
  Fe  Fe61  1  0.25255607  0.74862789  -0.00396248  1
  Fe  Fe62  1  0.62768561  0.37427784  0.62407061  1
  Fe  Fe63  1  0.37411484  0.37468713  0.37540961  1
  Fe  Fe64  1  0.12326741  0.62758922  0.37621151  1
  Fe  Fe65  1  0.12385118  0.37819784  0.62515061  1
  Fe  Fe66  1  0.62752613  0.87766869  0.62165787  1
  Fe  Fe67  1  0.50269454  -0.00087155  0.25221061  1
  Fe  Fe68  1  0.75213416  0.74615189  0.00511576  1
  Fe  Fe69  1  0.87320876  0.86996659  0.37374091  1
  Fe  Fe70  1  0.37706478  0.87483859  0.37623894  1
  Fe  Fe71  1  0.24977855  -0.00010080  0.49941951  1
  Fe  Fe72  1  0.49929766  0.75086738  0.24797404  1
  Fe  Fe73  1  0.87280214  0.11728475  0.62493000  1
  Fe  Fe74  1  0.75077626  0.00118589  -0.00026649  1
  Fe  Fe75  1  0.50075413  -0.00027163  0.75086452  1
  Fe  Fe76  1  0.37394278  0.37463494  0.62423513  1
  Fe  Fe77  1  0.75126383  0.24815369  0.24928541  1
  Fe  Fe78  1  0.37412536  0.62114310  0.12388078  1
  Fe  Fe79  1  0.12504886  0.62557134  0.12453091  1
  Fe  Fe80  1  0.49861719  0.75083899  0.75049904  1
  Fe  Fe81  1  -0.00147472  0.50308319  0.50103916  1
  Fe  Fe82  1  -0.00289956  0.24791349  0.00247614  1
  Fe  Fe83  1  0.62594763  0.87426383  0.12385901  1
  Fe  Fe84  1  0.87560531  0.62928679  0.37315035  1
  Fe  Fe85  1  0.87745276  0.12483045  0.37419523  1
  Fe  Fe86  1  0.74902648  0.50593003  0.24690656  1
  Fe  Fe87  1  0.50111436  0.24981143  0.49971267  1
  Fe  Fe88  1  0.75014974  0.50219711  0.49915149  1
  Fe  Fe89  1  0.37163397  0.37781431  0.12561280  1
  Co  Co90  1  0.75184960  0.24860386  0.74636386  1
  Co  Co91  1  0.87363805  0.62179040  0.62777711  1
  Co  Co92  1  0.49888221  0.25380634  0.00188961  1
  Co  Co93  1  -0.00045883  -0.00216448  0.49682226  1
  Co  Co94  1  0.75181334  0.24830566  0.00330516  1
  Co  Co95  1  -0.00052453  0.49911100  0.75151691  1
  Co  Co96  1  0.37959651  0.62173206  0.87565584  1
  Co  Co97  1  -0.00091332  -0.00148815  0.75351571  1
  Co  Co98  1  0.74877172  0.50385354  0.00023206  1
  Co  Co99  1  0.12802819  0.62325959  0.62580067  1
  Co  Co100  1  0.37734685  0.62669516  0.37544895  1
  Co  Co101  1  0.37721259  0.12781211  0.87306245  1
  Co  Co102  1  0.87570415  0.12061074  0.12765431  1
  Co  Co103  1  0.75321673  0.75031371  0.50465232  1
  Co  Co104  1  0.74828449  0.74762262  0.24479718  1
  Co  Co105  1  0.87336562  0.88264676  0.62607434  1
  Co  Co106  1  0.24715814  0.50059132  -0.00339766  1
  Co  Co107  1  0.74613029  -0.00119704  0.75449836  1
  Co  Co108  1  0.12271164  0.12503533  0.37352688  1
  Co  Co109  1  0.12747658  0.87802392  0.62675141  1
  Co  Co110  1  0.87228514  0.87703804  0.12642593  1
  Co  Co111  1  0.62357250  0.12802065  0.37661436  1
  Co  Co112  1  0.62398342  0.86901503  0.37635634  1
  Co  Co113  1  0.24780720  0.25108072  0.74874737  1
  Co  Co114  1  0.62922063  0.37347708  0.12735439  1
  Co  Co115  1  0.00245833  0.75331349  0.24634355  1
  Co  Co116  1  0.12991181  0.87575866  0.12277532  1
  Co  Co117  1  0.25214421  -0.00013276  0.75245440  1
  Co  Co118  1  0.88079603  0.62411263  0.12560721  1
  Co  Co119  1  0.24999818  0.74823703  0.75438433  1
  Co  Co120  1  0.49899922  -0.00034814  0.50075873  1
  Co  Co121  1  0.62855136  0.37145340  0.87395915  1
  Co  Co122  1  0.24794531  0.50210875  0.25367111  1
  Co  Co123  1  0.75337117  0.24907051  0.50041334  1
  Co  Co124  1  0.74934789  -0.00142803  0.49285060  1
  Co  Co125  1  0.24833454  0.75097517  0.49851623  1
  Co  Co126  1  0.37700305  0.87600438  0.87395050  1
  Co  Co127  1  0.61982810  0.62580412  0.12287423  1
