# generated using pymatgen
data_Fe45Co19
_symmetry_space_group_name_H-M   'P 1'
_cell_length_a   11.41503309
_cell_length_b   11.41660775
_cell_length_c   11.41471693
_cell_angle_alpha   89.99935160
_cell_angle_beta   89.99130654
_cell_angle_gamma   90.00093769
_symmetry_Int_Tables_number   1
_chemical_formula_structural   Fe45Co19
_chemical_formula_sum   'Fe90 Co38'
_cell_volume   1487.57679706
_cell_formula_units_Z   2
loop_
 _symmetry_equiv_pos_site_id
 _symmetry_equiv_pos_as_xyz
  1  'x, y, z'
loop_
 _atom_site_type_symbol
 _atom_site_label
 _atom_site_symmetry_multiplicity
 _atom_site_fract_x
 _atom_site_fract_y
 _atom_site_fract_z
 _atom_site_occupancy
  Fe  Fe0  1  0.12430142  0.87465334  0.12708285  1
  Fe  Fe1  1  0.50098307  0.74690728  0.75043997  1
  Fe  Fe2  1  0.37347239  0.62466977  0.12381019  1
  Fe  Fe3  1  0.12473488  0.62653943  0.12537585  1
  Fe  Fe4  1  -0.00278936  0.74763470  0.74982858  1
  Fe  Fe5  1  0.50538764  -0.00489952  0.50198336  1
  Fe  Fe6  1  0.12224353  0.87538084  0.87371268  1
  Fe  Fe7  1  0.50374135  0.50103138  0.49645424  1
  Fe  Fe8  1  0.12696838  0.12736035  0.62119071  1
  Fe  Fe9  1  -0.00180096  0.74899557  0.24945720  1
  Fe  Fe10  1  0.24939755  0.00144895  0.00000165  1
  Fe  Fe11  1  0.37514630  0.62296744  0.62364982  1
  Fe  Fe12  1  0.62408159  0.37370160  0.12866179  1
  Fe  Fe13  1  0.87144737  0.87472442  0.62367162  1
  Fe  Fe14  1  0.24911256  0.00053898  0.25161471  1
  Fe  Fe15  1  0.25150609  0.49890163  0.75239437  1
  Fe  Fe16  1  0.50128416  0.50042193  -0.00020959  1
  Fe  Fe17  1  -0.00238978  0.50017652  0.75084364  1
  Fe  Fe18  1  0.12497917  0.37439939  0.62555417  1
  Fe  Fe19  1  -0.00277894  0.74983379  0.50047762  1
  Fe  Fe20  1  0.50100983  0.74810394  0.24954320  1
  Fe  Fe21  1  0.37588370  0.87459565  0.87428123  1
  Fe  Fe22  1  0.62773886  0.37804917  0.62376093  1
  Fe  Fe23  1  0.49823282  0.25085328  0.74665443  1
  Fe  Fe24  1  0.24783667  0.49762399  0.49669236  1
  Fe  Fe25  1  0.49925252  0.24766960  0.25091182  1
  Fe  Fe26  1  0.87293823  0.12728382  0.61848952  1
  Fe  Fe27  1  0.75001985  0.24978972  0.00179204  1
  Fe  Fe28  1  0.87352983  0.62368966  0.37602060  1
  Fe  Fe29  1  0.87417559  0.87660046  0.12559554  1
  Fe  Fe30  1  0.62970247  0.62396480  0.62286975  1
  Fe  Fe31  1  0.74785917  0.49905289  0.25263004  1
  Fe  Fe32  1  0.50238626  0.24877026  0.00005425  1
  Fe  Fe33  1  0.87419853  0.12630978  0.87672696  1
  Fe  Fe34  1  0.74791827  0.00251552  0.00021818  1
  Fe  Fe35  1  0.12445837  0.87388636  0.62590075  1
  Fe  Fe36  1  0.24906940  0.75096145  -0.00085332  1
  Fe  Fe37  1  0.37563297  0.62573928  0.37419480  1
  Fe  Fe38  1  0.00076957  -0.00113267  0.50012731  1
  Fe  Fe39  1  0.87208677  0.62098172  0.62220146  1
  Fe  Fe40  1  0.87605357  0.37761958  0.87592436  1
  Fe  Fe41  1  0.12225694  0.12615994  0.12512429  1
  Fe  Fe42  1  0.62564623  0.87723508  0.12726598  1
  Fe  Fe43  1  0.25222541  0.24946109  0.25202180  1
  Fe  Fe44  1  0.24922345  0.50082019  0.25144501  1
  Fe  Fe45  1  0.37626840  0.37521238  0.12506275  1
  Fe  Fe46  1  0.37558403  0.87385709  0.37371503  1
  Fe  Fe47  1  0.12407335  0.62332008  0.62250897  1
  Fe  Fe48  1  0.24970261  0.74807455  0.74921036  1
  Fe  Fe49  1  0.75008454  0.74894956  0.25061119  1
  Fe  Fe50  1  0.24980820  0.75004639  0.49952156  1
  Fe  Fe51  1  0.87547200  0.87340319  0.87647004  1
  Fe  Fe52  1  0.12400696  0.12712454  0.87371824  1
  Fe  Fe53  1  -0.00088099  0.00094791  0.00108207  1
  Fe  Fe54  1  -0.00313303  0.24635649  0.25262592  1
  Fe  Fe55  1  0.24909048  0.25157342  -0.00155491  1
  Fe  Fe56  1  0.12450252  0.87262005  0.37389202  1
  Fe  Fe57  1  0.50287373  0.00257272  -0.00216620  1
  Fe  Fe58  1  0.75005316  0.00613672  0.25266646  1
  Fe  Fe59  1  0.50253206  0.74882469  -0.00046775  1
  Fe  Fe60  1  0.37515897  0.87558374  0.12564839  1
  Fe  Fe61  1  0.25129091  0.00123606  0.74803707  1
  Fe  Fe62  1  0.62625403  0.12548146  0.62433556  1
  Fe  Fe63  1  0.25494304  0.25185052  0.74621497  1
  Fe  Fe64  1  0.12246325  0.62477155  0.87622706  1
  Fe  Fe65  1  0.62618682  0.87455823  0.87226367  1
  Fe  Fe66  1  0.87243548  0.87787326  0.37597763  1
  Fe  Fe67  1  0.37720243  0.12648031  0.87305764  1
  Fe  Fe68  1  0.12278015  0.37268154  0.12635933  1
  Fe  Fe69  1  0.50109718  0.00251387  0.25155458  1
  Fe  Fe70  1  0.50111394  0.50205887  0.75241921  1
  Fe  Fe71  1  0.75017289  0.00175006  0.74928843  1
  Fe  Fe72  1  -0.00106063  0.49492490  0.49739008  1
  Fe  Fe73  1  0.50522605  0.75148460  0.49955752  1
  Fe  Fe74  1  0.62565804  0.37524745  0.87479477  1
  Fe  Fe75  1  -0.00207311  0.24976803  0.74834437  1
  Fe  Fe76  1  0.75206196  0.74557207  0.75184802  1
  Fe  Fe77  1  0.37708806  0.37699151  0.37398602  1
  Fe  Fe78  1  0.49911116  0.25283653  0.50182814  1
  Fe  Fe79  1  0.37574734  0.12486441  0.12385294  1
  Fe  Fe80  1  0.12496157  0.12739934  0.37890123  1
  Fe  Fe81  1  0.00041400  0.50141097  0.24997114  1
  Fe  Fe82  1  0.87505542  0.37455141  0.12683269  1
  Fe  Fe83  1  0.24836912  0.49662953  -0.00259705  1
  Fe  Fe84  1  0.75094654  0.25242505  0.74832955  1
  Fe  Fe85  1  -0.00185377  0.00184096  0.74754938  1
  Fe  Fe86  1  0.37576931  0.87547352  0.62603911  1
  Fe  Fe87  1  0.74996796  0.24570728  0.25435649  1
  Fe  Fe88  1  0.37487463  0.12348550  0.38068443  1
  Fe  Fe89  1  0.62770870  0.62393042  0.12498366  1
  Co  Co90  1  0.87591301  0.12497632  0.12411057  1
  Co  Co91  1  0.37814775  0.37434038  0.87526077  1
  Co  Co92  1  0.74976211  0.25546225  0.49781481  1
  Co  Co93  1  0.62644720  0.12737461  0.87147785  1
  Co  Co94  1  0.12263755  0.37327385  0.87235608  1
  Co  Co95  1  0.62664786  0.62554324  0.37481146  1
  Co  Co96  1  0.87376537  0.37642155  0.62593193  1
  Co  Co97  1  0.25041063  0.74908351  0.25059615  1
  Co  Co98  1  0.25314128  0.25501052  0.50108721  1
  Co  Co99  1  0.62468650  0.12563964  0.12632713  1
  Co  Co100  1  0.74874221  0.75035561  0.49858903  1
  Co  Co101  1  0.74579227  -0.00170743  0.50050636  1
  Co  Co102  1  0.74902380  0.75115653  0.00098827  1
  Co  Co103  1  0.75046459  0.50000575  0.75164972  1
  Co  Co104  1  0.50009517  0.50263893  0.24869431  1
  Co  Co105  1  0.37658393  0.38189064  0.62396946  1
  Co  Co106  1  0.87521446  0.37407802  0.37165137  1
  Co  Co107  1  0.00029168  0.00118671  0.25188833  1
  Co  Co108  1  -0.00200295  0.25137074  -0.00055593  1
  Co  Co109  1  0.62777555  0.87477935  0.37057745  1
  Co  Co110  1  -0.00137735  0.25477667  0.50004915  1
  Co  Co111  1  0.62199434  0.37339664  0.37219733  1
  Co  Co112  1  0.62333316  0.12674395  0.37968011  1
  Co  Co113  1  0.37599291  0.12082763  0.62094324  1
  Co  Co114  1  0.24815772  -0.00373514  0.49929995  1
  Co  Co115  1  0.87578169  0.12358440  0.38182334  1
  Co  Co116  1  0.74966485  0.49714176  0.00170804  1
  Co  Co117  1  0.62815245  0.62404556  0.87664114  1
  Co  Co118  1  0.12270727  0.62644608  0.37653952  1
  Co  Co119  1  0.87500473  0.62294395  0.87922458  1
  Co  Co120  1  0.62879800  0.87230683  0.63037446  1
  Co  Co121  1  0.00026996  0.49929139  0.00295038  1
  Co  Co122  1  -0.00153806  0.74967441  0.00226615  1
  Co  Co123  1  0.75019474  0.49533267  0.49572100  1
  Co  Co124  1  0.12394565  0.37234923  0.37204745  1
  Co  Co125  1  0.37416908  0.62479539  0.87614318  1
  Co  Co126  1  0.87207672  0.62416676  0.12469722  1
  Co  Co127  1  0.50088905  0.00063599  0.74944085  1
