# generated using pymatgen
data_Fe45Co19
_symmetry_space_group_name_H-M   'P 1'
_cell_length_a   11.41496022
_cell_length_b   11.41622877
_cell_length_c   11.41591361
_cell_angle_alpha   89.99795246
_cell_angle_beta   89.99707627
_cell_angle_gamma   89.99864016
_symmetry_Int_Tables_number   1
_chemical_formula_structural   Fe45Co19
_chemical_formula_sum   'Fe90 Co38'
_cell_volume   1487.67388043
_cell_formula_units_Z   2
loop_
 _symmetry_equiv_pos_site_id
 _symmetry_equiv_pos_as_xyz
  1  'x, y, z'
loop_
 _atom_site_type_symbol
 _atom_site_label
 _atom_site_symmetry_multiplicity
 _atom_site_fract_x
 _atom_site_fract_y
 _atom_site_fract_z
 _atom_site_occupancy
  Fe  Fe0  1  0.74892758  0.25126397  0.00072188  1
  Fe  Fe1  1  0.37337024  0.62551315  0.62208356  1
  Fe  Fe2  1  0.25117952  0.25102852  0.25179765  1
  Fe  Fe3  1  0.25194112  0.25086711  0.74856623  1
  Fe  Fe4  1  0.37328856  0.87407442  0.62315137  1
  Fe  Fe5  1  0.24759978  0.75138982  -0.00019462  1
  Fe  Fe6  1  0.50050271  0.25057326  0.00170620  1
  Fe  Fe7  1  0.50083336  0.75105053  0.25265476  1
  Fe  Fe8  1  0.86976998  0.37177338  0.61902873  1
  Fe  Fe9  1  0.50571325  0.24979428  0.49979890  1
  Fe  Fe10  1  0.75162814  0.74933639  0.75099047  1
  Fe  Fe11  1  0.50240917  0.75187223  0.49748464  1
  Fe  Fe12  1  0.87599891  0.13062467  0.38028664  1
  Fe  Fe13  1  0.00157464  0.49639812  0.49914292  1
  Fe  Fe14  1  0.62213026  0.37496485  0.13042057  1
  Fe  Fe15  1  0.24838175  0.50004289  0.25010071  1
  Fe  Fe16  1  0.74992302  0.74868069  0.00038214  1
  Fe  Fe17  1  0.25201173  0.49993705  0.74934557  1
  Fe  Fe18  1  0.87642498  0.87688764  0.87708358  1
  Fe  Fe19  1  0.37201009  0.12472585  0.87795079  1
  Fe  Fe20  1  0.62445966  0.62305704  0.12761812  1
  Fe  Fe21  1  0.37371588  0.62431457  0.12333795  1
  Fe  Fe22  1  0.49940679  0.25097307  0.74973644  1
  Fe  Fe23  1  0.37543964  0.12661827  0.37727635  1
  Fe  Fe24  1  0.62606644  0.12442190  0.12665316  1
  Fe  Fe25  1  0.50190139  0.74935038  -0.00116406  1
  Fe  Fe26  1  0.87524571  0.12650727  0.87619519  1
  Fe  Fe27  1  0.37375514  0.87411518  0.12530705  1
  Fe  Fe28  1  0.62685644  0.87719673  0.12654116  1
  Fe  Fe29  1  0.87595666  0.62312057  0.87634577  1
  Fe  Fe30  1  0.62450856  0.12499453  0.87450875  1
  Fe  Fe31  1  0.75319919  0.00189046  0.25116494  1
  Fe  Fe32  1  0.75213289  0.49906721  0.25355120  1
  Fe  Fe33  1  0.37629072  0.12431230  0.62252173  1
  Fe  Fe34  1  0.87660345  0.87551234  0.37618258  1
  Fe  Fe35  1  0.00231540  0.49744092  0.25231145  1
  Fe  Fe36  1  0.87780116  0.62441790  0.37615417  1
  Fe  Fe37  1  0.24635362  0.74994314  0.25225280  1
  Fe  Fe38  1  0.25207222  -0.00082524  0.74972749  1
  Fe  Fe39  1  0.37388446  0.37643824  0.12339378  1
  Fe  Fe40  1  0.75192022  0.24926331  0.25287475  1
  Fe  Fe41  1  0.00430508  0.75142750  0.50005747  1
  Fe  Fe42  1  -0.00154025  0.00599656  0.24950450  1
  Fe  Fe43  1  0.24408415  0.75361109  0.49804693  1
  Fe  Fe44  1  0.12412317  0.87850423  0.87377261  1
  Fe  Fe45  1  0.12727303  0.37492891  0.62552968  1
  Fe  Fe46  1  0.12688310  0.12810066  0.37744611  1
  Fe  Fe47  1  0.74814893  0.00416969  0.50045226  1
  Fe  Fe48  1  0.12278857  0.87608653  0.12882189  1
  Fe  Fe49  1  0.49702800  -0.00104088  0.75197164  1
  Fe  Fe50  1  0.62557032  0.87551157  0.87514065  1
  Fe  Fe51  1  0.00058181  0.74927891  0.00183240  1
  Fe  Fe52  1  0.12431967  0.62174597  0.87411755  1
  Fe  Fe53  1  0.87610940  0.87579289  0.62421941  1
  Fe  Fe54  1  0.00123294  0.75037087  0.74840322  1
  Fe  Fe55  1  0.62382743  0.37747475  0.87276002  1
  Fe  Fe56  1  0.87728412  0.37311274  0.87570054  1
  Fe  Fe57  1  0.25088396  -0.00010082  0.25285245  1
  Fe  Fe58  1  0.37550113  0.62279525  0.87783840  1
  Fe  Fe59  1  0.74912754  0.49797773  0.00130760  1
  Fe  Fe60  1  0.12641493  0.12409843  0.62504680  1
  Fe  Fe61  1  0.74849858  0.24788610  0.74614688  1
  Fe  Fe62  1  0.37381755  0.62706546  0.37548465  1
  Fe  Fe63  1  0.24329879  0.25263968  -0.00225665  1
  Fe  Fe64  1  0.00234590  0.00666908  0.00197901  1
  Fe  Fe65  1  0.62508059  0.62280236  0.62545422  1
  Fe  Fe66  1  0.87674272  0.62518114  0.62277364  1
  Fe  Fe67  1  0.24829292  0.74942678  0.74956926  1
  Fe  Fe68  1  0.00017855  0.24900036  0.74817117  1
  Fe  Fe69  1  0.87975848  0.37044872  0.12595604  1
  Fe  Fe70  1  0.37808573  0.37559553  0.62310387  1
  Fe  Fe71  1  0.75172943  0.50069608  0.74884903  1
  Fe  Fe72  1  0.74923597  0.74851825  0.49871602  1
  Fe  Fe73  1  0.87775187  0.62315570  0.12494166  1
  Fe  Fe74  1  0.37083451  0.12486907  0.12212705  1
  Fe  Fe75  1  0.87591814  0.87777786  0.12357820  1
  Fe  Fe76  1  0.50346972  0.50024859  0.49666770  1
  Fe  Fe77  1  -0.00163439  0.49871308  0.74681309  1
  Fe  Fe78  1  0.24848776  0.49800767  0.49787211  1
  Fe  Fe79  1  0.49838172  -0.00083599  0.00015325  1
  Fe  Fe80  1  0.75277714  0.00115754  0.74952434  1
  Fe  Fe81  1  0.00403959  0.49679696  0.00150544  1
  Fe  Fe82  1  0.49733873  -0.00033681  0.25085497  1
  Fe  Fe83  1  0.75341916  0.75059394  0.25024749  1
  Fe  Fe84  1  0.50020434  -0.00169554  0.49650936  1
  Fe  Fe85  1  0.37709959  0.37300720  0.37512369  1
  Fe  Fe86  1  0.49996723  0.74859034  0.75027218  1
  Fe  Fe87  1  0.37517342  0.37736779  0.87737439  1
  Fe  Fe88  1  0.00208277  0.00066974  0.50203040  1
  Fe  Fe89  1  0.62580600  0.87699152  0.62452053  1
  Co  Co90  1  -0.00284976  0.00122932  0.74899723  1
  Co  Co91  1  0.49570319  0.24818902  0.24758968  1
  Co  Co92  1  0.12141930  0.87754038  0.37158141  1
  Co  Co93  1  0.49564983  0.50111411  0.25146822  1
  Co  Co94  1  0.87265183  0.12904240  0.12300039  1
  Co  Co95  1  0.62614479  0.62215901  0.87393975  1
  Co  Co96  1  0.87618162  0.12725947  0.62224930  1
  Co  Co97  1  0.74199234  0.24633618  0.50065591  1
  Co  Co98  1  0.37437945  0.87336263  0.87502249  1
  Co  Co99  1  0.24558998  0.49854841  0.00130621  1
  Co  Co100  1  0.12928330  0.12755284  0.12758214  1
  Co  Co101  1  0.12363448  0.37108907  0.12848939  1
  Co  Co102  1  0.25089185  0.25091602  0.50230501  1
  Co  Co103  1  0.12586481  0.87804965  0.62690521  1
  Co  Co104  1  0.62596023  0.37774514  0.62588198  1
  Co  Co105  1  0.12310009  0.37583588  0.87085031  1
  Co  Co106  1  0.62155109  0.12158222  0.62828170  1
  Co  Co107  1  0.49724870  0.50082891  0.74948304  1
  Co  Co108  1  0.62537180  0.62565538  0.37166910  1
  Co  Co109  1  0.87371434  0.37154599  0.37864128  1
  Co  Co110  1  -0.00260697  0.74959246  0.24987437  1
  Co  Co111  1  0.50186727  0.49939379  0.00182701  1
  Co  Co112  1  0.12339791  0.62427808  0.37477475  1
  Co  Co113  1  0.62283407  0.12473710  0.36995027  1
  Co  Co114  1  0.37382580  0.87298796  0.37489343  1
  Co  Co115  1  0.12622315  0.37174689  0.37415336  1
  Co  Co116  1  0.74787416  0.50143602  0.49678488  1
  Co  Co117  1  0.74997854  0.00167601  -0.00087282  1
  Co  Co118  1  0.12721862  0.12379403  0.87107606  1
  Co  Co119  1  0.62825973  0.87599266  0.37368460  1
  Co  Co120  1  0.25008646  -0.00123994  0.49836431  1
  Co  Co121  1  0.62437230  0.37407591  0.37114775  1
  Co  Co122  1  0.00332779  0.25278997  0.50205928  1
  Co  Co123  1  0.12583646  0.62256686  0.62402383  1
  Co  Co124  1  -0.00015169  0.24744274  0.25179017  1
  Co  Co125  1  0.12452913  0.62592174  0.12632106  1
  Co  Co126  1  0.24789611  -0.00355866  0.00117453  1
  Co  Co127  1  0.00411391  0.24700467  -0.00080521  1
