# generated using pymatgen
data_Fe45Co19
_symmetry_space_group_name_H-M   'P 1'
_cell_length_a   11.41507289
_cell_length_b   11.41579633
_cell_length_c   11.41601288
_cell_angle_alpha   90.00023915
_cell_angle_beta   89.98879823
_cell_angle_gamma   89.99261332
_symmetry_Int_Tables_number   1
_chemical_formula_structural   Fe45Co19
_chemical_formula_sum   'Fe90 Co38'
_cell_volume   1487.64510922
_cell_formula_units_Z   2
loop_
 _symmetry_equiv_pos_site_id
 _symmetry_equiv_pos_as_xyz
  1  'x, y, z'
loop_
 _atom_site_type_symbol
 _atom_site_label
 _atom_site_symmetry_multiplicity
 _atom_site_fract_x
 _atom_site_fract_y
 _atom_site_fract_z
 _atom_site_occupancy
  Fe  Fe0  1  0.37394368  0.12611705  0.37482494  1
  Fe  Fe1  1  0.37348971  0.12419719  0.87738253  1
  Fe  Fe2  1  0.62265494  0.37481465  0.12359757  1
  Fe  Fe3  1  -0.00300684  0.24804090  0.75251157  1
  Fe  Fe4  1  0.62519783  0.87376433  0.37113653  1
  Fe  Fe5  1  0.37494548  0.87388435  0.62528190  1
  Fe  Fe6  1  0.49856295  0.74846525  0.75149893  1
  Fe  Fe7  1  0.25022627  0.49844365  0.00343822  1
  Fe  Fe8  1  0.24885502  -0.00079914  0.75056511  1
  Fe  Fe9  1  0.87585541  0.62334595  0.37257888  1
  Fe  Fe10  1  0.00061997  0.00276995  0.75096397  1
  Fe  Fe11  1  0.87138274  0.62062428  0.87660442  1
  Fe  Fe12  1  0.75081890  0.25416733  -0.00073465  1
  Fe  Fe13  1  0.12506064  0.87328332  0.12469451  1
  Fe  Fe14  1  0.62614576  0.12499658  0.37326806  1
  Fe  Fe15  1  0.24884796  0.75030915  0.49789042  1
  Fe  Fe16  1  0.50103342  0.00062548  0.49916350  1
  Fe  Fe17  1  0.74785113  -0.00442453  0.00062594  1
  Fe  Fe18  1  0.62847233  0.62533558  0.37233064  1
  Fe  Fe19  1  0.87371045  0.37939136  0.87424663  1
  Fe  Fe20  1  0.00288547  0.49774987  0.49942282  1
  Fe  Fe21  1  0.49919465  0.25029884  0.25055311  1
  Fe  Fe22  1  0.87812613  0.37220229  0.37198911  1
  Fe  Fe23  1  0.24541040  0.50138439  0.74891493  1
  Fe  Fe24  1  0.74805341  0.25067195  0.75306019  1
  Fe  Fe25  1  0.50039040  0.00085703  0.75234329  1
  Fe  Fe26  1  0.24638879  0.49470715  0.50041664  1
  Fe  Fe27  1  0.74916384  0.00009398  0.75199418  1
  Fe  Fe28  1  0.49965718  0.74638296  0.49675555  1
  Fe  Fe29  1  0.50064787  0.75119382  0.00103442  1
  Fe  Fe30  1  0.12735800  0.12779519  0.87663289  1
  Fe  Fe31  1  0.62447531  0.12665247  0.62604951  1
  Fe  Fe32  1  0.75032610  -0.00045064  0.49991263  1
  Fe  Fe33  1  0.50091830  -0.00267420  0.00071346  1
  Fe  Fe34  1  0.12284409  0.87560542  0.37392351  1
  Fe  Fe35  1  0.75100251  0.49562081  0.24719218  1
  Fe  Fe36  1  0.87432894  0.12755875  0.37293662  1
  Fe  Fe37  1  0.87681669  0.87520788  0.62683899  1
  Fe  Fe38  1  0.37258105  0.62600955  0.12746834  1
  Fe  Fe39  1  0.62581953  0.62578400  0.62431915  1
  Fe  Fe40  1  0.12829323  0.12949176  0.12131288  1
  Fe  Fe41  1  -0.00191478  0.49956697  0.00153261  1
  Fe  Fe42  1  0.75568898  0.75293054  0.24564645  1
  Fe  Fe43  1  0.24973853  -0.00057791  0.24791910  1
  Fe  Fe44  1  0.12351595  0.37580417  0.87570733  1
  Fe  Fe45  1  0.25274034  0.25501990  0.24921949  1
  Fe  Fe46  1  0.12273903  0.37175441  0.12399743  1
  Fe  Fe47  1  0.00150157  0.49966943  0.24924316  1
  Fe  Fe48  1  0.87293559  0.12700497  0.12396248  1
  Fe  Fe49  1  0.62933522  0.62397387  0.87732003  1
  Fe  Fe50  1  0.37288116  0.12607220  0.12187305  1
  Fe  Fe51  1  0.12587619  0.62626087  0.12772699  1
  Fe  Fe52  1  -0.00112335  0.00404212  0.50170957  1
  Fe  Fe53  1  0.75011624  0.49874187  0.50086999  1
  Fe  Fe54  1  0.00282755  0.74437557  0.75211519  1
  Fe  Fe55  1  0.25001645  -0.00011878  0.50018544  1
  Fe  Fe56  1  0.61964410  0.37406785  0.62431544  1
  Fe  Fe57  1  0.87701906  0.87725912  0.37329696  1
  Fe  Fe58  1  0.87737248  0.37533253  0.62711882  1
  Fe  Fe59  1  0.62387264  0.87347725  0.62575790  1
  Fe  Fe60  1  0.37622499  0.87506903  0.37283320  1
  Fe  Fe61  1  0.49951285  0.25095769  -0.00341529  1
  Fe  Fe62  1  0.37607530  0.37777280  0.87481511  1
  Fe  Fe63  1  0.12422114  0.87320151  0.62527669  1
  Fe  Fe64  1  0.62695243  0.12540799  0.12468359  1
  Fe  Fe65  1  0.12650060  0.87180347  0.87646308  1
  Fe  Fe66  1  0.75031775  0.25089212  0.49910650  1
  Fe  Fe67  1  0.25292857  0.25260619  0.75034389  1
  Fe  Fe68  1  0.49967701  0.50109437  0.24932471  1
  Fe  Fe69  1  -0.00299261  0.74695574  0.00172419  1
  Fe  Fe70  1  0.87687363  0.62260441  0.62543759  1
  Fe  Fe71  1  0.87582551  0.87512184  0.87566489  1
  Fe  Fe72  1  0.37215326  0.62358658  0.62455309  1
  Fe  Fe73  1  0.37126358  0.62496173  0.87609459  1
  Fe  Fe74  1  0.12487002  0.12833954  0.62487849  1
  Fe  Fe75  1  0.75182655  0.74993628  0.49982370  1
  Fe  Fe76  1  0.00251552  0.00369449  -0.00102560  1
  Fe  Fe77  1  0.00035909  0.74810713  0.49746530  1
  Fe  Fe78  1  0.50200192  0.50128458  0.75037789  1
  Fe  Fe79  1  0.62110245  0.37603168  0.37642184  1
  Fe  Fe80  1  0.25253253  0.25533873  0.50062459  1
  Fe  Fe81  1  0.49928660  0.00018083  0.24769055  1
  Fe  Fe82  1  0.75104475  0.74875936  0.75076223  1
  Fe  Fe83  1  0.37610067  0.12643033  0.62503254  1
  Fe  Fe84  1  0.50057660  0.50165801  0.00038245  1
  Fe  Fe85  1  0.37198193  0.87372434  0.87645102  1
  Fe  Fe86  1  0.37035083  0.62046331  0.37219722  1
  Fe  Fe87  1  0.12614238  0.12922469  0.37635849  1
  Fe  Fe88  1  0.62842211  0.62687289  0.12467524  1
  Fe  Fe89  1  0.00087468  0.00394392  0.24817451  1
  Co  Co90  1  0.12645010  0.62379914  0.88060935  1
  Co  Co91  1  -0.00175256  0.24945946  0.50113678  1
  Co  Co92  1  0.87237891  0.12528255  0.62647389  1
  Co  Co93  1  0.50133085  0.50511488  0.49949406  1
  Co  Co94  1  0.74702238  0.49936956  0.74641046  1
  Co  Co95  1  0.12165732  0.37225524  0.62805025  1
  Co  Co96  1  0.87204023  0.12294785  0.87775231  1
  Co  Co97  1  0.62597804  0.12460994  0.87745440  1
  Co  Co98  1  0.24817591  -0.00154481  -0.00007220  1
  Co  Co99  1  0.62466883  0.37841545  0.87642694  1
  Co  Co100  1  0.12688324  0.62318514  0.37241008  1
  Co  Co101  1  -0.00126859  0.75007250  0.24957279  1
  Co  Co102  1  0.37877376  0.37753301  0.62624953  1
  Co  Co103  1  0.12258061  0.37195447  0.37279989  1
  Co  Co104  1  0.12450613  0.62551664  0.62101345  1
  Co  Co105  1  0.24923415  0.75270583  0.25124643  1
  Co  Co106  1  0.37844549  0.37844115  0.37527085  1
  Co  Co107  1  0.25084595  0.74898909  0.00211910  1
  Co  Co108  1  0.37886670  0.37472120  0.12369810  1
  Co  Co109  1  -0.00255159  0.25026864  -0.00301933  1
  Co  Co110  1  0.24897169  0.49400264  0.24666948  1
  Co  Co111  1  0.75074562  0.49690759  0.00477910  1
  Co  Co112  1  0.75199102  -0.00071540  0.24867975  1
  Co  Co113  1  0.75212819  0.75203713  0.00195518  1
  Co  Co114  1  0.62517233  0.87297843  0.87433437  1
  Co  Co115  1  0.49947947  0.24938987  0.75423863  1
  Co  Co116  1  0.87428121  0.62253276  0.12631141  1
  Co  Co117  1  0.87939080  0.87886792  0.12286988  1
  Co  Co118  1  0.00329437  0.50368208  0.75114772  1
  Co  Co119  1  0.49816504  0.74726327  0.25048058  1
  Co  Co120  1  0.37443030  0.87448757  0.12493065  1
  Co  Co121  1  0.62347479  0.87319851  0.12840048  1
  Co  Co122  1  0.25147880  0.25452729  -0.00162584  1
  Co  Co123  1  0.49812030  0.24821741  0.49833109  1
  Co  Co124  1  0.87789274  0.37243129  0.12718018  1
  Co  Co125  1  0.00143587  0.24620119  0.24721100  1
  Co  Co126  1  0.24784634  0.74771434  0.75043877  1
  Co  Co127  1  0.74778005  0.25300067  0.25020264  1
