# generated using pymatgen
data_Fe45Co19
_symmetry_space_group_name_H-M   'P 1'
_cell_length_a   11.41679116
_cell_length_b   11.41532700
_cell_length_c   11.41604879
_cell_angle_alpha   89.99269857
_cell_angle_beta   89.99712312
_cell_angle_gamma   89.99735445
_symmetry_Int_Tables_number   1
_chemical_formula_structural   Fe45Co19
_chemical_formula_sum   'Fe90 Co38'
_cell_volume   1487.81257586
_cell_formula_units_Z   2
loop_
 _symmetry_equiv_pos_site_id
 _symmetry_equiv_pos_as_xyz
  1  'x, y, z'
loop_
 _atom_site_type_symbol
 _atom_site_label
 _atom_site_symmetry_multiplicity
 _atom_site_fract_x
 _atom_site_fract_y
 _atom_site_fract_z
 _atom_site_occupancy
  Fe  Fe0  1  -0.00084253  0.74992769  0.24959159  1
  Fe  Fe1  1  0.24846608  -0.00008773  -0.00167584  1
  Fe  Fe2  1  0.75298182  0.25021375  -0.00154303  1
  Fe  Fe3  1  0.75076467  0.25242843  0.50244085  1
  Fe  Fe4  1  0.25191053  0.75053538  0.25111518  1
  Fe  Fe5  1  0.87454468  0.87589465  0.37297601  1
  Fe  Fe6  1  0.62466140  0.87452150  0.37513515  1
  Fe  Fe7  1  0.87723319  0.12482779  0.12526599  1
  Fe  Fe8  1  0.75115397  0.75085310  0.50180297  1
  Fe  Fe9  1  0.87526057  0.37358300  0.37266945  1
  Fe  Fe10  1  0.37477992  0.37418730  0.37516538  1
  Fe  Fe11  1  0.74934694  -0.00044416  0.50203331  1
  Fe  Fe12  1  0.87301676  0.62628503  0.12374705  1
  Fe  Fe13  1  0.00186318  0.50066768  -0.00028071  1
  Fe  Fe14  1  0.24833777  0.50103511  0.74946062  1
  Fe  Fe15  1  0.37623014  0.12294347  0.62260678  1
  Fe  Fe16  1  0.12608368  0.62804619  0.62339131  1
  Fe  Fe17  1  0.37470940  0.87575952  0.87371044  1
  Fe  Fe18  1  0.37600220  0.87608550  0.12513534  1
  Fe  Fe19  1  0.87205395  0.62619741  0.37397112  1
  Fe  Fe20  1  0.24902010  -0.00308490  0.25210659  1
  Fe  Fe21  1  0.62529871  0.87819905  0.12074327  1
  Fe  Fe22  1  0.75134248  0.25222229  0.74930124  1
  Fe  Fe23  1  0.37447517  0.12294565  0.12549432  1
  Fe  Fe24  1  0.74984375  0.74776694  0.75602249  1
  Fe  Fe25  1  0.74954768  0.49762914  0.50431315  1
  Fe  Fe26  1  0.24764992  0.25019203  0.24994747  1
  Fe  Fe27  1  0.12719248  0.37203037  0.87642520  1
  Fe  Fe28  1  0.24447963  -0.00079370  0.75058811  1
  Fe  Fe29  1  0.49828502  0.50149039  0.24833760  1
  Fe  Fe30  1  0.62596734  0.62701166  0.37540310  1
  Fe  Fe31  1  0.49700749  0.75338750  0.50407836  1
  Fe  Fe32  1  0.12373465  0.37716687  0.37195536  1
  Fe  Fe33  1  0.12313022  0.12041361  0.37601500  1
  Fe  Fe34  1  0.62536868  0.62457815  0.12316051  1
  Fe  Fe35  1  0.62421138  0.37522058  0.87441042  1
  Fe  Fe36  1  0.50043895  0.50017695  0.74892540  1
  Fe  Fe37  1  0.37710778  0.37263033  0.62459306  1
  Fe  Fe38  1  0.24991817  0.24828706  0.49950858  1
  Fe  Fe39  1  0.37187334  0.12500161  0.87545905  1
  Fe  Fe40  1  0.87514946  0.12440547  0.37302167  1
  Fe  Fe41  1  -0.00103344  0.50139391  0.50033752  1
  Fe  Fe42  1  0.25201757  0.74760557  0.00126040  1
  Fe  Fe43  1  0.87561085  0.62277678  0.62950131  1
  Fe  Fe44  1  0.25002708  0.49899359  0.50064709  1
  Fe  Fe45  1  0.25363280  0.75634434  0.50094095  1
  Fe  Fe46  1  0.62280032  0.12915548  0.62504968  1
  Fe  Fe47  1  0.74890728  0.74946953  -0.00490712  1
  Fe  Fe48  1  0.36986340  0.37767907  0.12273780  1
  Fe  Fe49  1  0.50077903  0.75112497  -0.00214210  1
  Fe  Fe50  1  0.12623918  0.62632886  0.37532170  1
  Fe  Fe51  1  0.12260810  0.37324763  0.62449807  1
  Fe  Fe52  1  0.37265784  0.37540507  0.87597380  1
  Fe  Fe53  1  0.37643498  0.11997917  0.37641601  1
  Fe  Fe54  1  0.87722465  0.37896837  0.87024206  1
  Fe  Fe55  1  0.87886525  0.12183531  0.87369111  1
  Fe  Fe56  1  0.62547550  0.12531579  0.87778961  1
  Fe  Fe57  1  0.62435420  0.62674741  0.62653558  1
  Fe  Fe58  1  0.25339317  0.75028120  0.74676673  1
  Fe  Fe59  1  0.62415892  0.12513731  0.12186455  1
  Fe  Fe60  1  0.87850226  0.12381419  0.62757687  1
  Fe  Fe61  1  0.62434602  0.87342402  0.62964367  1
  Fe  Fe62  1  0.12664426  0.62221761  0.12735475  1
  Fe  Fe63  1  0.49904562  0.24949828  0.24897418  1
  Fe  Fe64  1  0.75056911  0.50042003  -0.00260813  1
  Fe  Fe65  1  -0.00138485  0.24943160  0.49952507  1
  Fe  Fe66  1  0.87537150  0.87680604  0.62845536  1
  Fe  Fe67  1  0.12167078  0.12207412  0.62431719  1
  Fe  Fe68  1  0.12505512  0.87476030  0.12456546  1
  Fe  Fe69  1  0.74910050  0.00026740  0.75205373  1
  Fe  Fe70  1  0.87672261  0.37317380  0.12786353  1
  Fe  Fe71  1  0.50135855  0.00134073  0.75187933  1
  Fe  Fe72  1  0.62493301  0.37395370  0.37413388  1
  Fe  Fe73  1  0.49662276  0.24985778  -0.00120903  1
  Fe  Fe74  1  0.62627133  0.37354945  0.12443463  1
  Fe  Fe75  1  0.75088393  0.50065950  0.24932731  1
  Fe  Fe76  1  0.62424695  0.12521593  0.37549458  1
  Fe  Fe77  1  0.37519024  0.62654770  0.37623626  1
  Fe  Fe78  1  0.12429489  0.12409220  0.12387414  1
  Fe  Fe79  1  0.50051145  0.49933254  0.50094816  1
  Fe  Fe80  1  0.37758379  0.62346840  0.87633003  1
  Fe  Fe81  1  0.50041050  0.75081150  0.24812896  1
  Fe  Fe82  1  0.00195628  0.25036681  0.00010052  1
  Fe  Fe83  1  0.87425727  0.87656821  0.12209432  1
  Fe  Fe84  1  0.74897045  0.00034452  0.24778502  1
  Fe  Fe85  1  0.24949655  0.24836191  0.74812481  1
  Fe  Fe86  1  -0.00061740  0.75092856  -0.00100411  1
  Fe  Fe87  1  -0.00200872  0.75226799  0.50052182  1
  Fe  Fe88  1  -0.00037227  0.75359099  0.75216465  1
  Fe  Fe89  1  0.12451334  0.62822878  0.87396440  1
  Co  Co90  1  0.87712065  0.62257084  0.87343998  1
  Co  Co91  1  0.75154939  0.00243550  -0.00028228  1
  Co  Co92  1  0.00470080  -0.00456831  0.75448312  1
  Co  Co93  1  0.49757664  0.24806982  0.75434057  1
  Co  Co94  1  0.50282784  -0.00027939  0.24877382  1
  Co  Co95  1  0.12487746  0.12789216  0.87549354  1
  Co  Co96  1  0.24888833  -0.00355850  0.49986481  1
  Co  Co97  1  0.24738763  0.50422038  -0.00253420  1
  Co  Co98  1  0.00105438  0.24978037  0.75107721  1
  Co  Co99  1  0.49878305  0.24890421  0.49749882  1
  Co  Co100  1  0.50025153  0.49764249  0.00170960  1
  Co  Co101  1  0.74878845  0.75202780  0.24791820  1
  Co  Co102  1  0.37813264  0.87764463  0.37376365  1
  Co  Co103  1  0.37420503  0.62247191  0.62328705  1
  Co  Co104  1  0.49708681  0.74950328  0.75014982  1
  Co  Co105  1  0.74669024  0.49958738  0.74818070  1
  Co  Co106  1  -0.00242672  0.50281179  0.25012144  1
  Co  Co107  1  0.62451280  0.87725576  0.87501895  1
  Co  Co108  1  0.87312467  0.87750770  0.87668666  1
  Co  Co109  1  0.00386421  0.24908523  0.24991645  1
  Co  Co110  1  0.12387648  0.87445122  0.62366821  1
  Co  Co111  1  0.12873543  0.87064831  0.87687676  1
  Co  Co112  1  0.49673123  0.00098886  -0.00207066  1
  Co  Co113  1  0.25252169  0.50170334  0.25122435  1
  Co  Co114  1  0.12669238  0.37808373  0.12573550  1
  Co  Co115  1  0.25006233  0.24788255  0.00209330  1
  Co  Co116  1  0.37567728  0.88120605  0.62827539  1
  Co  Co117  1  0.12245563  0.87427616  0.37523060  1
  Co  Co118  1  0.74844614  0.24824995  0.24917790  1
  Co  Co119  1  0.50365407  -0.00248925  0.50243670  1
  Co  Co120  1  0.37596613  0.62485240  0.12329345  1
  Co  Co121  1  0.00371668  -0.00131469  -0.00283769  1
  Co  Co122  1  0.62093734  0.37089603  0.62629557  1
  Co  Co123  1  -0.00033046  -0.00170251  0.24868345  1
  Co  Co124  1  0.00658095  0.50109210  0.74965991  1
  Co  Co125  1  0.62200079  0.62287232  0.87523570  1
  Co  Co126  1  -0.00299661  -0.00254990  0.50016890  1
  Co  Co127  1  0.87851346  0.37634670  0.62783972  1
