# generated using pymatgen
data_Fe45Co19
_symmetry_space_group_name_H-M   'P 1'
_cell_length_a   11.41542677
_cell_length_b   11.41595425
_cell_length_c   11.41452063
_cell_angle_alpha   89.99479870
_cell_angle_beta   89.99503639
_cell_angle_gamma   89.99907204
_symmetry_Int_Tables_number   1
_chemical_formula_structural   Fe45Co19
_chemical_formula_sum   'Fe90 Co38'
_cell_volume   1487.51737052
_cell_formula_units_Z   2
loop_
 _symmetry_equiv_pos_site_id
 _symmetry_equiv_pos_as_xyz
  1  'x, y, z'
loop_
 _atom_site_type_symbol
 _atom_site_label
 _atom_site_symmetry_multiplicity
 _atom_site_fract_x
 _atom_site_fract_y
 _atom_site_fract_z
 _atom_site_occupancy
  Fe  Fe0  1  0.62311912  0.62493493  0.12699245  1
  Fe  Fe1  1  0.62485178  0.12836066  0.37563087  1
  Fe  Fe2  1  0.49888629  0.75054543  0.74804232  1
  Fe  Fe3  1  0.12322175  0.87415053  0.12638833  1
  Fe  Fe4  1  0.49824739  0.49682085  0.50033795  1
  Fe  Fe5  1  0.00291163  0.25012554  -0.00316241  1
  Fe  Fe6  1  0.37618451  0.37192057  0.37542744  1
  Fe  Fe7  1  0.37396863  0.87724805  0.87318351  1
  Fe  Fe8  1  0.37577132  0.37693957  0.12562028  1
  Fe  Fe9  1  0.25258826  0.75109100  0.00107770  1
  Fe  Fe10  1  0.49823851  0.00202373  0.74771816  1
  Fe  Fe11  1  0.50020221  -0.00033110  0.50049765  1
  Fe  Fe12  1  0.74938422  -0.00038467  -0.00116045  1
  Fe  Fe13  1  0.75012584  0.50104551  0.24994203  1
  Fe  Fe14  1  0.62506476  0.62305112  0.87262993  1
  Fe  Fe15  1  0.12577755  0.37625482  0.62821363  1
  Fe  Fe16  1  0.00167230  0.00059585  0.75082885  1
  Fe  Fe17  1  0.75022993  0.00030347  0.25157955  1
  Fe  Fe18  1  0.62333772  0.62486399  0.62539941  1
  Fe  Fe19  1  0.50036438  0.75102134  -0.00066517  1
  Fe  Fe20  1  0.00115317  0.50306088  -0.00322629  1
  Fe  Fe21  1  0.12544807  0.12408287  0.37588727  1
  Fe  Fe22  1  0.87483842  0.87406668  0.12638929  1
  Fe  Fe23  1  0.75023085  0.24973590  0.24890158  1
  Fe  Fe24  1  0.00119532  0.75155111  0.50071408  1
  Fe  Fe25  1  0.62128978  0.37198305  0.62794062  1
  Fe  Fe26  1  0.87435489  0.12541914  0.37776484  1
  Fe  Fe27  1  0.49980481  0.24875399  0.00046645  1
  Fe  Fe28  1  0.87476121  0.62580124  0.12446147  1
  Fe  Fe29  1  -0.00015284  -0.00033610  0.25161283  1
  Fe  Fe30  1  0.12854536  0.87408449  0.62568453  1
  Fe  Fe31  1  0.87582659  0.37610200  0.87385015  1
  Fe  Fe32  1  0.87632171  0.12531286  0.87442128  1
  Fe  Fe33  1  0.87518111  0.12517484  0.12325737  1
  Fe  Fe34  1  0.50070160  0.49992096  -0.00102089  1
  Fe  Fe35  1  0.37356557  0.62627027  0.37487945  1
  Fe  Fe36  1  0.87712331  0.37705990  0.37573241  1
  Fe  Fe37  1  0.74935861  0.49977901  -0.00235536  1
  Fe  Fe38  1  0.00066087  0.25122852  0.50098407  1
  Fe  Fe39  1  0.12875319  0.87417055  0.87203544  1
  Fe  Fe40  1  0.12711262  0.62483864  0.62721612  1
  Fe  Fe41  1  0.00091452  0.25027424  0.25013943  1
  Fe  Fe42  1  0.37106646  0.87292752  0.37622305  1
  Fe  Fe43  1  0.62323777  0.87732296  0.12713145  1
  Fe  Fe44  1  0.87675935  0.37538463  0.12466058  1
  Fe  Fe45  1  -0.00021738  -0.00321227  0.49969919  1
  Fe  Fe46  1  0.62492537  0.12581242  0.87554392  1
  Fe  Fe47  1  0.25005011  0.00018966  0.50204918  1
  Fe  Fe48  1  0.49841097  0.75193941  0.50207487  1
  Fe  Fe49  1  0.37400148  0.12778185  0.37629302  1
  Fe  Fe50  1  0.25023673  0.25096870  0.24849382  1
  Fe  Fe51  1  0.37699883  0.12165213  0.12352850  1
  Fe  Fe52  1  0.87092714  0.87639683  0.62679278  1
  Fe  Fe53  1  0.87475084  0.62457805  0.37587015  1
  Fe  Fe54  1  0.87325934  0.87312977  0.87179699  1
  Fe  Fe55  1  0.62336101  0.37307341  0.37356669  1
  Fe  Fe56  1  0.25483035  0.74687987  0.74764697  1
  Fe  Fe57  1  0.37385132  0.12917461  0.62260305  1
  Fe  Fe58  1  0.62314355  0.37478242  0.12614742  1
  Fe  Fe59  1  0.87757685  0.37555018  0.62670293  1
  Fe  Fe60  1  0.62707055  0.12536987  0.62334164  1
  Fe  Fe61  1  0.74847597  0.74959900  -0.00173549  1
  Fe  Fe62  1  0.12505678  0.37643207  0.12386908  1
  Fe  Fe63  1  -0.00039571  0.74889675  -0.00405246  1
  Fe  Fe64  1  0.24929550  0.50067183  -0.00475159  1
  Fe  Fe65  1  0.00208245  0.50283407  0.75326854  1
  Fe  Fe66  1  0.74779318  0.25086696  -0.00037599  1
  Fe  Fe67  1  0.37904845  0.87712697  0.12629570  1
  Fe  Fe68  1  0.00099577  0.74928893  0.25264148  1
  Fe  Fe69  1  0.12689138  0.62410660  0.37487921  1
  Fe  Fe70  1  0.87290614  0.12453452  0.62350962  1
  Fe  Fe71  1  0.24966031  -0.00115695  0.24879827  1
  Fe  Fe72  1  0.37610036  0.37486793  0.87333649  1
  Fe  Fe73  1  0.12594209  0.12517009  0.12200847  1
  Fe  Fe74  1  0.00170765  -0.00130804  -0.00256775  1
  Fe  Fe75  1  0.12483942  0.12593879  0.62507085  1
  Fe  Fe76  1  0.12668014  0.62423198  0.12496276  1
  Fe  Fe77  1  0.37034201  0.12192863  0.87822624  1
  Fe  Fe78  1  0.62502501  0.87631385  0.87106481  1
  Fe  Fe79  1  0.87439076  0.62498388  0.62855207  1
  Fe  Fe80  1  0.62607335  0.87264141  0.37444850  1
  Fe  Fe81  1  0.49652958  0.49996303  0.74903394  1
  Fe  Fe82  1  0.74945150  0.49775574  0.50277458  1
  Fe  Fe83  1  0.62480479  0.62601505  0.37502852  1
  Fe  Fe84  1  0.25184013  0.49836414  0.50230416  1
  Fe  Fe85  1  0.75040836  0.25135751  0.75050617  1
  Fe  Fe86  1  0.12316572  0.37758179  0.37506989  1
  Fe  Fe87  1  0.75032390  0.75137630  0.50255761  1
  Fe  Fe88  1  0.24829498  0.24944022  0.75212804  1
  Fe  Fe89  1  0.37592565  0.62341552  0.12640281  1
  Co  Co90  1  0.37414810  0.37161155  0.62717581  1
  Co  Co91  1  0.62210523  0.37481062  0.87337214  1
  Co  Co92  1  0.25167043  0.25193241  0.00057569  1
  Co  Co93  1  0.74945922  0.74880480  0.24878021  1
  Co  Co94  1  0.12755754  0.62920692  0.87381347  1
  Co  Co95  1  0.12764439  0.12296020  0.87731653  1
  Co  Co96  1  -0.00040790  0.50190020  0.24832229  1
  Co  Co97  1  0.75081472  0.25439782  0.50151164  1
  Co  Co98  1  0.87456289  0.87346656  0.37435830  1
  Co  Co99  1  0.24625251  0.25259944  0.49994386  1
  Co  Co100  1  0.12538454  0.37473080  0.87373527  1
  Co  Co101  1  0.24818901  -0.00440354  0.00281492  1
  Co  Co102  1  0.74883197  0.49789887  0.74836527  1
  Co  Co103  1  0.62370401  0.12219414  0.12484779  1
  Co  Co104  1  0.25076212  0.49862546  0.25134538  1
  Co  Co105  1  0.49980761  0.00007199  0.25561193  1
  Co  Co106  1  0.00063538  0.50215343  0.50282963  1
  Co  Co107  1  0.37714204  0.62541806  0.87638996  1
  Co  Co108  1  0.24909284  0.74770758  0.50224955  1
  Co  Co109  1  0.74800936  -0.00178990  0.49738464  1
  Co  Co110  1  0.49985773  0.50093360  0.25249968  1
  Co  Co111  1  0.87261826  0.62500039  0.87231753  1
  Co  Co112  1  0.37700415  0.62380417  0.62281184  1
  Co  Co113  1  0.12808654  0.87544483  0.37596400  1
  Co  Co114  1  0.49803447  0.24502505  0.75221297  1
  Co  Co115  1  0.74944670  0.00254930  0.75133071  1
  Co  Co116  1  0.25274100  0.50171948  0.75133472  1
  Co  Co117  1  0.49841303  0.24875553  0.24734526  1
  Co  Co118  1  0.37409511  0.87495649  0.62381353  1
  Co  Co119  1  0.25081527  0.00243355  0.74621400  1
  Co  Co120  1  0.50135702  -0.00059559  -0.00388808  1
  Co  Co121  1  0.62535273  0.87665585  0.62620974  1
  Co  Co122  1  0.49836304  0.74945592  0.25016065  1
  Co  Co123  1  0.00100296  0.24765419  0.75006297  1
  Co  Co124  1  0.25026407  0.75022839  0.24762849  1
  Co  Co125  1  0.74747524  0.74845462  0.74939165  1
  Co  Co126  1  -0.00023869  0.75133939  0.74911175  1
  Co  Co127  1  0.50091230  0.25003063  0.50105546  1
