# generated using pymatgen
data_Fe45Co19
_symmetry_space_group_name_H-M   'P 1'
_cell_length_a   11.41620926
_cell_length_b   11.41629922
_cell_length_c   11.41533309
_cell_angle_alpha   90.00628341
_cell_angle_beta   89.99794547
_cell_angle_gamma   89.99646717
_symmetry_Int_Tables_number   1
_chemical_formula_structural   Fe45Co19
_chemical_formula_sum   'Fe90 Co38'
_cell_volume   1487.77017761
_cell_formula_units_Z   2
loop_
 _symmetry_equiv_pos_site_id
 _symmetry_equiv_pos_as_xyz
  1  'x, y, z'
loop_
 _atom_site_type_symbol
 _atom_site_label
 _atom_site_symmetry_multiplicity
 _atom_site_fract_x
 _atom_site_fract_y
 _atom_site_fract_z
 _atom_site_occupancy
  Fe  Fe0  1  0.62424678  0.87499595  0.12495346  1
  Fe  Fe1  1  0.25332424  -0.00342729  -0.00323140  1
  Fe  Fe2  1  -0.00345117  0.25040541  0.50168866  1
  Fe  Fe3  1  0.87390073  0.12486048  0.37566378  1
  Fe  Fe4  1  0.50246864  0.24809069  0.74747116  1
  Fe  Fe5  1  0.12594060  0.62611476  0.12480045  1
  Fe  Fe6  1  0.50318421  0.50154234  0.25057268  1
  Fe  Fe7  1  0.62876840  0.12548381  0.12110086  1
  Fe  Fe8  1  0.50231907  0.24784139  0.24961040  1
  Fe  Fe9  1  0.12411406  0.12384717  0.87485740  1
  Fe  Fe10  1  0.12567935  0.62474411  0.87745565  1
  Fe  Fe11  1  0.37902410  0.87873380  0.13060154  1
  Fe  Fe12  1  0.12630171  0.12519205  0.62604267  1
  Fe  Fe13  1  0.74766667  -0.00296163  0.74937598  1
  Fe  Fe14  1  0.74928292  0.49939104  0.50221371  1
  Fe  Fe15  1  -0.00251201  0.50013877  -0.00029523  1
  Fe  Fe16  1  0.00066888  0.50089994  0.50119451  1
  Fe  Fe17  1  0.25245870  0.49891646  -0.00067207  1
  Fe  Fe18  1  0.37685886  0.37698600  0.37664243  1
  Fe  Fe19  1  0.37728213  0.37487241  0.12480822  1
  Fe  Fe20  1  0.12780445  0.62623701  0.37621476  1
  Fe  Fe21  1  0.87665181  0.87477086  0.37371141  1
  Fe  Fe22  1  0.87306895  0.37633657  0.37309696  1
  Fe  Fe23  1  0.25265575  0.75437408  0.25436822  1
  Fe  Fe24  1  0.49162256  0.74551728  0.50049632  1
  Fe  Fe25  1  0.25306360  0.75341607  -0.00154334  1
  Fe  Fe26  1  0.87569182  0.87160193  0.63000610  1
  Fe  Fe27  1  0.12358592  0.37243878  0.62598504  1
  Fe  Fe28  1  0.75115447  -0.00275384  0.50109849  1
  Fe  Fe29  1  0.12641378  0.87588160  0.62581725  1
  Fe  Fe30  1  0.62113036  0.87309608  0.37559766  1
  Fe  Fe31  1  -0.00333334  0.74948789  -0.00350662  1
  Fe  Fe32  1  0.00139158  0.00028354  0.50109569  1
  Fe  Fe33  1  0.86986934  0.37726731  0.12833427  1
  Fe  Fe34  1  0.74846731  0.74887724  0.25042081  1
  Fe  Fe35  1  0.37266342  0.12116121  0.37369392  1
  Fe  Fe36  1  0.87530914  0.37569661  0.87088704  1
  Fe  Fe37  1  0.37378286  0.12299749  0.12608722  1
  Fe  Fe38  1  0.87204574  0.12493535  0.12333327  1
  Fe  Fe39  1  0.37257260  0.12229783  0.62655221  1
  Fe  Fe40  1  0.62559056  0.37333020  0.37774451  1
  Fe  Fe41  1  0.75214237  0.75038774  0.50023610  1
  Fe  Fe42  1  0.49995427  0.24721267  0.50183808  1
  Fe  Fe43  1  0.00015435  0.74905500  0.50228846  1
  Fe  Fe44  1  0.00306510  0.00084952  0.25104556  1
  Fe  Fe45  1  0.87528366  0.62427902  0.37460264  1
  Fe  Fe46  1  0.24985793  0.24971091  0.25011516  1
  Fe  Fe47  1  0.62410259  0.62705136  0.37858444  1
  Fe  Fe48  1  0.74789450  0.00004231  0.25088872  1
  Fe  Fe49  1  0.24950176  0.75288891  0.75227941  1
  Fe  Fe50  1  0.24901251  0.49725742  0.75077777  1
  Fe  Fe51  1  -0.00335139  -0.00200673  -0.00241317  1
  Fe  Fe52  1  0.37887951  0.37578165  0.87396161  1
  Fe  Fe53  1  0.37855059  0.12270509  0.87376187  1
  Fe  Fe54  1  -0.00151459  0.24986433  0.24833217  1
  Fe  Fe55  1  0.62375334  0.87204714  0.62283446  1
  Fe  Fe56  1  0.24961158  0.25064076  0.75204601  1
  Fe  Fe57  1  0.50040970  0.00218563  0.50249836  1
  Fe  Fe58  1  -0.00057023  0.74810312  0.25027047  1
  Fe  Fe59  1  0.50176534  0.50291110  0.74610309  1
  Fe  Fe60  1  0.25091188  0.25008529  0.50032008  1
  Fe  Fe61  1  0.25113279  0.25122474  -0.00330089  1
  Fe  Fe62  1  0.50312759  0.25201879  0.00027461  1
  Fe  Fe63  1  0.87397293  0.87530178  0.12663813  1
  Fe  Fe64  1  0.62516753  0.12361657  0.87537613  1
  Fe  Fe65  1  0.37547582  0.62539354  0.87358297  1
  Fe  Fe66  1  0.62156925  0.87663994  0.87693584  1
  Fe  Fe67  1  0.12327489  0.37273997  0.37553927  1
  Fe  Fe68  1  0.74751985  0.25260941  0.74707480  1
  Fe  Fe69  1  -0.00229699  0.25185020  -0.00147445  1
  Fe  Fe70  1  0.12407516  0.87443475  0.12388455  1
  Fe  Fe71  1  0.49775107  0.74935945  0.00202370  1
  Fe  Fe72  1  0.62449550  0.62363763  0.87709852  1
  Fe  Fe73  1  0.75324423  0.75095199  -0.00379824  1
  Fe  Fe74  1  0.87318535  0.12545079  0.62606037  1
  Fe  Fe75  1  0.50066328  0.74866126  0.74736782  1
  Fe  Fe76  1  0.12638527  0.12477062  0.12307727  1
  Fe  Fe77  1  0.37422993  0.62353578  0.12756942  1
  Fe  Fe78  1  0.13048691  0.62650238  0.62297061  1
  Fe  Fe79  1  0.62686532  0.62241363  0.12139067  1
  Fe  Fe80  1  0.37328038  0.87805109  0.62637643  1
  Fe  Fe81  1  0.62894350  0.12613206  0.37969668  1
  Fe  Fe82  1  0.37747111  0.37688195  0.62386143  1
  Fe  Fe83  1  0.24741695  0.49737566  0.25048850  1
  Fe  Fe84  1  0.00267084  0.50174604  0.74933678  1
  Fe  Fe85  1  0.87243735  0.12454934  0.87424166  1
  Fe  Fe86  1  0.74606005  0.50013726  0.74826037  1
  Fe  Fe87  1  0.87271867  0.62717121  0.62898969  1
  Fe  Fe88  1  0.12473727  0.37439589  0.12247461  1
  Fe  Fe89  1  0.87277088  0.62237627  0.12618896  1
  Co  Co90  1  0.62720832  0.62803837  0.62237528  1
  Co  Co91  1  0.75163904  -0.00313643  -0.00192339  1
  Co  Co92  1  0.87713923  0.87396452  0.86954647  1
  Co  Co93  1  0.38068372  0.87449433  0.87254756  1
  Co  Co94  1  0.12164674  0.87601480  0.87517088  1
  Co  Co95  1  0.25532650  0.75379398  0.49681172  1
  Co  Co96  1  0.00212123  0.50084588  0.25008055  1
  Co  Co97  1  0.50033888  0.74531133  0.25001869  1
  Co  Co98  1  0.74602747  0.50341681  0.25343283  1
  Co  Co99  1  0.37131179  0.62032556  0.37355117  1
  Co  Co100  1  0.00436666  0.74757595  0.75063037  1
  Co  Co101  1  0.62834511  0.12516697  0.62358799  1
  Co  Co102  1  0.12140538  0.87222231  0.37714700  1
  Co  Co103  1  0.74512119  0.75133753  0.75336149  1
  Co  Co104  1  0.74921570  0.25443774  -0.00205191  1
  Co  Co105  1  0.74897399  0.24771323  0.24981795  1
  Co  Co106  1  0.87404656  0.62458973  0.87019193  1
  Co  Co107  1  0.24744969  -0.00117067  0.49689132  1
  Co  Co108  1  0.36965987  0.62291925  0.62673681  1
  Co  Co109  1  0.24869453  0.49677478  0.50033340  1
  Co  Co110  1  0.50252860  0.00030339  0.74729348  1
  Co  Co111  1  -0.00050552  0.00189600  0.74867046  1
  Co  Co112  1  0.49895361  0.00075702  0.00151547  1
  Co  Co113  1  0.75177820  0.49737325  -0.00358482  1
  Co  Co114  1  0.12387322  0.12900314  0.37556595  1
  Co  Co115  1  0.62226030  0.37687697  0.87330975  1
  Co  Co116  1  0.75295860  0.25286504  0.50346931  1
  Co  Co117  1  0.00015756  0.24848599  0.75130237  1
  Co  Co118  1  0.50007522  0.50421646  0.50110981  1
  Co  Co119  1  0.24504492  -0.00131187  0.25228849  1
  Co  Co120  1  0.49826128  0.49990922  0.00080102  1
  Co  Co121  1  0.50636507  0.00566532  0.24935982  1
  Co  Co122  1  0.62164071  0.37432077  0.62159597  1
  Co  Co123  1  0.62666035  0.37664377  0.12592580  1
  Co  Co124  1  0.38167093  0.88092038  0.37241644  1
  Co  Co125  1  0.87627407  0.37721935  0.62762173  1
  Co  Co126  1  0.12366164  0.37572934  0.87612416  1
  Co  Co127  1  0.25064265  -0.00041045  0.75403314  1
