# generated using pymatgen
data_Fe45Co19
_symmetry_space_group_name_H-M   'P 1'
_cell_length_a   11.41572994
_cell_length_b   11.41479340
_cell_length_c   11.41488919
_cell_angle_alpha   89.99504349
_cell_angle_beta   89.99371708
_cell_angle_gamma   89.99615391
_symmetry_Int_Tables_number   1
_chemical_formula_structural   Fe45Co19
_chemical_formula_sum   'Fe90 Co38'
_cell_volume   1487.45363077
_cell_formula_units_Z   2
loop_
 _symmetry_equiv_pos_site_id
 _symmetry_equiv_pos_as_xyz
  1  'x, y, z'
loop_
 _atom_site_type_symbol
 _atom_site_label
 _atom_site_symmetry_multiplicity
 _atom_site_fract_x
 _atom_site_fract_y
 _atom_site_fract_z
 _atom_site_occupancy
  Fe  Fe0  1  0.87162327  0.12079081  0.62534992  1
  Fe  Fe1  1  0.74750960  0.74980243  0.00082785  1
  Fe  Fe2  1  -0.00250607  0.00001741  -0.00205179  1
  Fe  Fe3  1  0.25241327  -0.00213582  0.50126374  1
  Fe  Fe4  1  0.62047751  0.62260027  0.37818798  1
  Fe  Fe5  1  0.50090829  0.74963970  0.00056605  1
  Fe  Fe6  1  0.12475783  0.62548472  0.37545707  1
  Fe  Fe7  1  0.12356000  0.12312152  0.87203264  1
  Fe  Fe8  1  0.87523576  0.12503869  0.12474173  1
  Fe  Fe9  1  0.24756342  0.74788557  -0.00173491  1
  Fe  Fe10  1  0.50139693  0.24960508  0.74887762  1
  Fe  Fe11  1  0.00048280  0.49855676  0.50173675  1
  Fe  Fe12  1  0.25219678  0.74975319  0.25245853  1
  Fe  Fe13  1  0.37641645  0.12784606  0.37682297  1
  Fe  Fe14  1  -0.00245650  0.74987224  0.25410723  1
  Fe  Fe15  1  0.12463790  0.12414507  0.12609704  1
  Fe  Fe16  1  0.37523417  0.12471815  0.87433995  1
  Fe  Fe17  1  0.12507669  0.62518138  0.62559787  1
  Fe  Fe18  1  0.37483091  0.37728696  0.87378438  1
  Fe  Fe19  1  0.37427245  0.37352635  0.62430639  1
  Fe  Fe20  1  0.25011394  -0.00112239  -0.00132660  1
  Fe  Fe21  1  0.87250177  0.62586418  0.62169969  1
  Fe  Fe22  1  -0.00056938  0.24833801  0.25144100  1
  Fe  Fe23  1  0.37639529  0.87493675  0.87294189  1
  Fe  Fe24  1  0.37410133  0.37529625  0.12465078  1
  Fe  Fe25  1  0.38051697  0.87310125  0.37513926  1
  Fe  Fe26  1  0.74961279  0.24867383  0.25273520  1
  Fe  Fe27  1  0.12525814  0.37835556  0.87122939  1
  Fe  Fe28  1  0.37571862  0.62392140  0.12452762  1
  Fe  Fe29  1  0.25066853  0.75109356  0.49977415  1
  Fe  Fe30  1  -0.00274283  0.50332926  0.25030977  1
  Fe  Fe31  1  0.75121376  -0.00013836  -0.00104231  1
  Fe  Fe32  1  0.24663731  0.50344034  -0.00198887  1
  Fe  Fe33  1  0.50205667  -0.00129423  0.50324236  1
  Fe  Fe34  1  0.37728550  0.62435641  0.87440405  1
  Fe  Fe35  1  0.49855840  0.00146991  0.74576377  1
  Fe  Fe36  1  0.75181444  0.24987994  0.74921190  1
  Fe  Fe37  1  0.62426661  0.87530175  0.87280221  1
  Fe  Fe38  1  0.37737892  0.62547524  0.62228348  1
  Fe  Fe39  1  0.74625277  0.75420496  0.49710973  1
  Fe  Fe40  1  0.62688243  0.12355745  0.87276522  1
  Fe  Fe41  1  0.87509968  0.37685437  0.12406814  1
  Fe  Fe42  1  0.62275938  0.87675005  0.12934316  1
  Fe  Fe43  1  0.00324050  0.74496394  0.00098021  1
  Fe  Fe44  1  0.62465173  0.37691831  0.12539071  1
  Fe  Fe45  1  -0.00053046  0.75270652  0.49857333  1
  Fe  Fe46  1  0.62390618  0.12475957  0.12732268  1
  Fe  Fe47  1  0.87516194  0.87367700  0.12705424  1
  Fe  Fe48  1  0.50032150  0.00040106  0.00053589  1
  Fe  Fe49  1  0.50042043  0.25350193  0.25338923  1
  Fe  Fe50  1  0.12508366  0.37680950  0.12710404  1
  Fe  Fe51  1  0.12423050  0.37450253  0.37467219  1
  Fe  Fe52  1  0.74990375  0.49931392  0.50169308  1
  Fe  Fe53  1  0.24841336  0.25025142  -0.00095935  1
  Fe  Fe54  1  0.12445669  0.87387504  0.12747949  1
  Fe  Fe55  1  0.50277093  0.74782599  0.74681496  1
  Fe  Fe56  1  0.62999594  0.37337499  0.62380172  1
  Fe  Fe57  1  -0.00376717  0.75167507  0.74758611  1
  Fe  Fe58  1  0.12579270  0.87603420  0.62667867  1
  Fe  Fe59  1  0.37629090  0.87390824  0.12556027  1
  Fe  Fe60  1  0.62638048  0.37819921  0.87534296  1
  Fe  Fe61  1  0.25235575  0.49975705  0.25298534  1
  Fe  Fe62  1  0.12533727  0.12425323  0.37465243  1
  Fe  Fe63  1  0.62305598  0.62228178  0.12367390  1
  Fe  Fe64  1  0.37492975  0.12747521  0.12479631  1
  Fe  Fe65  1  -0.00270159  0.25051988  0.50218761  1
  Fe  Fe66  1  0.12464799  0.12209789  0.62663973  1
  Fe  Fe67  1  0.74464160  -0.00180718  0.49757681  1
  Fe  Fe68  1  0.74879246  0.74866376  0.25314169  1
  Fe  Fe69  1  0.75027996  0.75003607  0.74945881  1
  Fe  Fe70  1  0.75055820  0.50274773  0.25030828  1
  Fe  Fe71  1  0.38073898  0.62373897  0.37861704  1
  Fe  Fe72  1  0.87426297  0.37763525  0.87595372  1
  Fe  Fe73  1  0.87325884  0.62366785  0.87762305  1
  Fe  Fe74  1  0.00111825  0.25180980  -0.00077601  1
  Fe  Fe75  1  0.50397548  0.50191341  0.74693081  1
  Fe  Fe76  1  0.50089460  0.25106650  -0.00150112  1
  Fe  Fe77  1  0.12357532  0.87523557  0.87209234  1
  Fe  Fe78  1  0.24929195  0.49886306  0.50147053  1
  Fe  Fe79  1  0.24766370  0.25117560  0.50047961  1
  Fe  Fe80  1  -0.00246003  0.49993829  0.74700812  1
  Fe  Fe81  1  0.00076483  -0.00312438  0.49869136  1
  Fe  Fe82  1  0.74902764  0.25054054  0.00005878  1
  Fe  Fe83  1  -0.00236752  0.25015277  0.74688165  1
  Fe  Fe84  1  0.50564479  0.25182734  0.49875775  1
  Fe  Fe85  1  0.87367224  0.37563687  0.37627975  1
  Fe  Fe86  1  0.25081525  0.74944448  0.74966187  1
  Fe  Fe87  1  0.25160478  0.00009759  0.25182171  1
  Fe  Fe88  1  0.87383565  0.12119885  0.37441950  1
  Fe  Fe89  1  0.25019533  0.24832719  0.74838097  1
  Co  Co90  1  0.75079848  0.00034434  0.24867152  1
  Co  Co91  1  0.75109239  0.24759573  0.49777689  1
  Co  Co92  1  0.63019151  0.37755377  0.37562599  1
  Co  Co93  1  0.50383604  0.75417255  0.50272921  1
  Co  Co94  1  -0.00596795  -0.00238919  0.75179544  1
  Co  Co95  1  0.12626752  0.87425010  0.37436613  1
  Co  Co96  1  0.74983910  0.50018817  0.00131783  1
  Co  Co97  1  0.37497786  0.87284563  0.62572110  1
  Co  Co98  1  0.62564528  0.62528482  0.87716828  1
  Co  Co99  1  0.37611605  0.12861089  0.62230492  1
  Co  Co100  1  0.62710187  0.62612983  0.62031582  1
  Co  Co101  1  0.49997540  0.49971360  -0.00092040  1
  Co  Co102  1  0.87307055  0.87713016  0.37453352  1
  Co  Co103  1  0.00225371  0.50249535  0.00087744  1
  Co  Co104  1  0.62718846  0.87635330  0.62869886  1
  Co  Co105  1  0.87559505  0.86976116  0.87945951  1
  Co  Co106  1  0.49637970  0.00282040  0.24920172  1
  Co  Co107  1  0.49933408  0.49743724  0.25151228  1
  Co  Co108  1  0.37310034  0.37394114  0.37751334  1
  Co  Co109  1  0.75469803  -0.00372260  0.75435207  1
  Co  Co110  1  0.74821097  0.50301161  0.74908990  1
  Co  Co111  1  0.62034298  0.87667397  0.36972768  1
  Co  Co112  1  0.25258369  0.50187869  0.74701300  1
  Co  Co113  1  0.12310416  0.62457603  0.86910335  1
  Co  Co114  1  0.62825553  0.12482905  0.62710303  1
  Co  Co115  1  0.50139731  0.49502220  0.50266180  1
  Co  Co116  1  0.87149171  0.37592195  0.62382123  1
  Co  Co117  1  0.62363367  0.12320272  0.37325538  1
  Co  Co118  1  0.87419389  0.12908044  0.87524879  1
  Co  Co119  1  0.87234963  0.87612783  0.62030280  1
  Co  Co120  1  0.00025392  -0.00042520  0.25061651  1
  Co  Co121  1  0.50089062  0.74571608  0.24889606  1
  Co  Co122  1  0.25258363  0.00057718  0.74853136  1
  Co  Co123  1  0.87416666  0.62465333  0.37939207  1
  Co  Co124  1  0.12608692  0.62575334  0.13096552  1
  Co  Co125  1  0.24927527  0.24908727  0.25051999  1
  Co  Co126  1  0.87420957  0.62690656  0.12352961  1
  Co  Co127  1  0.12592989  0.37463915  0.62605376  1
