# generated using pymatgen
data_Fe45Co19
_symmetry_space_group_name_H-M   'P 1'
_cell_length_a   11.41549092
_cell_length_b   11.41538095
_cell_length_c   11.41481428
_cell_angle_alpha   89.99566577
_cell_angle_beta   89.99756929
_cell_angle_gamma   89.99694610
_symmetry_Int_Tables_number   1
_chemical_formula_structural   Fe45Co19
_chemical_formula_sum   'Fe90 Co38'
_cell_volume   1487.48929715
_cell_formula_units_Z   2
loop_
 _symmetry_equiv_pos_site_id
 _symmetry_equiv_pos_as_xyz
  1  'x, y, z'
loop_
 _atom_site_type_symbol
 _atom_site_label
 _atom_site_symmetry_multiplicity
 _atom_site_fract_x
 _atom_site_fract_y
 _atom_site_fract_z
 _atom_site_occupancy
  Fe  Fe0  1  0.00318634  0.00055112  0.00155591  1
  Fe  Fe1  1  0.75122154  0.00084811  0.25099894  1
  Fe  Fe2  1  0.37419730  0.62432716  0.62573850  1
  Fe  Fe3  1  0.49946165  0.49821926  0.24835187  1
  Fe  Fe4  1  0.24897167  0.74983495  0.25129257  1
  Fe  Fe5  1  0.50045096  0.75246872  0.74813016  1
  Fe  Fe6  1  0.75021049  0.49971033  0.75311959  1
  Fe  Fe7  1  0.24626795  0.25174070  0.25230990  1
  Fe  Fe8  1  0.37163479  0.87954720  0.12659050  1
  Fe  Fe9  1  0.62622544  0.87746747  0.12513857  1
  Fe  Fe10  1  -0.00810552  0.00188246  0.50538432  1
  Fe  Fe11  1  0.37210727  0.12255857  0.12774932  1
  Fe  Fe12  1  0.12331626  0.12386672  0.87425476  1
  Fe  Fe13  1  0.24726054  0.25069621  0.75049042  1
  Fe  Fe14  1  0.50343878  0.24915367  0.74782568  1
  Fe  Fe15  1  0.49596095  0.49652766  0.50108870  1
  Fe  Fe16  1  0.75148049  0.24965088  0.24907019  1
  Fe  Fe17  1  0.00016382  0.74842431  0.24863255  1
  Fe  Fe18  1  0.62758537  0.37407965  0.87947875  1
  Fe  Fe19  1  0.12313523  0.87645239  0.62578266  1
  Fe  Fe20  1  0.62762154  0.12582593  0.37901688  1
  Fe  Fe21  1  0.74930592  0.75085985  0.75184830  1
  Fe  Fe22  1  0.12555206  0.62303913  0.62627504  1
  Fe  Fe23  1  0.87860692  0.87229552  0.87686552  1
  Fe  Fe24  1  0.87415866  0.62541498  0.37605634  1
  Fe  Fe25  1  0.12236481  0.37679623  0.12407424  1
  Fe  Fe26  1  0.62930394  0.37474547  0.12160952  1
  Fe  Fe27  1  0.75258523  0.50003366  0.24728206  1
  Fe  Fe28  1  0.50305975  0.74996411  0.00167706  1
  Fe  Fe29  1  0.25021768  0.49838448  0.75046503  1
  Fe  Fe30  1  0.12561906  0.61967643  0.37436859  1
  Fe  Fe31  1  0.62485726  0.62318561  0.37487751  1
  Fe  Fe32  1  0.24880848  0.00137396  0.49891059  1
  Fe  Fe33  1  0.12697727  0.37455902  0.62199958  1
  Fe  Fe34  1  0.37534226  0.37268820  0.87510142  1
  Fe  Fe35  1  0.24848637  0.74912092  0.49987276  1
  Fe  Fe36  1  0.75244388  0.49994561  0.50120669  1
  Fe  Fe37  1  0.12343998  0.12413062  0.62604177  1
  Fe  Fe38  1  0.37457884  0.87777072  0.37450407  1
  Fe  Fe39  1  0.74933349  0.75008747  0.25008401  1
  Fe  Fe40  1  -0.00331964  0.24909900  0.50195656  1
  Fe  Fe41  1  0.62240038  0.87806033  0.87374678  1
  Fe  Fe42  1  0.37446634  0.12732468  0.62519413  1
  Fe  Fe43  1  0.50021668  0.49696845  0.75033522  1
  Fe  Fe44  1  0.87687656  0.12585332  0.12614616  1
  Fe  Fe45  1  0.24991804  0.24867818  0.00084482  1
  Fe  Fe46  1  0.24889443  0.75203252  0.75236279  1
  Fe  Fe47  1  0.87279434  0.62792668  0.11945544  1
  Fe  Fe48  1  0.37638760  0.62670608  0.87446276  1
  Fe  Fe49  1  0.87509760  0.87311398  0.12201896  1
  Fe  Fe50  1  0.87381245  0.37203556  0.62917965  1
  Fe  Fe51  1  0.62605326  0.37371581  0.37686887  1
  Fe  Fe52  1  -0.00505115  0.49846413  -0.00394269  1
  Fe  Fe53  1  0.62997203  0.87947952  0.62327224  1
  Fe  Fe54  1  0.00188968  -0.00151376  0.24768148  1
  Fe  Fe55  1  0.62472307  0.12143725  0.87197946  1
  Fe  Fe56  1  0.25171050  0.49923402  -0.00002383  1
  Fe  Fe57  1  -0.00111841  0.50034976  0.50092171  1
  Fe  Fe58  1  0.00013378  0.74810462  0.50053341  1
  Fe  Fe59  1  0.62649128  0.37200524  0.62105642  1
  Fe  Fe60  1  0.50103435  0.24705920  0.00068667  1
  Fe  Fe61  1  0.37550214  0.12562332  0.37403663  1
  Fe  Fe62  1  0.75299628  0.00198802  -0.00273238  1
  Fe  Fe63  1  -0.00021378  0.49651407  0.75517435  1
  Fe  Fe64  1  0.87489160  0.62645536  0.62758183  1
  Fe  Fe65  1  0.62581040  0.12344054  0.12524046  1
  Fe  Fe66  1  0.12422315  0.62367890  0.12338476  1
  Fe  Fe67  1  0.12244504  0.87616093  0.37590490  1
  Fe  Fe68  1  0.49752605  0.00107119  0.00095153  1
  Fe  Fe69  1  0.00258581  0.74915440  0.75209694  1
  Fe  Fe70  1  0.50066528  0.00278864  0.50189213  1
  Fe  Fe71  1  0.12045884  0.12520633  0.37647447  1
  Fe  Fe72  1  0.24657487  0.75363022  -0.00320567  1
  Fe  Fe73  1  0.62810973  0.87729883  0.37794184  1
  Fe  Fe74  1  0.25129232  -0.00204703  0.75303987  1
  Fe  Fe75  1  0.37625980  0.37354207  0.12496303  1
  Fe  Fe76  1  0.37537972  0.12456089  0.87412331  1
  Fe  Fe77  1  0.37445841  0.62253053  0.37494495  1
  Fe  Fe78  1  0.50267624  0.50202437  -0.00000889  1
  Fe  Fe79  1  0.50067804  0.75173069  0.24980393  1
  Fe  Fe80  1  0.87457063  0.87413717  0.37672495  1
  Fe  Fe81  1  0.50136758  0.24990930  0.25036133  1
  Fe  Fe82  1  0.87690431  0.12963525  0.86902588  1
  Fe  Fe83  1  -0.00089685  0.25198601  -0.00178470  1
  Fe  Fe84  1  0.37402043  0.87575096  0.62367405  1
  Fe  Fe85  1  0.00035320  0.25312179  0.24869350  1
  Fe  Fe86  1  0.62519482  0.62370741  0.62538525  1
  Fe  Fe87  1  0.87678936  0.37515928  0.37326588  1
  Fe  Fe88  1  0.50130325  0.75003322  0.50040194  1
  Fe  Fe89  1  0.37507779  0.62569399  0.12444913  1
  Co  Co90  1  0.24496207  0.00244220  0.25220205  1
  Co  Co91  1  0.75561645  -0.00252407  0.75128549  1
  Co  Co92  1  0.12105656  0.87894524  0.87254519  1
  Co  Co93  1  0.49816203  0.00047655  0.74644646  1
  Co  Co94  1  0.25242543  0.49847756  0.50103474  1
  Co  Co95  1  0.75852258  0.00422679  0.50154019  1
  Co  Co96  1  0.62959376  0.12345730  0.62333050  1
  Co  Co97  1  0.37384587  0.37446396  0.37352709  1
  Co  Co98  1  0.75086365  0.50323411  -0.00310476  1
  Co  Co99  1  0.25004728  0.49792709  0.24733754  1
  Co  Co100  1  0.62336319  0.62566625  0.87233288  1
  Co  Co101  1  0.74893004  0.74691314  0.50022342  1
  Co  Co102  1  0.37818862  0.87478496  0.87685508  1
  Co  Co103  1  0.87522448  0.62855817  0.87542066  1
  Co  Co104  1  -0.00464935  -0.00079436  0.74658944  1
  Co  Co105  1  -0.00349646  0.50204995  0.24699452  1
  Co  Co106  1  0.12826301  0.37525279  0.87827972  1
  Co  Co107  1  0.75042314  0.24351328  -0.00006068  1
  Co  Co108  1  0.24904203  0.24924978  0.49724542  1
  Co  Co109  1  0.00513736  0.75025534  -0.00062965  1
  Co  Co110  1  0.24779319  -0.00008308  -0.00204514  1
  Co  Co111  1  0.62668660  0.62438479  0.12726699  1
  Co  Co112  1  0.12436604  0.12755420  0.12453368  1
  Co  Co113  1  0.74321026  0.25125058  0.75134108  1
  Co  Co114  1  0.74485129  0.75103718  -0.00243574  1
  Co  Co115  1  0.87204334  0.13236742  0.63331545  1
  Co  Co116  1  0.87779449  0.12528256  0.36968282  1
  Co  Co117  1  0.50232962  0.00072223  0.25156541  1
  Co  Co118  1  0.00576613  0.25486602  0.75070415  1
  Co  Co119  1  0.12655209  0.87431442  0.12683951  1
  Co  Co120  1  0.49843349  0.25020750  0.50103621  1
  Co  Co121  1  0.75595601  0.24919905  0.49807181  1
  Co  Co122  1  0.86987785  0.37010737  0.87427682  1
  Co  Co123  1  0.12583814  0.62208008  0.87552996  1
  Co  Co124  1  0.37307545  0.37115428  0.62736699  1
  Co  Co125  1  0.12164596  0.37809709  0.37567229  1
  Co  Co126  1  0.87458279  0.86880085  0.62427954  1
  Co  Co127  1  0.87245321  0.37355479  0.12193979  1
