# generated using pymatgen
data_Fe45Co19
_symmetry_space_group_name_H-M   'P 1'
_cell_length_a   11.41544157
_cell_length_b   11.41618298
_cell_length_c   11.41582052
_cell_angle_alpha   89.99250849
_cell_angle_beta   89.98625444
_cell_angle_gamma   89.99472052
_symmetry_Int_Tables_number   1
_chemical_formula_structural   Fe45Co19
_chemical_formula_sum   'Fe90 Co38'
_cell_volume   1487.71845575
_cell_formula_units_Z   2
loop_
 _symmetry_equiv_pos_site_id
 _symmetry_equiv_pos_as_xyz
  1  'x, y, z'
loop_
 _atom_site_type_symbol
 _atom_site_label
 _atom_site_symmetry_multiplicity
 _atom_site_fract_x
 _atom_site_fract_y
 _atom_site_fract_z
 _atom_site_occupancy
  Fe  Fe0  1  0.74961186  0.75381253  0.00113390  1
  Fe  Fe1  1  0.75224524  0.49932718  0.24880906  1
  Fe  Fe2  1  0.37417681  0.12615146  0.87490100  1
  Fe  Fe3  1  0.75487204  0.00332655  0.25248569  1
  Fe  Fe4  1  0.12256006  0.87050319  0.37523631  1
  Fe  Fe5  1  0.74922261  0.24789117  0.74881802  1
  Fe  Fe6  1  0.00037119  0.74864913  0.74928938  1
  Fe  Fe7  1  0.25173377  0.50266962  0.49830371  1
  Fe  Fe8  1  0.37331245  0.37378464  0.62561370  1
  Fe  Fe9  1  0.49772894  -0.00026178  0.00024006  1
  Fe  Fe10  1  0.12504223  0.37855014  0.12711804  1
  Fe  Fe11  1  0.24909577  0.74881794  0.74922805  1
  Fe  Fe12  1  0.49791072  0.00080251  0.25240777  1
  Fe  Fe13  1  0.87617581  0.37151981  0.87451573  1
  Fe  Fe14  1  0.50009917  -0.00248116  0.49865965  1
  Fe  Fe15  1  0.50244879  0.25274581  0.49868048  1
  Fe  Fe16  1  -0.00274221  0.49806964  0.00250586  1
  Fe  Fe17  1  0.62384863  0.37341097  0.87502053  1
  Fe  Fe18  1  0.12498875  0.87697838  0.87540338  1
  Fe  Fe19  1  0.37781646  0.62817687  0.62056912  1
  Fe  Fe20  1  0.87446776  0.87603920  0.62496486  1
  Fe  Fe21  1  0.75299554  0.00379928  0.75178382  1
  Fe  Fe22  1  0.00266326  0.25162764  0.24844079  1
  Fe  Fe23  1  -0.00305383  0.49958594  0.49822265  1
  Fe  Fe24  1  0.37707935  0.87320198  0.87310741  1
  Fe  Fe25  1  0.62327994  0.62145583  0.37735852  1
  Fe  Fe26  1  0.75017004  0.74755449  0.24911207  1
  Fe  Fe27  1  0.25095065  0.00148375  0.74957363  1
  Fe  Fe28  1  0.24510930  0.24671227  0.00381031  1
  Fe  Fe29  1  0.49995989  0.24896952  0.00263271  1
  Fe  Fe30  1  0.24872742  -0.00144113  0.49711583  1
  Fe  Fe31  1  -0.00353469  -0.00113964  0.25355652  1
  Fe  Fe32  1  0.25172220  0.50347464  0.75061054  1
  Fe  Fe33  1  0.87262272  0.62275876  0.62527951  1
  Fe  Fe34  1  0.75043398  0.49631845  0.00064236  1
  Fe  Fe35  1  -0.00195873  0.74927388  0.50102162  1
  Fe  Fe36  1  0.74926124  0.25060732  0.00143627  1
  Fe  Fe37  1  0.24907502  0.74633581  0.24961833  1
  Fe  Fe38  1  0.62441455  0.12565031  0.37546587  1
  Fe  Fe39  1  0.50182337  0.74923086  0.24954428  1
  Fe  Fe40  1  0.12486915  0.87941018  0.12481526  1
  Fe  Fe41  1  0.62442621  0.12219329  0.62375809  1
  Fe  Fe42  1  0.74865264  0.24873602  0.24922771  1
  Fe  Fe43  1  0.12332374  0.62537319  0.87789093  1
  Fe  Fe44  1  0.62356354  0.87804903  0.87134972  1
  Fe  Fe45  1  0.62678250  0.87864751  0.12728031  1
  Fe  Fe46  1  -0.00180553  0.74590641  0.24781577  1
  Fe  Fe47  1  0.12654426  0.37772369  0.62497189  1
  Fe  Fe48  1  0.25127118  0.50220879  0.00103153  1
  Fe  Fe49  1  0.49997595  0.24953331  0.25007664  1
  Fe  Fe50  1  0.75440985  0.00136666  0.49661741  1
  Fe  Fe51  1  0.24676542  0.24990438  0.49805035  1
  Fe  Fe52  1  0.12529379  0.37965688  0.37287643  1
  Fe  Fe53  1  0.12345557  0.87699034  0.62430106  1
  Fe  Fe54  1  0.87962338  0.12724649  0.62014435  1
  Fe  Fe55  1  0.87411755  0.62633423  0.87665811  1
  Fe  Fe56  1  0.62521094  0.12311040  0.12409557  1
  Fe  Fe57  1  0.62329640  0.62435622  0.87750142  1
  Fe  Fe58  1  0.49894518  0.50034263  0.75103953  1
  Fe  Fe59  1  0.12490661  0.62398239  0.62304993  1
  Fe  Fe60  1  0.62328766  0.62293712  0.12199452  1
  Fe  Fe61  1  -0.00111803  0.50044113  0.75055077  1
  Fe  Fe62  1  -0.00287141  0.75402500  0.00186524  1
  Fe  Fe63  1  0.24604650  0.24733598  0.74893126  1
  Fe  Fe64  1  0.62840105  0.87668732  0.37370793  1
  Fe  Fe65  1  0.37551581  0.87031190  0.37604320  1
  Fe  Fe66  1  0.49895021  0.49995543  0.24942755  1
  Fe  Fe67  1  0.37870167  0.62782918  0.87835234  1
  Fe  Fe68  1  0.37449933  0.12561762  0.62148277  1
  Fe  Fe69  1  0.37435691  0.87502623  0.12774271  1
  Fe  Fe70  1  0.37321698  0.37303259  0.87531307  1
  Fe  Fe71  1  0.37448035  0.37435073  0.37409048  1
  Fe  Fe72  1  0.62464253  0.62067885  0.62266207  1
  Fe  Fe73  1  0.62714138  0.37815303  0.62454782  1
  Fe  Fe74  1  0.87307930  0.37229418  0.37475960  1
  Fe  Fe75  1  0.75505745  -0.00108131  -0.00227531  1
  Fe  Fe76  1  0.74720917  0.74865389  0.74890806  1
  Fe  Fe77  1  0.87349044  0.37420088  0.62416529  1
  Fe  Fe78  1  0.74857428  0.74979041  0.49996148  1
  Fe  Fe79  1  0.12601387  0.37628115  0.87480689  1
  Fe  Fe80  1  0.50167168  0.24794536  0.74940414  1
  Fe  Fe81  1  0.25037180  0.75077419  0.00236559  1
  Fe  Fe82  1  0.37392102  0.37516531  0.12569875  1
  Fe  Fe83  1  0.00415983  0.24928696  0.74910762  1
  Fe  Fe84  1  0.37689447  0.87264187  0.62462426  1
  Fe  Fe85  1  0.12485975  0.12500662  0.37412059  1
  Fe  Fe86  1  -0.00125180  0.00235753  0.75267161  1
  Fe  Fe87  1  0.25076517  0.50615713  0.24977197  1
  Fe  Fe88  1  0.87873282  0.12596607  0.12301712  1
  Fe  Fe89  1  0.37006192  0.12290177  0.12961884  1
  Co  Co90  1  0.50672396  0.75350772  0.49996949  1
  Co  Co91  1  0.62403387  0.37460482  0.12647621  1
  Co  Co92  1  0.87441002  0.87181285  0.87030366  1
  Co  Co93  1  0.50261340  0.75540362  0.00245444  1
  Co  Co94  1  0.00595132  0.25031093  0.00266361  1
  Co  Co95  1  0.37500119  0.12722874  0.37672380  1
  Co  Co96  1  0.24785804  0.25033403  0.25038006  1
  Co  Co97  1  0.62492201  0.12381845  0.87711318  1
  Co  Co98  1  0.12251835  0.62445207  0.12280015  1
  Co  Co99  1  0.75237441  0.49878853  0.49741929  1
  Co  Co100  1  0.49865398  0.49573454  0.49950698  1
  Co  Co101  1  -0.00098036  -0.00162931  0.49462528  1
  Co  Co102  1  0.12306310  0.62499085  0.37641198  1
  Co  Co103  1  0.24732623  0.75080962  0.50036321  1
  Co  Co104  1  0.74683680  0.24955086  0.50066717  1
  Co  Co105  1  -0.00393021  -0.00201882  -0.00200046  1
  Co  Co106  1  0.50380328  0.74885198  0.74734774  1
  Co  Co107  1  0.87687721  0.13112501  0.87709321  1
  Co  Co108  1  0.62815605  0.88013879  0.62638950  1
  Co  Co109  1  0.49962241  0.49603073  -0.00040055  1
  Co  Co110  1  0.37729423  0.62791998  0.37733478  1
  Co  Co111  1  0.37839474  0.62610598  0.12301035  1
  Co  Co112  1  0.25256520  -0.00045490  -0.00041169  1
  Co  Co113  1  -0.00311678  0.50156244  0.24971350  1
  Co  Co114  1  0.87302268  0.62555548  0.12236189  1
  Co  Co115  1  0.49793254  0.00216976  0.74980044  1
  Co  Co116  1  0.87344017  0.87510121  0.12893830  1
  Co  Co117  1  0.12357242  0.12202397  0.62256885  1
  Co  Co118  1  0.00458732  0.25359176  0.49884427  1
  Co  Co119  1  0.75031352  0.49968029  0.75309789  1
  Co  Co120  1  0.87506757  0.62607071  0.37468061  1
  Co  Co121  1  0.12424243  0.11855380  0.12818472  1
  Co  Co122  1  0.87351615  0.86981689  0.37446857  1
  Co  Co123  1  0.62670663  0.37514914  0.37284922  1
  Co  Co124  1  0.25034367  -0.00257709  0.25598338  1
  Co  Co125  1  0.87514755  0.37249678  0.12629543  1
  Co  Co126  1  0.87731826  0.13162438  0.37655700  1
  Co  Co127  1  0.12459820  0.12202349  0.87718694  1
