# generated using pymatgen
data_Fe45Co19
_symmetry_space_group_name_H-M   'P 1'
_cell_length_a   11.41648880
_cell_length_b   11.41533814
_cell_length_c   11.41525600
_cell_angle_alpha   90.01283187
_cell_angle_beta   89.99655747
_cell_angle_gamma   90.00545952
_symmetry_Int_Tables_number   1
_chemical_formula_structural   Fe45Co19
_chemical_formula_sum   'Fe90 Co38'
_cell_volume   1487.67127428
_cell_formula_units_Z   2
loop_
 _symmetry_equiv_pos_site_id
 _symmetry_equiv_pos_as_xyz
  1  'x, y, z'
loop_
 _atom_site_type_symbol
 _atom_site_label
 _atom_site_symmetry_multiplicity
 _atom_site_fract_x
 _atom_site_fract_y
 _atom_site_fract_z
 _atom_site_occupancy
  Fe  Fe0  1  0.37393247  0.37858326  0.87928605  1
  Fe  Fe1  1  0.87787145  0.12025309  0.12414525  1
  Fe  Fe2  1  0.12506148  0.62669619  0.63029356  1
  Fe  Fe3  1  0.62612520  0.12738819  0.37217086  1
  Fe  Fe4  1  0.62504120  0.12534294  0.62458654  1
  Fe  Fe5  1  0.12814135  0.37127653  0.37501129  1
  Fe  Fe6  1  0.87378791  0.38042286  0.62465014  1
  Fe  Fe7  1  0.24457588  0.74612556  0.00436583  1
  Fe  Fe8  1  0.75114784  -0.00456559  0.24691161  1
  Fe  Fe9  1  0.87807304  0.62059937  0.12502110  1
  Fe  Fe10  1  0.50077737  -0.00154388  0.75076570  1
  Fe  Fe11  1  0.24935625  0.74751648  0.49946429  1
  Fe  Fe12  1  0.24813882  -0.00137720  0.75157485  1
  Fe  Fe13  1  0.12666105  0.62601654  0.86952228  1
  Fe  Fe14  1  0.12308247  0.12732230  0.12924478  1
  Fe  Fe15  1  0.50342110  -0.00123149  0.00134911  1
  Fe  Fe16  1  0.12308382  0.12611947  0.62716095  1
  Fe  Fe17  1  -0.00219916  0.75274857  0.24487902  1
  Fe  Fe18  1  0.62438463  0.86802114  0.37011011  1
  Fe  Fe19  1  0.37270128  0.62353644  0.87679750  1
  Fe  Fe20  1  -0.00112307  0.74784614  0.50273418  1
  Fe  Fe21  1  0.87557487  0.12476077  0.37417806  1
  Fe  Fe22  1  0.62615943  0.62707448  0.87471046  1
  Fe  Fe23  1  0.37591125  0.37938148  0.12272367  1
  Fe  Fe24  1  0.62589986  0.37520513  0.87606523  1
  Fe  Fe25  1  0.37276104  0.37948973  0.61891553  1
  Fe  Fe26  1  0.12323763  0.37490503  0.12600070  1
  Fe  Fe27  1  0.24975173  0.25086014  0.00222186  1
  Fe  Fe28  1  0.75598384  0.25464323  0.24785866  1
  Fe  Fe29  1  0.74587960  0.49844953  0.00183328  1
  Fe  Fe30  1  0.00453384  0.49979849  -0.00452711  1
  Fe  Fe31  1  0.87456616  0.62514727  0.37517005  1
  Fe  Fe32  1  0.37460794  0.87325783  0.37480519  1
  Fe  Fe33  1  0.87841562  0.87789692  0.88068914  1
  Fe  Fe34  1  0.12381877  0.12892017  0.87179205  1
  Fe  Fe35  1  0.50063453  0.25074247  0.00063161  1
  Fe  Fe36  1  0.12337564  0.87317407  0.62701543  1
  Fe  Fe37  1  0.12705412  0.37513029  0.62553117  1
  Fe  Fe38  1  0.62410268  0.62767635  0.62421996  1
  Fe  Fe39  1  0.37405456  0.62168899  0.12364036  1
  Fe  Fe40  1  -0.00131687  0.25030860  0.49964228  1
  Fe  Fe41  1  0.37524825  0.12346981  0.12485659  1
  Fe  Fe42  1  0.75028772  0.74980892  0.50079207  1
  Fe  Fe43  1  0.50029143  -0.00162079  0.24899631  1
  Fe  Fe44  1  0.50071847  0.49996943  0.75092455  1
  Fe  Fe45  1  0.49754811  0.25186650  0.75030014  1
  Fe  Fe46  1  0.50364652  -0.00217161  0.49834569  1
  Fe  Fe47  1  0.62426835  0.37330315  0.62364732  1
  Fe  Fe48  1  0.00147849  0.00134661  0.49822691  1
  Fe  Fe49  1  0.75215555  0.24945440  0.50032569  1
  Fe  Fe50  1  0.74823990  -0.00101547  0.49829668  1
  Fe  Fe51  1  0.37194268  0.87404997  0.12433828  1
  Fe  Fe52  1  0.24563114  0.00158948  -0.00061104  1
  Fe  Fe53  1  0.37381250  0.87580498  0.62348965  1
  Fe  Fe54  1  0.87622328  0.87722642  0.62387743  1
  Fe  Fe55  1  -0.00246941  0.25133808  -0.00112880  1
  Fe  Fe56  1  0.37519031  0.12431612  0.87580144  1
  Fe  Fe57  1  0.37569539  0.12196198  0.62388351  1
  Fe  Fe58  1  0.37735645  0.62381923  0.37787808  1
  Fe  Fe59  1  0.74935875  0.49784557  0.25202461  1
  Fe  Fe60  1  0.49806784  0.75114156  0.74913843  1
  Fe  Fe61  1  0.75328594  0.00229383  0.75070366  1
  Fe  Fe62  1  0.24889705  0.50053608  0.25058277  1
  Fe  Fe63  1  -0.00597443  0.25241588  0.75081648  1
  Fe  Fe64  1  0.50366047  0.49896162  0.25397222  1
  Fe  Fe65  1  0.75343342  0.24961617  0.75079618  1
  Fe  Fe66  1  0.37512200  0.62299722  0.62293860  1
  Fe  Fe67  1  -0.00160254  0.49528273  0.25341064  1
  Fe  Fe68  1  0.49492132  0.25313411  0.25305611  1
  Fe  Fe69  1  0.87401571  0.62065826  0.87347428  1
  Fe  Fe70  1  0.24726278  0.00176549  0.49901137  1
  Fe  Fe71  1  0.12282436  0.62776704  0.37118512  1
  Fe  Fe72  1  0.12538652  0.87147988  0.37297463  1
  Fe  Fe73  1  0.62559836  0.12559256  0.87534458  1
  Fe  Fe74  1  0.24819499  -0.00027698  0.25029180  1
  Fe  Fe75  1  0.49639514  0.25045788  0.49595755  1
  Fe  Fe76  1  0.12601748  0.13006228  0.37191255  1
  Fe  Fe77  1  0.50041844  0.74894039  0.00204948  1
  Fe  Fe78  1  0.00293800  0.50134036  0.50040542  1
  Fe  Fe79  1  0.62473800  0.12758861  0.12700931  1
  Fe  Fe80  1  0.75220187  0.25102725  0.00132777  1
  Fe  Fe81  1  0.74557290  0.50168665  0.49770019  1
  Fe  Fe82  1  0.62568144  0.62739514  0.12844709  1
  Fe  Fe83  1  0.12209455  0.87128915  0.87435568  1
  Fe  Fe84  1  0.75368961  0.75147112  0.00470079  1
  Fe  Fe85  1  0.25349792  0.25217066  0.74880742  1
  Fe  Fe86  1  0.75463356  0.74945864  0.74905640  1
  Fe  Fe87  1  0.87640811  0.87371806  0.37443216  1
  Fe  Fe88  1  0.62665147  0.87387526  0.87520328  1
  Fe  Fe89  1  0.37343275  0.87394647  0.87820410  1
  Co  Co90  1  0.50596585  0.49902206  0.49679784  1
  Co  Co91  1  0.62633873  0.63143548  0.37279049  1
  Co  Co92  1  0.49511650  0.74738972  0.24746943  1
  Co  Co93  1  0.74466902  0.50039348  0.74845274  1
  Co  Co94  1  -0.00104723  -0.00018105  0.75077244  1
  Co  Co95  1  0.87773236  0.37997621  0.12110743  1
  Co  Co96  1  0.25102839  0.74708424  0.24915223  1
  Co  Co97  1  0.62361289  0.37363704  0.12608605  1
  Co  Co98  1  0.25283603  0.75112586  0.74922771  1
  Co  Co99  1  0.25515321  0.25186999  0.24775760  1
  Co  Co100  1  0.00153812  -0.00111248  0.25324333  1
  Co  Co101  1  0.87560401  0.12330777  0.62246459  1
  Co  Co102  1  0.74528752  -0.00063394  0.00315755  1
  Co  Co103  1  0.00188616  0.49924949  0.75060609  1
  Co  Co104  1  0.00721870  0.00316087  -0.00112803  1
  Co  Co105  1  0.87466052  0.37697562  0.38020443  1
  Co  Co106  1  0.24321275  0.50568730  0.49877694  1
  Co  Co107  1  0.36988445  0.37973834  0.37864163  1
  Co  Co108  1  0.62754109  0.37036602  0.37421996  1
  Co  Co109  1  0.62340213  0.87063829  0.12659483  1
  Co  Co110  1  0.87433772  0.62021540  0.62405929  1
  Co  Co111  1  0.25180314  0.24651492  0.50082419  1
  Co  Co112  1  0.87540409  0.12254734  0.87885662  1
  Co  Co113  1  0.87199911  0.38002630  0.87517056  1
  Co  Co114  1  0.25133516  0.49794629  0.75054970  1
  Co  Co115  1  0.88178952  0.87977192  0.11963965  1
  Co  Co116  1  0.12423981  0.87457933  0.12544505  1
  Co  Co117  1  -0.00629416  0.74897123  0.75008679  1
  Co  Co118  1  0.00150253  0.74429122  0.00087733  1
  Co  Co119  1  0.12590984  0.37173836  0.87361093  1
  Co  Co120  1  0.75737097  0.75151210  0.24502840  1
  Co  Co121  1  0.50079321  0.75252987  0.50223873  1
  Co  Co122  1  -0.00537230  0.25278131  0.25048544  1
  Co  Co123  1  0.24402030  0.50087457  -0.00022612  1
  Co  Co124  1  0.12113309  0.62165026  0.12996775  1
  Co  Co125  1  0.37402195  0.12184167  0.37448625  1
  Co  Co126  1  0.50503274  0.50239964  -0.00038037  1
  Co  Co127  1  0.62819456  0.87491390  0.62819086  1
