# generated using pymatgen
data_Fe45Co19
_symmetry_space_group_name_H-M   'P 1'
_cell_length_a   11.41571439
_cell_length_b   11.41480696
_cell_length_c   11.41537701
_cell_angle_alpha   90.00879979
_cell_angle_beta   90.00704755
_cell_angle_gamma   90.00553649
_symmetry_Int_Tables_number   1
_chemical_formula_structural   Fe45Co19
_chemical_formula_sum   'Fe90 Co38'
_cell_volume   1487.51692081
_cell_formula_units_Z   2
loop_
 _symmetry_equiv_pos_site_id
 _symmetry_equiv_pos_as_xyz
  1  'x, y, z'
loop_
 _atom_site_type_symbol
 _atom_site_label
 _atom_site_symmetry_multiplicity
 _atom_site_fract_x
 _atom_site_fract_y
 _atom_site_fract_z
 _atom_site_occupancy
  Fe  Fe0  1  0.37477183  0.11949587  0.12374857  1
  Fe  Fe1  1  0.62726205  0.12686226  0.12397594  1
  Fe  Fe2  1  0.87400839  0.62483710  0.87592689  1
  Fe  Fe3  1  0.12397597  0.37413507  0.37368687  1
  Fe  Fe4  1  0.50101595  0.24776679  0.50239575  1
  Fe  Fe5  1  -0.00162594  0.24752576  0.25059290  1
  Fe  Fe6  1  0.12256181  0.37124145  0.87514033  1
  Fe  Fe7  1  0.74736925  -0.00156660  0.50232026  1
  Fe  Fe8  1  0.87224813  0.12574471  0.37832722  1
  Fe  Fe9  1  0.37639977  0.12207154  0.37610490  1
  Fe  Fe10  1  0.49916645  0.00127788  0.74896477  1
  Fe  Fe11  1  0.00313055  0.00414282  0.00193328  1
  Fe  Fe12  1  0.12310798  0.87131460  0.37368350  1
  Fe  Fe13  1  0.25040414  0.49952041  0.25163355  1
  Fe  Fe14  1  0.24898124  0.75198996  0.50131987  1
  Fe  Fe15  1  0.12571076  0.62816404  0.62607209  1
  Fe  Fe16  1  0.12732977  0.12546964  0.37496541  1
  Fe  Fe17  1  0.49993434  0.50067588  -0.00218508  1
  Fe  Fe18  1  0.74964344  0.49674962  -0.00222598  1
  Fe  Fe19  1  0.24778887  0.49765697  0.75133798  1
  Fe  Fe20  1  0.62140940  0.87374960  0.37570935  1
  Fe  Fe21  1  0.25051962  0.25193625  0.49984145  1
  Fe  Fe22  1  0.62199936  0.87307250  0.12158339  1
  Fe  Fe23  1  0.87306933  0.37301307  0.12313647  1
  Fe  Fe24  1  0.12637311  0.87435546  0.12673377  1
  Fe  Fe25  1  0.62586465  0.62621941  0.12331961  1
  Fe  Fe26  1  0.87393822  0.62754261  0.37253412  1
  Fe  Fe27  1  0.37718815  0.37732644  0.12458704  1
  Fe  Fe28  1  0.37718682  0.37737655  0.62740552  1
  Fe  Fe29  1  0.00047286  0.24624612  0.00265852  1
  Fe  Fe30  1  0.24792406  0.49719575  -0.00132646  1
  Fe  Fe31  1  0.75221049  0.75164640  0.75097336  1
  Fe  Fe32  1  0.88003565  0.87412233  0.62627326  1
  Fe  Fe33  1  0.37406237  0.12244581  0.62409055  1
  Fe  Fe34  1  0.24949229  0.24880661  0.00082189  1
  Fe  Fe35  1  0.49587325  0.74926201  0.24531089  1
  Fe  Fe36  1  0.62684457  0.12715898  0.87094900  1
  Fe  Fe37  1  0.87665109  0.87400543  0.37425676  1
  Fe  Fe38  1  0.62530616  0.12483110  0.37716304  1
  Fe  Fe39  1  0.87487087  0.37307127  0.37897184  1
  Fe  Fe40  1  0.00098073  0.50168972  0.75189765  1
  Fe  Fe41  1  0.62607684  0.62721177  0.87460119  1
  Fe  Fe42  1  0.75113896  0.49732996  0.75070559  1
  Fe  Fe43  1  0.75121461  0.75139172  0.50002852  1
  Fe  Fe44  1  0.49845810  0.74728820  0.50425263  1
  Fe  Fe45  1  0.00204341  0.50300047  0.49802617  1
  Fe  Fe46  1  0.50085191  0.50363569  0.50407237  1
  Fe  Fe47  1  0.74798969  0.49870962  0.49964830  1
  Fe  Fe48  1  0.25340341  0.25028513  0.25060122  1
  Fe  Fe49  1  0.25108809  0.75308301  0.74952526  1
  Fe  Fe50  1  0.25117864  -0.00198576  0.25012851  1
  Fe  Fe51  1  0.25270969  0.25022262  0.75041956  1
  Fe  Fe52  1  0.00057428  0.74847202  -0.00091563  1
  Fe  Fe53  1  0.37217255  0.12196072  0.87642399  1
  Fe  Fe54  1  0.62271502  0.37463077  0.62732670  1
  Fe  Fe55  1  0.12260827  0.87774347  0.87055697  1
  Fe  Fe56  1  0.87158566  0.62697069  0.12550736  1
  Fe  Fe57  1  0.62273361  0.37234835  0.87287506  1
  Fe  Fe58  1  0.12491227  0.37285203  0.12693262  1
  Fe  Fe59  1  0.24869036  -0.00367213  0.50394656  1
  Fe  Fe60  1  -0.00107810  0.00173234  0.24877331  1
  Fe  Fe61  1  0.62290242  0.87272010  0.87540937  1
  Fe  Fe62  1  0.37248232  0.62271478  0.87368622  1
  Fe  Fe63  1  0.24832309  0.49925454  0.49953829  1
  Fe  Fe64  1  0.74792411  -0.00241351  0.24944907  1
  Fe  Fe65  1  0.12276685  0.37331939  0.62480518  1
  Fe  Fe66  1  0.37864261  0.87645522  0.37598441  1
  Fe  Fe67  1  0.87787093  0.87653764  0.87538966  1
  Fe  Fe68  1  0.74574874  0.49708472  0.25098029  1
  Fe  Fe69  1  0.62256124  0.87411936  0.62585270  1
  Fe  Fe70  1  0.12877408  0.62777431  0.12687049  1
  Fe  Fe71  1  0.00141878  0.50135031  0.00006669  1
  Fe  Fe72  1  0.49838473  0.74612902  0.74850146  1
  Fe  Fe73  1  0.74796095  0.25299611  0.25133450  1
  Fe  Fe74  1  0.75464025  0.25157924  0.74660853  1
  Fe  Fe75  1  -0.00013460  0.50158874  0.24944667  1
  Fe  Fe76  1  0.50058493  0.25016135  0.24940465  1
  Fe  Fe77  1  0.37960822  0.37727548  0.37521043  1
  Fe  Fe78  1  0.37416997  0.62416815  0.37492866  1
  Fe  Fe79  1  0.37683383  0.87824615  0.87697300  1
  Fe  Fe80  1  0.49892505  0.24893712  -0.00182652  1
  Fe  Fe81  1  -0.00282008  0.24683151  0.74593534  1
  Fe  Fe82  1  0.25328789  0.75302937  0.00076085  1
  Fe  Fe83  1  0.87382132  0.62474234  0.62543340  1
  Fe  Fe84  1  0.87423296  0.87439933  0.12409338  1
  Fe  Fe85  1  0.87473060  0.12491022  0.87683525  1
  Fe  Fe86  1  0.62438797  0.62672844  0.37473850  1
  Fe  Fe87  1  0.75219991  -0.00073397  0.74854429  1
  Fe  Fe88  1  0.74790021  -0.00029840  -0.00098629  1
  Fe  Fe89  1  0.00316047  0.00149109  0.50278296  1
  Co  Co90  1  0.50100652  0.50353222  0.75049994  1
  Co  Co91  1  0.12920102  0.12573781  0.62609015  1
  Co  Co92  1  0.49568213  0.74726424  0.00054705  1
  Co  Co93  1  -0.00102626  0.74899370  0.24835758  1
  Co  Co94  1  0.75138290  0.75162909  -0.00193317  1
  Co  Co95  1  0.62551628  0.12461041  0.62839598  1
  Co  Co96  1  0.87065098  0.12508846  0.12523875  1
  Co  Co97  1  0.25565590  0.75305041  0.24936565  1
  Co  Co98  1  0.37185127  0.62077103  0.12378359  1
  Co  Co99  1  0.37018344  0.62384984  0.62680238  1
  Co  Co100  1  0.87310208  0.12470617  0.61911727  1
  Co  Co101  1  0.62963214  0.62633242  0.62617056  1
  Co  Co102  1  0.87900893  0.37396105  0.87648387  1
  Co  Co103  1  0.37708624  0.88217371  0.12129021  1
  Co  Co104  1  0.87785681  0.37715530  0.62127191  1
  Co  Co105  1  0.12906207  0.62657307  0.87595910  1
  Co  Co106  1  0.12751350  0.12521251  0.12956773  1
  Co  Co107  1  0.37812501  0.87530098  0.62512960  1
  Co  Co108  1  0.74957064  0.25058846  -0.00289159  1
  Co  Co109  1  0.12046906  0.87333830  0.62924970  1
  Co  Co110  1  0.50259810  0.50138142  0.24857281  1
  Co  Co111  1  -0.00142965  0.00568403  0.74772631  1
  Co  Co112  1  0.74650481  0.25194094  0.50303975  1
  Co  Co113  1  0.24434780  0.00026529  -0.00135842  1
  Co  Co114  1  0.12575695  0.12623731  0.87156318  1
  Co  Co115  1  -0.00138860  0.74563270  0.75302121  1
  Co  Co116  1  0.50489126  0.00305929  -0.00263815  1
  Co  Co117  1  0.74822178  0.75293881  0.25006189  1
  Co  Co118  1  0.37491141  0.37712949  0.87515260  1
  Co  Co119  1  0.00344635  0.24796815  0.49990450  1
  Co  Co120  1  0.25141179  -0.00164566  0.74784872  1
  Co  Co121  1  0.50285629  0.00073663  0.24946083  1
  Co  Co122  1  0.12719946  0.62772887  0.37221902  1
  Co  Co123  1  0.50157926  0.00183536  0.50245304  1
  Co  Co124  1  0.62390286  0.37432619  0.12140382  1
  Co  Co125  1  0.49530174  0.24761698  0.75059454  1
  Co  Co126  1  0.62066792  0.37520292  0.37818967  1
  Co  Co127  1  -0.00012505  0.74763409  0.49949066  1
