# generated using pymatgen
data_Fe45Co19
_symmetry_space_group_name_H-M   'P 1'
_cell_length_a   11.41449948
_cell_length_b   11.41450576
_cell_length_c   11.41393717
_cell_angle_alpha   90.01257835
_cell_angle_beta   89.99223838
_cell_angle_gamma   90.00031625
_symmetry_Int_Tables_number   1
_chemical_formula_structural   Fe45Co19
_chemical_formula_sum   'Fe90 Co38'
_cell_volume   1487.13175462
_cell_formula_units_Z   2
loop_
 _symmetry_equiv_pos_site_id
 _symmetry_equiv_pos_as_xyz
  1  'x, y, z'
loop_
 _atom_site_type_symbol
 _atom_site_label
 _atom_site_symmetry_multiplicity
 _atom_site_fract_x
 _atom_site_fract_y
 _atom_site_fract_z
 _atom_site_occupancy
  Fe  Fe0  1  0.12633338  0.37274357  0.87398089  1
  Fe  Fe1  1  0.00083611  0.24954574  0.00230373  1
  Fe  Fe2  1  0.74863511  0.49808030  0.75069196  1
  Fe  Fe3  1  -0.00065999  0.25089913  0.74679500  1
  Fe  Fe4  1  0.62654404  0.12289170  0.62782400  1
  Fe  Fe5  1  0.62649620  0.37615818  0.37541588  1
  Fe  Fe6  1  0.75041335  0.74815221  0.50085399  1
  Fe  Fe7  1  0.12145707  0.63016697  0.37339524  1
  Fe  Fe8  1  0.75024020  0.25171347  0.50410327  1
  Fe  Fe9  1  0.37208406  0.12569239  0.87293040  1
  Fe  Fe10  1  0.49787140  -0.00051604  0.25038448  1
  Fe  Fe11  1  0.12589537  0.12345552  0.62845798  1
  Fe  Fe12  1  0.50033364  0.50287489  -0.00049069  1
  Fe  Fe13  1  0.74945367  0.24917532  -0.00037925  1
  Fe  Fe14  1  0.24863200  0.00011007  0.49614143  1
  Fe  Fe15  1  0.24866424  0.00126271  -0.00053963  1
  Fe  Fe16  1  0.24942782  0.74923053  0.50141086  1
  Fe  Fe17  1  0.49967635  0.24708672  -0.00098913  1
  Fe  Fe18  1  0.62551766  0.87440712  0.62568686  1
  Fe  Fe19  1  0.12475783  0.87557419  0.62538164  1
  Fe  Fe20  1  -0.00115532  0.24820180  0.50337550  1
  Fe  Fe21  1  0.00078208  0.00067514  0.50071745  1
  Fe  Fe22  1  0.75264518  -0.00196981  0.75278530  1
  Fe  Fe23  1  0.37519672  0.37349216  0.87525571  1
  Fe  Fe24  1  0.37362561  0.12170354  0.62652165  1
  Fe  Fe25  1  0.87440347  0.12533280  0.87278908  1
  Fe  Fe26  1  0.37625438  0.37493573  0.37556710  1
  Fe  Fe27  1  0.49831001  0.75259355  0.75187803  1
  Fe  Fe28  1  0.75302855  0.25048649  0.24854833  1
  Fe  Fe29  1  0.12347892  0.37423625  0.12636629  1
  Fe  Fe30  1  0.37180677  0.12545362  0.12747948  1
  Fe  Fe31  1  0.00361134  -0.00277281  0.25298353  1
  Fe  Fe32  1  0.37416578  0.87294255  0.11975601  1
  Fe  Fe33  1  0.87823150  0.87197515  0.37675430  1
  Fe  Fe34  1  0.37791394  0.37666259  0.62620572  1
  Fe  Fe35  1  0.87624827  0.12527270  0.37529910  1
  Fe  Fe36  1  0.87611265  0.37586211  0.87822008  1
  Fe  Fe37  1  0.50203986  0.50306505  0.49807063  1
  Fe  Fe38  1  0.12439822  0.87457189  0.87588673  1
  Fe  Fe39  1  0.24804825  0.49948197  0.25127391  1
  Fe  Fe40  1  0.75355892  0.75011792  0.24532867  1
  Fe  Fe41  1  0.87256258  0.62423041  0.87881953  1
  Fe  Fe42  1  0.12701523  0.12620674  0.87142882  1
  Fe  Fe43  1  0.49768865  -0.00305128  0.75256083  1
  Fe  Fe44  1  0.00104739  0.49957006  0.75234765  1
  Fe  Fe45  1  0.62093802  0.37346010  0.87265841  1
  Fe  Fe46  1  0.87472435  0.87682428  0.62604512  1
  Fe  Fe47  1  0.37433241  0.87344774  0.37563498  1
  Fe  Fe48  1  0.49882644  0.25018711  0.24990599  1
  Fe  Fe49  1  0.24987408  0.24976693  0.50052461  1
  Fe  Fe50  1  0.50191934  0.00110666  -0.00083006  1
  Fe  Fe51  1  0.12549682  0.62461644  0.62819329  1
  Fe  Fe52  1  0.75335320  0.50062762  0.24887567  1
  Fe  Fe53  1  0.00060801  0.74739355  -0.00026597  1
  Fe  Fe54  1  0.25287410  0.75457322  0.75042509  1
  Fe  Fe55  1  0.12721793  0.12506388  0.13029205  1
  Fe  Fe56  1  0.37385291  0.62646910  0.37192537  1
  Fe  Fe57  1  -0.00301658  0.75072531  0.75014468  1
  Fe  Fe58  1  0.24825225  0.50122029  0.49903775  1
  Fe  Fe59  1  0.62562435  0.37419683  0.12434465  1
  Fe  Fe60  1  0.12148651  0.62326235  0.12653335  1
  Fe  Fe61  1  0.62542745  0.12546457  0.37384441  1
  Fe  Fe62  1  0.50065180  -0.00005972  0.49795551  1
  Fe  Fe63  1  0.75015795  -0.00085671  0.49866871  1
  Fe  Fe64  1  0.75115845  -0.00178211  0.24993859  1
  Fe  Fe65  1  0.50170406  0.24851954  0.50188501  1
  Fe  Fe66  1  0.00073656  0.50170888  0.49938976  1
  Fe  Fe67  1  0.62673997  0.62495680  0.12446736  1
  Fe  Fe68  1  0.24598048  0.75430033  0.24619980  1
  Fe  Fe69  1  0.87567422  0.37497928  0.37593727  1
  Fe  Fe70  1  0.25112752  0.49883022  0.75052142  1
  Fe  Fe71  1  0.12226367  0.37170580  0.37480094  1
  Fe  Fe72  1  0.87409354  0.62175169  0.62609664  1
  Fe  Fe73  1  0.62651491  0.12320446  0.12524657  1
  Fe  Fe74  1  0.37266267  0.62888508  0.87858709  1
  Fe  Fe75  1  0.62773158  0.62776950  0.87520160  1
  Fe  Fe76  1  0.37337801  0.37600994  0.12339424  1
  Fe  Fe77  1  0.24710538  0.50176889  -0.00055147  1
  Fe  Fe78  1  0.87530508  0.12389837  0.12549901  1
  Fe  Fe79  1  -0.00051516  0.00311857  -0.00375675  1
  Fe  Fe80  1  0.50135570  0.74856599  0.49905016  1
  Fe  Fe81  1  0.62830337  0.87378957  0.87893433  1
  Fe  Fe82  1  0.74961594  0.25204736  0.74808948  1
  Fe  Fe83  1  0.87792477  0.62798543  0.37363562  1
  Fe  Fe84  1  0.62513953  0.62400332  0.62637249  1
  Fe  Fe85  1  0.37556475  0.62567668  0.62575653  1
  Fe  Fe86  1  0.49991383  0.74943769  0.24671352  1
  Fe  Fe87  1  0.62530691  0.87282342  0.37243725  1
  Fe  Fe88  1  0.49968767  0.50137449  0.24884065  1
  Fe  Fe89  1  0.87725697  0.87705017  0.12095599  1
  Co  Co90  1  0.75121344  0.00098964  -0.00036849  1
  Co  Co91  1  0.74578476  0.49807033  -0.00120421  1
  Co  Co92  1  -0.00055917  -0.00150416  0.75125308  1
  Co  Co93  1  -0.00147214  0.49859116  0.25153818  1
  Co  Co94  1  0.12461421  0.12723595  0.37207631  1
  Co  Co95  1  0.12269668  0.87074763  0.37900491  1
  Co  Co96  1  0.24433865  0.74741669  0.00218879  1
  Co  Co97  1  0.75148347  0.75121829  0.00457792  1
  Co  Co98  1  0.37354577  0.87295674  0.88274705  1
  Co  Co99  1  0.25191395  0.25276680  0.25188175  1
  Co  Co100  1  0.25091314  0.25232075  0.74742992  1
  Co  Co101  1  -0.00170692  0.74904051  0.50620486  1
  Co  Co102  1  0.12640940  0.62706957  0.87069356  1
  Co  Co103  1  0.50393091  0.74762916  0.00023427  1
  Co  Co104  1  0.24929171  -0.00514281  0.25184222  1
  Co  Co105  1  -0.00002069  0.75325216  0.24466785  1
  Co  Co106  1  0.62448060  0.87712994  0.12461967  1
  Co  Co107  1  0.87352086  0.12251388  0.62701663  1
  Co  Co108  1  0.25158240  -0.00476843  0.75181773  1
  Co  Co109  1  0.24903273  0.24957165  0.00108584  1
  Co  Co110  1  0.87544842  0.37804194  0.12071385  1
  Co  Co111  1  0.87613072  0.37874852  0.62491900  1
  Co  Co112  1  0.49848776  0.24634975  0.74938313  1
  Co  Co113  1  0.62687298  0.12342787  0.87316911  1
  Co  Co114  1  0.62229790  0.37822756  0.62669278  1
  Co  Co115  1  0.62620575  0.62604879  0.37170647  1
  Co  Co116  1  0.75027150  0.50175770  0.49853472  1
  Co  Co117  1  0.12392314  0.37718910  0.62502184  1
  Co  Co118  1  0.37608757  0.87611480  0.62102722  1
  Co  Co119  1  0.12305863  0.87864578  0.11908090  1
  Co  Co120  1  0.75225275  0.75031138  0.74868251  1
  Co  Co121  1  0.37471292  0.12555570  0.37423886  1
  Co  Co122  1  0.87749900  0.62010959  0.12054721  1
  Co  Co123  1  0.00513062  0.49987199  -0.00273808  1
  Co  Co124  1  0.37261722  0.62535514  0.12474080  1
  Co  Co125  1  -0.00296585  0.25093162  0.24753354  1
  Co  Co126  1  0.49809293  0.50442147  0.75296967  1
  Co  Co127  1  0.87492211  0.87393590  0.87733362  1
