# generated using pymatgen
data_Fe45Co19
_symmetry_space_group_name_H-M   'P 1'
_cell_length_a   11.41434497
_cell_length_b   11.41540387
_cell_length_c   11.41434095
_cell_angle_alpha   90.00183505
_cell_angle_beta   89.99654985
_cell_angle_gamma   89.99350106
_symmetry_Int_Tables_number   1
_chemical_formula_structural   Fe45Co19
_chemical_formula_sum   'Fe90 Co38'
_cell_volume   1487.28128292
_cell_formula_units_Z   2
loop_
 _symmetry_equiv_pos_site_id
 _symmetry_equiv_pos_as_xyz
  1  'x, y, z'
loop_
 _atom_site_type_symbol
 _atom_site_label
 _atom_site_symmetry_multiplicity
 _atom_site_fract_x
 _atom_site_fract_y
 _atom_site_fract_z
 _atom_site_occupancy
  Fe  Fe0  1  0.87503525  0.87520751  0.62455848  1
  Fe  Fe1  1  0.37802365  0.37598945  0.62718990  1
  Fe  Fe2  1  0.87584223  0.12556465  0.12417383  1
  Fe  Fe3  1  0.12606354  0.62372107  0.37401684  1
  Fe  Fe4  1  0.75017940  -0.00091170  0.24951678  1
  Fe  Fe5  1  0.25155670  0.75132216  0.24926653  1
  Fe  Fe6  1  0.62467117  0.12637271  0.62707410  1
  Fe  Fe7  1  0.25420887  -0.00190907  0.24756462  1
  Fe  Fe8  1  0.37338603  0.62535796  0.37703506  1
  Fe  Fe9  1  0.00155227  0.50325631  0.00118632  1
  Fe  Fe10  1  0.62949725  0.62399416  0.37045320  1
  Fe  Fe11  1  0.50110028  0.25103529  -0.00324031  1
  Fe  Fe12  1  0.62338477  0.62431663  0.62756275  1
  Fe  Fe13  1  0.87694855  0.87530139  0.12434002  1
  Fe  Fe14  1  0.37773531  0.87413561  0.38039447  1
  Fe  Fe15  1  0.62418607  0.37545401  0.12218294  1
  Fe  Fe16  1  0.62195000  0.87732851  0.37579649  1
  Fe  Fe17  1  0.87470098  0.87341620  0.37539091  1
  Fe  Fe18  1  0.37400584  0.62456154  0.12263099  1
  Fe  Fe19  1  0.74786836  0.00102303  0.49972564  1
  Fe  Fe20  1  0.62832605  0.62318818  0.12569444  1
  Fe  Fe21  1  0.24817917  0.49720301  -0.00108604  1
  Fe  Fe22  1  0.37709881  0.87474581  0.87388786  1
  Fe  Fe23  1  -0.00039278  0.00145473  0.74955198  1
  Fe  Fe24  1  0.24882102  0.25284331  0.75075361  1
  Fe  Fe25  1  0.62237032  0.12379701  0.12563509  1
  Fe  Fe26  1  0.37346180  0.12440409  0.37709966  1
  Fe  Fe27  1  0.62698210  0.37254214  0.37558771  1
  Fe  Fe28  1  0.00012632  0.00025639  0.49940953  1
  Fe  Fe29  1  0.24988252  0.49883142  0.50051720  1
  Fe  Fe30  1  0.87589917  0.87572137  0.87499909  1
  Fe  Fe31  1  0.49774670  0.50419600  0.75863346  1
  Fe  Fe32  1  0.12421605  0.87471030  0.87192570  1
  Fe  Fe33  1  -0.00152332  0.74849312  0.74991227  1
  Fe  Fe34  1  -0.00172387  0.74699991  0.24738489  1
  Fe  Fe35  1  0.25415233  0.75212190  0.74379740  1
  Fe  Fe36  1  0.87420722  0.62620157  0.62287803  1
  Fe  Fe37  1  0.62004530  0.87793640  0.12415022  1
  Fe  Fe38  1  0.00100351  0.00047539  -0.00031148  1
  Fe  Fe39  1  0.25145776  0.49929031  0.75175127  1
  Fe  Fe40  1  0.74711452  0.74955099  0.49937594  1
  Fe  Fe41  1  0.62492941  0.12558392  0.87439526  1
  Fe  Fe42  1  0.61877623  0.87297933  0.62567712  1
  Fe  Fe43  1  0.87247824  0.12823326  0.37592698  1
  Fe  Fe44  1  0.12587520  0.12351705  0.87308731  1
  Fe  Fe45  1  0.87834551  0.37226453  0.87526705  1
  Fe  Fe46  1  0.12314997  0.87727916  0.12693986  1
  Fe  Fe47  1  0.00309299  0.24843028  0.00051510  1
  Fe  Fe48  1  0.74912150  -0.00056311  0.75066871  1
  Fe  Fe49  1  0.87378069  0.62771728  0.87845564  1
  Fe  Fe50  1  0.62339706  0.37708619  0.62872426  1
  Fe  Fe51  1  0.87700975  0.37435563  0.62591910  1
  Fe  Fe52  1  0.87405665  0.12497437  0.62502019  1
  Fe  Fe53  1  0.75157508  0.25045819  0.75185153  1
  Fe  Fe54  1  0.50037206  0.74625315  -0.00185958  1
  Fe  Fe55  1  0.50116776  0.50102137  0.49783343  1
  Fe  Fe56  1  0.00243711  0.25043257  0.50023103  1
  Fe  Fe57  1  0.37463963  0.12580021  0.87162861  1
  Fe  Fe58  1  0.74979845  0.00169726  -0.00035908  1
  Fe  Fe59  1  0.25089034  0.49830344  0.24869901  1
  Fe  Fe60  1  0.37596850  0.37514680  0.12239504  1
  Fe  Fe61  1  0.25086050  -0.00075763  0.00007897  1
  Fe  Fe62  1  0.12183243  0.37735299  0.62828502  1
  Fe  Fe63  1  0.12654009  0.62683739  0.87410585  1
  Fe  Fe64  1  0.75057316  0.25268198  0.24752367  1
  Fe  Fe65  1  0.37657557  0.12413814  0.12344711  1
  Fe  Fe66  1  0.50025330  0.49899371  0.24931568  1
  Fe  Fe67  1  0.62230346  0.87483629  0.87374611  1
  Fe  Fe68  1  0.37458000  0.37455746  0.37550053  1
  Fe  Fe69  1  0.12712041  0.12263960  0.37382205  1
  Fe  Fe70  1  0.75021755  0.49666508  -0.00032394  1
  Fe  Fe71  1  0.00236047  0.25072456  0.24934521  1
  Fe  Fe72  1  0.25147858  -0.00430562  0.50597419  1
  Fe  Fe73  1  0.24867881  0.25294771  0.50108468  1
  Fe  Fe74  1  0.49943931  0.75027323  0.24979185  1
  Fe  Fe75  1  -0.00491823  0.49920844  0.24873567  1
  Fe  Fe76  1  0.12546951  0.62442321  0.62565727  1
  Fe  Fe77  1  0.75000301  0.75321144  0.00172034  1
  Fe  Fe78  1  0.75313877  0.50069291  0.75220141  1
  Fe  Fe79  1  0.12702191  0.12342757  0.62624478  1
  Fe  Fe80  1  0.50027024  0.24793285  0.50086058  1
  Fe  Fe81  1  0.24875230  0.25092557  0.24849236  1
  Fe  Fe82  1  0.49891026  0.24938266  0.25113276  1
  Fe  Fe83  1  0.24708739  0.25112888  0.00019533  1
  Fe  Fe84  1  0.75103901  0.49868835  0.49864413  1
  Fe  Fe85  1  0.12455394  0.87555130  0.37410003  1
  Fe  Fe86  1  -0.00183082  0.50004065  0.49832015  1
  Fe  Fe87  1  0.74968261  0.75005532  0.74999234  1
  Fe  Fe88  1  0.00192464  0.74922092  0.49961241  1
  Fe  Fe89  1  0.24739702  0.75250598  0.00259764  1
  Co  Co90  1  0.37693113  0.62315105  0.62276655  1
  Co  Co91  1  -0.00274052  0.00142725  0.25136967  1
  Co  Co92  1  0.87636190  0.37291115  0.12059439  1
  Co  Co93  1  0.36865038  0.62691012  0.87896392  1
  Co  Co94  1  0.62600096  0.37503274  0.87404995  1
  Co  Co95  1  0.87150959  0.62691099  0.37381214  1
  Co  Co96  1  -0.00208712  0.50426890  0.75182413  1
  Co  Co97  1  0.00144955  0.74922178  0.00158764  1
  Co  Co98  1  0.12483440  0.37698197  0.37288203  1
  Co  Co99  1  0.75326669  0.49421549  0.24999444  1
  Co  Co100  1  0.50081439  0.25009191  0.75092374  1
  Co  Co101  1  0.86957174  0.62568619  0.12453274  1
  Co  Co102  1  0.50229986  0.74431838  0.49758906  1
  Co  Co103  1  0.49877391  0.00214874  -0.00349913  1
  Co  Co104  1  0.87440260  0.37104319  0.37767522  1
  Co  Co105  1  0.38419192  0.87248132  0.62288854  1
  Co  Co106  1  0.74874277  0.75526895  0.24825934  1
  Co  Co107  1  0.12725773  0.62389509  0.12636587  1
  Co  Co108  1  0.50131722  0.00688892  0.50077863  1
  Co  Co109  1  0.63070670  0.62572030  0.87710681  1
  Co  Co110  1  0.24847473  0.75118306  0.50313210  1
  Co  Co111  1  0.00059069  0.24654308  0.74909093  1
  Co  Co112  1  0.74894459  0.24787139  -0.00148628  1
  Co  Co113  1  0.49690425  0.00029117  0.25184759  1
  Co  Co114  1  0.12519392  0.37613432  0.12586305  1
  Co  Co115  1  0.37804831  0.87432942  0.12167689  1
  Co  Co116  1  0.12108605  0.87518398  0.62697861  1
  Co  Co117  1  0.12128401  0.37560902  0.87375045  1
  Co  Co118  1  0.49842284  0.74380164  0.75423028  1
  Co  Co119  1  0.74778372  0.25100287  0.50429180  1
  Co  Co120  1  0.50063572  0.50191292  -0.00293049  1
  Co  Co121  1  0.12593897  0.12214697  0.12627191  1
  Co  Co122  1  0.49892686  0.00179327  0.74882666  1
  Co  Co123  1  0.37536991  0.37352300  0.87644855  1
  Co  Co124  1  0.87565247  0.12472236  0.87508778  1
  Co  Co125  1  0.62751063  0.12648823  0.37217918  1
  Co  Co126  1  0.25252645  -0.00300651  0.74748948  1
  Co  Co127  1  0.37292554  0.12744284  0.62719770  1
