# generated using pymatgen
data_Fe45Co19
_symmetry_space_group_name_H-M   'P 1'
_cell_length_a   11.41622891
_cell_length_b   11.41465954
_cell_length_c   11.41553430
_cell_angle_alpha   90.01006497
_cell_angle_beta   89.99577917
_cell_angle_gamma   89.99988975
_symmetry_Int_Tables_number   1
_chemical_formula_structural   Fe45Co19
_chemical_formula_sum   'Fe90 Co38'
_cell_volume   1487.58525915
_cell_formula_units_Z   2
loop_
 _symmetry_equiv_pos_site_id
 _symmetry_equiv_pos_as_xyz
  1  'x, y, z'
loop_
 _atom_site_type_symbol
 _atom_site_label
 _atom_site_symmetry_multiplicity
 _atom_site_fract_x
 _atom_site_fract_y
 _atom_site_fract_z
 _atom_site_occupancy
  Fe  Fe0  1  0.50052765  0.74928016  0.24833379  1
  Fe  Fe1  1  0.37437339  0.12077458  0.12723443  1
  Fe  Fe2  1  0.87555748  0.37139106  0.37135812  1
  Fe  Fe3  1  0.24903245  0.75026275  0.00248378  1
  Fe  Fe4  1  0.12441524  0.37669918  0.12749754  1
  Fe  Fe5  1  0.74995888  0.00059826  0.50091555  1
  Fe  Fe6  1  0.00296688  0.24865133  0.00073964  1
  Fe  Fe7  1  -0.00369991  0.00277484  0.24888272  1
  Fe  Fe8  1  0.12656358  0.62563737  0.62414396  1
  Fe  Fe9  1  0.75011700  0.25359655  0.75113669  1
  Fe  Fe10  1  0.12375297  0.37514145  0.62676015  1
  Fe  Fe11  1  0.12479211  0.12334730  0.37506271  1
  Fe  Fe12  1  0.62448697  0.37793062  0.37375359  1
  Fe  Fe13  1  0.74895508  0.74954990  0.50129014  1
  Fe  Fe14  1  0.37537244  0.62366685  0.37337793  1
  Fe  Fe15  1  0.62578432  0.87645849  0.87466880  1
  Fe  Fe16  1  0.87330915  0.87288605  0.87369381  1
  Fe  Fe17  1  0.37691398  0.37496715  0.87657476  1
  Fe  Fe18  1  0.74917604  0.25319306  -0.00105300  1
  Fe  Fe19  1  0.50001756  0.24923946  0.49955100  1
  Fe  Fe20  1  0.87568882  0.12769384  0.87536553  1
  Fe  Fe21  1  0.25022513  0.49876924  0.75132425  1
  Fe  Fe22  1  -0.00192017  0.50197871  -0.00159246  1
  Fe  Fe23  1  -0.00159034  0.50108579  0.49795524  1
  Fe  Fe24  1  0.50080587  0.50219798  0.00049204  1
  Fe  Fe25  1  0.62511857  0.12612873  0.87401615  1
  Fe  Fe26  1  0.37518178  0.87636277  0.37366620  1
  Fe  Fe27  1  0.37427997  0.37677586  0.12585508  1
  Fe  Fe28  1  0.50030975  0.24886544  0.24968242  1
  Fe  Fe29  1  0.12306069  0.87570079  0.12526578  1
  Fe  Fe30  1  0.49786870  0.24611816  0.00055869  1
  Fe  Fe31  1  0.24906566  0.74747416  0.24850858  1
  Fe  Fe32  1  0.62677031  0.62408901  0.12566108  1
  Fe  Fe33  1  0.37613720  0.37645673  0.62506093  1
  Fe  Fe34  1  0.62518161  0.87625377  0.62590322  1
  Fe  Fe35  1  0.87494204  0.87603400  0.37575447  1
  Fe  Fe36  1  0.62571729  0.12460118  0.37440668  1
  Fe  Fe37  1  0.87371708  0.62634838  0.12424902  1
  Fe  Fe38  1  0.25032807  -0.00045467  0.49951867  1
  Fe  Fe39  1  -0.00102863  0.74927641  0.50074743  1
  Fe  Fe40  1  -0.00126254  0.00094696  0.00023165  1
  Fe  Fe41  1  0.74903806  0.75156601  0.00055809  1
  Fe  Fe42  1  0.75349779  0.00066712  0.24755661  1
  Fe  Fe43  1  0.62985225  0.62153168  0.87450841  1
  Fe  Fe44  1  0.62421054  0.37565005  0.12482500  1
  Fe  Fe45  1  0.87641750  0.37536581  0.62498265  1
  Fe  Fe46  1  -0.00047549  0.74838730  0.25054340  1
  Fe  Fe47  1  0.87636359  0.37173032  0.12742788  1
  Fe  Fe48  1  0.62714425  0.61978339  0.62609679  1
  Fe  Fe49  1  0.62642459  0.62233014  0.37392692  1
  Fe  Fe50  1  0.87226696  0.62500343  0.37373976  1
  Fe  Fe51  1  0.50118534  0.00164408  0.75002466  1
  Fe  Fe52  1  -0.00220732  0.50205974  0.75350224  1
  Fe  Fe53  1  0.12402206  0.87441583  0.37622185  1
  Fe  Fe54  1  0.37656851  0.87777964  0.87807629  1
  Fe  Fe55  1  0.37479322  0.62461181  0.62487046  1
  Fe  Fe56  1  0.12301285  0.37345009  0.87345485  1
  Fe  Fe57  1  0.24811047  0.50111085  0.00137349  1
  Fe  Fe58  1  0.25016583  0.24605927  -0.00282692  1
  Fe  Fe59  1  0.25055252  0.75128602  0.75091725  1
  Fe  Fe60  1  0.37571014  0.87445578  0.62458131  1
  Fe  Fe61  1  0.12340796  0.37745261  0.37189747  1
  Fe  Fe62  1  0.87313997  0.12511542  0.62391731  1
  Fe  Fe63  1  0.62596105  0.87544553  0.37394672  1
  Fe  Fe64  1  0.37716976  0.87719105  0.12343835  1
  Fe  Fe65  1  -0.00029534  0.00089600  0.74947500  1
  Fe  Fe66  1  0.12703579  0.12624601  0.62829039  1
  Fe  Fe67  1  0.00001801  0.74794802  0.75132754  1
  Fe  Fe68  1  0.37375481  0.62566623  0.87716641  1
  Fe  Fe69  1  0.12566027  0.12322176  0.12516629  1
  Fe  Fe70  1  0.24922424  0.24927804  0.25025733  1
  Fe  Fe71  1  0.00081363  0.24836964  0.49975102  1
  Fe  Fe72  1  0.00049474  0.74803326  -0.00217038  1
  Fe  Fe73  1  0.62434951  0.87569576  0.12537410  1
  Fe  Fe74  1  0.50087397  0.74858965  0.50014431  1
  Fe  Fe75  1  0.49977526  0.00213805  0.49916276  1
  Fe  Fe76  1  0.49932582  0.25078442  0.75055783  1
  Fe  Fe77  1  0.87370506  0.87537676  0.62598529  1
  Fe  Fe78  1  0.87137085  0.62391707  0.62776340  1
  Fe  Fe79  1  0.62653606  0.12451546  0.12526994  1
  Fe  Fe80  1  0.74852298  0.25145439  0.49981355  1
  Fe  Fe81  1  0.50186927  0.74782692  0.75191898  1
  Fe  Fe82  1  0.12566633  0.87613793  0.87560676  1
  Fe  Fe83  1  0.24977234  0.50034609  0.49834821  1
  Fe  Fe84  1  0.75194944  -0.00014651  0.00073270  1
  Fe  Fe85  1  0.12616822  0.87336231  0.62346141  1
  Fe  Fe86  1  0.24999462  0.25123257  0.49901375  1
  Fe  Fe87  1  0.37551639  0.37636272  0.37266718  1
  Fe  Fe88  1  0.37365641  0.12599743  0.62622997  1
  Fe  Fe89  1  0.62327712  0.37910134  0.62566230  1
  Co  Co90  1  0.62591719  0.12575218  0.62579137  1
  Co  Co91  1  0.74768077  0.75085890  0.74817818  1
  Co  Co92  1  0.75295755  0.49340261  0.75412607  1
  Co  Co93  1  0.12440410  0.62532447  0.37637458  1
  Co  Co94  1  0.87928455  0.37203518  0.87717125  1
  Co  Co95  1  -0.00160220  0.24897950  0.74824830  1
  Co  Co96  1  0.75224402  0.49815523  0.49807190  1
  Co  Co97  1  0.74774157  0.25031256  0.24984737  1
  Co  Co98  1  -0.00215730  0.50192945  0.24995185  1
  Co  Co99  1  0.49878290  0.50174698  0.75262707  1
  Co  Co100  1  0.75223346  0.49567643  0.00066154  1
  Co  Co101  1  0.00245750  0.24640669  0.25007330  1
  Co  Co102  1  0.25153143  0.74988468  0.49829878  1
  Co  Co103  1  0.37513176  0.12491262  0.37389242  1
  Co  Co104  1  0.50037545  0.50007577  0.24785645  1
  Co  Co105  1  0.75120680  0.00128251  0.75111443  1
  Co  Co106  1  0.50259755  0.74890360  -0.00121437  1
  Co  Co107  1  0.25169645  0.25248771  0.75280652  1
  Co  Co108  1  0.24846259  -0.00139584  0.25001289  1
  Co  Co109  1  0.50185366  0.00017384  0.24986858  1
  Co  Co110  1  0.49862608  0.50076538  0.49896705  1
  Co  Co111  1  0.12257814  0.62437511  0.12425547  1
  Co  Co112  1  0.75025411  0.75098413  0.24981850  1
  Co  Co113  1  0.87004533  0.62765122  0.87525569  1
  Co  Co114  1  0.62066220  0.37496743  0.87683180  1
  Co  Co115  1  0.87399152  0.12976378  0.12341855  1
  Co  Co116  1  0.12742129  0.62514672  0.87524992  1
  Co  Co117  1  0.37583490  0.12243286  0.87326467  1
  Co  Co118  1  0.87356958  0.12646354  0.37652628  1
  Co  Co119  1  0.12392825  0.12570571  0.87233303  1
  Co  Co120  1  0.87637175  0.87150200  0.12387453  1
  Co  Co121  1  0.50231541  0.00185890  0.00055946  1
  Co  Co122  1  0.24850784  0.00137601  -0.00054582  1
  Co  Co123  1  0.00078782  0.00097208  0.50188120  1
  Co  Co124  1  0.24946756  -0.00194141  0.75061273  1
  Co  Co125  1  0.24927620  0.50291208  0.24889861  1
  Co  Co126  1  0.37584117  0.62490292  0.12316739  1
  Co  Co127  1  0.75138274  0.49806254  0.24829878  1
