# generated using pymatgen
data_Fe45Co19
_symmetry_space_group_name_H-M   'P 1'
_cell_length_a   11.41378382
_cell_length_b   11.41462950
_cell_length_c   11.41334839
_cell_angle_alpha   89.99826587
_cell_angle_beta   89.98955488
_cell_angle_gamma   89.99811116
_symmetry_Int_Tables_number   1
_chemical_formula_structural   Fe45Co19
_chemical_formula_sum   'Fe90 Co38'
_cell_volume   1486.97795104
_cell_formula_units_Z   2
loop_
 _symmetry_equiv_pos_site_id
 _symmetry_equiv_pos_as_xyz
  1  'x, y, z'
loop_
 _atom_site_type_symbol
 _atom_site_label
 _atom_site_symmetry_multiplicity
 _atom_site_fract_x
 _atom_site_fract_y
 _atom_site_fract_z
 _atom_site_occupancy
  Fe  Fe0  1  0.12679110  0.12767419  0.87616461  1
  Fe  Fe1  1  0.87610201  0.12426574  0.37503057  1
  Fe  Fe2  1  0.75122384  -0.00086969  0.24807160  1
  Fe  Fe3  1  0.74966804  0.50002016  0.49761547  1
  Fe  Fe4  1  0.74887651  0.24845034  0.75068798  1
  Fe  Fe5  1  0.37478135  0.87317295  0.87330905  1
  Fe  Fe6  1  0.24835264  0.50237985  0.25469638  1
  Fe  Fe7  1  0.24943881  0.00009282  0.00042910  1
  Fe  Fe8  1  0.62354371  0.37283560  0.37442119  1
  Fe  Fe9  1  0.12954041  0.12821210  0.61839093  1
  Fe  Fe10  1  0.62309388  0.87559859  0.12523648  1
  Fe  Fe11  1  0.12644817  0.87168128  0.37497001  1
  Fe  Fe12  1  0.24976896  0.49856120  0.49623719  1
  Fe  Fe13  1  0.49763731  0.24871248  0.50108297  1
  Fe  Fe14  1  -0.00092864  0.49864190  0.00161209  1
  Fe  Fe15  1  0.74952218  0.25016600  0.24896096  1
  Fe  Fe16  1  0.49948466  0.24734479  0.74657454  1
  Fe  Fe17  1  0.12464298  0.37528973  0.62141356  1
  Fe  Fe18  1  0.49802409  0.00004516  -0.00155016  1
  Fe  Fe19  1  0.62400706  0.62398047  0.12272462  1
  Fe  Fe20  1  0.87457587  0.62433877  0.12508422  1
  Fe  Fe21  1  0.38018862  0.87931074  0.62687856  1
  Fe  Fe22  1  0.62397545  0.62552167  0.87777866  1
  Fe  Fe23  1  0.37163388  0.12349389  0.37884060  1
  Fe  Fe24  1  0.75072068  0.49892290  0.24882298  1
  Fe  Fe25  1  0.49977313  0.00104845  0.25146905  1
  Fe  Fe26  1  0.87476631  0.12347108  0.62547130  1
  Fe  Fe27  1  0.49563298  0.25338666  0.00323918  1
  Fe  Fe28  1  0.37364458  0.12795212  0.87427226  1
  Fe  Fe29  1  0.75183797  0.75191374  -0.00050520  1
  Fe  Fe30  1  0.87397608  0.87398085  0.37528257  1
  Fe  Fe31  1  0.75154613  0.25083380  0.00050035  1
  Fe  Fe32  1  0.87371061  0.62447805  0.62404381  1
  Fe  Fe33  1  0.25102215  0.75247539  0.00203720  1
  Fe  Fe34  1  0.00285503  0.50142419  0.75052543  1
  Fe  Fe35  1  0.50058556  0.75062857  0.50162862  1
  Fe  Fe36  1  0.62257969  0.12134847  0.62377551  1
  Fe  Fe37  1  0.25052785  0.74878371  0.74789859  1
  Fe  Fe38  1  0.75079976  0.25108307  0.50059787  1
  Fe  Fe39  1  0.12368140  0.87458226  0.87167386  1
  Fe  Fe40  1  0.24642716  0.00148402  0.25113533  1
  Fe  Fe41  1  0.74749852  0.00032783  0.75188998  1
  Fe  Fe42  1  0.62307756  0.37510832  0.87644895  1
  Fe  Fe43  1  0.25395568  0.74786448  0.24818748  1
  Fe  Fe44  1  0.49823600  0.50270618  0.75319543  1
  Fe  Fe45  1  0.24916743  0.00072065  0.74874567  1
  Fe  Fe46  1  0.62601981  0.62540289  0.62477812  1
  Fe  Fe47  1  0.87776863  0.12300718  0.12547602  1
  Fe  Fe48  1  -0.00098687  0.74869299  0.24908602  1
  Fe  Fe49  1  0.74906762  -0.00410167  0.50213909  1
  Fe  Fe50  1  0.62291565  0.37591057  0.12522073  1
  Fe  Fe51  1  0.75094771  -0.00045439  -0.00190676  1
  Fe  Fe52  1  0.37310036  0.12493597  0.12570291  1
  Fe  Fe53  1  0.49824164  0.50276023  0.24901767  1
  Fe  Fe54  1  0.12163141  0.87280343  0.62705588  1
  Fe  Fe55  1  0.87513126  0.37644629  0.62499714  1
  Fe  Fe56  1  0.87439059  0.62405198  0.87507077  1
  Fe  Fe57  1  0.00364916  0.24851855  0.25118646  1
  Fe  Fe58  1  -0.00275196  0.74868363  0.50009078  1
  Fe  Fe59  1  0.87571110  0.37471063  0.87439588  1
  Fe  Fe60  1  0.87968066  0.87676228  0.86969376  1
  Fe  Fe61  1  0.75043284  0.75071292  0.24867719  1
  Fe  Fe62  1  0.12736024  0.62467660  0.62243549  1
  Fe  Fe63  1  0.24765697  0.24765104  0.25209698  1
  Fe  Fe64  1  0.62627500  0.12543135  0.37547098  1
  Fe  Fe65  1  0.75011316  0.75224552  0.74680421  1
  Fe  Fe66  1  0.25596999  0.49410675  -0.00365923  1
  Fe  Fe67  1  0.62523446  0.62759405  0.37424237  1
  Fe  Fe68  1  0.74889835  0.49957899  0.75198742  1
  Fe  Fe69  1  0.00124814  -0.00016822  -0.00046476  1
  Fe  Fe70  1  0.12435243  0.87653212  0.12675626  1
  Fe  Fe71  1  0.00071573  0.75022053  -0.00086969  1
  Fe  Fe72  1  0.00113764  0.24890128  0.74880071  1
  Fe  Fe73  1  0.00053826  0.50196863  0.49576639  1
  Fe  Fe74  1  0.87744412  0.37591696  0.37289359  1
  Fe  Fe75  1  0.37339760  0.62196145  0.62418844  1
  Fe  Fe76  1  0.25046223  0.25412333  0.74755750  1
  Fe  Fe77  1  0.50078029  0.50011372  0.49847227  1
  Fe  Fe78  1  0.62106368  0.87308169  0.87277960  1
  Fe  Fe79  1  0.12779862  0.62350568  0.12383311  1
  Fe  Fe80  1  0.49534693  0.74884537  0.00338845  1
  Fe  Fe81  1  0.00214490  0.00018653  0.49975144  1
  Fe  Fe82  1  0.62429728  0.87278821  0.37448516  1
  Fe  Fe83  1  0.12763648  0.37492568  0.12527912  1
  Fe  Fe84  1  0.37525637  0.87320856  0.37440189  1
  Fe  Fe85  1  0.37697149  0.37455343  0.37311873  1
  Fe  Fe86  1  0.62411967  0.37584091  0.62508717  1
  Fe  Fe87  1  0.62378750  0.12431366  0.12380564  1
  Fe  Fe88  1  0.12888098  0.62346960  0.87589540  1
  Fe  Fe89  1  0.00120054  0.25049672  0.00030699  1
  Co  Co90  1  0.25165290  0.25200674  0.00073955  1
  Co  Co91  1  0.37683591  0.37919586  0.62566410  1
  Co  Co92  1  -0.00354401  0.24975284  0.50008136  1
  Co  Co93  1  0.49954279  0.24673886  0.25079908  1
  Co  Co94  1  0.75116367  0.49807253  0.00068295  1
  Co  Co95  1  0.37743852  0.37221319  0.87000232  1
  Co  Co96  1  0.49987056  0.00054443  0.49573005  1
  Co  Co97  1  0.12355080  0.37455185  0.87586848  1
  Co  Co98  1  0.37429782  0.87873594  0.12661200  1
  Co  Co99  1  0.49532194  0.49826720  -0.00023818  1
  Co  Co100  1  0.00514327  0.00684583  0.74787338  1
  Co  Co101  1  0.37219395  0.62194875  0.12380042  1
  Co  Co102  1  0.25296962  0.75272086  0.50363212  1
  Co  Co103  1  0.00374532  0.50135838  0.24946821  1
  Co  Co104  1  0.87925969  0.87671459  0.62872111  1
  Co  Co105  1  0.87354491  0.62439566  0.37317203  1
  Co  Co106  1  0.37183316  0.37482368  0.13187673  1
  Co  Co107  1  0.12671638  0.12605271  0.38147241  1
  Co  Co108  1  0.12318546  0.37294730  0.37693846  1
  Co  Co109  1  0.49789570  0.74617573  0.74819701  1
  Co  Co110  1  0.12657965  0.63041417  0.37604247  1
  Co  Co111  1  0.37557998  0.62715315  0.37757964  1
  Co  Co112  1  0.62015199  0.87809921  0.62706345  1
  Co  Co113  1  0.87708779  0.37378004  0.12698573  1
  Co  Co114  1  0.12405327  0.12390886  0.12322389  1
  Co  Co115  1  0.87658993  0.87589444  0.12398336  1
  Co  Co116  1  0.74932024  0.75181306  0.50333238  1
  Co  Co117  1  0.37256495  0.12194773  0.62313541  1
  Co  Co118  1  0.00154597  0.74367813  0.75074800  1
  Co  Co119  1  0.62326570  0.12826797  0.87864989  1
  Co  Co120  1  0.49999352  0.00405055  0.75494905  1
  Co  Co121  1  0.49750222  0.74887124  0.24696895  1
  Co  Co122  1  0.24804924  -0.00607306  0.50177922  1
  Co  Co123  1  0.00185645  -0.00065254  0.25345367  1
  Co  Co124  1  0.24841136  0.49832171  0.75066563  1
  Co  Co125  1  0.25544565  0.25581092  0.49927533  1
  Co  Co126  1  0.37168069  0.62743782  0.87562309  1
  Co  Co127  1  0.87624925  0.12485449  0.87515662  1
