# generated using pymatgen
data_Fe45Co19
_symmetry_space_group_name_H-M   'P 1'
_cell_length_a   11.41613346
_cell_length_b   11.41421403
_cell_length_c   11.41583478
_cell_angle_alpha   89.99639544
_cell_angle_beta   90.00116802
_cell_angle_gamma   90.00624074
_symmetry_Int_Tables_number   1
_chemical_formula_structural   Fe45Co19
_chemical_formula_sum   'Fe90 Co38'
_cell_volume   1487.55393200
_cell_formula_units_Z   2
loop_
 _symmetry_equiv_pos_site_id
 _symmetry_equiv_pos_as_xyz
  1  'x, y, z'
loop_
 _atom_site_type_symbol
 _atom_site_label
 _atom_site_symmetry_multiplicity
 _atom_site_fract_x
 _atom_site_fract_y
 _atom_site_fract_z
 _atom_site_occupancy
  Fe  Fe0  1  0.00344225  0.25122054  0.75379056  1
  Fe  Fe1  1  0.74751140  0.75047535  0.24872247  1
  Fe  Fe2  1  0.87678622  0.37306034  0.37026334  1
  Fe  Fe3  1  0.74794797  0.49933107  0.74808338  1
  Fe  Fe4  1  0.38219198  0.87952529  0.87296494  1
  Fe  Fe5  1  -0.00214391  0.24935208  0.49719407  1
  Fe  Fe6  1  0.25477163  0.00288411  0.00079332  1
  Fe  Fe7  1  0.50064304  0.50155374  0.75041379  1
  Fe  Fe8  1  0.87385893  0.87849463  0.37358844  1
  Fe  Fe9  1  0.62237625  0.12142231  0.87613528  1
  Fe  Fe10  1  -0.00313508  0.00130877  0.00142469  1
  Fe  Fe11  1  0.24843319  0.49897733  0.24647855  1
  Fe  Fe12  1  0.62761169  0.62603814  0.87710402  1
  Fe  Fe13  1  0.25167289  0.24895268  -0.00410696  1
  Fe  Fe14  1  0.87417399  0.12464502  0.87369535  1
  Fe  Fe15  1  0.37647160  0.87347832  0.12607305  1
  Fe  Fe16  1  0.87546949  0.87390219  0.12553286  1
  Fe  Fe17  1  0.25089270  0.50002954  0.49989077  1
  Fe  Fe18  1  0.00175905  0.75136128  0.49790514  1
  Fe  Fe19  1  -0.00040778  0.49887405  0.50012178  1
  Fe  Fe20  1  0.87209221  0.13178720  0.12853433  1
  Fe  Fe21  1  0.12673049  0.87192704  0.62733171  1
  Fe  Fe22  1  0.12542885  0.12389531  0.37582230  1
  Fe  Fe23  1  0.49771758  0.00291009  0.50124707  1
  Fe  Fe24  1  0.12436895  0.87816335  0.87648408  1
  Fe  Fe25  1  0.87196668  0.87353435  0.87379290  1
  Fe  Fe26  1  0.75009573  0.75139866  0.49995113  1
  Fe  Fe27  1  0.87514910  0.37322097  0.62862968  1
  Fe  Fe28  1  -0.00052745  0.00334267  0.24888724  1
  Fe  Fe29  1  0.37672753  0.62752010  0.12588139  1
  Fe  Fe30  1  0.87154338  0.62536077  0.87438674  1
  Fe  Fe31  1  0.75306525  0.49724150  0.50125673  1
  Fe  Fe32  1  0.50158977  0.74970215  -0.00163721  1
  Fe  Fe33  1  0.24922829  0.00056183  0.24720699  1
  Fe  Fe34  1  0.12671445  0.37300984  0.62539249  1
  Fe  Fe35  1  0.12288014  0.37634154  0.11980010  1
  Fe  Fe36  1  0.62563117  0.62336746  0.37503868  1
  Fe  Fe37  1  0.87392754  0.12622335  0.62476418  1
  Fe  Fe38  1  0.74917242  0.00036821  0.00217426  1
  Fe  Fe39  1  0.37416485  0.87261275  0.62770233  1
  Fe  Fe40  1  -0.00071180  0.74794248  -0.00113241  1
  Fe  Fe41  1  0.87709654  0.87184448  0.62773968  1
  Fe  Fe42  1  0.00172199  0.74958121  0.25002855  1
  Fe  Fe43  1  0.87394195  0.62423125  0.12550600  1
  Fe  Fe44  1  0.24683771  0.25171278  0.25147092  1
  Fe  Fe45  1  0.12664611  0.62854744  0.62584251  1
  Fe  Fe46  1  0.37569248  0.37506774  0.87410680  1
  Fe  Fe47  1  0.62598714  0.12836373  0.61798066  1
  Fe  Fe48  1  0.74565729  0.49507482  0.24662877  1
  Fe  Fe49  1  0.12535033  0.12542453  0.12084245  1
  Fe  Fe50  1  0.49847198  0.24680279  -0.00130466  1
  Fe  Fe51  1  0.75107751  0.49422066  0.00362577  1
  Fe  Fe52  1  0.12427736  0.87479765  0.12379132  1
  Fe  Fe53  1  0.49888197  0.50019503  0.00109331  1
  Fe  Fe54  1  0.49666592  0.50010923  0.50067907  1
  Fe  Fe55  1  0.50415061  0.24832591  0.25903975  1
  Fe  Fe56  1  0.37505241  0.62415663  0.37267961  1
  Fe  Fe57  1  0.49823596  0.74948888  0.49780367  1
  Fe  Fe58  1  0.74756537  -0.00076999  0.74787644  1
  Fe  Fe59  1  0.37531482  0.87656980  0.37353223  1
  Fe  Fe60  1  0.62250263  0.87264383  0.62680242  1
  Fe  Fe61  1  0.00089125  0.00051119  0.74985413  1
  Fe  Fe62  1  0.25340571  0.25173848  0.49605464  1
  Fe  Fe63  1  0.50057174  0.00273107  0.24802592  1
  Fe  Fe64  1  0.62299736  0.37246179  0.62080765  1
  Fe  Fe65  1  0.37540724  0.37192013  0.62574088  1
  Fe  Fe66  1  0.25142958  0.49911728  0.75047288  1
  Fe  Fe67  1  0.24854697  0.75050628  0.25096760  1
  Fe  Fe68  1  0.62410002  0.87329118  0.12408524  1
  Fe  Fe69  1  0.00289929  0.49920354  0.24740951  1
  Fe  Fe70  1  0.62569594  0.12895889  0.12479781  1
  Fe  Fe71  1  -0.00242427  0.25328986  -0.00368635  1
  Fe  Fe72  1  0.74763825  0.24901717  0.75094207  1
  Fe  Fe73  1  0.62444094  0.37354168  0.87589591  1
  Fe  Fe74  1  0.00098743  0.49967822  0.75186933  1
  Fe  Fe75  1  0.62584642  0.87822337  0.37440322  1
  Fe  Fe76  1  -0.00073404  0.00067003  0.49983063  1
  Fe  Fe77  1  0.25200764  0.75018760  -0.00203663  1
  Fe  Fe78  1  0.12776185  0.62047933  0.87939059  1
  Fe  Fe79  1  0.37820820  0.37081184  0.12714759  1
  Fe  Fe80  1  0.87325626  0.62402209  0.37334000  1
  Fe  Fe81  1  0.37369553  0.62917665  0.62730485  1
  Fe  Fe82  1  0.12569756  0.62455899  0.37521233  1
  Fe  Fe83  1  0.25171057  0.00387589  0.75190356  1
  Fe  Fe84  1  0.87617857  0.62739275  0.62645849  1
  Fe  Fe85  1  0.12761157  0.12716496  0.62602819  1
  Fe  Fe86  1  0.50275738  0.49906082  0.24777058  1
  Fe  Fe87  1  0.24928635  -0.00213206  0.49967395  1
  Fe  Fe88  1  0.62480484  0.62534097  0.62316856  1
  Fe  Fe89  1  0.49804617  0.24623822  0.74793876  1
  Co  Co90  1  0.62311093  0.87788192  0.87551463  1
  Co  Co91  1  0.49986322  0.00165514  0.00724333  1
  Co  Co92  1  0.37518474  0.12978459  0.12845965  1
  Co  Co93  1  0.50144965  0.00428662  0.74328629  1
  Co  Co94  1  0.12506319  0.62550957  0.12192131  1
  Co  Co95  1  0.62450486  0.62500614  0.12351438  1
  Co  Co96  1  0.12307301  0.12259143  0.87699549  1
  Co  Co97  1  0.87546885  0.37009766  0.12935376  1
  Co  Co98  1  0.50226632  0.75054420  0.25141274  1
  Co  Co99  1  0.62310447  0.37931724  0.38147231  1
  Co  Co100  1  -0.00639345  0.49867603  -0.00006149  1
  Co  Co101  1  0.37939036  0.12212488  0.87497864  1
  Co  Co102  1  0.75365133  0.25414475  0.49640993  1
  Co  Co103  1  0.87165326  0.37554009  0.87132858  1
  Co  Co104  1  0.75059231  0.25028099  -0.00235505  1
  Co  Co105  1  0.00490247  0.24820861  0.25081650  1
  Co  Co106  1  0.25673482  0.49870454  0.00462440  1
  Co  Co107  1  0.50146621  0.74683294  0.75229673  1
  Co  Co108  1  0.75234652  -0.00365427  0.50547046  1
  Co  Co109  1  0.74891206  0.00013327  0.24447657  1
  Co  Co110  1  0.37500739  0.62294656  0.87547876  1
  Co  Co111  1  0.74738910  0.75050288  0.74828381  1
  Co  Co112  1  0.74971205  0.75189279  0.00251942  1
  Co  Co113  1  0.49601422  0.24830638  0.49436452  1
  Co  Co114  1  0.12466884  0.37669926  0.37723521  1
  Co  Co115  1  0.25069431  0.75081774  0.75622618  1
  Co  Co116  1  0.62137192  0.37021345  0.12126903  1
  Co  Co117  1  0.12384044  0.87713040  0.37268820  1
  Co  Co118  1  0.63113659  0.11924780  0.37995639  1
  Co  Co119  1  0.37109784  0.12694641  0.62301074  1
  Co  Co120  1  0.37511540  0.37867372  0.37247692  1
  Co  Co121  1  0.37217588  0.12177962  0.37326015  1
  Co  Co122  1  0.87080225  0.12337219  0.37295839  1
  Co  Co123  1  0.25021948  0.24834518  0.75546789  1
  Co  Co124  1  0.74270330  0.25360818  0.25426244  1
  Co  Co125  1  0.00277351  0.74840356  0.75462345  1
  Co  Co126  1  0.12728093  0.37985865  0.87804339  1
  Co  Co127  1  0.25051835  0.75084389  0.49659523  1
