# generated using pymatgen
data_Fe45Co19
_symmetry_space_group_name_H-M   'P 1'
_cell_length_a   11.41404699
_cell_length_b   11.41638074
_cell_length_c   11.41609979
_cell_angle_alpha   90.00449732
_cell_angle_beta   90.00469048
_cell_angle_gamma   90.00042165
_symmetry_Int_Tables_number   1
_chemical_formula_structural   Fe45Co19
_chemical_formula_sum   'Fe90 Co38'
_cell_volume   1487.59891952
_cell_formula_units_Z   2
loop_
 _symmetry_equiv_pos_site_id
 _symmetry_equiv_pos_as_xyz
  1  'x, y, z'
loop_
 _atom_site_type_symbol
 _atom_site_label
 _atom_site_symmetry_multiplicity
 _atom_site_fract_x
 _atom_site_fract_y
 _atom_site_fract_z
 _atom_site_occupancy
  Fe  Fe0  1  0.12449054  0.37597432  0.37587491  1
  Fe  Fe1  1  0.62334687  0.87624204  0.12349557  1
  Fe  Fe2  1  0.50123844  0.74802509  0.25057482  1
  Fe  Fe3  1  0.24956015  0.74918194  0.49993275  1
  Fe  Fe4  1  0.62565883  0.37481138  0.37439980  1
  Fe  Fe5  1  0.37109191  0.12414542  0.12654714  1
  Fe  Fe6  1  0.37599480  0.87328394  0.37650049  1
  Fe  Fe7  1  0.24996204  0.25059823  0.74994314  1
  Fe  Fe8  1  0.12352735  0.87332215  0.87795163  1
  Fe  Fe9  1  0.62650096  0.62356457  0.12584461  1
  Fe  Fe10  1  0.62112837  0.62335821  0.87325961  1
  Fe  Fe11  1  0.62252046  0.12538285  0.87410974  1
  Fe  Fe12  1  0.24979356  0.74955147  0.25199136  1
  Fe  Fe13  1  0.37718103  0.37392628  0.37460381  1
  Fe  Fe14  1  0.00431693  0.25034715  0.00290456  1
  Fe  Fe15  1  0.12277389  0.62400852  0.62494487  1
  Fe  Fe16  1  0.74980737  0.00038816  0.24856076  1
  Fe  Fe17  1  0.37695829  0.12879129  0.37347542  1
  Fe  Fe18  1  0.00323871  0.25310844  0.24532336  1
  Fe  Fe19  1  0.50177194  0.50027102  0.50031387  1
  Fe  Fe20  1  0.12309882  0.62418233  0.37591465  1
  Fe  Fe21  1  0.62118591  0.37597172  0.87333345  1
  Fe  Fe22  1  0.74931929  0.00210846  0.50077448  1
  Fe  Fe23  1  0.25019539  0.50110202  0.49942037  1
  Fe  Fe24  1  0.74952694  0.00054904  -0.00016084  1
  Fe  Fe25  1  0.49921370  0.74668860  0.00051902  1
  Fe  Fe26  1  0.12658941  0.37579749  0.87542098  1
  Fe  Fe27  1  0.37949192  0.87669315  0.62413668  1
  Fe  Fe28  1  0.12392110  0.62505174  0.12640031  1
  Fe  Fe29  1  0.74874497  0.25112099  0.24745078  1
  Fe  Fe30  1  0.62411942  0.87457308  0.87542982  1
  Fe  Fe31  1  -0.00534733  0.49940023  0.49964971  1
  Fe  Fe32  1  0.75032446  0.50054861  -0.00127333  1
  Fe  Fe33  1  0.49902682  0.24858758  0.00149730  1
  Fe  Fe34  1  0.62734465  0.62253001  0.62773042  1
  Fe  Fe35  1  0.62765681  0.87482722  0.37622469  1
  Fe  Fe36  1  -0.00054495  0.49730553  0.74997270  1
  Fe  Fe37  1  0.87669178  0.12529255  0.62725529  1
  Fe  Fe38  1  -0.00039066  -0.00077805  0.49673213  1
  Fe  Fe39  1  -0.00153077  0.50026240  0.00135427  1
  Fe  Fe40  1  0.00029437  -0.00172943  0.75093448  1
  Fe  Fe41  1  0.62027148  0.12389994  0.62620210  1
  Fe  Fe42  1  0.37407212  0.87469142  0.12498485  1
  Fe  Fe43  1  0.74898731  -0.00128094  0.74966255  1
  Fe  Fe44  1  0.25149785  0.50130759  0.25191131  1
  Fe  Fe45  1  0.37867938  0.12403110  0.62508587  1
  Fe  Fe46  1  0.24851992  0.24932250  0.49898608  1
  Fe  Fe47  1  0.37467430  0.37386497  0.62366163  1
  Fe  Fe48  1  0.49968009  0.50162743  0.24894625  1
  Fe  Fe49  1  0.75133676  0.75242715  0.74964985  1
  Fe  Fe50  1  0.75068631  0.74926672  -0.00042232  1
  Fe  Fe51  1  0.00192521  0.25122123  0.50259561  1
  Fe  Fe52  1  0.62496983  0.37579978  0.12364099  1
  Fe  Fe53  1  0.74779520  0.24880644  -0.00099679  1
  Fe  Fe54  1  0.49769087  0.00227610  -0.00077121  1
  Fe  Fe55  1  0.12396170  0.62573459  0.87411412  1
  Fe  Fe56  1  0.75324481  0.74805810  0.50185771  1
  Fe  Fe57  1  0.87600550  0.62640781  0.87403341  1
  Fe  Fe58  1  0.25112028  -0.00090508  0.75217934  1
  Fe  Fe59  1  0.50007793  0.00108685  0.25073895  1
  Fe  Fe60  1  0.87260544  0.37382337  0.62740674  1
  Fe  Fe61  1  0.74819830  0.24969011  0.50198278  1
  Fe  Fe62  1  0.24792917  0.24921970  0.00221044  1
  Fe  Fe63  1  0.12559811  0.12496286  0.87527999  1
  Fe  Fe64  1  0.87639499  0.12564116  0.87435966  1
  Fe  Fe65  1  0.62684128  0.37705524  0.62818992  1
  Fe  Fe66  1  0.25055179  0.75058900  0.74926000  1
  Fe  Fe67  1  0.37387655  0.37583262  0.12499437  1
  Fe  Fe68  1  0.12429776  0.87603663  0.62231959  1
  Fe  Fe69  1  -0.00046683  0.75474903  0.25188068  1
  Fe  Fe70  1  0.00249181  -0.00097782  0.00287482  1
  Fe  Fe71  1  0.87635334  0.12718521  0.37256630  1
  Fe  Fe72  1  0.62293097  0.12761797  0.37360378  1
  Fe  Fe73  1  0.87282019  0.62549768  0.12780009  1
  Fe  Fe74  1  0.87395676  0.87460846  0.12318565  1
  Fe  Fe75  1  0.50258658  0.74860492  0.49998904  1
  Fe  Fe76  1  0.25257465  0.50019505  0.75081415  1
  Fe  Fe77  1  0.12456100  0.12380569  0.37006414  1
  Fe  Fe78  1  0.37655126  0.87355528  0.87486315  1
  Fe  Fe79  1  0.25283228  0.50347141  -0.00119987  1
  Fe  Fe80  1  0.87445698  0.37161559  0.87497082  1
  Fe  Fe81  1  -0.00492244  0.49600320  0.24977180  1
  Fe  Fe82  1  0.37620283  0.62580256  0.62514593  1
  Fe  Fe83  1  0.25145499  0.00136477  0.49749256  1
  Fe  Fe84  1  0.24958116  0.74826664  0.00038233  1
  Fe  Fe85  1  0.87529356  0.12615309  0.12462117  1
  Fe  Fe86  1  0.63021124  0.62317915  0.37288596  1
  Fe  Fe87  1  -0.00224393  0.75265548  0.74932383  1
  Fe  Fe88  1  -0.00399888  0.75026592  0.49810866  1
  Fe  Fe89  1  0.12497706  0.12429358  0.62628710  1
  Co  Co90  1  0.62465219  0.87535485  0.62323116  1
  Co  Co91  1  0.87544028  0.62366638  0.62791447  1
  Co  Co92  1  0.49636142  0.49899987  0.74913636  1
  Co  Co93  1  0.87212241  0.62604371  0.37004189  1
  Co  Co94  1  0.62543997  0.12399643  0.12440517  1
  Co  Co95  1  0.50145926  0.75043896  0.74837496  1
  Co  Co96  1  0.12666128  0.37716239  0.62440827  1
  Co  Co97  1  0.50175207  0.25214530  0.50129977  1
  Co  Co98  1  0.25164424  -0.00273072  0.25296375  1
  Co  Co99  1  0.75127882  0.50027917  0.75394762  1
  Co  Co100  1  0.37701347  0.62686853  0.87340977  1
  Co  Co101  1  0.24762917  0.25286354  0.25007044  1
  Co  Co102  1  0.00232820  0.25179480  0.74959848  1
  Co  Co103  1  0.37433848  0.62610245  0.12589916  1
  Co  Co104  1  0.49811588  0.50149460  0.00116402  1
  Co  Co105  1  0.87503574  0.87784824  0.62371512  1
  Co  Co106  1  0.50032752  -0.00087139  0.75269975  1
  Co  Co107  1  0.75345889  0.49965022  0.49873746  1
  Co  Co108  1  0.12792451  0.12039021  0.12829805  1
  Co  Co109  1  0.74851910  0.24757495  0.75034172  1
  Co  Co110  1  0.12755131  0.87475499  0.12445819  1
  Co  Co111  1  0.87029754  0.87650839  0.37651040  1
  Co  Co112  1  0.75228009  0.49466949  0.24933333  1
  Co  Co113  1  -0.00102136  0.74900092  0.00183803  1
  Co  Co114  1  0.74853189  0.75334046  0.24743293  1
  Co  Co115  1  0.12687097  0.87548111  0.37742738  1
  Co  Co116  1  0.50074374  0.24996228  0.24665243  1
  Co  Co117  1  0.37404412  0.12700768  0.87508237  1
  Co  Co118  1  0.37632072  0.62508801  0.37683085  1
  Co  Co119  1  0.87397950  0.36947076  0.37610927  1
  Co  Co120  1  0.12788156  0.38055728  0.12389466  1
  Co  Co121  1  0.37570006  0.37358592  0.87765444  1
  Co  Co122  1  0.50091859  0.00013616  0.49622541  1
  Co  Co123  1  0.49883345  0.25097486  0.74944714  1
  Co  Co124  1  0.87502177  0.87660085  0.87682966  1
  Co  Co125  1  -0.00138544  -0.00407045  0.24942315  1
  Co  Co126  1  0.25013753  -0.00127884  -0.00215585  1
  Co  Co127  1  0.87230178  0.37236264  0.12058332  1
