# generated using pymatgen
data_Fe45Co19
_symmetry_space_group_name_H-M   'P 1'
_cell_length_a   11.41371585
_cell_length_b   11.41431861
_cell_length_c   11.41561212
_cell_angle_alpha   89.99670376
_cell_angle_beta   89.99163646
_cell_angle_gamma   90.00034738
_symmetry_Int_Tables_number   1
_chemical_formula_structural   Fe45Co19
_chemical_formula_sum   'Fe90 Co38'
_cell_volume   1487.22352188
_cell_formula_units_Z   2
loop_
 _symmetry_equiv_pos_site_id
 _symmetry_equiv_pos_as_xyz
  1  'x, y, z'
loop_
 _atom_site_type_symbol
 _atom_site_label
 _atom_site_symmetry_multiplicity
 _atom_site_fract_x
 _atom_site_fract_y
 _atom_site_fract_z
 _atom_site_occupancy
  Fe  Fe0  1  0.62337551  0.62001520  0.37499456  1
  Fe  Fe1  1  0.37373373  0.62407846  0.12377641  1
  Fe  Fe2  1  0.37790071  0.62693779  0.87187173  1
  Fe  Fe3  1  0.87521223  0.37315318  0.62462474  1
  Fe  Fe4  1  0.00135504  -0.00089195  0.25244673  1
  Fe  Fe5  1  0.00017057  0.74639058  0.25277407  1
  Fe  Fe6  1  0.12543411  0.37823459  0.12135577  1
  Fe  Fe7  1  0.12903712  0.12810743  0.87435597  1
  Fe  Fe8  1  0.49786044  0.25059379  -0.00123055  1
  Fe  Fe9  1  -0.00093967  0.00185193  -0.00086088  1
  Fe  Fe10  1  0.25399283  -0.00017268  0.49729582  1
  Fe  Fe11  1  0.75098982  0.74955353  0.49816019  1
  Fe  Fe12  1  -0.00256394  0.74810463  -0.00130322  1
  Fe  Fe13  1  0.62405660  0.87643611  0.12444133  1
  Fe  Fe14  1  0.49663273  0.00070587  0.25380125  1
  Fe  Fe15  1  0.12515907  0.37685687  0.37615744  1
  Fe  Fe16  1  0.75142425  0.24975574  0.00112132  1
  Fe  Fe17  1  0.87695889  0.87402704  0.87254986  1
  Fe  Fe18  1  0.75280700  0.00111776  -0.00109439  1
  Fe  Fe19  1  0.75043766  0.74944629  -0.00074705  1
  Fe  Fe20  1  0.62525615  0.37381493  0.62361784  1
  Fe  Fe21  1  0.74941749  0.49718127  0.75119156  1
  Fe  Fe22  1  0.49802045  0.00094516  -0.00249418  1
  Fe  Fe23  1  0.25078051  -0.00210775  0.75320496  1
  Fe  Fe24  1  0.24804177  0.75273948  0.75024716  1
  Fe  Fe25  1  0.37477481  0.37470987  0.37418183  1
  Fe  Fe26  1  0.12688179  0.12522057  0.37529235  1
  Fe  Fe27  1  0.75053260  0.49554531  0.24819656  1
  Fe  Fe28  1  -0.00273063  0.50274030  0.00009348  1
  Fe  Fe29  1  0.12324380  0.87714894  0.62371918  1
  Fe  Fe30  1  0.00142996  0.00182438  0.75127825  1
  Fe  Fe31  1  0.87604588  0.37200493  0.87468439  1
  Fe  Fe32  1  0.12327731  0.62642902  0.87485638  1
  Fe  Fe33  1  0.12800833  0.87112244  0.37684558  1
  Fe  Fe34  1  0.37661219  0.87578898  0.62486495  1
  Fe  Fe35  1  0.87726351  0.37371527  0.37456055  1
  Fe  Fe36  1  0.87505940  0.87318868  0.12686963  1
  Fe  Fe37  1  0.75127073  0.00269065  0.49989414  1
  Fe  Fe38  1  0.87654163  0.12571238  0.12841014  1
  Fe  Fe39  1  0.24843781  0.50249661  0.24887286  1
  Fe  Fe40  1  0.37413509  0.12492447  0.12552138  1
  Fe  Fe41  1  0.24786165  0.25109186  0.50346249  1
  Fe  Fe42  1  0.49861777  0.74786146  0.50242460  1
  Fe  Fe43  1  0.50080751  0.25230102  0.24940846  1
  Fe  Fe44  1  0.62585067  0.62223737  0.12538036  1
  Fe  Fe45  1  0.75031918  -0.00020396  0.25055972  1
  Fe  Fe46  1  0.49989765  -0.00007203  0.75135924  1
  Fe  Fe47  1  0.25135143  0.50075404  0.50018337  1
  Fe  Fe48  1  0.62376377  0.12564647  0.37666472  1
  Fe  Fe49  1  0.37622298  0.87457118  0.12398511  1
  Fe  Fe50  1  0.74978796  0.49740429  0.49963724  1
  Fe  Fe51  1  0.12443851  0.87419267  0.12374356  1
  Fe  Fe52  1  0.87659951  0.12689580  0.37393892  1
  Fe  Fe53  1  0.24685513  0.25046999  0.24666645  1
  Fe  Fe54  1  0.00006187  0.50237224  0.49904505  1
  Fe  Fe55  1  -0.00074844  0.74779357  0.49897623  1
  Fe  Fe56  1  0.24754091  0.49537475  0.75439159  1
  Fe  Fe57  1  0.49973059  0.74875837  0.24832120  1
  Fe  Fe58  1  0.62568605  0.12699826  0.87410714  1
  Fe  Fe59  1  0.00560368  0.25051381  0.74714900  1
  Fe  Fe60  1  0.25248455  -0.00130988  0.25213632  1
  Fe  Fe61  1  0.74796546  0.25296714  0.25004868  1
  Fe  Fe62  1  0.62377697  0.87784494  0.62264030  1
  Fe  Fe63  1  0.75244499  0.49876872  0.00026451  1
  Fe  Fe64  1  0.37383344  0.37713218  0.12276131  1
  Fe  Fe65  1  0.62280646  0.87321302  0.87574266  1
  Fe  Fe66  1  0.49931307  0.49960231  -0.00219851  1
  Fe  Fe67  1  0.25055020  0.75032330  -0.00126151  1
  Fe  Fe68  1  0.74968447  0.75022650  0.25263910  1
  Fe  Fe69  1  0.37426905  0.12586069  0.62745388  1
  Fe  Fe70  1  0.62411439  0.12471171  0.12461157  1
  Fe  Fe71  1  0.50040846  0.25046462  0.50020463  1
  Fe  Fe72  1  0.75033788  0.00236043  0.75087745  1
  Fe  Fe73  1  0.00067710  0.49892934  0.75121620  1
  Fe  Fe74  1  0.37515624  0.62268319  0.62934384  1
  Fe  Fe75  1  0.25145433  0.00036620  -0.00214985  1
  Fe  Fe76  1  0.37239757  0.62784697  0.37473092  1
  Fe  Fe77  1  0.37469707  0.37666930  0.62679393  1
  Fe  Fe78  1  0.87531328  0.12608467  0.62546662  1
  Fe  Fe79  1  0.00296308  0.24848310  0.50151585  1
  Fe  Fe80  1  0.12538206  0.62317660  0.62536149  1
  Fe  Fe81  1  0.62381219  0.62213365  0.62591376  1
  Fe  Fe82  1  0.74978284  0.75068564  0.74916652  1
  Fe  Fe83  1  0.50035128  0.25314821  0.75240391  1
  Fe  Fe84  1  0.62219656  0.87645249  0.37709838  1
  Fe  Fe85  1  0.87428217  0.62450351  0.62627551  1
  Fe  Fe86  1  0.00219038  0.24694025  0.00364265  1
  Fe  Fe87  1  0.62350712  0.62524801  0.87281247  1
  Fe  Fe88  1  0.00108506  0.50268698  0.24896193  1
  Fe  Fe89  1  0.87721125  0.87560216  0.62432779  1
  Co  Co90  1  0.62262122  0.37568195  0.12293123  1
  Co  Co91  1  0.87761366  0.37336868  0.12525608  1
  Co  Co92  1  0.12388886  0.37268995  0.87989597  1
  Co  Co93  1  0.37794123  0.87166047  0.87560965  1
  Co  Co94  1  0.74982225  0.24955958  0.49878816  1
  Co  Co95  1  0.00514141  0.25049986  0.24927478  1
  Co  Co96  1  0.62324570  0.12532517  0.62589876  1
  Co  Co97  1  0.00084621  0.74916008  0.74795978  1
  Co  Co98  1  0.37243907  0.12807009  0.87214538  1
  Co  Co99  1  0.25047533  0.50321294  -0.00355765  1
  Co  Co100  1  0.62743251  0.37402078  0.87756076  1
  Co  Co101  1  0.62229171  0.37713219  0.37605590  1
  Co  Co102  1  0.50190354  0.49535561  0.75150775  1
  Co  Co103  1  0.87231877  0.62163071  0.37412232  1
  Co  Co104  1  0.25052515  0.74927764  0.50610848  1
  Co  Co105  1  0.50144681  0.75180686  0.74654763  1
  Co  Co106  1  0.50070379  0.74791362  0.00245680  1
  Co  Co107  1  0.87670096  0.12855226  0.87351962  1
  Co  Co108  1  0.12445605  0.62575107  0.12246433  1
  Co  Co109  1  0.12634452  0.12072240  0.12588365  1
  Co  Co110  1  0.87452083  0.87508307  0.37560525  1
  Co  Co111  1  0.24671193  0.25463871  0.74710319  1
  Co  Co112  1  0.12883102  0.12048135  0.62475198  1
  Co  Co113  1  0.12485877  0.37974826  0.62264760  1
  Co  Co114  1  0.37152654  0.37368386  0.87664180  1
  Co  Co115  1  0.87285199  0.62654832  0.12718710  1
  Co  Co116  1  0.12901319  0.62612429  0.37681837  1
  Co  Co117  1  0.25028305  0.24859252  0.00332815  1
  Co  Co118  1  0.74918100  0.25026130  0.74938197  1
  Co  Co119  1  0.49662092  0.49993592  0.24944699  1
  Co  Co120  1  0.49671266  0.50050846  0.50050184  1
  Co  Co121  1  0.24982652  0.74959887  0.24531034  1
  Co  Co122  1  0.49607179  0.00235710  0.49793903  1
  Co  Co123  1  0.37481721  0.86872649  0.37589790  1
  Co  Co124  1  0.87396315  0.62482212  0.87203508  1
  Co  Co125  1  0.37328403  0.13082068  0.37477256  1
  Co  Co126  1  0.12285982  0.87459718  0.87609566  1
  Co  Co127  1  -0.00012583  0.00117438  0.49749900  1
