# generated using pymatgen
data_Fe45Co19
_symmetry_space_group_name_H-M   'P 1'
_cell_length_a   11.41426935
_cell_length_b   11.41455290
_cell_length_c   11.41553022
_cell_angle_alpha   90.00436698
_cell_angle_beta   90.00423071
_cell_angle_gamma   89.99729047
_symmetry_Int_Tables_number   1
_chemical_formula_structural   Fe45Co19
_chemical_formula_sum   'Fe90 Co38'
_cell_volume   1487.31551033
_cell_formula_units_Z   2
loop_
 _symmetry_equiv_pos_site_id
 _symmetry_equiv_pos_as_xyz
  1  'x, y, z'
loop_
 _atom_site_type_symbol
 _atom_site_label
 _atom_site_symmetry_multiplicity
 _atom_site_fract_x
 _atom_site_fract_y
 _atom_site_fract_z
 _atom_site_occupancy
  Fe  Fe0  1  0.25209523  -0.00204631  0.25299661  1
  Fe  Fe1  1  0.50105089  -0.00143409  0.74929383  1
  Fe  Fe2  1  0.37642628  0.37264427  0.37659573  1
  Fe  Fe3  1  -0.00396702  -0.00046204  0.24969253  1
  Fe  Fe4  1  0.75404326  0.00164245  0.74959923  1
  Fe  Fe5  1  0.37345744  0.87585999  0.62545376  1
  Fe  Fe6  1  0.62910869  0.87644669  0.87457997  1
  Fe  Fe7  1  0.37624026  0.62646763  0.12352034  1
  Fe  Fe8  1  0.62514061  0.87277871  0.37905106  1
  Fe  Fe9  1  0.74952299  0.25080432  0.50075393  1
  Fe  Fe10  1  0.62589398  0.62551001  0.87250872  1
  Fe  Fe11  1  0.37551279  0.12240236  0.12558904  1
  Fe  Fe12  1  0.50101584  0.25172431  0.75040450  1
  Fe  Fe13  1  0.24995975  -0.00195660  -0.00204521  1
  Fe  Fe14  1  0.00022920  0.50207678  0.24918624  1
  Fe  Fe15  1  0.12470648  0.87645747  0.12608871  1
  Fe  Fe16  1  0.25034178  0.75249141  0.25080418  1
  Fe  Fe17  1  0.37639595  0.12431299  0.37796325  1
  Fe  Fe18  1  -0.00393413  0.75264463  -0.00067845  1
  Fe  Fe19  1  0.12451911  0.62630505  0.37541712  1
  Fe  Fe20  1  0.74834664  0.24674128  0.00311681  1
  Fe  Fe21  1  0.24851022  0.24850492  0.50081068  1
  Fe  Fe22  1  0.49943038  0.49661067  0.75284582  1
  Fe  Fe23  1  0.62670310  0.12352886  0.62453376  1
  Fe  Fe24  1  0.75398147  -0.00089044  0.50001099  1
  Fe  Fe25  1  0.74810157  0.74883670  0.24744224  1
  Fe  Fe26  1  -0.00038328  0.50265458  0.74986775  1
  Fe  Fe27  1  0.24407672  0.75623105  0.50160719  1
  Fe  Fe28  1  0.87424542  0.62550689  0.12475093  1
  Fe  Fe29  1  0.50108826  0.75286990  0.74709122  1
  Fe  Fe30  1  0.49972222  -0.00209109  0.50159535  1
  Fe  Fe31  1  0.24821972  0.00059071  0.74967156  1
  Fe  Fe32  1  0.50130878  0.24984922  -0.00009306  1
  Fe  Fe33  1  0.37346199  0.12631381  0.87281810  1
  Fe  Fe34  1  0.87700546  0.12747962  0.87552367  1
  Fe  Fe35  1  0.12286085  0.37517842  0.37605872  1
  Fe  Fe36  1  0.62557777  0.37702652  0.62507648  1
  Fe  Fe37  1  0.37369331  0.62671141  0.62477223  1
  Fe  Fe38  1  0.50130394  0.49776674  -0.00280385  1
  Fe  Fe39  1  0.87606544  0.12719535  0.37657371  1
  Fe  Fe40  1  0.37470346  0.37313457  0.62449033  1
  Fe  Fe41  1  0.12321170  0.12146638  0.37711500  1
  Fe  Fe42  1  0.37513250  0.37549101  0.12468178  1
  Fe  Fe43  1  0.37715786  0.63091472  0.37709677  1
  Fe  Fe44  1  -0.00027444  0.74940886  0.24871297  1
  Fe  Fe45  1  0.88061734  0.87405495  0.62791165  1
  Fe  Fe46  1  0.75017120  0.25006544  0.74911419  1
  Fe  Fe47  1  0.37566164  0.62836104  0.87381579  1
  Fe  Fe48  1  0.25045633  0.50000987  0.49857316  1
  Fe  Fe49  1  0.87558791  0.37549271  0.62475399  1
  Fe  Fe50  1  0.50297783  0.25005060  0.24977481  1
  Fe  Fe51  1  0.25136314  0.50002028  0.75088439  1
  Fe  Fe52  1  0.87345756  0.62521799  0.87338161  1
  Fe  Fe53  1  0.25117365  0.75367391  -0.00265248  1
  Fe  Fe54  1  0.62423252  0.12465914  0.37791609  1
  Fe  Fe55  1  0.12581538  0.37219252  0.87382899  1
  Fe  Fe56  1  0.24804061  0.24802166  0.00064205  1
  Fe  Fe57  1  0.74791629  0.50144791  -0.00026945  1
  Fe  Fe58  1  0.74674196  0.24730930  0.24851914  1
  Fe  Fe59  1  0.74921320  0.74681845  0.50423646  1
  Fe  Fe60  1  0.49940379  -0.00106818  -0.00189451  1
  Fe  Fe61  1  0.50133416  -0.00280605  0.25156715  1
  Fe  Fe62  1  0.37516165  0.12492056  0.62455671  1
  Fe  Fe63  1  0.50182702  0.75354451  -0.00008388  1
  Fe  Fe64  1  0.62559887  0.12431527  0.87431337  1
  Fe  Fe65  1  0.00028382  0.49960360  -0.00060502  1
  Fe  Fe66  1  0.87628867  0.86962278  0.37537858  1
  Fe  Fe67  1  0.25090628  0.50134138  0.25079306  1
  Fe  Fe68  1  0.50235115  0.50021330  0.25180326  1
  Fe  Fe69  1  0.25052306  0.50020146  -0.00121579  1
  Fe  Fe70  1  0.12353063  0.37662562  0.62397831  1
  Fe  Fe71  1  0.63145701  0.87987075  0.12203652  1
  Fe  Fe72  1  0.12135437  0.12025547  0.62130482  1
  Fe  Fe73  1  0.12615153  0.62678578  0.12318425  1
  Fe  Fe74  1  0.24882496  0.24836160  0.25102992  1
  Fe  Fe75  1  0.87469581  0.37289878  0.87595637  1
  Fe  Fe76  1  -0.00376779  -0.00076943  -0.00001503  1
  Fe  Fe77  1  0.74872847  0.50327519  0.49875923  1
  Fe  Fe78  1  0.74692026  0.50245581  0.25098052  1
  Fe  Fe79  1  0.00175664  0.24733146  0.74813522  1
  Fe  Fe80  1  0.00109726  0.24847381  0.24811105  1
  Fe  Fe81  1  0.12517312  0.37483137  0.12517891  1
  Fe  Fe82  1  0.75034498  0.74956051  0.74865497  1
  Fe  Fe83  1  -0.00207618  0.50457610  0.49994693  1
  Fe  Fe84  1  0.87474087  0.37509359  0.37439248  1
  Fe  Fe85  1  0.50228343  0.50161419  0.49825339  1
  Fe  Fe86  1  0.12043850  0.87548157  0.86921605  1
  Fe  Fe87  1  0.50143687  0.75301618  0.24716226  1
  Fe  Fe88  1  0.12600680  0.62672551  0.87437002  1
  Fe  Fe89  1  0.87431298  0.37391271  0.12473623  1
  Co  Co90  1  0.37800582  0.87211348  0.37776753  1
  Co  Co91  1  0.37391614  0.87625084  0.12451730  1
  Co  Co92  1  0.87400803  0.12324803  0.12611077  1
  Co  Co93  1  0.12482105  0.12392759  0.87659574  1
  Co  Co94  1  0.12088874  0.87745066  0.37322115  1
  Co  Co95  1  0.37569417  0.87571497  0.87183689  1
  Co  Co96  1  0.37091983  0.37078442  0.87491878  1
  Co  Co97  1  0.75469408  0.00216483  -0.00375028  1
  Co  Co98  1  0.62455318  0.11997359  0.12488734  1
  Co  Co99  1  0.87475820  0.62738108  0.37418442  1
  Co  Co100  1  0.62853579  0.87845471  0.62532124  1
  Co  Co101  1  0.75169544  0.74903960  -0.00084880  1
  Co  Co102  1  0.62422882  0.62170189  0.62862253  1
  Co  Co103  1  0.87333399  0.62434340  0.62608595  1
  Co  Co104  1  -0.00400568  0.00600528  0.75146806  1
  Co  Co105  1  0.75044572  0.00071085  0.25597866  1
  Co  Co106  1  0.12525801  0.12086435  0.12550413  1
  Co  Co107  1  0.24910414  0.75192501  0.74930555  1
  Co  Co108  1  0.62346311  0.62472462  0.12377139  1
  Co  Co109  1  0.62853311  0.37346525  0.87632745  1
  Co  Co110  1  0.25020832  -0.00298019  0.49985573  1
  Co  Co111  1  0.62609621  0.37400696  0.37568416  1
  Co  Co112  1  0.87539372  0.87378009  0.87054889  1
  Co  Co113  1  0.24651980  0.24737403  0.74547361  1
  Co  Co114  1  0.87069243  0.87671614  0.12655833  1
  Co  Co115  1  0.00058664  0.74403310  0.74836305  1
  Co  Co116  1  -0.00443189  -0.00264238  0.49856314  1
  Co  Co117  1  0.62344402  0.62967257  0.37598882  1
  Co  Co118  1  0.00041312  0.25001987  0.50048964  1
  Co  Co119  1  0.12809773  0.62364762  0.62499944  1
  Co  Co120  1  0.00288318  0.74814026  0.50195519  1
  Co  Co121  1  0.87498066  0.12636524  0.62292269  1
  Co  Co122  1  0.62547526  0.37557157  0.12432829  1
  Co  Co123  1  0.50219881  0.75160908  0.50701660  1
  Co  Co124  1  0.11885860  0.87845697  0.62971559  1
  Co  Co125  1  0.50179340  0.24972010  0.50237523  1
  Co  Co126  1  0.75129196  0.49822983  0.75063323  1
  Co  Co127  1  0.00112039  0.24867302  0.00214466  1
