# generated using pymatgen
data_Fe45Co19
_symmetry_space_group_name_H-M   'P 1'
_cell_length_a   11.41610220
_cell_length_b   11.41448620
_cell_length_c   11.41459268
_cell_angle_alpha   90.00826210
_cell_angle_beta   90.00768221
_cell_angle_gamma   90.00467615
_symmetry_Int_Tables_number   1
_chemical_formula_structural   Fe45Co19
_chemical_formula_sum   'Fe90 Co38'
_cell_volume   1487.42345009
_cell_formula_units_Z   2
loop_
 _symmetry_equiv_pos_site_id
 _symmetry_equiv_pos_as_xyz
  1  'x, y, z'
loop_
 _atom_site_type_symbol
 _atom_site_label
 _atom_site_symmetry_multiplicity
 _atom_site_fract_x
 _atom_site_fract_y
 _atom_site_fract_z
 _atom_site_occupancy
  Fe  Fe0  1  0.37689046  0.12371227  0.62440856  1
  Fe  Fe1  1  0.49666640  0.75012457  0.49920782  1
  Fe  Fe2  1  0.37182778  0.87551412  0.87182743  1
  Fe  Fe3  1  0.50122546  0.50352204  0.25340606  1
  Fe  Fe4  1  0.75203957  0.25192441  0.00504487  1
  Fe  Fe5  1  0.37526631  0.62476553  0.12467214  1
  Fe  Fe6  1  0.12220594  0.87775715  0.62612228  1
  Fe  Fe7  1  0.50026466  0.74810880  0.24955866  1
  Fe  Fe8  1  0.12111700  0.62223520  0.12263496  1
  Fe  Fe9  1  0.87437641  0.37682970  0.62359627  1
  Fe  Fe10  1  0.62437054  0.12241793  0.62402655  1
  Fe  Fe11  1  0.00016778  -0.00101385  -0.00256142  1
  Fe  Fe12  1  0.88000639  0.12587048  0.12524816  1
  Fe  Fe13  1  0.62437235  0.62432330  0.87538631  1
  Fe  Fe14  1  0.37405371  0.87538874  0.12667655  1
  Fe  Fe15  1  0.74957907  0.25144767  0.49820187  1
  Fe  Fe16  1  0.49985715  0.49859685  0.49826563  1
  Fe  Fe17  1  0.24840784  0.50045984  0.24901597  1
  Fe  Fe18  1  0.62708110  0.87423340  0.87369401  1
  Fe  Fe19  1  0.62653506  0.12548115  0.87531434  1
  Fe  Fe20  1  0.50086422  -0.00219221  0.00009129  1
  Fe  Fe21  1  0.87798194  0.12309292  0.62373629  1
  Fe  Fe22  1  -0.00203740  0.25428326  0.75231596  1
  Fe  Fe23  1  0.00072955  0.25292090  0.49761411  1
  Fe  Fe24  1  -0.00089475  0.49434941  -0.00471663  1
  Fe  Fe25  1  0.62789586  0.37515747  0.87379281  1
  Fe  Fe26  1  0.12559550  0.87197105  0.37622823  1
  Fe  Fe27  1  0.87398369  0.12693961  0.87606482  1
  Fe  Fe28  1  0.12381237  0.87527292  0.12426709  1
  Fe  Fe29  1  0.12046087  0.12240425  0.62456858  1
  Fe  Fe30  1  0.75128510  0.75314362  0.50415419  1
  Fe  Fe31  1  0.50133584  0.25180112  0.74786764  1
  Fe  Fe32  1  0.24880141  0.00065746  0.49894747  1
  Fe  Fe33  1  0.24773228  0.74934682  0.00033626  1
  Fe  Fe34  1  0.37252767  0.37340550  0.87391125  1
  Fe  Fe35  1  0.75065446  0.74338410  0.24577552  1
  Fe  Fe36  1  0.24770958  0.25325980  0.00453867  1
  Fe  Fe37  1  0.62403802  0.12207482  0.12566493  1
  Fe  Fe38  1  0.24717694  0.24978088  0.24839873  1
  Fe  Fe39  1  0.00112994  -0.00040560  0.25285017  1
  Fe  Fe40  1  0.12478731  0.37837189  0.62654734  1
  Fe  Fe41  1  0.24958687  0.24974726  0.74722554  1
  Fe  Fe42  1  0.87657271  0.87064190  0.37542642  1
  Fe  Fe43  1  0.74975982  0.49717528  0.49372411  1
  Fe  Fe44  1  0.24813683  -0.00006879  -0.00128553  1
  Fe  Fe45  1  0.37322604  0.37422572  0.37449312  1
  Fe  Fe46  1  0.50192033  0.25270845  0.50013124  1
  Fe  Fe47  1  0.49907888  0.24769796  0.25021675  1
  Fe  Fe48  1  0.37547717  0.12569277  0.87483348  1
  Fe  Fe49  1  0.25257137  0.50103512  0.50104291  1
  Fe  Fe50  1  0.49899484  -0.00144875  0.49635656  1
  Fe  Fe51  1  -0.00123841  0.50045559  0.49526164  1
  Fe  Fe52  1  0.75032301  0.25057549  0.74761328  1
  Fe  Fe53  1  0.62637775  0.87292239  0.37272043  1
  Fe  Fe54  1  0.37153096  0.87227972  0.37256341  1
  Fe  Fe55  1  0.12965709  0.62790001  0.37759958  1
  Fe  Fe56  1  0.37375444  0.62496392  0.62618631  1
  Fe  Fe57  1  0.12573533  0.62255163  0.87355489  1
  Fe  Fe58  1  0.87685878  0.87236650  0.12447950  1
  Fe  Fe59  1  0.75048259  -0.00079350  0.00279230  1
  Fe  Fe60  1  0.12344212  0.12830005  0.87717939  1
  Fe  Fe61  1  0.50040190  0.75195425  0.00130338  1
  Fe  Fe62  1  0.37424502  0.12301463  0.12520459  1
  Fe  Fe63  1  0.12553933  0.62285737  0.62599712  1
  Fe  Fe64  1  0.87448254  0.87262676  0.87411130  1
  Fe  Fe65  1  0.49884254  0.49687509  0.74827268  1
  Fe  Fe66  1  0.62509306  0.62484925  0.62304467  1
  Fe  Fe67  1  0.87741293  0.37871859  0.13274434  1
  Fe  Fe68  1  0.75305264  -0.00251094  0.50051640  1
  Fe  Fe69  1  0.24838341  0.24918653  0.50054714  1
  Fe  Fe70  1  0.74952527  0.74741322  0.00307760  1
  Fe  Fe71  1  0.49860791  0.49723903  0.00026744  1
  Fe  Fe72  1  0.62516033  0.12429235  0.37441135  1
  Fe  Fe73  1  0.50112255  0.75079351  0.74910438  1
  Fe  Fe74  1  0.00077454  0.74566375  0.25011747  1
  Fe  Fe75  1  0.75148360  0.00074504  0.24993903  1
  Fe  Fe76  1  0.75067583  0.49975448  0.00266848  1
  Fe  Fe77  1  0.50060844  0.25215826  0.00209746  1
  Fe  Fe78  1  0.62593918  0.37754746  0.13025824  1
  Fe  Fe79  1  0.25092339  0.49831977  -0.00002352  1
  Fe  Fe80  1  0.75151914  0.50197801  0.74962480  1
  Fe  Fe81  1  0.24823147  0.00223002  0.25127300  1
  Fe  Fe82  1  0.87727114  0.12702520  0.37532079  1
  Fe  Fe83  1  0.00533275  0.25071755  0.25123259  1
  Fe  Fe84  1  0.87557883  0.62560509  0.62284884  1
  Fe  Fe85  1  0.75080248  -0.00276603  0.74661015  1
  Fe  Fe86  1  0.37397945  0.87786876  0.62857091  1
  Fe  Fe87  1  0.87520751  0.62607291  0.87619689  1
  Fe  Fe88  1  0.37452192  0.62605338  0.87381439  1
  Fe  Fe89  1  0.00103298  0.74893100  0.75032015  1
  Co  Co90  1  0.00068305  0.50465716  0.25861232  1
  Co  Co91  1  0.00190530  0.75110647  -0.00147306  1
  Co  Co92  1  0.87298617  0.62968190  0.37895266  1
  Co  Co93  1  0.88056592  0.62132181  0.12255831  1
  Co  Co94  1  0.50138750  0.00056980  0.75214080  1
  Co  Co95  1  0.37325923  0.12738441  0.37576114  1
  Co  Co96  1  0.75013916  0.50673927  0.25268507  1
  Co  Co97  1  -0.00198603  0.25497916  -0.00052927  1
  Co  Co98  1  0.62556585  0.37353687  0.37054471  1
  Co  Co99  1  0.37134759  0.62583223  0.37422390  1
  Co  Co100  1  0.00284548  0.74826548  0.50101898  1
  Co  Co101  1  0.62209669  0.87527777  0.62355034  1
  Co  Co102  1  0.62838554  0.37693264  0.62532390  1
  Co  Co103  1  0.37544580  0.37630163  0.12833065  1
  Co  Co104  1  0.12478876  0.12510354  0.37642576  1
  Co  Co105  1  -0.00102440  0.00085494  0.75491160  1
  Co  Co106  1  -0.00296562  0.49904588  0.75094751  1
  Co  Co107  1  0.62205700  0.62355519  0.12228514  1
  Co  Co108  1  0.87408844  0.37236211  0.37003951  1
  Co  Co109  1  0.25287832  0.50004167  0.74970836  1
  Co  Co110  1  0.75008749  0.74954627  0.74786704  1
  Co  Co111  1  0.25110904  0.75129365  0.50436122  1
  Co  Co112  1  0.49895978  -0.00020741  0.25187109  1
  Co  Co113  1  0.12673757  0.87478712  0.87393032  1
  Co  Co114  1  -0.00120933  -0.00117652  0.49573047  1
  Co  Co115  1  0.12816255  0.37646046  0.37647098  1
  Co  Co116  1  0.12880009  0.37450229  0.87264843  1
  Co  Co117  1  0.62590330  0.62889125  0.37953663  1
  Co  Co118  1  0.12278450  0.12346351  0.12309501  1
  Co  Co119  1  0.37291515  0.37414061  0.62314812  1
  Co  Co120  1  0.62590426  0.87454188  0.12753336  1
  Co  Co121  1  0.74972321  0.24609189  0.24847542  1
  Co  Co122  1  0.24775663  0.74781483  0.24570166  1
  Co  Co123  1  0.88098121  0.87516643  0.62560873  1
  Co  Co124  1  0.24804312  0.00391957  0.75040816  1
  Co  Co125  1  0.12088182  0.37849043  0.12624351  1
  Co  Co126  1  0.24798475  0.74937149  0.74887680  1
  Co  Co127  1  0.87014313  0.37448995  0.87418557  1
