# generated using pymatgen
data_Fe45Co19
_symmetry_space_group_name_H-M   'P 1'
_cell_length_a   11.41422143
_cell_length_b   11.41506226
_cell_length_c   11.41559510
_cell_angle_alpha   90.00108398
_cell_angle_beta   89.99840993
_cell_angle_gamma   90.00700941
_symmetry_Int_Tables_number   1
_chemical_formula_structural   Fe45Co19
_chemical_formula_sum   'Fe90 Co38'
_cell_volume   1487.38408663
_cell_formula_units_Z   2
loop_
 _symmetry_equiv_pos_site_id
 _symmetry_equiv_pos_as_xyz
  1  'x, y, z'
loop_
 _atom_site_type_symbol
 _atom_site_label
 _atom_site_symmetry_multiplicity
 _atom_site_fract_x
 _atom_site_fract_y
 _atom_site_fract_z
 _atom_site_occupancy
  Fe  Fe0  1  0.12674134  0.37354911  0.12361649  1
  Fe  Fe1  1  0.62230341  0.62655116  0.37572505  1
  Fe  Fe2  1  0.75030786  0.75181314  0.75221369  1
  Fe  Fe3  1  0.50209379  0.50042420  -0.00051075  1
  Fe  Fe4  1  0.37650871  0.12415255  0.37411839  1
  Fe  Fe5  1  0.24885182  0.50157400  0.25041952  1
  Fe  Fe6  1  -0.00371530  0.24959098  0.75068915  1
  Fe  Fe7  1  0.87308635  0.37605852  0.37605016  1
  Fe  Fe8  1  0.62523195  0.12426699  0.12310165  1
  Fe  Fe9  1  0.50130217  -0.00175508  0.24858200  1
  Fe  Fe10  1  0.49954093  0.75182806  0.24852002  1
  Fe  Fe11  1  0.25075887  0.49835743  0.75014542  1
  Fe  Fe12  1  -0.00192892  -0.00056451  0.49900198  1
  Fe  Fe13  1  0.49746625  0.75313897  0.50417179  1
  Fe  Fe14  1  0.62340393  0.62591755  0.62550586  1
  Fe  Fe15  1  -0.00198493  0.50076511  0.00059888  1
  Fe  Fe16  1  0.74956885  0.24875647  -0.00295707  1
  Fe  Fe17  1  0.12380280  0.87378796  0.87580667  1
  Fe  Fe18  1  0.12392183  0.62723747  0.12305482  1
  Fe  Fe19  1  0.37089569  0.87445584  0.37570921  1
  Fe  Fe20  1  0.62339460  0.62888465  0.87709669  1
  Fe  Fe21  1  0.62530815  0.37436985  0.12266941  1
  Fe  Fe22  1  0.37523528  0.62430123  0.12474005  1
  Fe  Fe23  1  0.37897713  0.88242401  0.87234061  1
  Fe  Fe24  1  0.74867342  -0.00146328  0.25128713  1
  Fe  Fe25  1  0.50091371  0.49968269  0.50205484  1
  Fe  Fe26  1  0.12581851  0.37226296  0.37679247  1
  Fe  Fe27  1  -0.00059668  -0.00137510  -0.00058719  1
  Fe  Fe28  1  0.74917653  0.50326653  0.24893441  1
  Fe  Fe29  1  0.00138917  0.75341644  0.25223420  1
  Fe  Fe30  1  0.12602130  0.87522018  0.62393847  1
  Fe  Fe31  1  0.87381625  0.62257801  0.87492614  1
  Fe  Fe32  1  0.00145749  0.00134023  0.75008263  1
  Fe  Fe33  1  0.87212490  0.37481286  0.87527305  1
  Fe  Fe34  1  0.50221184  0.50059258  0.24856967  1
  Fe  Fe35  1  0.25080610  0.24724548  0.25049726  1
  Fe  Fe36  1  0.62608476  0.87448829  0.37660665  1
  Fe  Fe37  1  -0.00179341  0.74987255  0.74903068  1
  Fe  Fe38  1  0.37911910  0.37456405  0.87409503  1
  Fe  Fe39  1  -0.00408434  0.75096483  -0.00179008  1
  Fe  Fe40  1  -0.00125305  0.24849647  0.00007298  1
  Fe  Fe41  1  0.74470683  0.00307249  0.75292452  1
  Fe  Fe42  1  0.12550025  0.12807451  0.62614468  1
  Fe  Fe43  1  0.50638080  0.24807211  0.75163320  1
  Fe  Fe44  1  0.12391145  0.37495778  0.87528306  1
  Fe  Fe45  1  0.49940654  0.24867048  0.50094440  1
  Fe  Fe46  1  0.12571839  0.62430472  0.62572935  1
  Fe  Fe47  1  0.25210970  0.75272335  0.74793565  1
  Fe  Fe48  1  0.24955176  0.00271872  0.50037093  1
  Fe  Fe49  1  0.25262871  0.75253296  -0.00032872  1
  Fe  Fe50  1  0.12497869  0.37238279  0.62412173  1
  Fe  Fe51  1  0.12302553  0.12582754  0.37388967  1
  Fe  Fe52  1  0.37554701  0.37461950  0.37377713  1
  Fe  Fe53  1  0.87456775  0.12405359  0.12528697  1
  Fe  Fe54  1  0.75106920  0.74820942  0.49931082  1
  Fe  Fe55  1  0.74480993  0.49783802  0.75031399  1
  Fe  Fe56  1  0.37242254  0.87833842  0.12579821  1
  Fe  Fe57  1  0.87691650  0.62410506  0.37469502  1
  Fe  Fe58  1  0.12498327  0.12597161  0.87416874  1
  Fe  Fe59  1  0.37480303  0.37549132  0.12533297  1
  Fe  Fe60  1  -0.00070672  0.49857047  0.74868255  1
  Fe  Fe61  1  0.25354950  0.24670891  -0.00398416  1
  Fe  Fe62  1  0.86917484  0.37409052  0.62326771  1
  Fe  Fe63  1  0.62614750  0.37402373  0.37781403  1
  Fe  Fe64  1  0.00100399  -0.00384761  0.25155051  1
  Fe  Fe65  1  0.75022783  0.24837291  0.25165278  1
  Fe  Fe66  1  0.87410454  0.37474080  0.12473589  1
  Fe  Fe67  1  0.62363435  0.12485044  0.37583438  1
  Fe  Fe68  1  0.49812731  0.75427245  0.74561067  1
  Fe  Fe69  1  0.37373064  0.12367389  0.63043232  1
  Fe  Fe70  1  0.75199014  0.00384736  0.49880479  1
  Fe  Fe71  1  0.87483952  0.62263462  0.62507850  1
  Fe  Fe72  1  -0.00494712  0.24824275  0.49932870  1
  Fe  Fe73  1  0.25109865  0.49962307  0.50180667  1
  Fe  Fe74  1  0.74790964  -0.00558017  -0.00263474  1
  Fe  Fe75  1  0.62791515  0.63150598  0.12099246  1
  Fe  Fe76  1  0.50106444  -0.00134070  0.50379399  1
  Fe  Fe77  1  -0.00098668  0.75180539  0.50043782  1
  Fe  Fe78  1  0.50094735  0.24968991  0.24828129  1
  Fe  Fe79  1  0.12469065  0.12372704  0.12559813  1
  Fe  Fe80  1  0.25044061  0.50047196  -0.00222800  1
  Fe  Fe81  1  0.12527025  0.62575396  0.87377832  1
  Fe  Fe82  1  0.12635650  0.62727079  0.37726006  1
  Fe  Fe83  1  0.00078057  0.49877517  0.24941479  1
  Fe  Fe84  1  0.37734136  0.62526844  0.87279951  1
  Fe  Fe85  1  0.87234355  0.87790570  0.62663124  1
  Fe  Fe86  1  0.37742138  0.37424434  0.62769825  1
  Fe  Fe87  1  0.87243929  0.87221623  0.12743051  1
  Fe  Fe88  1  0.37549695  0.12254079  0.12339758  1
  Fe  Fe89  1  0.37441668  0.62687171  0.37567568  1
  Co  Co90  1  0.49774156  0.24906560  0.00094188  1
  Co  Co91  1  0.62757467  0.87113842  0.12617135  1
  Co  Co92  1  0.50262482  -0.00250952  0.00387557  1
  Co  Co93  1  0.62498871  0.37406200  0.87838651  1
  Co  Co94  1  0.38020330  0.11942370  0.87114787  1
  Co  Co95  1  0.13007076  0.87431901  0.37714046  1
  Co  Co96  1  0.87682399  0.87833848  0.87030644  1
  Co  Co97  1  0.74890303  0.74825361  0.25379895  1
  Co  Co98  1  0.25262083  0.24817786  0.50050422  1
  Co  Co99  1  0.24989815  0.75002961  0.24670171  1
  Co  Co100  1  0.87711634  0.12378477  0.37036631  1
  Co  Co101  1  0.62724327  0.37221252  0.62138617  1
  Co  Co102  1  0.87395176  0.12323444  0.62902464  1
  Co  Co103  1  0.50772401  -0.00007140  0.74359374  1
  Co  Co104  1  0.49632401  0.75394648  0.00167097  1
  Co  Co105  1  0.25077519  0.25075483  0.75329797  1
  Co  Co106  1  0.50465481  0.49956422  0.75042545  1
  Co  Co107  1  0.75391839  0.75461868  -0.00513176  1
  Co  Co108  1  0.25167662  0.74933455  0.50476213  1
  Co  Co109  1  0.62694288  0.12725229  0.62152925  1
  Co  Co110  1  -0.00070602  0.25166065  0.24931549  1
  Co  Co111  1  0.00060576  0.49920824  0.50077647  1
  Co  Co112  1  0.87470263  0.12342643  0.87576962  1
  Co  Co113  1  0.24919054  0.00129700  0.25110609  1
  Co  Co114  1  0.12568188  0.87516711  0.12285967  1
  Co  Co115  1  0.24570068  -0.00079615  0.75176271  1
  Co  Co116  1  0.87184819  0.87518485  0.37636516  1
  Co  Co117  1  0.74779907  0.50389488  0.49972009  1
  Co  Co118  1  0.61978165  0.87284101  0.87417628  1
  Co  Co119  1  0.75320419  0.24502285  0.49708750  1
  Co  Co120  1  0.74985806  0.50184623  0.00108422  1
  Co  Co121  1  0.74679479  0.24737887  0.75302510  1
  Co  Co122  1  0.37594868  0.62208638  0.62640925  1
  Co  Co123  1  0.63082904  0.87449078  0.62319377  1
  Co  Co124  1  0.87502610  0.62847422  0.12600979  1
  Co  Co125  1  0.37201853  0.88074841  0.62545285  1
  Co  Co126  1  0.62100208  0.12333354  0.88042605  1
  Co  Co127  1  0.24911831  0.00105791  -0.00314255  1
