# generated using pymatgen
data_Fe45Co19
_symmetry_space_group_name_H-M   'P 1'
_cell_length_a   11.41607633
_cell_length_b   11.41480265
_cell_length_c   11.41562651
_cell_angle_alpha   90.01438654
_cell_angle_beta   89.98888071
_cell_angle_gamma   90.00413014
_symmetry_Int_Tables_number   1
_chemical_formula_structural   Fe45Co19
_chemical_formula_sum   'Fe90 Co38'
_cell_volume   1487.59599141
_cell_formula_units_Z   2
loop_
 _symmetry_equiv_pos_site_id
 _symmetry_equiv_pos_as_xyz
  1  'x, y, z'
loop_
 _atom_site_type_symbol
 _atom_site_label
 _atom_site_symmetry_multiplicity
 _atom_site_fract_x
 _atom_site_fract_y
 _atom_site_fract_z
 _atom_site_occupancy
  Fe  Fe0  1  0.49957540  0.24919883  0.50103786  1
  Fe  Fe1  1  -0.00231130  0.25176761  0.75287998  1
  Fe  Fe2  1  0.62579733  0.62485489  0.12736382  1
  Fe  Fe3  1  0.75169735  0.25155419  0.75037518  1
  Fe  Fe4  1  0.24921815  -0.00178651  0.50086677  1
  Fe  Fe5  1  0.74812492  0.75002147  0.50280961  1
  Fe  Fe6  1  0.75048469  -0.00222905  0.00014514  1
  Fe  Fe7  1  0.24942190  0.50100313  0.25000299  1
  Fe  Fe8  1  0.24807529  0.50091955  0.49864731  1
  Fe  Fe9  1  -0.00314273  -0.00182556  0.75373075  1
  Fe  Fe10  1  0.62451905  0.62634664  0.87237719  1
  Fe  Fe11  1  0.50160818  0.50224742  0.49860795  1
  Fe  Fe12  1  0.62175608  0.87574593  0.62296986  1
  Fe  Fe13  1  0.12558901  0.12500488  0.87508397  1
  Fe  Fe14  1  0.62555481  0.87621740  0.37537380  1
  Fe  Fe15  1  0.62469981  0.12368383  0.12321114  1
  Fe  Fe16  1  -0.00205898  0.74990782  0.74975992  1
  Fe  Fe17  1  0.24969115  0.24954357  0.24786154  1
  Fe  Fe18  1  0.49887937  -0.00030344  0.75205184  1
  Fe  Fe19  1  0.12547643  0.12570725  0.37487075  1
  Fe  Fe20  1  0.87724049  0.12140412  0.62358945  1
  Fe  Fe21  1  0.87552719  0.62266158  0.87357747  1
  Fe  Fe22  1  0.37615411  0.87651943  0.12175429  1
  Fe  Fe23  1  0.12452016  0.62618486  0.87427273  1
  Fe  Fe24  1  0.62398811  0.12420572  0.62603649  1
  Fe  Fe25  1  0.87376903  0.37500552  0.37618594  1
  Fe  Fe26  1  -0.00097386  0.25048674  0.25046012  1
  Fe  Fe27  1  0.62210363  0.37277157  0.87412070  1
  Fe  Fe28  1  0.24735366  0.50162098  -0.00100071  1
  Fe  Fe29  1  0.62623529  0.12472784  0.37538542  1
  Fe  Fe30  1  0.37639179  0.37712617  0.12464713  1
  Fe  Fe31  1  0.87442118  0.62354917  0.62552237  1
  Fe  Fe32  1  0.49840487  0.50007056  0.74978661  1
  Fe  Fe33  1  0.50139172  0.50059043  -0.00051892  1
  Fe  Fe34  1  0.12778396  0.86990574  0.37113680  1
  Fe  Fe35  1  0.62688143  0.62581276  0.37322554  1
  Fe  Fe36  1  0.37493409  0.62737719  0.62409454  1
  Fe  Fe37  1  0.37652979  0.37436761  0.37417006  1
  Fe  Fe38  1  -0.00367518  0.74938824  0.00371626  1
  Fe  Fe39  1  0.75134065  0.24739230  0.50040952  1
  Fe  Fe40  1  0.25075311  0.24962627  0.50021836  1
  Fe  Fe41  1  0.12404183  0.12464028  0.62619286  1
  Fe  Fe42  1  0.62695261  0.87346048  0.87576803  1
  Fe  Fe43  1  0.37704455  0.12239419  0.12283355  1
  Fe  Fe44  1  0.50310406  0.25290669  0.24705545  1
  Fe  Fe45  1  0.25105202  0.49921544  0.75226690  1
  Fe  Fe46  1  -0.00214927  0.25019744  -0.00328616  1
  Fe  Fe47  1  0.87171981  0.87995396  0.37780932  1
  Fe  Fe48  1  0.25449788  0.25182733  0.75165508  1
  Fe  Fe49  1  0.37543386  0.12557193  0.37322434  1
  Fe  Fe50  1  0.49875382  0.75014677  0.74965560  1
  Fe  Fe51  1  0.75434868  0.75117463  0.24730796  1
  Fe  Fe52  1  0.00064486  -0.00140064  0.25097080  1
  Fe  Fe53  1  0.37681302  0.62375381  0.12420612  1
  Fe  Fe54  1  -0.00057016  0.24875780  0.49926743  1
  Fe  Fe55  1  0.75072579  0.75053761  0.74748978  1
  Fe  Fe56  1  0.25089996  0.75175845  0.74899041  1
  Fe  Fe57  1  0.12224525  0.87499613  0.62487046  1
  Fe  Fe58  1  0.74756408  0.50067893  0.50175751  1
  Fe  Fe59  1  0.24964388  -0.00156371  0.24728701  1
  Fe  Fe60  1  0.75206671  0.74895480  0.00267003  1
  Fe  Fe61  1  0.87569611  0.37801209  0.62684979  1
  Fe  Fe62  1  -0.00026020  0.74834991  0.49629275  1
  Fe  Fe63  1  0.37496333  0.87339779  0.37792455  1
  Fe  Fe64  1  0.74857240  0.50073705  -0.00258208  1
  Fe  Fe65  1  0.12536319  0.37455514  0.62623516  1
  Fe  Fe66  1  0.25121646  -0.00189303  0.75184650  1
  Fe  Fe67  1  0.50212867  0.74996185  0.00028621  1
  Fe  Fe68  1  0.49900870  0.74987262  0.24984959  1
  Fe  Fe69  1  0.62382347  0.12651657  0.87518473  1
  Fe  Fe70  1  0.12291733  0.87447835  0.87871435  1
  Fe  Fe71  1  0.50217398  -0.00180247  0.24915884  1
  Fe  Fe72  1  0.37476926  0.12318864  0.62537751  1
  Fe  Fe73  1  0.24835957  0.74954662  0.00315820  1
  Fe  Fe74  1  0.62365954  0.37503765  0.62530504  1
  Fe  Fe75  1  0.74986997  0.25045714  0.24979217  1
  Fe  Fe76  1  0.75045238  0.25217844  -0.00053896  1
  Fe  Fe77  1  0.75256618  -0.00297101  0.74860672  1
  Fe  Fe78  1  0.74942806  0.49770930  0.25020967  1
  Fe  Fe79  1  0.00205471  0.50269927  0.49680177  1
  Fe  Fe80  1  0.25290220  0.24905061  -0.00120386  1
  Fe  Fe81  1  0.37237071  0.62751961  0.37575353  1
  Fe  Fe82  1  0.87529448  0.12245431  0.12552610  1
  Fe  Fe83  1  0.12397191  0.12265971  0.12295729  1
  Fe  Fe84  1  0.87639332  0.37873568  0.12278154  1
  Fe  Fe85  1  0.11980947  0.62754660  0.13220480  1
  Fe  Fe86  1  0.12326026  0.37547493  0.12442526  1
  Fe  Fe87  1  0.12552682  0.37434995  0.37383694  1
  Fe  Fe88  1  0.37454314  0.87430803  0.87752587  1
  Fe  Fe89  1  0.12531788  0.62573010  0.62523006  1
  Co  Co90  1  0.50313728  -0.00224914  -0.00114702  1
  Co  Co91  1  0.87747248  0.87471010  0.62179347  1
  Co  Co92  1  0.62411698  0.62500240  0.62760457  1
  Co  Co93  1  0.00365817  0.50136802  -0.00185706  1
  Co  Co94  1  0.50063111  0.50101482  0.25200830  1
  Co  Co95  1  0.24892307  0.00028406  -0.00037578  1
  Co  Co96  1  0.00262826  0.50001135  0.75099714  1
  Co  Co97  1  0.37716215  0.37543105  0.87756767  1
  Co  Co98  1  0.87003018  0.62305431  0.37629416  1
  Co  Co99  1  0.50245405  0.74801270  0.49911091  1
  Co  Co100  1  0.87387212  0.87204044  0.87664303  1
  Co  Co101  1  0.74812540  0.00184068  0.50307624  1
  Co  Co102  1  -0.00038907  0.49975982  0.25479100  1
  Co  Co103  1  0.49781342  0.24993569  0.74786285  1
  Co  Co104  1  0.12839573  0.62984243  0.37057210  1
  Co  Co105  1  -0.00131371  0.00121043  -0.00240526  1
  Co  Co106  1  0.87573509  0.61925432  0.12579332  1
  Co  Co107  1  0.00425035  -0.00107278  0.49737258  1
  Co  Co108  1  0.62604821  0.87278827  0.12544822  1
  Co  Co109  1  0.24829757  0.75181067  0.50368341  1
  Co  Co110  1  0.49952223  0.00177399  0.49851072  1
  Co  Co111  1  0.37817924  0.12481220  0.87661598  1
  Co  Co112  1  0.37791776  0.87486045  0.62377212  1
  Co  Co113  1  -0.00829881  0.75097795  0.25307669  1
  Co  Co114  1  0.87126433  0.12404254  0.87491994  1
  Co  Co115  1  0.37438505  0.62662833  0.87563838  1
  Co  Co116  1  0.12618612  0.37311454  0.87484190  1
  Co  Co117  1  0.87556485  0.87901172  0.12466216  1
  Co  Co118  1  0.62572107  0.37836300  0.12421156  1
  Co  Co119  1  0.62535525  0.37408249  0.37655847  1
  Co  Co120  1  0.12182712  0.87371053  0.12536778  1
  Co  Co121  1  0.87510582  0.12259859  0.37463955  1
  Co  Co122  1  0.37505083  0.37659690  0.62259865  1
  Co  Co123  1  0.74805963  0.49940518  0.75125554  1
  Co  Co124  1  0.25493460  0.75071710  0.24480955  1
  Co  Co125  1  0.74758673  0.00128588  0.24858441  1
  Co  Co126  1  0.87577819  0.37909841  0.87539226  1
  Co  Co127  1  0.50009346  0.25067214  0.00339047  1
