# generated using pymatgen
data_Fe45Co19
_symmetry_space_group_name_H-M   'P 1'
_cell_length_a   11.41537255
_cell_length_b   11.41351025
_cell_length_c   11.41489021
_cell_angle_alpha   90.00704740
_cell_angle_beta   90.00539733
_cell_angle_gamma   89.99239586
_symmetry_Int_Tables_number   1
_chemical_formula_structural   Fe45Co19
_chemical_formula_sum   'Fe90 Co38'
_cell_volume   1487.23998324
_cell_formula_units_Z   2
loop_
 _symmetry_equiv_pos_site_id
 _symmetry_equiv_pos_as_xyz
  1  'x, y, z'
loop_
 _atom_site_type_symbol
 _atom_site_label
 _atom_site_symmetry_multiplicity
 _atom_site_fract_x
 _atom_site_fract_y
 _atom_site_fract_z
 _atom_site_occupancy
  Fe  Fe0  1  0.37354615  0.12616910  0.62633657  1
  Fe  Fe1  1  0.24713779  -0.00188266  0.50247283  1
  Fe  Fe2  1  0.50017245  0.50149647  -0.00272824  1
  Fe  Fe3  1  0.62330452  0.62473610  0.37335098  1
  Fe  Fe4  1  0.37327020  0.62669859  0.87855396  1
  Fe  Fe5  1  0.49823799  0.49838434  0.75474824  1
  Fe  Fe6  1  0.12627357  0.12568609  0.37401643  1
  Fe  Fe7  1  0.24986439  0.25313028  0.50283038  1
  Fe  Fe8  1  0.00078438  0.74963735  0.75132531  1
  Fe  Fe9  1  0.37669223  0.62192569  0.62490239  1
  Fe  Fe10  1  0.75297807  0.50048131  0.24758692  1
  Fe  Fe11  1  0.62182755  0.87963753  0.12495347  1
  Fe  Fe12  1  0.74903889  0.24969348  0.50134504  1
  Fe  Fe13  1  0.24976780  0.25073135  0.24651006  1
  Fe  Fe14  1  0.24949700  -0.00117013  0.75156733  1
  Fe  Fe15  1  0.00100124  0.74968302  0.24557655  1
  Fe  Fe16  1  0.49926427  -0.00073643  0.75394311  1
  Fe  Fe17  1  0.00214624  0.00316081  -0.00297572  1
  Fe  Fe18  1  0.87246878  0.13197192  0.87759506  1
  Fe  Fe19  1  0.75372671  0.49628539  0.75256258  1
  Fe  Fe20  1  -0.00063850  0.25505756  0.75115999  1
  Fe  Fe21  1  0.12552931  0.87364524  0.87699548  1
  Fe  Fe22  1  0.25265176  0.49396578  0.75502165  1
  Fe  Fe23  1  0.87544774  0.62502990  0.62614121  1
  Fe  Fe24  1  0.62775216  0.37189198  0.87637171  1
  Fe  Fe25  1  0.00095966  0.25185896  0.24718417  1
  Fe  Fe26  1  0.74890898  0.75012795  0.50128196  1
  Fe  Fe27  1  0.12483418  0.12177000  0.12541676  1
  Fe  Fe28  1  0.37464947  0.12292197  0.12258510  1
  Fe  Fe29  1  0.12570188  0.12665055  0.62939299  1
  Fe  Fe30  1  0.62551434  0.12277965  0.36950748  1
  Fe  Fe31  1  0.37209796  0.12535642  0.37595708  1
  Fe  Fe32  1  0.75123844  0.00023605  0.74952768  1
  Fe  Fe33  1  -0.00001334  -0.00074211  0.25060871  1
  Fe  Fe34  1  0.62582870  0.87602894  0.87641333  1
  Fe  Fe35  1  0.62238536  0.62401507  0.12526973  1
  Fe  Fe36  1  0.87436519  0.87271705  0.87838498  1
  Fe  Fe37  1  0.62345060  0.37633298  0.62489333  1
  Fe  Fe38  1  0.24390084  0.25112517  -0.00177568  1
  Fe  Fe39  1  0.87357205  0.37355917  0.37512902  1
  Fe  Fe40  1  0.12674095  0.87086331  0.37513916  1
  Fe  Fe41  1  0.12778446  0.37536192  0.37209575  1
  Fe  Fe42  1  0.12832790  0.62833660  0.37169342  1
  Fe  Fe43  1  0.87978468  0.37631148  0.11994099  1
  Fe  Fe44  1  -0.00096397  -0.00047610  0.75297503  1
  Fe  Fe45  1  0.50481968  0.24547543  0.00091817  1
  Fe  Fe46  1  0.87514101  0.12503172  0.37364539  1
  Fe  Fe47  1  0.62354545  0.62264876  0.62728518  1
  Fe  Fe48  1  0.62328052  0.37661032  0.12537303  1
  Fe  Fe49  1  0.25413875  0.50228011  0.24774311  1
  Fe  Fe50  1  0.87488807  0.62739467  0.37304686  1
  Fe  Fe51  1  0.37622293  0.87617696  0.62504502  1
  Fe  Fe52  1  0.62478469  0.87594537  0.37275417  1
  Fe  Fe53  1  0.87674082  0.87348751  0.62455432  1
  Fe  Fe54  1  0.37074231  0.87032711  0.37674487  1
  Fe  Fe55  1  0.62428059  0.12481882  0.62763878  1
  Fe  Fe56  1  -0.00282060  0.49734160  0.75279443  1
  Fe  Fe57  1  0.75026999  0.50207929  -0.00083088  1
  Fe  Fe58  1  0.49651335  0.25046885  0.24972743  1
  Fe  Fe59  1  0.12574600  0.62162788  0.62720793  1
  Fe  Fe60  1  0.87738180  0.87533635  0.12123617  1
  Fe  Fe61  1  0.75235100  0.24918397  0.24401198  1
  Fe  Fe62  1  0.49924983  0.25227938  0.49791008  1
  Fe  Fe63  1  0.24996002  0.75125609  0.74705290  1
  Fe  Fe64  1  0.37229278  0.12678562  0.87546471  1
  Fe  Fe65  1  0.24392106  0.74544649  0.00612845  1
  Fe  Fe66  1  0.25293914  0.49937684  0.49868654  1
  Fe  Fe67  1  0.49791949  0.25165038  0.75123374  1
  Fe  Fe68  1  0.87688512  0.87304052  0.37603293  1
  Fe  Fe69  1  0.00202733  -0.00063144  0.50063362  1
  Fe  Fe70  1  0.74990185  0.50083456  0.49931962  1
  Fe  Fe71  1  0.87598335  0.12662883  0.62531646  1
  Fe  Fe72  1  0.50063535  0.75044907  0.75316174  1
  Fe  Fe73  1  0.00316992  0.50569255  -0.00391360  1
  Fe  Fe74  1  0.74686444  0.00653302  0.00232305  1
  Fe  Fe75  1  0.74898128  0.74993801  0.75102139  1
  Fe  Fe76  1  0.49644174  0.74997741  0.24756272  1
  Fe  Fe77  1  0.37288262  0.87281879  0.87949233  1
  Fe  Fe78  1  0.62559866  0.37518686  0.37202719  1
  Fe  Fe79  1  0.49567956  0.50060003  0.25159447  1
  Fe  Fe80  1  0.50037571  -0.00028979  0.49880716  1
  Fe  Fe81  1  0.00217746  0.25219965  0.50005635  1
  Fe  Fe82  1  0.50018271  0.74864956  0.50180771  1
  Fe  Fe83  1  0.25082055  -0.00297718  0.24845315  1
  Fe  Fe84  1  0.37364704  0.37607879  0.12033330  1
  Fe  Fe85  1  0.74964224  -0.00093850  0.50036118  1
  Fe  Fe86  1  0.00060474  0.50068354  0.49680947  1
  Fe  Fe87  1  0.75068658  0.75057225  0.24623731  1
  Fe  Fe88  1  0.74872477  0.74666072  0.00094495  1
  Fe  Fe89  1  0.37620266  0.87636316  0.11960064  1
  Co  Co90  1  0.37654845  0.37263423  0.88102733  1
  Co  Co91  1  0.12214209  0.87826051  0.12222860  1
  Co  Co92  1  0.87677192  0.37656109  0.62065849  1
  Co  Co93  1  0.75337676  0.25488565  0.74738089  1
  Co  Co94  1  0.87736069  0.62371655  0.12432906  1
  Co  Co95  1  0.12553645  0.12585814  0.87096994  1
  Co  Co96  1  0.00685926  0.24758631  0.00135434  1
  Co  Co97  1  0.62045820  0.11973292  0.13371358  1
  Co  Co98  1  0.12446618  0.38039886  0.12515273  1
  Co  Co99  1  0.62628672  0.62366979  0.87366855  1
  Co  Co100  1  0.49229652  -0.00245370  0.25244046  1
  Co  Co101  1  0.25125520  0.75014018  0.24215055  1
  Co  Co102  1  0.12258408  0.37602325  0.87612940  1
  Co  Co103  1  -0.00239953  0.49874292  0.25438507  1
  Co  Co104  1  0.87493142  0.37123620  0.88297300  1
  Co  Co105  1  0.62408159  0.87558002  0.62693616  1
  Co  Co106  1  0.24759775  0.50195303  -0.00169920  1
  Co  Co107  1  0.75485846  -0.00174303  0.24859580  1
  Co  Co108  1  0.00367234  0.74571493  -0.00014301  1
  Co  Co109  1  0.12191179  0.61904467  0.12994990  1
  Co  Co110  1  0.12550712  0.37766965  0.62567616  1
  Co  Co111  1  0.24863591  0.74907866  0.50623152  1
  Co  Co112  1  0.87921975  0.12434313  0.12416819  1
  Co  Co113  1  0.37647264  0.37564587  0.62496602  1
  Co  Co114  1  0.50134269  0.00392464  -0.00440497  1
  Co  Co115  1  0.87421070  0.62707054  0.87454890  1
  Co  Co116  1  0.37760972  0.62318241  0.12027088  1
  Co  Co117  1  0.62852437  0.12783003  0.86971285  1
  Co  Co118  1  0.37321129  0.62904689  0.37598478  1
  Co  Co119  1  0.24837830  0.00144975  -0.00154488  1
  Co  Co120  1  0.49913149  0.49830120  0.49607748  1
  Co  Co121  1  0.37276446  0.37402730  0.37328170  1
  Co  Co122  1  0.50316709  0.74913057  -0.00135838  1
  Co  Co123  1  0.12802726  0.62590101  0.86999756  1
  Co  Co124  1  0.00233072  0.74683068  0.50195961  1
  Co  Co125  1  0.12234081  0.87588767  0.62734022  1
  Co  Co126  1  0.25022084  0.25516039  0.75212410  1
  Co  Co127  1  0.74507313  0.24643201  0.00762689  1
