# generated using pymatgen
data_Fe45Co19
_symmetry_space_group_name_H-M   'P 1'
_cell_length_a   11.41584201
_cell_length_b   11.41713856
_cell_length_c   11.41439009
_cell_angle_alpha   90.00655159
_cell_angle_beta   90.00451032
_cell_angle_gamma   89.99674640
_symmetry_Int_Tables_number   1
_chemical_formula_structural   Fe45Co19
_chemical_formula_sum   'Fe90 Co38'
_cell_volume   1487.70878372
_cell_formula_units_Z   2
loop_
 _symmetry_equiv_pos_site_id
 _symmetry_equiv_pos_as_xyz
  1  'x, y, z'
loop_
 _atom_site_type_symbol
 _atom_site_label
 _atom_site_symmetry_multiplicity
 _atom_site_fract_x
 _atom_site_fract_y
 _atom_site_fract_z
 _atom_site_occupancy
  Fe  Fe0  1  0.24853298  0.00071110  0.25147287  1
  Fe  Fe1  1  0.50056779  0.49986192  0.00064984  1
  Fe  Fe2  1  0.24976848  0.50170711  0.49694881  1
  Fe  Fe3  1  0.87425304  0.12152535  0.62574457  1
  Fe  Fe4  1  0.74640144  0.50314615  0.25424540  1
  Fe  Fe5  1  0.00049841  0.74874177  0.75219822  1
  Fe  Fe6  1  0.75096489  0.74950017  0.50094412  1
  Fe  Fe7  1  0.74883903  0.50122978  0.49735905  1
  Fe  Fe8  1  0.37621451  0.12255830  0.12403431  1
  Fe  Fe9  1  0.24941555  0.24930879  0.24938139  1
  Fe  Fe10  1  0.74759940  0.50263928  0.75453573  1
  Fe  Fe11  1  0.12312839  0.62944039  0.37409930  1
  Fe  Fe12  1  0.62686209  0.12559902  0.62098767  1
  Fe  Fe13  1  0.50177765  -0.00240844  0.24759194  1
  Fe  Fe14  1  0.50043333  0.00021574  0.50037625  1
  Fe  Fe15  1  0.00220658  0.49939209  0.75308861  1
  Fe  Fe16  1  0.37287251  0.37543675  0.62533624  1
  Fe  Fe17  1  0.00493359  0.25072835  0.74929165  1
  Fe  Fe18  1  0.87570632  0.12435681  0.37662547  1
  Fe  Fe19  1  0.50139920  -0.00247104  0.00150521  1
  Fe  Fe20  1  0.49660945  0.74922432  0.74620681  1
  Fe  Fe21  1  0.62557402  0.12869024  0.37750237  1
  Fe  Fe22  1  0.87408546  0.37573968  0.37448179  1
  Fe  Fe23  1  0.12607053  0.62420097  0.62670624  1
  Fe  Fe24  1  0.49647756  0.74987055  0.50368900  1
  Fe  Fe25  1  0.87391000  0.62284429  0.12519566  1
  Fe  Fe26  1  0.50206287  0.49679579  0.49801321  1
  Fe  Fe27  1  0.00129468  -0.00237252  0.25049288  1
  Fe  Fe28  1  0.12569433  0.37561283  0.12439151  1
  Fe  Fe29  1  0.12429030  0.12429082  0.12348374  1
  Fe  Fe30  1  0.87458718  0.62388727  0.62677851  1
  Fe  Fe31  1  0.87284421  0.87447798  0.87321757  1
  Fe  Fe32  1  0.00045552  -0.00379049  0.49921590  1
  Fe  Fe33  1  0.37377130  0.87555877  0.87247443  1
  Fe  Fe34  1  0.62834720  0.37608098  0.12418218  1
  Fe  Fe35  1  0.87506670  0.37157406  0.87690873  1
  Fe  Fe36  1  0.75084603  0.24944262  0.24801393  1
  Fe  Fe37  1  0.62270342  0.12759794  0.87725632  1
  Fe  Fe38  1  0.37380272  0.37838303  0.12822352  1
  Fe  Fe39  1  0.74963150  0.24812215  0.75096052  1
  Fe  Fe40  1  0.24877373  0.49992623  0.75219738  1
  Fe  Fe41  1  -0.00174405  0.25092947  0.50343405  1
  Fe  Fe42  1  0.12566980  0.87586713  0.12388668  1
  Fe  Fe43  1  0.49921369  0.00195090  0.74956506  1
  Fe  Fe44  1  0.00024152  0.74999567  -0.00126004  1
  Fe  Fe45  1  0.50051688  0.25148571  0.24898073  1
  Fe  Fe46  1  0.12397997  0.37319314  0.37672656  1
  Fe  Fe47  1  0.25089695  0.50036595  -0.00103715  1
  Fe  Fe48  1  0.74928459  0.00282506  -0.00367557  1
  Fe  Fe49  1  0.87247885  0.87492180  0.12476749  1
  Fe  Fe50  1  0.24976080  0.24910579  0.50313310  1
  Fe  Fe51  1  0.37458893  0.37196762  0.87331230  1
  Fe  Fe52  1  0.62451192  0.87154423  0.87366453  1
  Fe  Fe53  1  0.49829041  0.24880874  0.74767383  1
  Fe  Fe54  1  0.87554824  0.87279888  0.37318052  1
  Fe  Fe55  1  0.62675936  0.37352721  0.62416831  1
  Fe  Fe56  1  0.24941270  0.00093317  -0.00420520  1
  Fe  Fe57  1  0.87143611  0.87651302  0.62881738  1
  Fe  Fe58  1  0.25407402  0.74843878  0.50267953  1
  Fe  Fe59  1  0.24965402  0.00015470  0.50046238  1
  Fe  Fe60  1  0.50122791  0.49908164  0.75105543  1
  Fe  Fe61  1  0.00110478  0.50062437  0.25027233  1
  Fe  Fe62  1  0.37480590  0.37571156  0.37305227  1
  Fe  Fe63  1  0.00015172  0.49866236  -0.00113529  1
  Fe  Fe64  1  -0.00049688  0.75200575  0.50162305  1
  Fe  Fe65  1  0.37661527  0.12577420  0.37578111  1
  Fe  Fe66  1  -0.00005751  0.50085496  0.49899782  1
  Fe  Fe67  1  -0.00042146  0.00002406  -0.00297357  1
  Fe  Fe68  1  0.13009074  0.87562873  0.62927407  1
  Fe  Fe69  1  0.12603631  0.62494869  0.12453320  1
  Fe  Fe70  1  0.74700007  0.50132631  -0.00545057  1
  Fe  Fe71  1  0.50038895  0.25204815  0.00234832  1
  Fe  Fe72  1  0.37655889  0.62527933  0.87493865  1
  Fe  Fe73  1  -0.00127419  0.25162770  0.24701201  1
  Fe  Fe74  1  0.37543684  0.87484926  0.37427157  1
  Fe  Fe75  1  0.00098610  0.00075305  0.75353741  1
  Fe  Fe76  1  0.74867984  0.74650258  0.25049354  1
  Fe  Fe77  1  0.87451068  0.37755341  0.62688439  1
  Fe  Fe78  1  0.38000369  0.62384479  0.36878758  1
  Fe  Fe79  1  0.74994525  0.74684637  -0.00357896  1
  Fe  Fe80  1  0.24997371  0.24935095  -0.00037290  1
  Fe  Fe81  1  0.49732168  0.75078116  0.00678471  1
  Fe  Fe82  1  0.74874030  0.00127363  0.25108711  1
  Fe  Fe83  1  0.62367755  0.87197859  0.37437355  1
  Fe  Fe84  1  0.87496662  0.12560284  0.12212023  1
  Fe  Fe85  1  0.25093631  0.74947213  -0.00099112  1
  Fe  Fe86  1  0.62692118  0.87578783  0.62638069  1
  Fe  Fe87  1  0.62486169  0.62460935  0.62518048  1
  Fe  Fe88  1  0.12285713  0.12558574  0.37687970  1
  Fe  Fe89  1  0.25159303  0.75058038  0.24779744  1
  Co  Co90  1  0.37546061  0.61865235  0.62533144  1
  Co  Co91  1  0.87113434  0.37896209  0.12415531  1
  Co  Co92  1  0.37079545  0.87980592  0.12473934  1
  Co  Co93  1  0.63091037  0.87461384  0.12392447  1
  Co  Co94  1  0.62349592  0.37189658  0.87428606  1
  Co  Co95  1  0.74966166  0.74686269  0.75099297  1
  Co  Co96  1  0.62373626  0.12431175  0.12423738  1
  Co  Co97  1  0.12355087  0.12164701  0.62450393  1
  Co  Co98  1  0.74729501  0.00253758  0.75330445  1
  Co  Co99  1  0.00019300  0.75111051  0.24634720  1
  Co  Co100  1  0.49883363  0.75384686  0.24253989  1
  Co  Co101  1  0.87689059  0.12928430  0.87472214  1
  Co  Co102  1  0.25248332  0.00586668  0.75274225  1
  Co  Co103  1  0.12668109  0.37352985  0.87642959  1
  Co  Co104  1  0.00062154  0.25166617  0.00261281  1
  Co  Co105  1  0.37549660  0.12443548  0.62335321  1
  Co  Co106  1  0.24850331  0.24773947  0.74796914  1
  Co  Co107  1  0.87769179  0.62678618  0.37515882  1
  Co  Co108  1  0.37292666  0.87968488  0.62661945  1
  Co  Co109  1  0.75024922  -0.00224502  0.49817554  1
  Co  Co110  1  0.62724200  0.36978437  0.37620966  1
  Co  Co111  1  0.37721939  0.12710210  0.87754022  1
  Co  Co112  1  0.12409759  0.12703760  0.87633525  1
  Co  Co113  1  0.62516593  0.62492456  0.12342607  1
  Co  Co114  1  0.50536618  0.49679608  0.24979381  1
  Co  Co115  1  0.74905003  0.24901485  0.00014208  1
  Co  Co116  1  0.87741366  0.62425902  0.87468483  1
  Co  Co117  1  0.12611531  0.62508017  0.87542285  1
  Co  Co118  1  0.61881893  0.62871081  0.87487173  1
  Co  Co119  1  0.12654361  0.37833212  0.62369452  1
  Co  Co120  1  0.37458708  0.62023821  0.12816866  1
  Co  Co121  1  0.12701018  0.87225046  0.37535857  1
  Co  Co122  1  0.25333552  0.74677928  0.74929936  1
  Co  Co123  1  0.24571109  0.49976355  0.25210648  1
  Co  Co124  1  0.49760941  0.25249122  0.50106375  1
  Co  Co125  1  0.12715120  0.87441040  0.87244411  1
  Co  Co126  1  0.61908632  0.62960809  0.37602740  1
  Co  Co127  1  0.75487459  0.25074817  0.50201766  1
