# generated using pymatgen
data_Fe45Co19
_symmetry_space_group_name_H-M   'P 1'
_cell_length_a   11.41576816
_cell_length_b   11.41540793
_cell_length_c   11.41620117
_cell_angle_alpha   89.99067621
_cell_angle_beta   90.00416845
_cell_angle_gamma   90.00183049
_symmetry_Int_Tables_number   1
_chemical_formula_structural   Fe45Co19
_chemical_formula_sum   'Fe90 Co38'
_cell_volume   1487.70965485
_cell_formula_units_Z   2
loop_
 _symmetry_equiv_pos_site_id
 _symmetry_equiv_pos_as_xyz
  1  'x, y, z'
loop_
 _atom_site_type_symbol
 _atom_site_label
 _atom_site_symmetry_multiplicity
 _atom_site_fract_x
 _atom_site_fract_y
 _atom_site_fract_z
 _atom_site_occupancy
  Fe  Fe0  1  0.74804300  0.00092104  0.50027819  1
  Fe  Fe1  1  0.25267204  0.74850868  0.24901049  1
  Fe  Fe2  1  0.87583229  0.87446370  0.87713637  1
  Fe  Fe3  1  0.37671726  0.12318271  0.12288655  1
  Fe  Fe4  1  0.12113335  0.12800342  0.37267891  1
  Fe  Fe5  1  0.49910634  0.74738334  0.24784224  1
  Fe  Fe6  1  0.12537343  0.12854655  0.87349374  1
  Fe  Fe7  1  0.62566757  0.87233362  0.62863090  1
  Fe  Fe8  1  0.37563032  0.87522121  0.62466672  1
  Fe  Fe9  1  0.12624217  0.62376670  0.12645583  1
  Fe  Fe10  1  0.87357409  0.12374203  0.62512532  1
  Fe  Fe11  1  0.37332621  0.37933699  0.12236719  1
  Fe  Fe12  1  0.74922725  0.50280002  0.24800162  1
  Fe  Fe13  1  0.24656122  0.49719315  0.75236036  1
  Fe  Fe14  1  0.37536423  0.37634965  0.37622874  1
  Fe  Fe15  1  0.24969761  0.00094275  0.50063834  1
  Fe  Fe16  1  0.25048615  0.00038595  0.74958043  1
  Fe  Fe17  1  0.12594548  0.87098555  0.37762128  1
  Fe  Fe18  1  0.50090979  0.00126434  0.75194984  1
  Fe  Fe19  1  0.87585218  0.37659956  0.37805891  1
  Fe  Fe20  1  0.62318477  0.37206518  0.62687833  1
  Fe  Fe21  1  0.00248764  0.49814512  0.74757190  1
  Fe  Fe22  1  0.74663585  0.50127738  0.50105155  1
  Fe  Fe23  1  0.00024608  0.00027585  0.49922656  1
  Fe  Fe24  1  0.24964392  0.74776687  0.00034725  1
  Fe  Fe25  1  -0.00285514  0.74840599  0.25017466  1
  Fe  Fe26  1  0.62504705  0.12574948  0.87631401  1
  Fe  Fe27  1  0.12564690  0.87114045  0.62275187  1
  Fe  Fe28  1  0.00109083  -0.00076023  0.75083360  1
  Fe  Fe29  1  0.50284076  0.00106263  0.50040945  1
  Fe  Fe30  1  0.50541673  0.49923606  0.00052870  1
  Fe  Fe31  1  0.37436282  0.62375949  0.37358736  1
  Fe  Fe32  1  0.37601064  0.12470628  0.37458206  1
  Fe  Fe33  1  0.87725599  0.87707179  0.12242168  1
  Fe  Fe34  1  0.87402076  0.87493933  0.62437468  1
  Fe  Fe35  1  0.25028165  0.25189687  -0.00079706  1
  Fe  Fe36  1  0.62538945  0.37538314  0.37213883  1
  Fe  Fe37  1  -0.00160840  0.74958946  0.74961207  1
  Fe  Fe38  1  0.24872716  0.00097244  -0.00107957  1
  Fe  Fe39  1  0.25169577  0.25005578  0.49994696  1
  Fe  Fe40  1  0.25560564  0.25470531  0.75185725  1
  Fe  Fe41  1  0.74948277  0.50134736  0.74999773  1
  Fe  Fe42  1  0.25086885  0.25230079  0.24887386  1
  Fe  Fe43  1  0.87769214  0.12652806  0.37299397  1
  Fe  Fe44  1  0.87351398  0.87302941  0.37621093  1
  Fe  Fe45  1  0.50244171  0.50052347  0.50051548  1
  Fe  Fe46  1  0.37463143  0.87654523  0.87509083  1
  Fe  Fe47  1  0.87578410  0.62480794  0.87701660  1
  Fe  Fe48  1  0.37615945  0.87607181  0.37544284  1
  Fe  Fe49  1  0.49821414  0.74793882  0.75037824  1
  Fe  Fe50  1  0.00239417  0.50223825  -0.00253396  1
  Fe  Fe51  1  0.62651872  0.62700096  0.87394680  1
  Fe  Fe52  1  0.87642671  0.62323759  0.62317199  1
  Fe  Fe53  1  0.87449984  0.12472879  0.87665182  1
  Fe  Fe54  1  0.37354905  0.62119672  0.62649315  1
  Fe  Fe55  1  0.12281744  0.87591161  0.12401862  1
  Fe  Fe56  1  0.74924752  0.75032102  0.00111636  1
  Fe  Fe57  1  0.37927439  0.12842719  0.62590922  1
  Fe  Fe58  1  -0.00196482  0.24987455  0.00193500  1
  Fe  Fe59  1  0.74999355  0.25046291  0.74964279  1
  Fe  Fe60  1  0.50099719  0.25330196  -0.00256711  1
  Fe  Fe61  1  0.12226244  0.37260515  0.37683777  1
  Fe  Fe62  1  0.74823143  0.74633103  0.50179966  1
  Fe  Fe63  1  0.74906779  -0.00081143  0.75159887  1
  Fe  Fe64  1  0.62351735  0.12306957  0.12352504  1
  Fe  Fe65  1  0.24555582  0.50259886  0.49924619  1
  Fe  Fe66  1  0.87737311  0.12060062  0.12508003  1
  Fe  Fe67  1  0.12216017  0.12432520  0.12741485  1
  Fe  Fe68  1  0.12436281  0.87326735  0.87593924  1
  Fe  Fe69  1  0.74954781  -0.00058839  0.24931170  1
  Fe  Fe70  1  0.50025190  0.50088414  0.24731932  1
  Fe  Fe71  1  0.37384728  0.62139835  0.87835927  1
  Fe  Fe72  1  0.62471645  0.87292448  0.37295138  1
  Fe  Fe73  1  0.87261832  0.37898280  0.12207357  1
  Fe  Fe74  1  0.87267416  0.37561494  0.87685563  1
  Fe  Fe75  1  0.49869749  0.25149991  0.24944742  1
  Fe  Fe76  1  0.75242578  0.25071748  0.24652980  1
  Fe  Fe77  1  0.25182621  0.74887504  0.75056331  1
  Fe  Fe78  1  0.12516644  0.12813193  0.62641205  1
  Fe  Fe79  1  0.74953017  0.25008436  0.50068269  1
  Fe  Fe80  1  -0.00283620  0.25322911  0.74677453  1
  Fe  Fe81  1  0.50105200  0.49708743  0.75161740  1
  Fe  Fe82  1  0.24941335  -0.00008887  0.25080444  1
  Fe  Fe83  1  0.50122077  0.75178647  0.00060770  1
  Fe  Fe84  1  0.00011783  0.50120076  0.25282168  1
  Fe  Fe85  1  0.12522965  0.37652441  0.12435095  1
  Fe  Fe86  1  0.75126139  0.74679145  0.24772842  1
  Fe  Fe87  1  0.62497202  0.12631582  0.37349267  1
  Fe  Fe88  1  0.49988070  0.74704794  0.50121859  1
  Fe  Fe89  1  0.37712276  0.87773670  0.12494377  1
  Co  Co90  1  0.37462267  0.12398679  0.87654422  1
  Co  Co91  1  0.62382664  0.12779666  0.62714610  1
  Co  Co92  1  0.87578581  0.62281730  0.12327920  1
  Co  Co93  1  0.50154223  0.25099912  0.49787722  1
  Co  Co94  1  0.00399914  0.50133006  0.50126551  1
  Co  Co95  1  0.25485850  0.74752565  0.50065856  1
  Co  Co96  1  0.50205322  -0.00381491  -0.00307193  1
  Co  Co97  1  0.12548411  0.62858331  0.62657752  1
  Co  Co98  1  0.62663888  0.37485640  0.12600187  1
  Co  Co99  1  0.63045107  0.37481511  0.87463830  1
  Co  Co100  1  0.75354413  0.74731873  0.74963491  1
  Co  Co101  1  0.62522523  0.62615471  0.12493834  1
  Co  Co102  1  0.62478452  0.62511011  0.37236079  1
  Co  Co103  1  0.49804053  0.25345201  0.75491180  1
  Co  Co104  1  0.00221597  0.00176338  -0.00330545  1
  Co  Co105  1  -0.00354000  0.24941441  0.50348249  1
  Co  Co106  1  0.74720717  0.50253360  -0.00058915  1
  Co  Co107  1  0.12214286  0.37094776  0.87508712  1
  Co  Co108  1  0.37373536  0.62119638  0.12185023  1
  Co  Co109  1  0.50001132  0.00172650  0.25146074  1
  Co  Co110  1  0.62638887  0.87209781  0.87106675  1
  Co  Co111  1  0.37479822  0.37950799  0.87875311  1
  Co  Co112  1  0.75098647  0.24885864  0.00254850  1
  Co  Co113  1  0.62372686  0.87576667  0.12825926  1
  Co  Co114  1  0.87341440  0.62239401  0.37696225  1
  Co  Co115  1  0.74869097  -0.00247357  -0.00041786  1
  Co  Co116  1  0.00122953  0.74722229  0.00132182  1
  Co  Co117  1  0.12440858  0.62729181  0.87268792  1
  Co  Co118  1  0.24460076  0.50040284  -0.00323115  1
  Co  Co119  1  0.12462457  0.62913638  0.37374256  1
  Co  Co120  1  0.12654137  0.37212620  0.62342059  1
  Co  Co121  1  0.62395583  0.62503807  0.62768037  1
  Co  Co122  1  0.00061516  -0.00394938  0.25359245  1
  Co  Co123  1  0.24891149  0.49905990  0.25250317  1
  Co  Co124  1  0.87221615  0.37701589  0.62336678  1
  Co  Co125  1  -0.00279971  0.25453717  0.24651979  1
  Co  Co126  1  0.37561537  0.37654973  0.62248048  1
  Co  Co127  1  -0.00285261  0.74759182  0.49963766  1
