# generated using pymatgen
data_Fe45Co19
_symmetry_space_group_name_H-M   'P 1'
_cell_length_a   11.41639146
_cell_length_b   11.41515965
_cell_length_c   11.41626020
_cell_angle_alpha   90.00696010
_cell_angle_beta   89.99729096
_cell_angle_gamma   89.99000081
_symmetry_Int_Tables_number   1
_chemical_formula_structural   Fe45Co19
_chemical_formula_sum   'Fe90 Co38'
_cell_volume   1487.76620835
_cell_formula_units_Z   2
loop_
 _symmetry_equiv_pos_site_id
 _symmetry_equiv_pos_as_xyz
  1  'x, y, z'
loop_
 _atom_site_type_symbol
 _atom_site_label
 _atom_site_symmetry_multiplicity
 _atom_site_fract_x
 _atom_site_fract_y
 _atom_site_fract_z
 _atom_site_occupancy
  Fe  Fe0  1  0.74731283  0.50038057  0.49919000  1
  Fe  Fe1  1  0.62354191  0.37392864  0.62149250  1
  Fe  Fe2  1  0.62558481  0.62548563  0.37140306  1
  Fe  Fe3  1  0.24772263  0.49797072  0.24961187  1
  Fe  Fe4  1  0.37526067  0.12509009  0.37361391  1
  Fe  Fe5  1  0.75038285  0.74915523  0.49806633  1
  Fe  Fe6  1  0.62823939  0.62411170  0.87703742  1
  Fe  Fe7  1  0.74988172  0.75045784  0.00304836  1
  Fe  Fe8  1  0.00267417  0.25354463  0.25004706  1
  Fe  Fe9  1  0.37419408  0.62641546  0.87425657  1
  Fe  Fe10  1  0.74979481  0.00221597  0.50026882  1
  Fe  Fe11  1  0.25053150  -0.00033736  0.75040556  1
  Fe  Fe12  1  0.50077257  0.49956274  0.00135431  1
  Fe  Fe13  1  0.37546521  0.62363622  0.37258956  1
  Fe  Fe14  1  0.74808034  0.25276918  0.25063233  1
  Fe  Fe15  1  0.12506891  0.62457717  0.37372894  1
  Fe  Fe16  1  0.62451071  0.12503283  0.37439797  1
  Fe  Fe17  1  0.37549959  0.12629695  0.12391789  1
  Fe  Fe18  1  0.12501677  0.37557364  0.62357321  1
  Fe  Fe19  1  0.87351545  0.62411829  0.62688588  1
  Fe  Fe20  1  0.62518450  0.87541682  0.62481050  1
  Fe  Fe21  1  0.37467146  0.62500479  0.62577767  1
  Fe  Fe22  1  0.25088092  0.25200538  0.75281364  1
  Fe  Fe23  1  0.12452806  0.87757739  0.62310480  1
  Fe  Fe24  1  0.12298987  0.62369351  0.62532023  1
  Fe  Fe25  1  -0.00524616  0.50040328  -0.00132775  1
  Fe  Fe26  1  0.37269981  0.87440437  0.37268811  1
  Fe  Fe27  1  0.25154181  0.49883167  -0.00070698  1
  Fe  Fe28  1  0.37562202  0.62553147  0.12642239  1
  Fe  Fe29  1  -0.00021340  0.25053778  0.75075570  1
  Fe  Fe30  1  0.49977615  0.00150639  0.50090796  1
  Fe  Fe31  1  0.12492717  0.62612219  0.87512631  1
  Fe  Fe32  1  0.62216567  0.12197687  0.87717495  1
  Fe  Fe33  1  0.87491535  0.87711713  0.62396383  1
  Fe  Fe34  1  0.12382408  0.12707066  0.12264560  1
  Fe  Fe35  1  0.74887258  0.24960633  0.75020386  1
  Fe  Fe36  1  0.37476835  0.37287285  0.12255199  1
  Fe  Fe37  1  0.87824719  0.12359747  0.87595652  1
  Fe  Fe38  1  0.12346589  0.37357244  0.87906387  1
  Fe  Fe39  1  0.12283325  0.12666535  0.87759629  1
  Fe  Fe40  1  0.50129283  0.25009850  0.75058766  1
  Fe  Fe41  1  0.24774737  0.25275523  0.24912122  1
  Fe  Fe42  1  0.62314867  0.87842795  0.87759527  1
  Fe  Fe43  1  0.87276752  0.62194126  0.37141794  1
  Fe  Fe44  1  0.24827539  0.00061592  0.25032725  1
  Fe  Fe45  1  0.74965074  0.00044812  0.75133398  1
  Fe  Fe46  1  0.25133008  0.24979162  0.49993094  1
  Fe  Fe47  1  0.62684670  0.87578632  0.37371567  1
  Fe  Fe48  1  0.50217997  0.25207694  0.24942269  1
  Fe  Fe49  1  0.62347040  0.12445906  0.12321546  1
  Fe  Fe50  1  0.50151570  0.74974366  0.75149326  1
  Fe  Fe51  1  -0.00107904  0.24979471  0.49889745  1
  Fe  Fe52  1  0.00007935  0.49863366  0.49676179  1
  Fe  Fe53  1  0.12467652  0.12300090  0.62431924  1
  Fe  Fe54  1  0.37792538  0.12335549  0.87626140  1
  Fe  Fe55  1  0.12425721  0.12322531  0.37662191  1
  Fe  Fe56  1  0.37582256  0.12521607  0.62619492  1
  Fe  Fe57  1  0.24947110  0.74907360  0.49924258  1
  Fe  Fe58  1  0.62733422  0.37617218  0.87817735  1
  Fe  Fe59  1  0.25194313  0.75021759  0.00166387  1
  Fe  Fe60  1  0.75177095  -0.00197696  0.24741805  1
  Fe  Fe61  1  0.24925812  0.49976683  0.75113072  1
  Fe  Fe62  1  0.87579037  0.12348027  0.62644133  1
  Fe  Fe63  1  0.50473753  0.49657042  0.24778681  1
  Fe  Fe64  1  0.37701568  0.37619544  0.37822212  1
  Fe  Fe65  1  -0.00331699  0.49970630  0.75359291  1
  Fe  Fe66  1  0.87677407  0.12418189  0.37274558  1
  Fe  Fe67  1  0.87856442  0.12209836  0.12496622  1
  Fe  Fe68  1  0.50352652  0.50200714  0.74884561  1
  Fe  Fe69  1  -0.00169817  0.75205803  0.49737418  1
  Fe  Fe70  1  0.12570394  0.87377479  0.12744271  1
  Fe  Fe71  1  0.75004612  0.75061608  0.75083445  1
  Fe  Fe72  1  0.75213858  0.24831306  0.00043628  1
  Fe  Fe73  1  0.25136499  -0.00092234  0.00041953  1
  Fe  Fe74  1  0.12692994  0.87354637  0.87378649  1
  Fe  Fe75  1  -0.00088373  0.75058399  0.75015213  1
  Fe  Fe76  1  0.49822519  0.75372632  0.00257901  1
  Fe  Fe77  1  0.75023449  0.24854895  0.49854789  1
  Fe  Fe78  1  -0.00214162  0.75354961  0.25234658  1
  Fe  Fe79  1  0.87253944  0.62408273  0.12921654  1
  Fe  Fe80  1  0.50190941  0.75210436  0.24659232  1
  Fe  Fe81  1  -0.00095057  0.74925301  0.00052678  1
  Fe  Fe82  1  0.12352139  0.62333136  0.12579433  1
  Fe  Fe83  1  0.87417670  0.37674699  0.12779634  1
  Fe  Fe84  1  0.87607105  0.87602088  0.87786671  1
  Fe  Fe85  1  0.37675866  0.37718556  0.62326803  1
  Fe  Fe86  1  0.87462724  0.37555292  0.62491466  1
  Fe  Fe87  1  0.50024087  -0.00154593  0.24732407  1
  Fe  Fe88  1  0.50125670  0.74819973  0.49908676  1
  Fe  Fe89  1  0.37554407  0.87362990  0.62667714  1
  Co  Co90  1  0.49966012  0.24994622  -0.00093862  1
  Co  Co91  1  0.37784363  0.37684366  0.87412923  1
  Co  Co92  1  0.62676943  0.37270416  0.11995893  1
  Co  Co93  1  -0.00405732  0.25176080  0.00175089  1
  Co  Co94  1  0.87235457  0.37331413  0.87396065  1
  Co  Co95  1  0.24846741  0.74864603  0.74739278  1
  Co  Co96  1  0.74911402  0.49922284  0.74879103  1
  Co  Co97  1  0.75327263  0.50071906  0.00166220  1
  Co  Co98  1  0.24870171  0.74707289  0.25057342  1
  Co  Co99  1  0.74375225  0.49655774  0.25000945  1
  Co  Co100  1  0.75065865  0.75180435  0.24906524  1
  Co  Co101  1  0.37126767  0.87452692  0.12890868  1
  Co  Co102  1  0.00254990  -0.00243835  0.00047162  1
  Co  Co103  1  0.50211715  0.50542140  0.50053412  1
  Co  Co104  1  0.87205849  0.87731696  0.37543946  1
  Co  Co105  1  0.75106655  0.00234368  0.00029846  1
  Co  Co106  1  -0.00196709  0.00017223  0.49826592  1
  Co  Co107  1  0.25352187  0.00035684  0.50014957  1
  Co  Co108  1  0.00062959  -0.00264819  0.25019863  1
  Co  Co109  1  0.62802662  0.62813181  0.62619067  1
  Co  Co110  1  0.12495294  0.37581074  0.11956349  1
  Co  Co111  1  0.37425793  0.87407568  0.87265192  1
  Co  Co112  1  0.25313665  0.25009886  -0.00189755  1
  Co  Co113  1  0.87155892  0.62763926  0.87377891  1
  Co  Co114  1  0.49848974  0.24492845  0.49986691  1
  Co  Co115  1  0.12710179  0.87645581  0.37589642  1
  Co  Co116  1  0.62761397  0.87660455  0.12471844  1
  Co  Co117  1  0.00025417  -0.00084576  0.75137319  1
  Co  Co118  1  0.12618798  0.37394967  0.37771731  1
  Co  Co119  1  0.00282695  0.49720819  0.25126975  1
  Co  Co120  1  0.87394647  0.37574178  0.37392970  1
  Co  Co121  1  0.62577693  0.62585758  0.12428139  1
  Co  Co122  1  0.62254065  0.37290207  0.37954853  1
  Co  Co123  1  0.24986044  0.50222768  0.49940699  1
  Co  Co124  1  0.49683087  -0.00359082  0.00410388  1
  Co  Co125  1  0.50026189  -0.00012681  0.74784648  1
  Co  Co126  1  0.87502168  0.87550345  0.12303046  1
  Co  Co127  1  0.62567562  0.12506402  0.62529628  1
