# generated using pymatgen
data_Fe45Co19
_symmetry_space_group_name_H-M   'P 1'
_cell_length_a   11.41549651
_cell_length_b   11.41499032
_cell_length_c   11.41589159
_cell_angle_alpha   89.99826156
_cell_angle_beta   90.00526750
_cell_angle_gamma   90.00544355
_symmetry_Int_Tables_number   1
_chemical_formula_structural   Fe45Co19
_chemical_formula_sum   'Fe90 Co38'
_cell_volume   1487.57950160
_cell_formula_units_Z   2
loop_
 _symmetry_equiv_pos_site_id
 _symmetry_equiv_pos_as_xyz
  1  'x, y, z'
loop_
 _atom_site_type_symbol
 _atom_site_label
 _atom_site_symmetry_multiplicity
 _atom_site_fract_x
 _atom_site_fract_y
 _atom_site_fract_z
 _atom_site_occupancy
  Fe  Fe0  1  0.50005186  -0.00254528  -0.00001587  1
  Fe  Fe1  1  0.87450024  0.62369428  0.37485492  1
  Fe  Fe2  1  0.25126353  0.25050121  -0.00215777  1
  Fe  Fe3  1  0.74727551  0.75008551  0.49643012  1
  Fe  Fe4  1  0.25336986  0.49909728  -0.00347532  1
  Fe  Fe5  1  0.62254605  0.37458971  0.62732134  1
  Fe  Fe6  1  0.62257745  0.37263017  0.87524795  1
  Fe  Fe7  1  0.49699477  0.25113714  0.00002886  1
  Fe  Fe8  1  0.87428453  0.62654061  0.62697328  1
  Fe  Fe9  1  0.00460272  0.75149689  0.75240411  1
  Fe  Fe10  1  0.49735491  0.50467856  0.74998686  1
  Fe  Fe11  1  0.49948355  0.00050559  0.50124038  1
  Fe  Fe12  1  0.74728051  0.75042348  0.75223624  1
  Fe  Fe13  1  0.12780750  0.62421843  0.12353442  1
  Fe  Fe14  1  0.50139657  0.00479027  0.75029438  1
  Fe  Fe15  1  -0.00021183  0.24965732  0.75205333  1
  Fe  Fe16  1  0.49969342  0.75284292  0.00329191  1
  Fe  Fe17  1  0.37634511  0.37456287  0.37268055  1
  Fe  Fe18  1  0.62398229  0.87610125  0.62590736  1
  Fe  Fe19  1  0.75107719  0.50000751  -0.00277456  1
  Fe  Fe20  1  0.87448392  0.12369532  0.87714747  1
  Fe  Fe21  1  0.00439000  0.00247001  0.50122159  1
  Fe  Fe22  1  0.62461163  0.62422555  0.62245851  1
  Fe  Fe23  1  0.87522902  0.12437567  0.62500020  1
  Fe  Fe24  1  0.50009415  0.00075685  0.24881208  1
  Fe  Fe25  1  0.25437928  0.50551861  0.75289802  1
  Fe  Fe26  1  0.87370621  0.37516301  0.12356800  1
  Fe  Fe27  1  0.74812423  -0.00215151  -0.00068915  1
  Fe  Fe28  1  0.87628659  0.87445293  0.62480095  1
  Fe  Fe29  1  0.74982718  0.25119949  0.49940897  1
  Fe  Fe30  1  0.87557136  0.12410936  0.12484048  1
  Fe  Fe31  1  0.87783227  0.87586042  0.37561462  1
  Fe  Fe32  1  0.12428068  0.12346757  0.12542308  1
  Fe  Fe33  1  0.12532016  0.37531845  0.37414205  1
  Fe  Fe34  1  0.87694220  0.12508325  0.37325427  1
  Fe  Fe35  1  0.50217477  0.74905220  0.49822914  1
  Fe  Fe36  1  0.75041541  0.49907309  0.24981744  1
  Fe  Fe37  1  0.12734634  0.37686451  0.12287864  1
  Fe  Fe38  1  0.24872920  -0.00021049  0.74807843  1
  Fe  Fe39  1  0.24935627  0.75094089  0.49974791  1
  Fe  Fe40  1  0.75006741  0.50197187  0.75302547  1
  Fe  Fe41  1  0.12425824  0.12190242  0.87492032  1
  Fe  Fe42  1  0.49911189  0.24949434  0.50263486  1
  Fe  Fe43  1  0.37480074  0.12439858  0.12477561  1
  Fe  Fe44  1  0.74815104  0.00058604  0.75179658  1
  Fe  Fe45  1  0.37542133  0.87199971  0.87271175  1
  Fe  Fe46  1  0.74855309  0.25113769  0.24933905  1
  Fe  Fe47  1  -0.00098764  0.50016960  0.75289659  1
  Fe  Fe48  1  -0.00027452  0.49895582  0.50144901  1
  Fe  Fe49  1  0.87410719  0.37517936  0.62654143  1
  Fe  Fe50  1  0.87579972  0.87475779  0.87593377  1
  Fe  Fe51  1  -0.00194565  0.49852372  -0.00430075  1
  Fe  Fe52  1  0.25081007  0.25084163  0.24847736  1
  Fe  Fe53  1  0.00053402  0.25134071  0.24915572  1
  Fe  Fe54  1  0.24971792  0.24891217  0.50102290  1
  Fe  Fe55  1  0.25364414  0.24727362  0.75277398  1
  Fe  Fe56  1  0.62267547  0.37641604  0.37365617  1
  Fe  Fe57  1  0.37477185  0.87229428  0.62723733  1
  Fe  Fe58  1  0.37586476  0.87475275  0.37267274  1
  Fe  Fe59  1  0.74911916  -0.00129149  0.49948031  1
  Fe  Fe60  1  0.62382579  0.12449215  0.37602371  1
  Fe  Fe61  1  0.62584138  0.87239243  0.12839739  1
  Fe  Fe62  1  0.74757150  0.24762625  0.75114797  1
  Fe  Fe63  1  0.49871914  0.49972729  0.00189725  1
  Fe  Fe64  1  0.62452192  0.12684499  0.12252472  1
  Fe  Fe65  1  0.37458922  0.12514975  0.37467622  1
  Fe  Fe66  1  0.12721194  0.37519223  0.62906534  1
  Fe  Fe67  1  0.00092454  0.75007654  0.25000769  1
  Fe  Fe68  1  0.24655946  0.00067809  0.50065869  1
  Fe  Fe69  1  0.00151550  0.74844722  0.50012593  1
  Fe  Fe70  1  0.24806756  -0.00189199  0.25074797  1
  Fe  Fe71  1  0.75020275  -0.00121305  0.25026678  1
  Fe  Fe72  1  0.62280460  0.62818056  0.87751232  1
  Fe  Fe73  1  0.49862605  0.49942075  0.24678254  1
  Fe  Fe74  1  0.12647784  0.62477677  0.62557352  1
  Fe  Fe75  1  0.25120290  -0.00246902  0.00065688  1
  Fe  Fe76  1  0.00016837  0.25085118  -0.00144338  1
  Fe  Fe77  1  0.25202598  0.49879162  0.50016166  1
  Fe  Fe78  1  0.87294626  0.62778519  0.12292803  1
  Fe  Fe79  1  0.87452848  0.87340743  0.12442166  1
  Fe  Fe80  1  0.37636016  0.37474440  0.62844995  1
  Fe  Fe81  1  0.00040557  0.49958682  0.24928920  1
  Fe  Fe82  1  0.62809864  0.62807867  0.12658282  1
  Fe  Fe83  1  0.00164408  0.25047563  0.50015250  1
  Fe  Fe84  1  0.00295212  0.75091248  -0.00236472  1
  Fe  Fe85  1  0.12531978  0.87567976  0.12546831  1
  Fe  Fe86  1  0.37533341  0.62473843  0.37441423  1
  Fe  Fe87  1  0.75026881  0.49911894  0.49945619  1
  Fe  Fe88  1  0.37146557  0.62756084  0.12502154  1
  Fe  Fe89  1  0.12688141  0.62454928  0.37336892  1
  Co  Co90  1  0.24800441  0.74722106  0.75151642  1
  Co  Co91  1  0.12587630  0.62296886  0.87731380  1
  Co  Co92  1  0.49805710  0.49908910  0.50164164  1
  Co  Co93  1  0.62419626  0.12680765  0.87930839  1
  Co  Co94  1  0.49919385  0.24442670  0.74954215  1
  Co  Co95  1  0.37328061  0.37411056  0.12427560  1
  Co  Co96  1  0.75122198  0.75122731  0.25450454  1
  Co  Co97  1  -0.00062058  -0.00042042  0.00071794  1
  Co  Co98  1  0.12538654  0.12618042  0.37265190  1
  Co  Co99  1  0.37704446  0.63086679  0.87916488  1
  Co  Co100  1  0.62082472  0.87426916  0.87341565  1
  Co  Co101  1  0.37468488  0.87525319  0.12698845  1
  Co  Co102  1  0.49893930  0.74856176  0.24992264  1
  Co  Co103  1  0.87585050  0.37538117  0.37480367  1
  Co  Co104  1  0.00088137  -0.00138050  0.24932929  1
  Co  Co105  1  0.62538183  0.37429738  0.12292008  1
  Co  Co106  1  0.49998154  0.24940192  0.24803601  1
  Co  Co107  1  0.74838677  0.75226615  -0.00304896  1
  Co  Co108  1  0.12380794  0.87419315  0.37573043  1
  Co  Co109  1  0.37363363  0.12341775  0.62342531  1
  Co  Co110  1  0.62231816  0.87674422  0.37323712  1
  Co  Co111  1  0.25115855  0.49932321  0.25038434  1
  Co  Co112  1  0.12515753  0.12668376  0.62752341  1
  Co  Co113  1  0.37454191  0.62785463  0.62185430  1
  Co  Co114  1  0.50081538  0.74603335  0.74728228  1
  Co  Co115  1  0.37781915  0.37526134  0.87315692  1
  Co  Co116  1  0.87584439  0.62882493  0.87473237  1
  Co  Co117  1  0.37492307  0.12178683  0.87732955  1
  Co  Co118  1  0.12688848  0.87882184  0.87503483  1
  Co  Co119  1  0.62584376  0.12399796  0.62258457  1
  Co  Co120  1  0.87283967  0.37346806  0.87414876  1
  Co  Co121  1  -0.00077569  -0.00093240  0.74911582  1
  Co  Co122  1  0.62376256  0.62159334  0.37293686  1
  Co  Co123  1  0.75185334  0.25057083  0.00062070  1
  Co  Co124  1  0.24848030  0.75313548  -0.00080303  1
  Co  Co125  1  0.24929729  0.75150417  0.24975586  1
  Co  Co126  1  0.12530826  0.87359908  0.62461179  1
  Co  Co127  1  0.12787293  0.37598105  0.87344652  1
