# generated using pymatgen
data_Fe45Co19
_symmetry_space_group_name_H-M   'P 1'
_cell_length_a   11.41620586
_cell_length_b   11.41473330
_cell_length_c   11.41532639
_cell_angle_alpha   89.99236025
_cell_angle_beta   90.00780411
_cell_angle_gamma   90.00197448
_symmetry_Int_Tables_number   1
_chemical_formula_structural   Fe45Co19
_chemical_formula_sum   'Fe90 Co38'
_cell_volume   1487.56477372
_cell_formula_units_Z   2
loop_
 _symmetry_equiv_pos_site_id
 _symmetry_equiv_pos_as_xyz
  1  'x, y, z'
loop_
 _atom_site_type_symbol
 _atom_site_label
 _atom_site_symmetry_multiplicity
 _atom_site_fract_x
 _atom_site_fract_y
 _atom_site_fract_z
 _atom_site_occupancy
  Fe  Fe0  1  0.87431039  0.12598548  0.12439871  1
  Fe  Fe1  1  0.49763587  0.49971340  0.74525982  1
  Fe  Fe2  1  0.74970251  0.50235778  -0.00175345  1
  Fe  Fe3  1  0.24966689  0.75136155  0.25219951  1
  Fe  Fe4  1  0.12348541  0.87879847  0.37380450  1
  Fe  Fe5  1  0.62531142  0.37565833  0.12695392  1
  Fe  Fe6  1  0.74977936  -0.00210953  0.00010114  1
  Fe  Fe7  1  0.74793619  0.49841975  0.50164507  1
  Fe  Fe8  1  0.12459151  0.62271427  0.37348716  1
  Fe  Fe9  1  0.25091636  0.00105836  0.49969521  1
  Fe  Fe10  1  0.49960679  -0.00118264  0.50309012  1
  Fe  Fe11  1  0.12485922  0.12325575  0.87407267  1
  Fe  Fe12  1  0.12574089  0.62361683  0.12628037  1
  Fe  Fe13  1  -0.00280080  -0.00029800  0.50514212  1
  Fe  Fe14  1  0.12741534  0.12430387  0.12809847  1
  Fe  Fe15  1  0.62383785  0.87793326  0.37293869  1
  Fe  Fe16  1  0.62403431  0.37902982  0.87281893  1
  Fe  Fe17  1  0.37445689  0.87489973  0.87659373  1
  Fe  Fe18  1  0.00660891  0.75441711  0.75070016  1
  Fe  Fe19  1  0.37390460  0.12885182  0.62358389  1
  Fe  Fe20  1  0.87853394  0.37518326  0.87806328  1
  Fe  Fe21  1  0.87597334  0.37413019  0.12279838  1
  Fe  Fe22  1  0.50521628  0.24903228  0.49791025  1
  Fe  Fe23  1  0.87253371  0.62808707  0.12681452  1
  Fe  Fe24  1  0.37053610  0.86843116  0.62335144  1
  Fe  Fe25  1  0.00014979  0.50083972  0.50153213  1
  Fe  Fe26  1  0.12491064  0.37612037  0.37710338  1
  Fe  Fe27  1  0.74840993  0.24910796  0.25202356  1
  Fe  Fe28  1  0.25159397  0.24901943  0.25269559  1
  Fe  Fe29  1  0.00247251  0.74973182  0.50051344  1
  Fe  Fe30  1  0.75432007  -0.00502443  0.24800936  1
  Fe  Fe31  1  0.74646527  0.75322054  0.50033233  1
  Fe  Fe32  1  0.62619566  0.62286386  0.37372327  1
  Fe  Fe33  1  0.25387959  0.00029108  0.00317725  1
  Fe  Fe34  1  0.50076499  0.24697491  0.25260077  1
  Fe  Fe35  1  0.87419979  0.12310233  0.37614283  1
  Fe  Fe36  1  0.74713591  0.75039515  0.75016427  1
  Fe  Fe37  1  0.62650330  0.12502471  0.62614546  1
  Fe  Fe38  1  0.75115190  0.25024828  0.75194028  1
  Fe  Fe39  1  0.37607160  0.62185422  0.87615407  1
  Fe  Fe40  1  0.25261001  0.49536574  0.74855950  1
  Fe  Fe41  1  0.50262209  0.74981632  -0.00045563  1
  Fe  Fe42  1  0.87435557  0.62832459  0.62592966  1
  Fe  Fe43  1  0.37402099  0.62487110  0.12393155  1
  Fe  Fe44  1  0.49302960  0.00230001  0.24596062  1
  Fe  Fe45  1  0.24801558  0.25393882  -0.00309103  1
  Fe  Fe46  1  0.37653625  0.37358336  0.37883214  1
  Fe  Fe47  1  0.87418391  0.37579989  0.37501254  1
  Fe  Fe48  1  0.62401230  0.12172579  0.12532593  1
  Fe  Fe49  1  0.37539617  0.87427172  0.37609597  1
  Fe  Fe50  1  0.75380512  0.00048701  0.74794783  1
  Fe  Fe51  1  0.25157734  0.49923474  0.50291104  1
  Fe  Fe52  1  0.50234092  0.24892587  -0.00219621  1
  Fe  Fe53  1  -0.00075942  0.24760615  0.75152785  1
  Fe  Fe54  1  0.37633188  0.37398328  0.12226557  1
  Fe  Fe55  1  0.24919617  0.25480448  0.75061717  1
  Fe  Fe56  1  0.74900959  0.24878154  -0.00189596  1
  Fe  Fe57  1  0.12643031  0.61996704  0.87461339  1
  Fe  Fe58  1  0.87201529  0.62648130  0.37456111  1
  Fe  Fe59  1  0.25177200  0.49882870  0.24975690  1
  Fe  Fe60  1  0.74662063  0.75241928  -0.00092589  1
  Fe  Fe61  1  0.24856828  -0.00222068  0.74837549  1
  Fe  Fe62  1  0.74674686  0.24992431  0.49730232  1
  Fe  Fe63  1  -0.00262038  0.49987776  0.24898142  1
  Fe  Fe64  1  0.50012577  0.24965961  0.75064746  1
  Fe  Fe65  1  0.12418192  0.12790465  0.62365131  1
  Fe  Fe66  1  -0.00043131  0.24916390  0.25111607  1
  Fe  Fe67  1  0.49896351  0.74967994  0.74866523  1
  Fe  Fe68  1  0.62449292  0.62384319  0.62593459  1
  Fe  Fe69  1  0.12267341  0.37678823  0.12253036  1
  Fe  Fe70  1  0.12501984  0.12300756  0.37425043  1
  Fe  Fe71  1  0.62478166  0.12166604  0.87411440  1
  Fe  Fe72  1  0.24859569  0.74876659  -0.00173773  1
  Fe  Fe73  1  0.75122014  -0.00256810  0.50373177  1
  Fe  Fe74  1  0.37404963  0.12609207  0.87534339  1
  Fe  Fe75  1  0.49658884  -0.00005661  0.74836928  1
  Fe  Fe76  1  -0.00245386  0.75218204  0.25158675  1
  Fe  Fe77  1  0.37680437  0.62498831  0.37859536  1
  Fe  Fe78  1  0.13009779  0.62706777  0.62650285  1
  Fe  Fe79  1  0.87558256  0.37243884  0.62371740  1
  Fe  Fe80  1  0.87437116  0.62694303  0.87261559  1
  Fe  Fe81  1  0.00206304  0.74835185  -0.00161066  1
  Fe  Fe82  1  -0.00061729  0.00323272  0.00112229  1
  Fe  Fe83  1  0.62259008  0.87743553  0.87327569  1
  Fe  Fe84  1  0.12519671  0.87648913  0.12638956  1
  Fe  Fe85  1  0.49942733  0.49972085  0.24990025  1
  Fe  Fe86  1  0.87829642  0.87657384  0.87296877  1
  Fe  Fe87  1  0.50074874  0.75014372  0.25085251  1
  Fe  Fe88  1  0.62742925  0.62573612  0.12730442  1
  Fe  Fe89  1  -0.00130200  0.49996548  0.74802261  1
  Co  Co90  1  0.37452002  0.13129676  0.12155414  1
  Co  Co91  1  0.62562523  0.11748406  0.37321580  1
  Co  Co92  1  0.24726273  0.74910721  0.49368548  1
  Co  Co93  1  0.11923794  0.37777390  0.87613499  1
  Co  Co94  1  0.62455484  0.87601016  0.62853935  1
  Co  Co95  1  0.62150831  0.87693051  0.12634550  1
  Co  Co96  1  0.24758051  0.24979490  0.49942347  1
  Co  Co97  1  0.25004023  0.49832603  -0.00052613  1
  Co  Co98  1  0.50083257  0.50022078  0.50258886  1
  Co  Co99  1  0.87504934  0.12260747  0.87535891  1
  Co  Co100  1  0.87377577  0.12891903  0.62410136  1
  Co  Co101  1  0.62441307  0.37802840  0.37266654  1
  Co  Co102  1  -0.00373132  0.00051871  0.24879898  1
  Co  Co103  1  0.75043030  0.75545914  0.25045052  1
  Co  Co104  1  0.37883139  0.37643936  0.87651143  1
  Co  Co105  1  0.37180229  0.63042627  0.62338705  1
  Co  Co106  1  0.37580100  0.12609887  0.37906581  1
  Co  Co107  1  -0.00281494  0.50485993  0.00138245  1
  Co  Co108  1  0.75275878  0.49890729  0.74988548  1
  Co  Co109  1  0.37723630  0.37000054  0.62158375  1
  Co  Co110  1  0.75193328  0.49889660  0.24887882  1
  Co  Co111  1  0.12871696  0.87279289  0.62240903  1
  Co  Co112  1  0.25573255  0.00073688  0.24977329  1
  Co  Co113  1  0.87610455  0.87034448  0.62780360  1
  Co  Co114  1  0.49689772  0.00091024  0.00006309  1
  Co  Co115  1  0.00159767  0.00022019  0.74594796  1
  Co  Co116  1  -0.00042820  0.24948602  0.49626793  1
  Co  Co117  1  0.00171802  0.24490568  0.00068577  1
  Co  Co118  1  0.50432680  0.75075248  0.50033826  1
  Co  Co119  1  0.12469836  0.88006897  0.87913866  1
  Co  Co120  1  0.50293899  0.50093487  0.00282838  1
  Co  Co121  1  0.37428931  0.87007335  0.12379669  1
  Co  Co122  1  0.62356480  0.62298005  0.87192072  1
  Co  Co123  1  0.12229985  0.37359485  0.62448078  1
  Co  Co124  1  0.62554138  0.37367123  0.62731564  1
  Co  Co125  1  0.24843533  0.75152335  0.75630532  1
  Co  Co126  1  0.87601724  0.87437980  0.37892903  1
  Co  Co127  1  0.87856938  0.87278508  0.12085349  1
