# generated using pymatgen
data_Fe45Co19
_symmetry_space_group_name_H-M   'P 1'
_cell_length_a   11.41538564
_cell_length_b   11.41445565
_cell_length_c   11.41532401
_cell_angle_alpha   89.99334596
_cell_angle_beta   89.99547076
_cell_angle_gamma   90.00692435
_symmetry_Int_Tables_number   1
_chemical_formula_structural   Fe45Co19
_chemical_formula_sum   'Fe90 Co38'
_cell_volume   1487.42140876
_cell_formula_units_Z   2
loop_
 _symmetry_equiv_pos_site_id
 _symmetry_equiv_pos_as_xyz
  1  'x, y, z'
loop_
 _atom_site_type_symbol
 _atom_site_label
 _atom_site_symmetry_multiplicity
 _atom_site_fract_x
 _atom_site_fract_y
 _atom_site_fract_z
 _atom_site_occupancy
  Fe  Fe0  1  0.87322383  0.62694406  0.12461168  1
  Fe  Fe1  1  0.62537784  0.37719031  0.12681375  1
  Fe  Fe2  1  0.37592501  0.62484308  0.62298276  1
  Fe  Fe3  1  0.62191951  0.12549284  0.62241766  1
  Fe  Fe4  1  0.24976334  0.74733954  0.25028907  1
  Fe  Fe5  1  0.37429257  0.87382283  0.87655285  1
  Fe  Fe6  1  0.87622830  0.62521147  0.37804987  1
  Fe  Fe7  1  0.37224425  0.87291106  0.62648237  1
  Fe  Fe8  1  0.37654820  0.86850246  0.12314837  1
  Fe  Fe9  1  0.62407796  0.37819743  0.37157716  1
  Fe  Fe10  1  0.62271385  0.62259896  0.62556162  1
  Fe  Fe11  1  -0.00408117  -0.00164696  0.24935396  1
  Fe  Fe12  1  0.00428045  0.75382732  0.49861280  1
  Fe  Fe13  1  0.87527204  0.12556689  0.37675620  1
  Fe  Fe14  1  0.37746116  0.12580683  0.37371742  1
  Fe  Fe15  1  0.24744265  0.25333504  0.00458648  1
  Fe  Fe16  1  -0.00306759  -0.00173892  0.00129389  1
  Fe  Fe17  1  0.75082274  0.49907168  0.74949956  1
  Fe  Fe18  1  0.49715887  0.00214625  0.74995176  1
  Fe  Fe19  1  0.25211576  0.25103039  0.75067739  1
  Fe  Fe20  1  0.25118710  0.25181120  0.49718579  1
  Fe  Fe21  1  0.74597408  0.50146821  -0.00104123  1
  Fe  Fe22  1  0.12620092  0.12558749  0.62677534  1
  Fe  Fe23  1  0.62378703  0.87207446  0.12821257  1
  Fe  Fe24  1  0.75085872  0.25037993  -0.00010824  1
  Fe  Fe25  1  -0.00246863  0.50148488  0.25144562  1
  Fe  Fe26  1  0.37533480  0.62458531  0.88114805  1
  Fe  Fe27  1  0.49662093  0.50586521  0.24348720  1
  Fe  Fe28  1  -0.00012794  0.74950163  0.75144456  1
  Fe  Fe29  1  0.00155547  -0.00236974  0.50068044  1
  Fe  Fe30  1  0.25088292  0.49818329  0.50024555  1
  Fe  Fe31  1  0.74899661  0.24944509  0.25167811  1
  Fe  Fe32  1  0.49937444  -0.00130862  0.00177652  1
  Fe  Fe33  1  0.62109145  0.11897193  0.37697800  1
  Fe  Fe34  1  -0.00050102  0.24990531  0.25000042  1
  Fe  Fe35  1  0.75137214  0.24922223  0.74960220  1
  Fe  Fe36  1  0.74807567  0.25023048  0.49857872  1
  Fe  Fe37  1  0.87627459  0.12626714  0.87557529  1
  Fe  Fe38  1  0.00074035  0.25355516  -0.00135664  1
  Fe  Fe39  1  0.87655625  0.62471357  0.62198407  1
  Fe  Fe40  1  0.37673721  0.12971297  0.12577430  1
  Fe  Fe41  1  0.50077660  0.25501051  -0.00046526  1
  Fe  Fe42  1  0.12544059  0.12558091  0.87463338  1
  Fe  Fe43  1  -0.00010943  0.49716320  -0.00068878  1
  Fe  Fe44  1  0.87422119  0.87519312  0.62324553  1
  Fe  Fe45  1  0.12579358  0.62423214  0.12485926  1
  Fe  Fe46  1  0.37450333  0.12683116  0.87802223  1
  Fe  Fe47  1  0.62515135  0.12447405  0.12421458  1
  Fe  Fe48  1  0.12405026  0.87445756  0.12781525  1
  Fe  Fe49  1  0.50137052  0.75124570  0.49822292  1
  Fe  Fe50  1  0.37390823  0.62498393  0.37712265  1
  Fe  Fe51  1  0.62455008  0.87726964  0.62363001  1
  Fe  Fe52  1  0.12693167  0.62092393  0.87716147  1
  Fe  Fe53  1  0.12565387  0.62471269  0.62288548  1
  Fe  Fe54  1  0.62374263  0.12598532  0.87598509  1
  Fe  Fe55  1  0.12727754  0.37642020  0.62710114  1
  Fe  Fe56  1  0.87369206  0.62457846  0.87492075  1
  Fe  Fe57  1  0.75266624  -0.00121273  0.00179842  1
  Fe  Fe58  1  0.37475942  0.37345771  0.36803238  1
  Fe  Fe59  1  0.25046400  -0.00059971  0.00157898  1
  Fe  Fe60  1  0.62436139  0.62241291  0.37440838  1
  Fe  Fe61  1  0.74651982  0.75133611  0.49852093  1
  Fe  Fe62  1  0.87429567  0.37505005  0.12647280  1
  Fe  Fe63  1  0.75199334  0.00242112  0.74841417  1
  Fe  Fe64  1  0.00194862  0.25093162  0.50068539  1
  Fe  Fe65  1  0.49862751  0.49648891  0.49959611  1
  Fe  Fe66  1  0.37630079  0.12829473  0.62263904  1
  Fe  Fe67  1  0.62142702  0.37375128  0.62655185  1
  Fe  Fe68  1  0.12562464  0.87790114  0.87234397  1
  Fe  Fe69  1  0.24907922  0.74685849  0.75170800  1
  Fe  Fe70  1  0.12578719  0.37654598  0.37129575  1
  Fe  Fe71  1  0.75122995  0.49827929  0.49945396  1
  Fe  Fe72  1  0.75225146  -0.00115269  0.25012831  1
  Fe  Fe73  1  0.75020555  0.74933823  0.74940366  1
  Fe  Fe74  1  0.74983461  0.75000031  0.25413823  1
  Fe  Fe75  1  0.12549283  0.12235642  0.37389282  1
  Fe  Fe76  1  0.49691107  0.49690946  0.75375582  1
  Fe  Fe77  1  0.00068394  0.75097959  -0.00066549  1
  Fe  Fe78  1  0.12224832  0.12469121  0.12508831  1
  Fe  Fe79  1  0.74715152  0.74990726  -0.00301882  1
  Fe  Fe80  1  -0.00145505  0.00106658  0.74843419  1
  Fe  Fe81  1  0.12587711  0.62412505  0.37646641  1
  Fe  Fe82  1  0.00020784  0.49839716  0.75110962  1
  Fe  Fe83  1  0.87660386  0.37406167  0.62402442  1
  Fe  Fe84  1  0.37575562  0.87516971  0.37371966  1
  Fe  Fe85  1  0.25292695  0.00186926  0.24695574  1
  Fe  Fe86  1  0.62528100  0.87733600  0.87315837  1
  Fe  Fe87  1  0.50052866  0.74985829  0.75169546  1
  Fe  Fe88  1  0.25226195  0.49514681  0.00616264  1
  Fe  Fe89  1  0.24957341  -0.00232855  0.50109650  1
  Co  Co90  1  0.49753921  0.00039540  0.24501616  1
  Co  Co91  1  0.49845854  0.74625218  0.25235429  1
  Co  Co92  1  0.87420123  0.87012135  0.12566941  1
  Co  Co93  1  0.25178425  0.50366746  0.24752710  1
  Co  Co94  1  0.24926074  0.75137785  0.49942571  1
  Co  Co95  1  0.37529687  0.37494425  0.62516862  1
  Co  Co96  1  0.50661991  0.74790262  -0.00190530  1
  Co  Co97  1  0.50044967  0.25310540  0.49655538  1
  Co  Co98  1  0.24630989  0.24669650  0.24928700  1
  Co  Co99  1  0.87424645  0.87513072  0.87449313  1
  Co  Co100  1  0.25241935  0.50349231  0.74862509  1
  Co  Co101  1  0.25299209  0.00255979  0.75033420  1
  Co  Co102  1  0.75149446  -0.00027241  0.49897813  1
  Co  Co103  1  0.12946507  0.37626224  0.87340513  1
  Co  Co104  1  0.62751889  0.62750783  0.12811723  1
  Co  Co105  1  0.87529130  0.12748631  0.12521814  1
  Co  Co106  1  0.12710960  0.87694982  0.37014341  1
  Co  Co107  1  0.00098560  0.49790343  0.49907548  1
  Co  Co108  1  0.62123505  0.87876964  0.37356193  1
  Co  Co109  1  0.62583370  0.37398985  0.87418543  1
  Co  Co110  1  0.87594941  0.37274964  0.37559783  1
  Co  Co111  1  0.87675690  0.12617622  0.62267565  1
  Co  Co112  1  0.37671369  0.37103200  0.13043283  1
  Co  Co113  1  0.87641853  0.87368001  0.37571644  1
  Co  Co114  1  0.50560590  0.24746297  0.25078145  1
  Co  Co115  1  0.49612516  -0.00202162  0.50282875  1
  Co  Co116  1  0.75408183  0.50082064  0.25149075  1
  Co  Co117  1  0.12289702  0.37586472  0.12971093  1
  Co  Co118  1  0.24369978  0.75285658  -0.00180649  1
  Co  Co119  1  0.87265535  0.37579564  0.87561688  1
  Co  Co120  1  0.62438453  0.62299835  0.87055842  1
  Co  Co121  1  0.12747207  0.87462814  0.62901847  1
  Co  Co122  1  0.49787374  0.24958738  0.75182037  1
  Co  Co123  1  0.37222864  0.37577433  0.87714309  1
  Co  Co124  1  0.37310505  0.63102130  0.11815118  1
  Co  Co125  1  0.00137443  0.74656259  0.25017633  1
  Co  Co126  1  0.00008280  0.25259339  0.75139842  1
  Co  Co127  1  0.50144111  0.49972428  0.00273814  1
