# generated using pymatgen
data_Fe45Co19
_symmetry_space_group_name_H-M   'P 1'
_cell_length_a   11.41340752
_cell_length_b   11.41375662
_cell_length_c   11.41540586
_cell_angle_alpha   90.00302288
_cell_angle_beta   89.99361749
_cell_angle_gamma   90.00358844
_symmetry_Int_Tables_number   1
_chemical_formula_structural   Fe45Co19
_chemical_formula_sum   'Fe90 Co38'
_cell_volume   1487.08325988
_cell_formula_units_Z   2
loop_
 _symmetry_equiv_pos_site_id
 _symmetry_equiv_pos_as_xyz
  1  'x, y, z'
loop_
 _atom_site_type_symbol
 _atom_site_label
 _atom_site_symmetry_multiplicity
 _atom_site_fract_x
 _atom_site_fract_y
 _atom_site_fract_z
 _atom_site_occupancy
  Fe  Fe0  1  0.75097031  0.00146121  0.74853989  1
  Fe  Fe1  1  0.62469419  0.62569356  0.12280943  1
  Fe  Fe2  1  -0.00056283  0.25196160  -0.00212994  1
  Fe  Fe3  1  0.62725802  0.62642185  0.37654841  1
  Fe  Fe4  1  0.12649990  0.87211451  0.87104367  1
  Fe  Fe5  1  0.50057261  0.50072959  -0.00241875  1
  Fe  Fe6  1  0.62385727  0.87596616  0.87498511  1
  Fe  Fe7  1  0.75078359  0.74936802  0.74918919  1
  Fe  Fe8  1  -0.00163466  0.75274045  -0.00218645  1
  Fe  Fe9  1  0.37599998  0.37769277  0.62639464  1
  Fe  Fe10  1  0.87687927  0.62524502  0.61999581  1
  Fe  Fe11  1  0.62410441  0.37518386  0.62669485  1
  Fe  Fe12  1  0.37418537  0.62386219  0.37763195  1
  Fe  Fe13  1  0.12590805  0.12409864  0.12226373  1
  Fe  Fe14  1  0.74866961  0.25078598  0.49921251  1
  Fe  Fe15  1  0.87513906  0.62351292  0.37995512  1
  Fe  Fe16  1  0.50276809  0.49900194  0.49939259  1
  Fe  Fe17  1  0.37293256  0.37570859  0.87362100  1
  Fe  Fe18  1  0.49951553  0.24942718  0.49918473  1
  Fe  Fe19  1  0.87389873  0.87672905  0.37250527  1
  Fe  Fe20  1  0.74772516  0.50124099  0.75132865  1
  Fe  Fe21  1  0.49904326  0.74694541  0.75026798  1
  Fe  Fe22  1  0.87501492  0.12280992  0.37680251  1
  Fe  Fe23  1  0.62490691  0.37575891  0.37288134  1
  Fe  Fe24  1  0.87625801  0.37801892  0.37480318  1
  Fe  Fe25  1  0.24920521  0.50240801  0.24908322  1
  Fe  Fe26  1  0.24924339  -0.00163532  0.74777027  1
  Fe  Fe27  1  0.49707549  0.75355420  0.00002333  1
  Fe  Fe28  1  0.62298206  0.37441431  0.12408858  1
  Fe  Fe29  1  0.24460752  0.49978576  0.50477908  1
  Fe  Fe30  1  0.74926255  0.50124363  0.24943235  1
  Fe  Fe31  1  0.62459047  0.62496157  0.62418126  1
  Fe  Fe32  1  0.62536209  0.12489250  0.62401196  1
  Fe  Fe33  1  0.24908945  0.50578379  0.74561474  1
  Fe  Fe34  1  0.25119479  0.24906384  0.74909775  1
  Fe  Fe35  1  0.12353804  0.62663832  0.12298752  1
  Fe  Fe36  1  0.50052540  -0.00048828  0.24833096  1
  Fe  Fe37  1  -0.00218081  0.24565656  0.75068944  1
  Fe  Fe38  1  0.37316582  0.62669246  0.12431593  1
  Fe  Fe39  1  0.12332717  0.86881845  0.62723387  1
  Fe  Fe40  1  0.25575643  -0.00445378  0.00005027  1
  Fe  Fe41  1  0.00067195  0.24812738  0.25083295  1
  Fe  Fe42  1  0.00182884  0.25355745  0.50019625  1
  Fe  Fe43  1  0.49955333  0.24738110  0.75178919  1
  Fe  Fe44  1  0.49707267  0.24510437  -0.00349197  1
  Fe  Fe45  1  0.75184922  0.24716215  0.75047834  1
  Fe  Fe46  1  0.24935196  0.00051054  0.24944988  1
  Fe  Fe47  1  0.87812505  0.87543753  0.62803339  1
  Fe  Fe48  1  0.87434055  0.62415884  0.87663136  1
  Fe  Fe49  1  0.12596286  0.12667872  0.62260201  1
  Fe  Fe50  1  0.87765650  0.12196374  0.12555161  1
  Fe  Fe51  1  0.24852577  0.50007400  -0.00032721  1
  Fe  Fe52  1  0.37280327  0.12377011  0.37702083  1
  Fe  Fe53  1  0.75020318  0.24922709  0.24905266  1
  Fe  Fe54  1  0.37639553  0.37549050  0.12492801  1
  Fe  Fe55  1  0.12742254  0.87380878  0.37573384  1
  Fe  Fe56  1  0.37331993  0.87404042  0.37401814  1
  Fe  Fe57  1  0.87503668  0.37544873  0.62598328  1
  Fe  Fe58  1  0.00017469  0.50276000  0.74861178  1
  Fe  Fe59  1  0.87436190  0.12261408  0.87659415  1
  Fe  Fe60  1  0.25015074  0.24958868  0.24846153  1
  Fe  Fe61  1  -0.00016333  0.75020914  0.25141320  1
  Fe  Fe62  1  0.50199428  0.75220829  0.50035668  1
  Fe  Fe63  1  0.37461425  0.62578894  0.87481201  1
  Fe  Fe64  1  0.12461872  0.37558085  0.87215469  1
  Fe  Fe65  1  -0.00015472  -0.00407531  -0.00134687  1
  Fe  Fe66  1  0.87740786  0.62426178  0.12345447  1
  Fe  Fe67  1  0.62669429  0.37194070  0.87558577  1
  Fe  Fe68  1  0.12636140  0.87252474  0.12628499  1
  Fe  Fe69  1  0.37294563  0.37755910  0.37514917  1
  Fe  Fe70  1  0.50215769  -0.00158471  0.49946778  1
  Fe  Fe71  1  0.37309398  0.12462336  0.62314497  1
  Fe  Fe72  1  0.75257736  0.75417989  0.00000421  1
  Fe  Fe73  1  0.50013269  0.74849464  0.24985481  1
  Fe  Fe74  1  0.75012442  0.75045946  0.24861209  1
  Fe  Fe75  1  0.12229837  0.37748185  0.12611239  1
  Fe  Fe76  1  0.74729596  -0.00047744  0.24856446  1
  Fe  Fe77  1  0.49915420  0.24864309  0.25184712  1
  Fe  Fe78  1  0.00220989  -0.00180781  0.50115845  1
  Fe  Fe79  1  0.12556416  0.62777985  0.87430127  1
  Fe  Fe80  1  0.12856512  0.12442496  0.87690825  1
  Fe  Fe81  1  0.37564647  0.87360955  0.62599842  1
  Fe  Fe82  1  0.74948427  0.49826423  -0.00104860  1
  Fe  Fe83  1  0.12283498  0.62438801  0.37928024  1
  Fe  Fe84  1  0.74680053  -0.00401553  0.50126322  1
  Fe  Fe85  1  0.87785379  0.37757548  0.12472877  1
  Fe  Fe86  1  0.49891691  0.00361560  0.75399814  1
  Fe  Fe87  1  0.75024958  -0.00284114  0.00175912  1
  Fe  Fe88  1  0.62352961  0.12461005  0.12231573  1
  Fe  Fe89  1  0.12731120  0.12617140  0.37841837  1
  Co  Co90  1  0.50057086  0.50251392  0.24988747  1
  Co  Co91  1  0.25111351  0.25390724  0.50097960  1
  Co  Co92  1  0.37429565  0.12542303  0.12523014  1
  Co  Co93  1  0.00399507  0.49503656  0.50299152  1
  Co  Co94  1  0.25177381  0.74923012  0.50203098  1
  Co  Co95  1  0.75401692  0.25027956  0.00224408  1
  Co  Co96  1  0.37927944  0.62318804  0.62239917  1
  Co  Co97  1  0.87434775  0.87779117  0.87116357  1
  Co  Co98  1  0.37539352  0.87317351  0.87060373  1
  Co  Co99  1  0.24823911  0.74722582  0.25264164  1
  Co  Co100  1  0.00103026  0.50011252  -0.00330395  1
  Co  Co101  1  -0.00270950  0.75440399  0.49692894  1
  Co  Co102  1  0.24912909  -0.00397154  0.50278478  1
  Co  Co103  1  0.62495855  0.87315346  0.37187736  1
  Co  Co104  1  0.12458799  0.37224744  0.63076161  1
  Co  Co105  1  0.12658670  0.37535562  0.37114797  1
  Co  Co106  1  0.25345050  0.74630523  0.74657924  1
  Co  Co107  1  0.62268902  0.87539553  0.63063412  1
  Co  Co108  1  0.62584779  0.12388713  0.37560396  1
  Co  Co109  1  0.00461343  0.00043510  0.25174476  1
  Co  Co110  1  0.00236971  0.00314801  0.74928466  1
  Co  Co111  1  0.62912935  0.12379604  0.87674039  1
  Co  Co112  1  0.87492849  0.12397567  0.62052347  1
  Co  Co113  1  -0.00407886  0.74834173  0.75354643  1
  Co  Co114  1  0.24926844  0.25379620  0.00194052  1
  Co  Co115  1  0.74788694  0.49849850  0.50051918  1
  Co  Co116  1  0.11954797  0.63200807  0.62303317  1
  Co  Co117  1  0.62292316  0.87435724  0.12332210  1
  Co  Co118  1  0.87540004  0.37625905  0.87250235  1
  Co  Co119  1  0.36850677  0.12546335  0.87487423  1
  Co  Co120  1  0.74942207  0.75464903  0.50288675  1
  Co  Co121  1  0.62533313  0.62904096  0.87712641  1
  Co  Co122  1  -0.00060766  0.50336971  0.25186036  1
  Co  Co123  1  0.49521188  0.00066501  -0.00179571  1
  Co  Co124  1  0.87748456  0.87600336  0.12915115  1
  Co  Co125  1  0.25108958  0.75168919  -0.00162159  1
  Co  Co126  1  0.37348896  0.87265209  0.12963482  1
  Co  Co127  1  0.50242689  0.50088085  0.75383039  1
