# generated using pymatgen
data_Fe45Co19
_symmetry_space_group_name_H-M   'P 1'
_cell_length_a   11.41538032
_cell_length_b   11.41482536
_cell_length_c   11.41426717
_cell_angle_alpha   90.00300023
_cell_angle_beta   89.99736671
_cell_angle_gamma   89.99591179
_symmetry_Int_Tables_number   1
_chemical_formula_structural   Fe45Co19
_chemical_formula_sum   'Fe90 Co38'
_cell_volume   1487.33119945
_cell_formula_units_Z   2
loop_
 _symmetry_equiv_pos_site_id
 _symmetry_equiv_pos_as_xyz
  1  'x, y, z'
loop_
 _atom_site_type_symbol
 _atom_site_label
 _atom_site_symmetry_multiplicity
 _atom_site_fract_x
 _atom_site_fract_y
 _atom_site_fract_z
 _atom_site_occupancy
  Fe  Fe0  1  0.62326247  0.37403249  0.87595268  1
  Fe  Fe1  1  0.75042106  0.74847434  0.75143138  1
  Fe  Fe2  1  0.87429270  0.87337941  0.37558080  1
  Fe  Fe3  1  -0.00103744  0.74859896  0.25015177  1
  Fe  Fe4  1  0.00156494  0.25314198  0.25104230  1
  Fe  Fe5  1  0.12451988  0.37411182  0.87529263  1
  Fe  Fe6  1  0.24836659  0.25033864  0.25204076  1
  Fe  Fe7  1  0.12668014  0.87408865  0.62513862  1
  Fe  Fe8  1  0.49964053  0.49967709  0.24969861  1
  Fe  Fe9  1  -0.00092028  0.25098541  -0.00033306  1
  Fe  Fe10  1  0.75064216  0.74991231  0.24843647  1
  Fe  Fe11  1  0.74979397  0.24935581  0.75050338  1
  Fe  Fe12  1  0.74994645  -0.00137926  0.24850945  1
  Fe  Fe13  1  0.37460130  0.62263814  0.12352780  1
  Fe  Fe14  1  0.37339529  0.62301024  0.87753988  1
  Fe  Fe15  1  0.49874472  0.25043647  0.74968042  1
  Fe  Fe16  1  0.00227237  -0.00107400  0.25128877  1
  Fe  Fe17  1  0.25118198  0.74621335  0.74872068  1
  Fe  Fe18  1  0.74972012  0.75023045  0.50201081  1
  Fe  Fe19  1  0.37144149  0.87667175  0.87566387  1
  Fe  Fe20  1  0.24633628  0.49914357  0.24876112  1
  Fe  Fe21  1  0.74893643  0.49895569  0.50042477  1
  Fe  Fe22  1  0.12348993  0.62659383  0.12062225  1
  Fe  Fe23  1  0.75073573  0.24980582  0.00102717  1
  Fe  Fe24  1  0.49989120  -0.00212190  0.74836909  1
  Fe  Fe25  1  0.62598511  0.87479888  0.87371657  1
  Fe  Fe26  1  0.37706411  0.62704808  0.37729489  1
  Fe  Fe27  1  0.12192329  0.62467689  0.37648779  1
  Fe  Fe28  1  0.12696726  0.87270099  0.37555855  1
  Fe  Fe29  1  0.12675077  0.12810761  0.62477351  1
  Fe  Fe30  1  0.49895660  -0.00017111  0.00050642  1
  Fe  Fe31  1  0.37250055  0.87282392  0.62221844  1
  Fe  Fe32  1  0.00514602  -0.00549040  -0.00249117  1
  Fe  Fe33  1  0.37338001  0.37583640  0.12257821  1
  Fe  Fe34  1  0.87737052  0.12388104  0.87482112  1
  Fe  Fe35  1  0.87406132  0.87580765  0.62766737  1
  Fe  Fe36  1  0.00204819  0.49963908  -0.00229849  1
  Fe  Fe37  1  0.87479872  0.12541093  0.62555683  1
  Fe  Fe38  1  0.62577902  0.12616903  0.37445215  1
  Fe  Fe39  1  0.37397984  0.12593431  0.62529652  1
  Fe  Fe40  1  0.25123469  0.50313074  0.50052312  1
  Fe  Fe41  1  0.37336608  0.37512172  0.37539500  1
  Fe  Fe42  1  0.25153969  0.00136302  0.49694587  1
  Fe  Fe43  1  0.62487770  0.12447009  0.62476691  1
  Fe  Fe44  1  0.12218339  0.62538774  0.62587081  1
  Fe  Fe45  1  -0.00168289  0.50009508  0.49966636  1
  Fe  Fe46  1  0.62454465  0.37624262  0.12406921  1
  Fe  Fe47  1  0.37455796  0.37699922  0.62499833  1
  Fe  Fe48  1  0.62245932  0.12501543  0.87498354  1
  Fe  Fe49  1  0.74965484  -0.00048816  0.50152470  1
  Fe  Fe50  1  0.62630113  0.37345720  0.37438009  1
  Fe  Fe51  1  0.87670133  0.87480845  0.12365359  1
  Fe  Fe52  1  0.37622224  0.37516618  0.87724433  1
  Fe  Fe53  1  0.62378296  0.62557866  0.12392532  1
  Fe  Fe54  1  0.62093433  0.62372823  0.62455009  1
  Fe  Fe55  1  0.12552963  0.12451784  0.12463109  1
  Fe  Fe56  1  0.50027152  0.25245542  0.50137214  1
  Fe  Fe57  1  0.87721873  0.62455535  0.62645123  1
  Fe  Fe58  1  -0.00059495  0.75067645  0.75385944  1
  Fe  Fe59  1  0.24824333  0.50057142  0.75052948  1
  Fe  Fe60  1  0.49954937  -0.00338472  0.25229373  1
  Fe  Fe61  1  0.75156650  0.74934953  -0.00249707  1
  Fe  Fe62  1  0.87425503  0.37476877  0.62601594  1
  Fe  Fe63  1  0.74843693  0.50113417  -0.00296332  1
  Fe  Fe64  1  0.50045088  0.75307680  0.24920335  1
  Fe  Fe65  1  0.75014648  -0.00030096  -0.00072965  1
  Fe  Fe66  1  0.49783469  0.75066268  0.00055368  1
  Fe  Fe67  1  -0.00006078  0.25195583  0.74843522  1
  Fe  Fe68  1  0.36897974  0.87855880  0.12590765  1
  Fe  Fe69  1  0.75145218  0.50126835  0.25027575  1
  Fe  Fe70  1  0.74973933  0.50061902  0.75227416  1
  Fe  Fe71  1  0.24937521  0.74835689  0.24938307  1
  Fe  Fe72  1  0.00174445  -0.00169603  0.75188651  1
  Fe  Fe73  1  0.37269923  0.12295473  0.12558837  1
  Fe  Fe74  1  0.87560682  0.37454948  0.37400049  1
  Fe  Fe75  1  0.87653350  0.37700481  0.12526250  1
  Fe  Fe76  1  0.49987345  -0.00464101  0.49838255  1
  Fe  Fe77  1  0.12505603  0.12817440  0.37781138  1
  Fe  Fe78  1  0.49819681  0.75014529  0.74887082  1
  Fe  Fe79  1  0.25118177  0.24652465  -0.00353017  1
  Fe  Fe80  1  0.87767335  0.12394980  0.12536254  1
  Fe  Fe81  1  0.12680872  0.37264344  0.62146569  1
  Fe  Fe82  1  0.87322302  0.12744615  0.37446330  1
  Fe  Fe83  1  0.49963400  0.50121141  0.75168405  1
  Fe  Fe84  1  0.49995070  0.25072210  0.24754684  1
  Fe  Fe85  1  0.87724952  0.62401844  0.12279357  1
  Fe  Fe86  1  0.62417471  0.62667338  0.37613285  1
  Fe  Fe87  1  0.62486806  0.12416043  0.12589539  1
  Fe  Fe88  1  -0.00029063  -0.00038515  0.50063887  1
  Fe  Fe89  1  0.24921491  0.00378140  0.75325520  1
  Co  Co90  1  0.50105661  0.50115517  0.00041597  1
  Co  Co91  1  0.24826928  0.49982545  -0.00013810  1
  Co  Co92  1  0.12759397  0.87419475  0.12731577  1
  Co  Co93  1  0.87476744  0.62513548  0.37604859  1
  Co  Co94  1  -0.00049174  0.75369669  -0.00348083  1
  Co  Co95  1  0.12144352  0.12773935  0.87309701  1
  Co  Co96  1  0.75098176  0.25026044  0.24625959  1
  Co  Co97  1  0.37152846  0.87125578  0.37529557  1
  Co  Co98  1  0.37864717  0.62379607  0.62311011  1
  Co  Co99  1  0.25360986  0.24910458  0.49949100  1
  Co  Co100  1  0.50141362  0.75343851  0.50135982  1
  Co  Co101  1  0.00242208  0.49989381  0.24946218  1
  Co  Co102  1  0.24851409  0.00261757  0.25443623  1
  Co  Co103  1  -0.00067965  0.75187218  0.50101550  1
  Co  Co104  1  0.62753012  0.87384856  0.37464036  1
  Co  Co105  1  0.12528836  0.62603768  0.87600057  1
  Co  Co106  1  0.37805526  0.12394038  0.87389350  1
  Co  Co107  1  -0.00255507  0.24956206  0.50024115  1
  Co  Co108  1  0.24829893  0.74651637  0.50169402  1
  Co  Co109  1  0.74913393  0.25104692  0.50196924  1
  Co  Co110  1  0.49940959  0.24890220  0.00256229  1
  Co  Co111  1  0.00290010  0.49789080  0.74975558  1
  Co  Co112  1  0.37896726  0.12670166  0.37448895  1
  Co  Co113  1  0.87819598  0.62222253  0.87443958  1
  Co  Co114  1  0.12549714  0.37584497  0.37915759  1
  Co  Co115  1  0.62416503  0.37699825  0.62798980  1
  Co  Co116  1  0.87233465  0.87678555  0.87351433  1
  Co  Co117  1  0.25123987  0.25081632  0.75218727  1
  Co  Co118  1  0.62702026  0.87481048  0.62798346  1
  Co  Co119  1  0.62573016  0.87437937  0.12302712  1
  Co  Co120  1  0.62286043  0.62691336  0.87454245  1
  Co  Co121  1  0.13055200  0.87103538  0.87325265  1
  Co  Co122  1  0.12581947  0.37306418  0.12197045  1
  Co  Co123  1  0.50044904  0.49818989  0.49816270  1
  Co  Co124  1  0.25168712  0.75025360  0.00085368  1
  Co  Co125  1  0.74959383  0.00315516  0.75085343  1
  Co  Co126  1  0.24625752  0.00280617  -0.00364640  1
  Co  Co127  1  0.87539158  0.37574243  0.87455275  1
