# generated using pymatgen
data_Fe45Co19
_symmetry_space_group_name_H-M   'P 1'
_cell_length_a   11.41604971
_cell_length_b   11.41388443
_cell_length_c   11.41610433
_cell_angle_alpha   90.00055760
_cell_angle_beta   89.99462996
_cell_angle_gamma   89.99544543
_symmetry_Int_Tables_number   1
_chemical_formula_structural   Fe45Co19
_chemical_formula_sum   'Fe90 Co38'
_cell_volume   1487.53518739
_cell_formula_units_Z   2
loop_
 _symmetry_equiv_pos_site_id
 _symmetry_equiv_pos_as_xyz
  1  'x, y, z'
loop_
 _atom_site_type_symbol
 _atom_site_label
 _atom_site_symmetry_multiplicity
 _atom_site_fract_x
 _atom_site_fract_y
 _atom_site_fract_z
 _atom_site_occupancy
  Fe  Fe0  1  0.62436608  0.62602298  0.87414908  1
  Fe  Fe1  1  0.37505288  0.12974037  0.62360353  1
  Fe  Fe2  1  0.74698520  0.00179746  0.50278256  1
  Fe  Fe3  1  0.62346305  0.12495614  0.37325361  1
  Fe  Fe4  1  0.25051456  0.75053630  -0.00013275  1
  Fe  Fe5  1  0.37310961  0.37517293  0.87465716  1
  Fe  Fe6  1  0.12469404  0.12287163  0.87416920  1
  Fe  Fe7  1  0.00087877  0.50030913  0.24765531  1
  Fe  Fe8  1  0.24844799  0.75015875  0.49848776  1
  Fe  Fe9  1  0.74892804  0.75107171  -0.00009720  1
  Fe  Fe10  1  0.12112698  0.87617007  0.12760674  1
  Fe  Fe11  1  0.12493522  0.62387758  0.62653392  1
  Fe  Fe12  1  0.50088862  0.75001973  0.50019085  1
  Fe  Fe13  1  0.87443373  0.37283000  0.37588273  1
  Fe  Fe14  1  -0.00008760  0.49836995  0.50142796  1
  Fe  Fe15  1  0.62491766  0.62349406  0.12454703  1
  Fe  Fe16  1  0.87502975  0.87677865  0.62425767  1
  Fe  Fe17  1  0.75072961  0.74911249  0.49964307  1
  Fe  Fe18  1  0.25115292  0.00199945  0.25223080  1
  Fe  Fe19  1  0.87671005  0.87640051  0.87541482  1
  Fe  Fe20  1  0.75160308  -0.00000449  0.24835448  1
  Fe  Fe21  1  0.87497292  0.12442666  0.87388695  1
  Fe  Fe22  1  0.74900095  0.49952200  0.24899718  1
  Fe  Fe23  1  0.49864755  0.49799651  0.74843189  1
  Fe  Fe24  1  0.87262372  0.37231775  0.62550798  1
  Fe  Fe25  1  0.50278164  0.24860237  0.24779556  1
  Fe  Fe26  1  0.50181433  0.24911893  0.00047999  1
  Fe  Fe27  1  0.12423778  0.12363915  0.12639643  1
  Fe  Fe28  1  0.50008089  -0.00229429  0.74529316  1
  Fe  Fe29  1  0.75208496  0.49905035  0.75402117  1
  Fe  Fe30  1  0.12089244  0.87740495  0.37306062  1
  Fe  Fe31  1  0.74871550  0.49892268  0.50045807  1
  Fe  Fe32  1  0.37779911  0.12314546  0.87492027  1
  Fe  Fe33  1  0.87379331  0.62343119  0.12214533  1
  Fe  Fe34  1  0.00097929  0.24978622  0.75064264  1
  Fe  Fe35  1  0.12496521  0.87734969  0.87469846  1
  Fe  Fe36  1  0.74546995  0.24931424  -0.00058053  1
  Fe  Fe37  1  0.12616151  0.87782319  0.62403404  1
  Fe  Fe38  1  0.25107751  0.24886298  -0.00092709  1
  Fe  Fe39  1  0.12736205  0.37125487  0.62534621  1
  Fe  Fe40  1  0.37472907  0.37558658  0.12570037  1
  Fe  Fe41  1  0.49924838  -0.00188746  0.00332139  1
  Fe  Fe42  1  0.62399761  0.87657434  0.37640340  1
  Fe  Fe43  1  0.50195290  0.49829617  0.49937328  1
  Fe  Fe44  1  0.87327559  0.37578103  0.12039802  1
  Fe  Fe45  1  0.49907042  0.74996440  0.25151517  1
  Fe  Fe46  1  0.62766666  0.37248837  0.37382055  1
  Fe  Fe47  1  0.37537644  0.37170417  0.37543447  1
  Fe  Fe48  1  0.62483105  0.87539950  0.12623051  1
  Fe  Fe49  1  0.25048800  0.49825659  0.49904515  1
  Fe  Fe50  1  0.87451677  0.12613414  0.62733298  1
  Fe  Fe51  1  0.24949414  0.00646917  0.49736124  1
  Fe  Fe52  1  0.12310708  0.37156731  0.37589004  1
  Fe  Fe53  1  0.62511946  0.13046900  0.62860024  1
  Fe  Fe54  1  0.00073295  0.75072380  0.75043397  1
  Fe  Fe55  1  0.25069412  -0.00124362  0.00183833  1
  Fe  Fe56  1  0.49972586  0.49954796  -0.00016989  1
  Fe  Fe57  1  0.49761334  0.75286731  0.74754492  1
  Fe  Fe58  1  0.37415010  0.62536543  0.62280065  1
  Fe  Fe59  1  0.75080135  0.75245169  0.75019740  1
  Fe  Fe60  1  0.25022497  0.24884870  0.25165155  1
  Fe  Fe61  1  0.00243221  0.74684736  0.00079452  1
  Fe  Fe62  1  0.62503784  0.37389413  0.87408578  1
  Fe  Fe63  1  -0.00007040  0.74934405  0.49924107  1
  Fe  Fe64  1  0.62258474  0.87688132  0.87337100  1
  Fe  Fe65  1  0.37369024  0.37027766  0.62412146  1
  Fe  Fe66  1  0.50006498  0.50130111  0.25264537  1
  Fe  Fe67  1  0.12696894  0.37790566  0.12279843  1
  Fe  Fe68  1  0.87540507  0.12776505  0.37567837  1
  Fe  Fe69  1  0.87497915  0.62319624  0.37536316  1
  Fe  Fe70  1  0.00243855  0.24922898  -0.00022424  1
  Fe  Fe71  1  0.37740861  0.87892467  0.37739471  1
  Fe  Fe72  1  0.37203380  0.62343440  0.12787467  1
  Fe  Fe73  1  0.24986578  0.75042439  0.25214276  1
  Fe  Fe74  1  0.25111798  0.00134568  0.74826731  1
  Fe  Fe75  1  0.12716143  0.37760841  0.87564158  1
  Fe  Fe76  1  0.49668380  0.75131067  0.00049141  1
  Fe  Fe77  1  0.25076929  0.75139093  0.74958310  1
  Fe  Fe78  1  0.37593537  0.12440013  0.12608235  1
  Fe  Fe79  1  0.74970987  -0.00044737  -0.00075618  1
  Fe  Fe80  1  0.87693269  0.87630687  0.37509936  1
  Fe  Fe81  1  0.87515916  0.62483258  0.62596912  1
  Fe  Fe82  1  -0.00176770  0.49982668  0.75364522  1
  Fe  Fe83  1  0.37296882  0.62460729  0.87337289  1
  Fe  Fe84  1  0.62628190  0.62454989  0.62559793  1
  Fe  Fe85  1  -0.00192182  0.25029588  0.24780454  1
  Fe  Fe86  1  0.75190051  0.75085244  0.25018859  1
  Fe  Fe87  1  0.87446780  0.12489945  0.12286654  1
  Fe  Fe88  1  0.12457965  0.62338264  0.37370302  1
  Fe  Fe89  1  0.00165820  0.00428342  0.50121490  1
  Co  Co90  1  0.50231264  0.00236309  0.50503089  1
  Co  Co91  1  0.25065743  0.24874986  0.75374037  1
  Co  Co92  1  0.62476481  0.37647341  0.12537077  1
  Co  Co93  1  -0.00073817  0.24871038  0.50247363  1
  Co  Co94  1  0.87746239  0.87480022  0.12364985  1
  Co  Co95  1  -0.00373167  0.00242832  0.24930892  1
  Co  Co96  1  0.62189430  0.12212155  0.87385486  1
  Co  Co97  1  0.12794473  0.62336900  0.87290305  1
  Co  Co98  1  0.62631892  0.62583944  0.37556294  1
  Co  Co99  1  0.74796475  0.49915153  -0.00350301  1
  Co  Co100  1  0.00048818  0.50292460  -0.00206912  1
  Co  Co101  1  -0.00032482  0.00081471  0.00010372  1
  Co  Co102  1  0.37366281  0.87498365  0.12731408  1
  Co  Co103  1  0.50379439  0.25168589  0.49968081  1
  Co  Co104  1  0.62757167  0.37456483  0.62740857  1
  Co  Co105  1  0.12867433  0.62321265  0.12665626  1
  Co  Co106  1  0.37385512  0.62539655  0.37671760  1
  Co  Co107  1  0.37187447  0.87556266  0.62072265  1
  Co  Co108  1  0.87412807  0.62784412  0.87646843  1
  Co  Co109  1  0.38110602  0.12520513  0.37452072  1
  Co  Co110  1  0.75000002  0.24997665  0.75356873  1
  Co  Co111  1  0.62506612  0.12289216  0.12490736  1
  Co  Co112  1  0.62641482  0.87208204  0.62396218  1
  Co  Co113  1  0.25195041  0.49913422  0.74762159  1
  Co  Co114  1  0.74890124  -0.00089170  0.74929811  1
  Co  Co115  1  -0.00205831  0.74699009  0.24958013  1
  Co  Co116  1  0.87587709  0.37139648  0.87892353  1
  Co  Co117  1  0.25233870  0.50090575  -0.00040695  1
  Co  Co118  1  0.75028644  0.24897161  0.24768115  1
  Co  Co119  1  0.00015639  -0.00029112  0.74905240  1
  Co  Co120  1  0.74852099  0.24938076  0.50033417  1
  Co  Co121  1  0.25002752  0.49733308  0.25356812  1
  Co  Co122  1  0.12634942  0.12741051  0.62652023  1
  Co  Co123  1  0.12058045  0.12774659  0.37208188  1
  Co  Co124  1  0.50000094  -0.00105355  0.24748258  1
  Co  Co125  1  0.37510241  0.87749802  0.87374365  1
  Co  Co126  1  0.24905538  0.24663337  0.49602988  1
  Co  Co127  1  0.49911597  0.25208801  0.75212617  1
