# generated using pymatgen
data_Fe45Co19
_symmetry_space_group_name_H-M   'P 1'
_cell_length_a   11.41447031
_cell_length_b   11.41440352
_cell_length_c   11.41512969
_cell_angle_alpha   89.99554378
_cell_angle_beta   90.00284654
_cell_angle_gamma   89.98440397
_symmetry_Int_Tables_number   1
_chemical_formula_structural   Fe45Co19
_chemical_formula_sum   'Fe90 Co38'
_cell_volume   1487.26999430
_cell_formula_units_Z   2
loop_
 _symmetry_equiv_pos_site_id
 _symmetry_equiv_pos_as_xyz
  1  'x, y, z'
loop_
 _atom_site_type_symbol
 _atom_site_label
 _atom_site_symmetry_multiplicity
 _atom_site_fract_x
 _atom_site_fract_y
 _atom_site_fract_z
 _atom_site_occupancy
  Fe  Fe0  1  0.87516267  0.37460016  0.62590403  1
  Fe  Fe1  1  0.37486753  0.37510930  0.87479363  1
  Fe  Fe2  1  0.00032665  0.75154722  0.75118138  1
  Fe  Fe3  1  0.62469273  0.37746028  0.87252014  1
  Fe  Fe4  1  0.12289437  0.62763348  0.87799611  1
  Fe  Fe5  1  0.62391963  0.37559629  0.62867425  1
  Fe  Fe6  1  0.62448740  0.37494476  0.37219903  1
  Fe  Fe7  1  0.74503186  0.24938660  0.24543877  1
  Fe  Fe8  1  0.37687942  0.62545960  0.37827827  1
  Fe  Fe9  1  0.87403048  0.61952820  0.12013220  1
  Fe  Fe10  1  0.12464156  0.62744589  0.62376680  1
  Fe  Fe11  1  0.25293948  0.74948863  0.75191266  1
  Fe  Fe12  1  0.12462052  0.87520104  0.12556846  1
  Fe  Fe13  1  0.24919713  0.75189994  0.49896740  1
  Fe  Fe14  1  -0.00076286  0.00147967  0.75086806  1
  Fe  Fe15  1  0.62054900  0.62619049  0.62199843  1
  Fe  Fe16  1  -0.00082455  0.24862048  0.25030138  1
  Fe  Fe17  1  -0.00055191  0.50183019  0.75286264  1
  Fe  Fe18  1  0.50154137  -0.00230955  0.49837367  1
  Fe  Fe19  1  0.37614984  0.87376692  0.62697395  1
  Fe  Fe20  1  0.62520723  0.87652651  0.36912831  1
  Fe  Fe21  1  0.25003188  0.00344315  0.24576115  1
  Fe  Fe22  1  0.37591226  0.37386498  0.62666404  1
  Fe  Fe23  1  0.50068079  -0.00941832  0.00380581  1
  Fe  Fe24  1  0.74981653  0.75151377  -0.00070194  1
  Fe  Fe25  1  0.87265712  0.37412419  0.37355160  1
  Fe  Fe26  1  0.00038906  0.25177172  0.00040077  1
  Fe  Fe27  1  0.62829860  0.12380845  0.62162603  1
  Fe  Fe28  1  0.62436241  0.87462558  0.62810813  1
  Fe  Fe29  1  0.74896220  0.74909849  0.75120872  1
  Fe  Fe30  1  0.37541170  0.87647207  0.37048061  1
  Fe  Fe31  1  0.37924724  0.37181728  0.12353850  1
  Fe  Fe32  1  0.87540810  0.87523737  0.62474295  1
  Fe  Fe33  1  0.37494110  0.37310409  0.37413498  1
  Fe  Fe34  1  0.62804302  0.11900754  0.87948475  1
  Fe  Fe35  1  0.87524823  0.87418135  0.37333924  1
  Fe  Fe36  1  0.12610841  0.37370664  0.87378831  1
  Fe  Fe37  1  0.62161316  0.62812188  0.87694321  1
  Fe  Fe38  1  0.12643397  0.12689040  0.37627325  1
  Fe  Fe39  1  0.25182278  0.24752795  0.24642293  1
  Fe  Fe40  1  0.87000452  0.12646444  0.37837981  1
  Fe  Fe41  1  0.12665073  0.37310461  0.37480586  1
  Fe  Fe42  1  0.49641600  0.50529649  0.74942415  1
  Fe  Fe43  1  0.74842526  0.49871347  0.49992138  1
  Fe  Fe44  1  0.50092079  0.25059967  0.49972617  1
  Fe  Fe45  1  0.87480331  0.12677651  0.12283092  1
  Fe  Fe46  1  0.37786359  0.12464082  0.37395503  1
  Fe  Fe47  1  -0.00107412  -0.00157414  0.00040452  1
  Fe  Fe48  1  0.49882194  0.50056805  0.24984481  1
  Fe  Fe49  1  0.87164797  0.12495831  0.62155019  1
  Fe  Fe50  1  0.12370569  0.37411195  0.12688883  1
  Fe  Fe51  1  0.50069219  0.49966167  -0.00073567  1
  Fe  Fe52  1  0.87518591  0.62662246  0.62308839  1
  Fe  Fe53  1  0.49968352  0.75056124  0.24742571  1
  Fe  Fe54  1  0.12474149  0.37250358  0.62481791  1
  Fe  Fe55  1  0.74856089  0.75265091  0.49870424  1
  Fe  Fe56  1  0.87364410  0.87541270  0.12811866  1
  Fe  Fe57  1  -0.00176623  0.24718220  0.75069815  1
  Fe  Fe58  1  0.25218952  0.50433867  0.74996887  1
  Fe  Fe59  1  -0.00129498  0.50197825  0.25056129  1
  Fe  Fe60  1  0.24976666  -0.00159769  0.75341542  1
  Fe  Fe61  1  0.25187800  0.75508394  -0.00216099  1
  Fe  Fe62  1  0.00004305  0.50019075  0.49847820  1
  Fe  Fe63  1  0.50057679  0.24524039  0.75412594  1
  Fe  Fe64  1  0.00025495  -0.00056557  0.49999131  1
  Fe  Fe65  1  0.74718145  0.00450434  0.24811058  1
  Fe  Fe66  1  0.25239871  0.24739501  0.75210491  1
  Fe  Fe67  1  0.24887738  0.49804972  -0.00002366  1
  Fe  Fe68  1  0.75189297  0.74519138  0.25036959  1
  Fe  Fe69  1  0.75116363  0.50444173  0.75229927  1
  Fe  Fe70  1  0.74660226  0.25259413  0.00197417  1
  Fe  Fe71  1  0.12730574  0.12390807  0.87909618  1
  Fe  Fe72  1  0.37947614  0.12655034  0.12028053  1
  Fe  Fe73  1  0.25106936  0.49973461  0.50095532  1
  Fe  Fe74  1  0.62554187  0.62332887  0.12428948  1
  Fe  Fe75  1  0.37541755  0.12435361  0.62544655  1
  Fe  Fe76  1  0.24913248  0.74758882  0.25109734  1
  Fe  Fe77  1  0.12599439  0.12604621  0.62363772  1
  Fe  Fe78  1  -0.00098893  0.74590153  0.25005662  1
  Fe  Fe79  1  0.62376281  0.62420189  0.37598770  1
  Fe  Fe80  1  0.12373669  0.87474814  0.37327137  1
  Fe  Fe81  1  0.00018232  0.00292203  0.25015889  1
  Fe  Fe82  1  0.87390277  0.37557274  0.87623997  1
  Fe  Fe83  1  0.87289296  0.87667281  0.87400663  1
  Fe  Fe84  1  0.25013384  -0.00085228  0.50037680  1
  Fe  Fe85  1  0.75006664  0.24713456  0.75145828  1
  Fe  Fe86  1  0.37521358  0.62685264  0.12165967  1
  Fe  Fe87  1  0.12449223  0.62598285  0.12220296  1
  Fe  Fe88  1  0.25138391  0.50115221  0.24875076  1
  Fe  Fe89  1  0.50151744  0.00047274  0.75152069  1
  Co  Co90  1  0.87677415  0.62627156  0.87728237  1
  Co  Co91  1  0.75144690  -0.00291120  0.00390364  1
  Co  Co92  1  0.49807171  0.74752396  0.75081442  1
  Co  Co93  1  0.50019380  0.49570264  0.49972815  1
  Co  Co94  1  0.37178245  0.87319250  0.12898521  1
  Co  Co95  1  0.62564737  0.12409529  0.37751370  1
  Co  Co96  1  0.87408762  0.37677744  0.12438400  1
  Co  Co97  1  0.62250348  0.37829162  0.12573096  1
  Co  Co98  1  0.62596338  0.87511278  0.87248378  1
  Co  Co99  1  0.50366807  0.25234195  -0.00559333  1
  Co  Co100  1  0.74895522  -0.00563555  0.49887923  1
  Co  Co101  1  0.37619771  0.62642164  0.88064013  1
  Co  Co102  1  0.25135446  -0.00333091  0.00186294  1
  Co  Co103  1  0.12556616  0.62432773  0.37569932  1
  Co  Co104  1  0.74774236  0.49921562  -0.00320030  1
  Co  Co105  1  0.37707201  0.62775579  0.61966960  1
  Co  Co106  1  0.00209819  0.49742049  -0.00186598  1
  Co  Co107  1  0.12356025  0.87508992  0.87632632  1
  Co  Co108  1  0.00091269  0.75155588  0.49892327  1
  Co  Co109  1  0.75163646  0.00104946  0.74929948  1
  Co  Co110  1  0.50197795  0.75553186  0.00374593  1
  Co  Co111  1  0.37873584  0.87497702  0.87246007  1
  Co  Co112  1  0.12590043  0.87490352  0.62628664  1
  Co  Co113  1  0.50110647  0.75600994  0.49730088  1
  Co  Co114  1  0.25250051  0.24914899  0.50068606  1
  Co  Co115  1  0.63020700  0.87301892  0.12940730  1
  Co  Co116  1  0.75018095  0.50021500  0.25070168  1
  Co  Co117  1  0.87273647  0.12522316  0.87918952  1
  Co  Co118  1  0.62019057  0.12424682  0.12056183  1
  Co  Co119  1  -0.00379458  0.75379634  0.00203911  1
  Co  Co120  1  0.12357084  0.12487624  0.12210938  1
  Co  Co121  1  0.74736894  0.25469531  0.50136298  1
  Co  Co122  1  0.50113173  -0.00005127  0.24648787  1
  Co  Co123  1  0.37574334  0.12133318  0.87982782  1
  Co  Co124  1  -0.00110127  0.24940292  0.49921029  1
  Co  Co125  1  0.50285352  0.24829230  0.25098090  1
  Co  Co126  1  0.87390630  0.62496351  0.37833474  1
  Co  Co127  1  0.25047067  0.25147058  0.00087004  1
