# generated using pymatgen
data_Fe45Co19
_symmetry_space_group_name_H-M   'P 1'
_cell_length_a   11.41573285
_cell_length_b   11.41572313
_cell_length_c   11.41632281
_cell_angle_alpha   89.99720353
_cell_angle_beta   90.00292204
_cell_angle_gamma   89.99691836
_symmetry_Int_Tables_number   1
_chemical_formula_structural   Fe45Co19
_chemical_formula_sum   'Fe90 Co38'
_cell_volume   1487.76200313
_cell_formula_units_Z   2
loop_
 _symmetry_equiv_pos_site_id
 _symmetry_equiv_pos_as_xyz
  1  'x, y, z'
loop_
 _atom_site_type_symbol
 _atom_site_label
 _atom_site_symmetry_multiplicity
 _atom_site_fract_x
 _atom_site_fract_y
 _atom_site_fract_z
 _atom_site_occupancy
  Fe  Fe0  1  0.24917113  0.25091126  0.74729668  1
  Fe  Fe1  1  0.62387984  0.12496623  0.62565450  1
  Fe  Fe2  1  0.75078108  0.24959906  0.75138764  1
  Fe  Fe3  1  0.62685781  0.37371436  0.62087869  1
  Fe  Fe4  1  0.00009120  0.75128779  0.49896998  1
  Fe  Fe5  1  0.87656710  0.62527976  0.62549484  1
  Fe  Fe6  1  0.12487658  0.37870032  0.87584641  1
  Fe  Fe7  1  0.75217284  0.00133258  0.75239194  1
  Fe  Fe8  1  0.37480716  0.12874075  0.37505124  1
  Fe  Fe9  1  -0.00071984  0.49924849  0.50203225  1
  Fe  Fe10  1  0.37282021  0.37165195  0.37476904  1
  Fe  Fe11  1  0.49872188  0.00008998  0.00089319  1
  Fe  Fe12  1  0.12712171  0.87713991  0.87441180  1
  Fe  Fe13  1  0.00136482  0.25176448  0.75150521  1
  Fe  Fe14  1  0.12612838  0.62470660  0.62477929  1
  Fe  Fe15  1  0.24950549  0.00197281  0.74639756  1
  Fe  Fe16  1  0.00218033  -0.00067181  0.50120401  1
  Fe  Fe17  1  0.37374580  0.37580884  0.87309639  1
  Fe  Fe18  1  0.12685071  0.12616033  0.37879669  1
  Fe  Fe19  1  0.50053261  0.49827260  0.74977224  1
  Fe  Fe20  1  0.62377196  0.87393834  0.62600686  1
  Fe  Fe21  1  0.62320913  0.12702508  0.12433372  1
  Fe  Fe22  1  0.49735215  -0.00092941  0.74905711  1
  Fe  Fe23  1  0.37412473  0.12663808  0.62201505  1
  Fe  Fe24  1  0.62415311  0.87292297  0.12764698  1
  Fe  Fe25  1  0.87064658  0.37576543  0.37863579  1
  Fe  Fe26  1  0.62522340  0.37423426  0.12463217  1
  Fe  Fe27  1  0.75069467  0.24756978  -0.00355451  1
  Fe  Fe28  1  0.74880648  0.74867821  0.50026838  1
  Fe  Fe29  1  0.12748261  0.62310941  0.12373082  1
  Fe  Fe30  1  0.50045257  0.74988877  0.50035328  1
  Fe  Fe31  1  0.87474312  0.62436069  0.12641059  1
  Fe  Fe32  1  0.00224805  0.24997425  0.25253082  1
  Fe  Fe33  1  0.12570249  0.62279478  0.37557592  1
  Fe  Fe34  1  0.87358163  0.87700776  0.37311222  1
  Fe  Fe35  1  0.00053815  0.24975043  -0.00271963  1
  Fe  Fe36  1  0.74907039  0.00185632  0.49982346  1
  Fe  Fe37  1  0.37406213  0.87509689  0.37343301  1
  Fe  Fe38  1  0.49900914  0.00127808  0.24826415  1
  Fe  Fe39  1  0.12711226  0.87528473  0.62482774  1
  Fe  Fe40  1  -0.00077914  0.49872791  0.24955640  1
  Fe  Fe41  1  0.12747246  0.87537117  0.37505023  1
  Fe  Fe42  1  0.75069024  0.49989299  0.00024216  1
  Fe  Fe43  1  -0.00035379  0.75092827  0.25028211  1
  Fe  Fe44  1  0.49916027  0.49857440  0.50025769  1
  Fe  Fe45  1  0.87926777  0.12662410  0.62549786  1
  Fe  Fe46  1  0.37329155  0.62628020  0.12274957  1
  Fe  Fe47  1  0.12699881  0.62031354  0.87678212  1
  Fe  Fe48  1  0.49776233  0.49805945  -0.00003354  1
  Fe  Fe49  1  0.49781655  -0.00073836  0.50077263  1
  Fe  Fe50  1  0.25125287  0.74971148  0.50040998  1
  Fe  Fe51  1  0.25386239  0.74917285  0.75352086  1
  Fe  Fe52  1  0.62442726  0.87380194  0.37289878  1
  Fe  Fe53  1  0.62262473  0.62473151  0.87412282  1
  Fe  Fe54  1  0.37363886  0.62445146  0.37492439  1
  Fe  Fe55  1  0.49559219  0.75204375  -0.00331898  1
  Fe  Fe56  1  0.12908530  0.37680361  0.37589540  1
  Fe  Fe57  1  0.00081777  0.75008052  -0.00093679  1
  Fe  Fe58  1  0.49958079  0.25019918  -0.00173274  1
  Fe  Fe59  1  0.37358715  0.37097697  0.12796849  1
  Fe  Fe60  1  0.62418034  0.62590292  0.12663939  1
  Fe  Fe61  1  0.49955823  0.49797598  0.25009087  1
  Fe  Fe62  1  0.62213235  0.12708262  0.37591941  1
  Fe  Fe63  1  0.74729393  0.25024921  0.25177946  1
  Fe  Fe64  1  0.87568239  0.12355488  0.37407415  1
  Fe  Fe65  1  0.37652900  0.62453394  0.62731610  1
  Fe  Fe66  1  0.24991230  0.74903310  0.24902087  1
  Fe  Fe67  1  0.12496772  0.87627774  0.12540272  1
  Fe  Fe68  1  0.12592028  0.37557569  0.12624625  1
  Fe  Fe69  1  0.62752641  0.62215657  0.37310126  1
  Fe  Fe70  1  0.87539382  0.87534747  0.62605742  1
  Fe  Fe71  1  0.75118572  0.49878329  0.74782113  1
  Fe  Fe72  1  0.87732720  0.62205935  0.87451453  1
  Fe  Fe73  1  0.37447326  0.12523465  0.87533243  1
  Fe  Fe74  1  0.87708466  0.12398488  0.12728188  1
  Fe  Fe75  1  0.87365291  0.62352968  0.37409298  1
  Fe  Fe76  1  0.24878316  0.24891540  0.00104913  1
  Fe  Fe77  1  0.62424552  0.87583187  0.87343038  1
  Fe  Fe78  1  0.87516548  0.87790216  0.12708807  1
  Fe  Fe79  1  0.25119719  0.00247104  0.00331757  1
  Fe  Fe80  1  0.75066902  0.75023137  -0.00022621  1
  Fe  Fe81  1  0.74906975  0.74908708  0.75016871  1
  Fe  Fe82  1  0.24964778  0.00449532  0.24772555  1
  Fe  Fe83  1  0.74998562  0.00180773  -0.00199572  1
  Fe  Fe84  1  0.62609020  0.37416073  0.87531083  1
  Fe  Fe85  1  0.49947503  0.25033983  0.74840902  1
  Fe  Fe86  1  0.87509369  0.37360501  0.12378765  1
  Fe  Fe87  1  0.12516345  0.37559327  0.62243804  1
  Fe  Fe88  1  -0.00089964  0.00109427  -0.00443967  1
  Fe  Fe89  1  0.00124676  0.75090199  0.75173540  1
  Co  Co90  1  0.37774370  0.12891817  0.12516617  1
  Co  Co91  1  0.87751005  0.12623535  0.87310215  1
  Co  Co92  1  0.24927988  0.49900308  0.74853334  1
  Co  Co93  1  0.49666078  0.75189330  0.75307266  1
  Co  Co94  1  0.12676275  0.12452060  0.87412086  1
  Co  Co95  1  0.25083745  0.00088345  0.50038083  1
  Co  Co96  1  0.75151802  0.75066222  0.25036506  1
  Co  Co97  1  0.00088040  -0.00136092  0.75045984  1
  Co  Co98  1  0.62186979  0.12474106  0.87402240  1
  Co  Co99  1  0.37471848  0.62049057  0.87495458  1
  Co  Co100  1  0.37304248  0.87999261  0.87508757  1
  Co  Co101  1  0.25060917  0.25107731  0.50312354  1
  Co  Co102  1  0.62171354  0.62546722  0.62672208  1
  Co  Co103  1  0.37389590  0.87419661  0.12768894  1
  Co  Co104  1  0.25210373  0.50053784  0.24907748  1
  Co  Co105  1  0.24639991  0.24637650  0.24834976  1
  Co  Co106  1  0.12016614  0.12514834  0.12319887  1
  Co  Co107  1  0.00022240  0.49848796  0.74719625  1
  Co  Co108  1  0.25194351  0.49998092  0.50192392  1
  Co  Co109  1  0.74583566  0.00162076  0.25004673  1
  Co  Co110  1  0.12259388  0.12595920  0.62384072  1
  Co  Co111  1  0.75095920  0.50273536  0.50426402  1
  Co  Co112  1  0.87544900  0.37730868  0.87569750  1
  Co  Co113  1  0.49872113  0.74741997  0.25090968  1
  Co  Co114  1  0.00017547  0.49996161  0.00227677  1
  Co  Co115  1  0.37557844  0.37641833  0.62530610  1
  Co  Co116  1  0.87439249  0.87353731  0.87467880  1
  Co  Co117  1  0.74924723  0.24503059  0.49952746  1
  Co  Co118  1  0.25213061  0.49642218  0.00117131  1
  Co  Co119  1  0.37416732  0.87324717  0.62388087  1
  Co  Co120  1  0.74946748  0.49788612  0.24717278  1
  Co  Co121  1  0.49955743  0.25123523  0.50190255  1
  Co  Co122  1  0.25071480  0.75153609  -0.00234521  1
  Co  Co123  1  0.00106739  0.25109006  0.49677473  1
  Co  Co124  1  0.87453218  0.37125173  0.62305659  1
  Co  Co125  1  0.62736519  0.37652203  0.37892278  1
  Co  Co126  1  0.00367772  0.00065560  0.25287208  1
  Co  Co127  1  0.50349779  0.25226271  0.25108488  1
