# generated using pymatgen
data_Fe45Co19
_symmetry_space_group_name_H-M   'P 1'
_cell_length_a   11.41492518
_cell_length_b   11.41536650
_cell_length_c   11.41361288
_cell_angle_alpha   90.00586702
_cell_angle_beta   89.99373214
_cell_angle_gamma   90.00340199
_symmetry_Int_Tables_number   1
_chemical_formula_structural   Fe45Co19
_chemical_formula_sum   'Fe90 Co38'
_cell_volume   1487.25713458
_cell_formula_units_Z   2
loop_
 _symmetry_equiv_pos_site_id
 _symmetry_equiv_pos_as_xyz
  1  'x, y, z'
loop_
 _atom_site_type_symbol
 _atom_site_label
 _atom_site_symmetry_multiplicity
 _atom_site_fract_x
 _atom_site_fract_y
 _atom_site_fract_z
 _atom_site_occupancy
  Fe  Fe0  1  0.75193173  0.24885108  0.25048299  1
  Fe  Fe1  1  0.37545389  0.37228621  0.12199413  1
  Fe  Fe2  1  0.74959012  0.50031722  0.24875360  1
  Fe  Fe3  1  0.62415758  0.37407019  0.12583975  1
  Fe  Fe4  1  0.37420329  0.87769020  0.12687849  1
  Fe  Fe5  1  0.37389385  0.12983231  0.87294080  1
  Fe  Fe6  1  0.49806847  0.24754462  0.24833802  1
  Fe  Fe7  1  0.12467257  0.12373738  0.12077221  1
  Fe  Fe8  1  0.24533131  0.25489929  -0.00486844  1
  Fe  Fe9  1  -0.00056985  -0.00255278  0.24630640  1
  Fe  Fe10  1  0.74911858  0.25164692  0.00015083  1
  Fe  Fe11  1  0.12547223  0.62512010  0.37603386  1
  Fe  Fe12  1  0.62651019  0.12631749  0.37669764  1
  Fe  Fe13  1  0.24734147  0.49582066  -0.00442032  1
  Fe  Fe14  1  0.24781100  0.00078666  0.50175031  1
  Fe  Fe15  1  0.75312341  0.00164299  0.75069807  1
  Fe  Fe16  1  0.62457524  0.87502897  0.12568421  1
  Fe  Fe17  1  0.62686535  0.87530910  0.62636861  1
  Fe  Fe18  1  -0.00341367  0.74784312  0.74892604  1
  Fe  Fe19  1  0.25219487  0.75095959  0.75205588  1
  Fe  Fe20  1  -0.00388899  0.50467086  0.75078030  1
  Fe  Fe21  1  0.62348616  0.62369788  0.37622149  1
  Fe  Fe22  1  0.74930355  0.49774901  0.50099784  1
  Fe  Fe23  1  0.49948613  0.00262216  -0.00086634  1
  Fe  Fe24  1  0.75038391  -0.00069163  -0.00088072  1
  Fe  Fe25  1  0.74932418  0.24984156  0.74638104  1
  Fe  Fe26  1  0.62431118  0.87481714  0.87265182  1
  Fe  Fe27  1  0.25038825  0.49855833  0.50172579  1
  Fe  Fe28  1  0.75322910  0.00030279  0.49915348  1
  Fe  Fe29  1  0.00067716  0.50062459  0.24886875  1
  Fe  Fe30  1  0.12014691  0.12458062  0.37766412  1
  Fe  Fe31  1  0.49811089  0.49939330  0.25080144  1
  Fe  Fe32  1  0.12640133  0.37470860  0.37232672  1
  Fe  Fe33  1  0.12516306  0.62460951  0.87369581  1
  Fe  Fe34  1  0.87659531  0.37658679  0.87794355  1
  Fe  Fe35  1  0.62691953  0.62278551  0.62650504  1
  Fe  Fe36  1  0.87598996  0.62485871  0.37832246  1
  Fe  Fe37  1  -0.00070037  0.25016000  0.24864017  1
  Fe  Fe38  1  0.49669692  0.75004294  0.25192913  1
  Fe  Fe39  1  0.25180561  0.75201317  -0.00254883  1
  Fe  Fe40  1  0.25134773  0.75093085  0.49887820  1
  Fe  Fe41  1  0.49991472  0.74892334  -0.00199764  1
  Fe  Fe42  1  0.25182133  0.49860852  0.25017549  1
  Fe  Fe43  1  0.87443314  0.37262672  0.37567639  1
  Fe  Fe44  1  -0.00180408  0.75314051  0.50216831  1
  Fe  Fe45  1  0.75179750  0.00211474  0.24995612  1
  Fe  Fe46  1  0.12419791  0.87682841  0.62830083  1
  Fe  Fe47  1  0.62643830  0.12607963  0.87355463  1
  Fe  Fe48  1  0.37512824  0.12534368  0.37905102  1
  Fe  Fe49  1  0.12632859  0.87550820  0.37264424  1
  Fe  Fe50  1  0.37306279  0.62485163  0.62546879  1
  Fe  Fe51  1  0.25050255  0.24703526  0.24952175  1
  Fe  Fe52  1  0.50017135  0.00040388  0.50235369  1
  Fe  Fe53  1  0.62368230  0.37357944  0.37673231  1
  Fe  Fe54  1  0.50274607  0.49988863  -0.00244444  1
  Fe  Fe55  1  0.87410649  0.87424198  0.37360309  1
  Fe  Fe56  1  0.37495567  0.37170092  0.62913971  1
  Fe  Fe57  1  0.00180335  0.75272756  0.00201343  1
  Fe  Fe58  1  0.37494476  0.62303006  0.12260796  1
  Fe  Fe59  1  0.50466886  0.24912218  0.50696545  1
  Fe  Fe60  1  0.00210074  0.49742958  0.49952918  1
  Fe  Fe61  1  0.12551669  0.62494657  0.62539628  1
  Fe  Fe62  1  0.49721899  0.50049493  0.75097846  1
  Fe  Fe63  1  0.12754142  0.62524418  0.12518719  1
  Fe  Fe64  1  0.62488858  0.87547960  0.37505312  1
  Fe  Fe65  1  0.75402534  0.74569761  0.74891113  1
  Fe  Fe66  1  0.12383268  0.37569657  0.63040688  1
  Fe  Fe67  1  0.49734284  0.74971472  0.75118738  1
  Fe  Fe68  1  0.00216328  0.24564753  0.75400195  1
  Fe  Fe69  1  0.49729143  0.00357515  0.24898911  1
  Fe  Fe70  1  -0.00092550  0.00224243  0.75357802  1
  Fe  Fe71  1  0.62514220  0.12580200  0.12400290  1
  Fe  Fe72  1  0.49791954  0.00283706  0.74955828  1
  Fe  Fe73  1  0.87727725  0.37677651  0.12119143  1
  Fe  Fe74  1  0.87866859  0.12560349  0.62079762  1
  Fe  Fe75  1  0.87397296  0.62309045  0.12096454  1
  Fe  Fe76  1  0.37426466  0.87671093  0.62548577  1
  Fe  Fe77  1  0.49880047  0.74947955  0.49889300  1
  Fe  Fe78  1  0.87449213  0.87319698  0.87587940  1
  Fe  Fe79  1  0.24562024  0.24967381  0.50426978  1
  Fe  Fe80  1  0.37601720  0.37291749  0.37831031  1
  Fe  Fe81  1  0.87578993  0.37431003  0.62501046  1
  Fe  Fe82  1  0.12519810  0.87724173  0.87414439  1
  Fe  Fe83  1  0.25194590  -0.00147944  -0.00187988  1
  Fe  Fe84  1  0.74946240  0.74790702  0.24986596  1
  Fe  Fe85  1  0.74608153  0.74745136  -0.00100433  1
  Fe  Fe86  1  -0.00010401  0.75110716  0.24664222  1
  Fe  Fe87  1  0.25286679  0.75052798  0.25165403  1
  Fe  Fe88  1  0.87685466  0.12510547  0.12086631  1
  Fe  Fe89  1  0.62498278  0.37439654  0.87118297  1
  Co  Co90  1  0.12432209  0.37345896  0.12841689  1
  Co  Co91  1  0.25095511  0.00164496  0.74907365  1
  Co  Co92  1  0.74975318  0.75115317  0.50155216  1
  Co  Co93  1  0.62530245  0.38018399  0.62784041  1
  Co  Co94  1  0.24463480  0.24824290  0.75129355  1
  Co  Co95  1  0.37280225  0.12689924  0.62582707  1
  Co  Co96  1  0.12981206  0.87660830  0.12500450  1
  Co  Co97  1  0.37670622  0.87698128  0.87364183  1
  Co  Co98  1  0.00593981  0.49915488  0.00128097  1
  Co  Co99  1  0.74460395  0.50016012  -0.00105631  1
  Co  Co100  1  0.00260560  0.25511837  0.49982601  1
  Co  Co101  1  -0.00045001  -0.00550495  0.49985356  1
  Co  Co102  1  0.49787860  0.50046191  0.50231895  1
  Co  Co103  1  0.24953561  0.00513201  0.25153301  1
  Co  Co104  1  0.62456844  0.62525096  0.86995182  1
  Co  Co105  1  0.00409621  0.25092607  -0.00335305  1
  Co  Co106  1  0.37385789  0.62320875  0.87670683  1
  Co  Co107  1  0.62304531  0.62541085  0.12755751  1
  Co  Co108  1  0.50413911  0.24691641  0.74648247  1
  Co  Co109  1  0.87665376  0.62437721  0.88181531  1
  Co  Co110  1  0.87419224  0.87727271  0.62760241  1
  Co  Co111  1  0.87881589  0.12623772  0.37731901  1
  Co  Co112  1  0.37796756  0.37125389  0.87187432  1
  Co  Co113  1  0.12068040  0.37888867  0.86795411  1
  Co  Co114  1  0.12082508  0.12334899  0.62413342  1
  Co  Co115  1  0.37196879  0.12763702  0.12039263  1
  Co  Co116  1  -0.00256234  -0.00257467  -0.00107603  1
  Co  Co117  1  0.75530488  0.50140321  0.75204398  1
  Co  Co118  1  0.87058185  0.87344581  0.12343973  1
  Co  Co119  1  0.25205643  0.49988892  0.75156791  1
  Co  Co120  1  0.37386510  0.62245720  0.37597893  1
  Co  Co121  1  0.87505776  0.62307604  0.61970132  1
  Co  Co122  1  0.37424617  0.87950020  0.37533791  1
  Co  Co123  1  0.74836206  0.25023152  0.50266648  1
  Co  Co124  1  0.87249152  0.12737550  0.87786700  1
  Co  Co125  1  0.12746231  0.12048858  0.87827410  1
  Co  Co126  1  0.50260543  0.24937329  -0.00136130  1
  Co  Co127  1  0.62865759  0.12031575  0.62559759  1
