# generated using pymatgen
data_Fe45Co19
_symmetry_space_group_name_H-M   'P 1'
_cell_length_a   11.41575924
_cell_length_b   11.41489736
_cell_length_c   11.41517944
_cell_angle_alpha   89.99787102
_cell_angle_beta   89.99850973
_cell_angle_gamma   89.98957848
_symmetry_Int_Tables_number   1
_chemical_formula_structural   Fe45Co19
_chemical_formula_sum   'Fe90 Co38'
_cell_volume   1487.50881027
_cell_formula_units_Z   2
loop_
 _symmetry_equiv_pos_site_id
 _symmetry_equiv_pos_as_xyz
  1  'x, y, z'
loop_
 _atom_site_type_symbol
 _atom_site_label
 _atom_site_symmetry_multiplicity
 _atom_site_fract_x
 _atom_site_fract_y
 _atom_site_fract_z
 _atom_site_occupancy
  Fe  Fe0  1  0.62427897  0.62752204  0.37577702  1
  Fe  Fe1  1  0.00003615  0.75269134  0.75435948  1
  Fe  Fe2  1  0.62430300  0.62765959  0.62548378  1
  Fe  Fe3  1  0.37554634  0.87436611  0.37361945  1
  Fe  Fe4  1  0.25233259  -0.00022536  0.50248552  1
  Fe  Fe5  1  0.12413977  0.87542362  0.12328242  1
  Fe  Fe6  1  0.87036717  0.12597046  0.87293633  1
  Fe  Fe7  1  0.87234458  0.87641864  0.37382478  1
  Fe  Fe8  1  0.75065044  0.50198453  0.50029959  1
  Fe  Fe9  1  0.62812732  0.87337792  0.87377563  1
  Fe  Fe10  1  0.75035184  -0.00199443  0.00200167  1
  Fe  Fe11  1  0.75276009  0.49768063  0.00163274  1
  Fe  Fe12  1  0.87628181  0.62814587  0.62574559  1
  Fe  Fe13  1  0.87307575  0.12353191  0.12587043  1
  Fe  Fe14  1  0.37759483  0.37577045  0.62771597  1
  Fe  Fe15  1  0.74698225  0.75339227  0.24673825  1
  Fe  Fe16  1  0.62471279  0.12389504  0.12264799  1
  Fe  Fe17  1  -0.00284760  0.24888438  0.49822387  1
  Fe  Fe18  1  0.37265344  0.62108232  0.87493030  1
  Fe  Fe19  1  0.62905881  0.12119487  0.37945260  1
  Fe  Fe20  1  0.49994158  0.25139756  -0.00162857  1
  Fe  Fe21  1  0.12384253  0.12374929  0.62714717  1
  Fe  Fe22  1  0.12471973  0.12348371  0.87475751  1
  Fe  Fe23  1  0.12432064  0.37425240  0.62419100  1
  Fe  Fe24  1  -0.00189449  -0.00215134  -0.00328788  1
  Fe  Fe25  1  0.74942492  0.24800154  0.25049491  1
  Fe  Fe26  1  0.25065211  0.75088954  0.50279527  1
  Fe  Fe27  1  0.12334351  0.62586663  0.62621541  1
  Fe  Fe28  1  0.37240994  0.87533512  0.87124342  1
  Fe  Fe29  1  0.87316512  0.37440871  0.62631588  1
  Fe  Fe30  1  0.87398030  0.62625100  0.37377988  1
  Fe  Fe31  1  0.25117281  0.00112442  -0.00015478  1
  Fe  Fe32  1  0.87698235  0.62670800  0.12535863  1
  Fe  Fe33  1  0.37706051  0.12487853  0.12512541  1
  Fe  Fe34  1  0.62168756  0.62620934  0.12132154  1
  Fe  Fe35  1  0.74935875  0.50105782  0.74991131  1
  Fe  Fe36  1  0.37502480  0.62667227  0.37303000  1
  Fe  Fe37  1  -0.00048853  0.00037481  0.24968199  1
  Fe  Fe38  1  0.12771018  0.37719893  0.88031760  1
  Fe  Fe39  1  0.87023443  0.12555513  0.62701966  1
  Fe  Fe40  1  0.24951386  0.74988821  0.24692802  1
  Fe  Fe41  1  0.50277168  0.50161811  0.75398914  1
  Fe  Fe42  1  0.12594468  0.12317181  0.37585414  1
  Fe  Fe43  1  -0.00398169  0.00069112  0.50113292  1
  Fe  Fe44  1  0.87345330  0.62514912  0.87511764  1
  Fe  Fe45  1  0.75119850  0.75161929  0.00166416  1
  Fe  Fe46  1  0.50038584  0.74922375  -0.00536615  1
  Fe  Fe47  1  -0.00095389  0.50035222  0.49947959  1
  Fe  Fe48  1  0.00070476  0.75141070  0.25091167  1
  Fe  Fe49  1  0.12637453  0.62424909  0.37450575  1
  Fe  Fe50  1  0.12656821  0.37584615  0.37503911  1
  Fe  Fe51  1  0.37789890  0.87499748  0.63042054  1
  Fe  Fe52  1  0.87338783  0.37473208  0.37406590  1
  Fe  Fe53  1  0.62507491  0.87491217  0.37792417  1
  Fe  Fe54  1  0.49973062  -0.00042660  -0.00396820  1
  Fe  Fe55  1  0.12498957  0.12531314  0.12252688  1
  Fe  Fe56  1  0.50344008  0.24921448  0.50143220  1
  Fe  Fe57  1  0.37855132  0.87402542  0.12476424  1
  Fe  Fe58  1  0.49895235  0.50058547  0.24595731  1
  Fe  Fe59  1  0.50212929  0.24839264  0.25130009  1
  Fe  Fe60  1  0.62874073  0.12456139  0.87461499  1
  Fe  Fe61  1  0.12663018  0.62132375  0.87798199  1
  Fe  Fe62  1  0.37535920  0.37521149  0.37352408  1
  Fe  Fe63  1  0.00174571  0.49895933  0.24604766  1
  Fe  Fe64  1  0.25042246  0.50121569  0.24152483  1
  Fe  Fe65  1  0.37454579  0.12377244  0.37495115  1
  Fe  Fe66  1  0.24876327  0.24885689  0.24786034  1
  Fe  Fe67  1  0.62526228  0.37333051  0.12425626  1
  Fe  Fe68  1  0.24915714  0.74955071  -0.00031387  1
  Fe  Fe69  1  0.37855833  0.12367674  0.62708110  1
  Fe  Fe70  1  0.50225024  -0.00107952  0.25034145  1
  Fe  Fe71  1  0.25061334  0.50060254  0.50226407  1
  Fe  Fe72  1  0.00015722  0.49858056  0.75224425  1
  Fe  Fe73  1  0.37617830  0.12601521  0.87244268  1
  Fe  Fe74  1  -0.00014095  0.24987059  0.24978843  1
  Fe  Fe75  1  -0.00087011  0.25089187  0.75247667  1
  Fe  Fe76  1  -0.00032839  0.75253613  -0.00327319  1
  Fe  Fe77  1  0.12695365  0.87758356  0.37527165  1
  Fe  Fe78  1  0.62737622  0.37548518  0.87638621  1
  Fe  Fe79  1  0.37551931  0.62518434  0.62855844  1
  Fe  Fe80  1  0.62494139  0.37663881  0.37661750  1
  Fe  Fe81  1  -0.00534793  0.25290382  -0.00034637  1
  Fe  Fe82  1  0.50559118  0.24983637  0.74911604  1
  Fe  Fe83  1  0.62257210  0.87467637  0.62597567  1
  Fe  Fe84  1  0.24958149  0.25103294  0.75135375  1
  Fe  Fe85  1  0.12372283  0.87754339  0.63013628  1
  Fe  Fe86  1  0.74848797  0.50151137  0.24828234  1
  Fe  Fe87  1  0.49927623  0.50264034  0.49958502  1
  Fe  Fe88  1  0.25133902  0.24968010  0.50107041  1
  Fe  Fe89  1  -0.00023277  0.75133927  0.49842290  1
  Co  Co90  1  0.75359215  -0.00334304  0.50305818  1
  Co  Co91  1  0.50129547  0.74757383  0.75433533  1
  Co  Co92  1  0.12080381  0.62735133  0.12189316  1
  Co  Co93  1  0.49813684  -0.00081964  0.49913410  1
  Co  Co94  1  0.87312716  0.37399989  0.12866770  1
  Co  Co95  1  0.74932933  0.75039604  0.74909265  1
  Co  Co96  1  0.87191144  0.12337638  0.37367575  1
  Co  Co97  1  0.74493888  0.25101613  0.74699925  1
  Co  Co98  1  0.38074664  0.63043129  0.12357307  1
  Co  Co99  1  0.74851184  0.25188533  0.50104928  1
  Co  Co100  1  0.87740239  0.87526832  0.12458223  1
  Co  Co101  1  0.62426337  0.37958505  0.62373741  1
  Co  Co102  1  0.37480323  0.37621079  0.87376382  1
  Co  Co103  1  0.75175931  0.25079030  0.00140977  1
  Co  Co104  1  0.25057624  -0.00010923  0.24719096  1
  Co  Co105  1  0.62926035  0.62450872  0.87852227  1
  Co  Co106  1  0.37613287  0.36997612  0.12444625  1
  Co  Co107  1  0.25290942  0.24704723  -0.00167860  1
  Co  Co108  1  0.50354996  0.75115314  0.25116163  1
  Co  Co109  1  0.24728346  0.49857287  0.74877042  1
  Co  Co110  1  0.24854616  0.74828013  0.75055219  1
  Co  Co111  1  -0.00486904  0.49763239  0.00088225  1
  Co  Co112  1  0.75042047  0.74991039  0.50105109  1
  Co  Co113  1  0.62028207  0.87470348  0.12033830  1
  Co  Co114  1  0.87144346  0.37427759  0.87172666  1
  Co  Co115  1  0.87148750  0.87464210  0.87576458  1
  Co  Co116  1  0.74679104  -0.00269231  0.24668298  1
  Co  Co117  1  0.62674442  0.11973511  0.62334601  1
  Co  Co118  1  0.12542274  0.37238985  0.11963154  1
  Co  Co119  1  0.50269311  0.00009286  0.75361570  1
  Co  Co120  1  -0.00470911  0.00015400  0.75264963  1
  Co  Co121  1  0.49902683  0.49768264  0.00064714  1
  Co  Co122  1  0.12769574  0.87825177  0.87315398  1
  Co  Co123  1  0.75028400  -0.00309861  0.74922454  1
  Co  Co124  1  0.49790012  0.74939344  0.50090264  1
  Co  Co125  1  0.87735810  0.87196189  0.62662833  1
  Co  Co126  1  0.25380378  0.50161815  0.00716657  1
  Co  Co127  1  0.25098526  0.00326062  0.75029063  1
