# generated using pymatgen
data_Fe45Co19
_symmetry_space_group_name_H-M   'P 1'
_cell_length_a   11.41597708
_cell_length_b   11.41601321
_cell_length_c   11.41520280
_cell_angle_alpha   90.00420528
_cell_angle_beta   90.00713166
_cell_angle_gamma   89.99860003
_symmetry_Int_Tables_number   1
_chemical_formula_structural   Fe45Co19
_chemical_formula_sum   'Fe90 Co38'
_cell_volume   1487.68566278
_cell_formula_units_Z   2
loop_
 _symmetry_equiv_pos_site_id
 _symmetry_equiv_pos_as_xyz
  1  'x, y, z'
loop_
 _atom_site_type_symbol
 _atom_site_label
 _atom_site_symmetry_multiplicity
 _atom_site_fract_x
 _atom_site_fract_y
 _atom_site_fract_z
 _atom_site_occupancy
  Fe  Fe0  1  0.24864079  0.00052376  0.24953714  1
  Fe  Fe1  1  0.75017571  0.00092691  0.24724368  1
  Fe  Fe2  1  0.50259987  0.25070458  0.49683041  1
  Fe  Fe3  1  0.63135957  0.37331605  0.12812217  1
  Fe  Fe4  1  0.87877494  0.12215531  0.37278377  1
  Fe  Fe5  1  -0.00146027  0.25102661  0.49910964  1
  Fe  Fe6  1  0.25102364  0.00241692  0.75001421  1
  Fe  Fe7  1  0.49998081  -0.00326866  0.24711101  1
  Fe  Fe8  1  0.87452128  0.37934331  0.36828126  1
  Fe  Fe9  1  0.24843111  0.24921086  0.49693417  1
  Fe  Fe10  1  0.37798564  0.12668282  0.12380792  1
  Fe  Fe11  1  0.75040832  0.75010329  -0.00199431  1
  Fe  Fe12  1  0.12408558  0.62702627  0.12442749  1
  Fe  Fe13  1  0.37443845  0.37358546  0.62506402  1
  Fe  Fe14  1  0.87583810  0.12373486  0.87494483  1
  Fe  Fe15  1  -0.00130794  0.25167841  -0.00005049  1
  Fe  Fe16  1  0.37369965  0.87486802  0.62447281  1
  Fe  Fe17  1  -0.00019904  0.00027247  0.74893804  1
  Fe  Fe18  1  0.50081853  0.49871617  0.49886351  1
  Fe  Fe19  1  0.25100011  0.50144925  -0.00099827  1
  Fe  Fe20  1  0.12373390  0.12652118  0.62501598  1
  Fe  Fe21  1  0.87385571  0.87753846  0.87687486  1
  Fe  Fe22  1  0.12580164  0.37496028  0.62610739  1
  Fe  Fe23  1  0.62637452  0.37591343  0.87421057  1
  Fe  Fe24  1  0.87019297  0.37048008  0.62979053  1
  Fe  Fe25  1  0.62298033  0.12529318  0.12182103  1
  Fe  Fe26  1  0.12002870  0.87829043  0.37784295  1
  Fe  Fe27  1  0.37750055  0.62417340  0.87494822  1
  Fe  Fe28  1  0.12451701  0.12547958  0.12379478  1
  Fe  Fe29  1  0.12204424  0.62267787  0.87441829  1
  Fe  Fe30  1  0.50038213  0.75329033  0.00016968  1
  Fe  Fe31  1  0.11607346  0.61963282  0.37818195  1
  Fe  Fe32  1  0.37410793  0.62540487  0.12653910  1
  Fe  Fe33  1  0.25163279  0.24849623  -0.00173201  1
  Fe  Fe34  1  0.37488288  0.87553225  0.37685472  1
  Fe  Fe35  1  -0.00269718  0.49726774  0.00585103  1
  Fe  Fe36  1  0.24986513  0.49902681  0.50002111  1
  Fe  Fe37  1  0.00091335  0.25438160  0.24754977  1
  Fe  Fe38  1  0.24643625  0.74983003  0.25371192  1
  Fe  Fe39  1  0.75018309  0.74646111  0.75445419  1
  Fe  Fe40  1  0.62628052  0.87672597  0.37479664  1
  Fe  Fe41  1  0.24846776  0.00277158  0.49919158  1
  Fe  Fe42  1  -0.00237917  0.75248543  0.25089753  1
  Fe  Fe43  1  0.87569632  0.12504807  0.12311631  1
  Fe  Fe44  1  0.12724558  0.87760580  0.87835325  1
  Fe  Fe45  1  0.62580060  0.62339707  0.37485647  1
  Fe  Fe46  1  0.37529393  0.62297042  0.37419125  1
  Fe  Fe47  1  0.36874612  0.87274129  0.12339534  1
  Fe  Fe48  1  0.12302468  0.12458851  0.87577732  1
  Fe  Fe49  1  0.37365635  0.87622044  0.87606550  1
  Fe  Fe50  1  0.50083935  0.49736091  0.00281869  1
  Fe  Fe51  1  -0.00314809  0.50134974  0.74587204  1
  Fe  Fe52  1  0.75035401  0.24854968  0.49351398  1
  Fe  Fe53  1  0.75445858  0.74846954  0.25301558  1
  Fe  Fe54  1  0.50056672  0.74926361  0.50007995  1
  Fe  Fe55  1  0.37321421  0.62450468  0.62607212  1
  Fe  Fe56  1  0.37677538  0.12474266  0.37507932  1
  Fe  Fe57  1  0.75355378  0.50081922  0.50008152  1
  Fe  Fe58  1  0.62863499  0.62592714  0.62538799  1
  Fe  Fe59  1  0.87352891  0.12788538  0.62741323  1
  Fe  Fe60  1  0.50202987  0.75075874  0.74970049  1
  Fe  Fe61  1  0.87363215  0.87402858  0.62527427  1
  Fe  Fe62  1  0.62519202  0.62783962  0.12405963  1
  Fe  Fe63  1  0.25034972  0.24902292  0.75140833  1
  Fe  Fe64  1  0.24707892  0.25070154  0.25334280  1
  Fe  Fe65  1  0.75003887  0.24817451  -0.00276619  1
  Fe  Fe66  1  0.38134228  0.12430602  0.87748899  1
  Fe  Fe67  1  0.49938921  0.75117472  0.25073544  1
  Fe  Fe68  1  0.50245921  0.50051053  0.74831543  1
  Fe  Fe69  1  0.24735631  0.74834646  0.49861030  1
  Fe  Fe70  1  0.37609155  0.37502083  0.87382010  1
  Fe  Fe71  1  0.74607235  0.00336815  0.75042283  1
  Fe  Fe72  1  0.00022568  0.75347303  0.00076182  1
  Fe  Fe73  1  0.50247463  -0.00027747  0.50347831  1
  Fe  Fe74  1  0.37226083  0.37459760  0.12772030  1
  Fe  Fe75  1  0.24613962  0.49891182  0.25138118  1
  Fe  Fe76  1  0.50261256  0.49816278  0.25044594  1
  Fe  Fe77  1  0.50374464  0.25244488  0.25299626  1
  Fe  Fe78  1  0.50370749  0.24824092  0.74828545  1
  Fe  Fe79  1  0.62907311  0.37354038  0.62499875  1
  Fe  Fe80  1  0.75095323  0.00085054  0.50061864  1
  Fe  Fe81  1  0.00046915  -0.00275882  0.24551662  1
  Fe  Fe82  1  0.12402617  0.87496613  0.62307155  1
  Fe  Fe83  1  0.00039859  0.74960759  0.74880532  1
  Fe  Fe84  1  0.12395519  0.37652487  0.87495425  1
  Fe  Fe85  1  0.75146556  0.50277939  -0.00031258  1
  Fe  Fe86  1  0.24834519  0.74771697  0.75090599  1
  Fe  Fe87  1  0.50421657  0.00049903  0.74639284  1
  Fe  Fe88  1  0.75474634  0.74941004  0.49508605  1
  Fe  Fe89  1  0.87464601  0.37573015  0.87339666  1
  Co  Co90  1  0.62806127  0.12878544  0.62201211  1
  Co  Co91  1  0.86790781  0.37230445  0.12719300  1
  Co  Co92  1  0.12449590  0.62438689  0.62346128  1
  Co  Co93  1  0.37420088  0.37492427  0.37413505  1
  Co  Co94  1  0.24953412  0.74644770  -0.00225377  1
  Co  Co95  1  0.74663252  0.24686809  0.75532365  1
  Co  Co96  1  0.87327597  0.87435214  0.12298139  1
  Co  Co97  1  0.37507370  0.12618478  0.62383394  1
  Co  Co98  1  0.74876175  0.00116742  0.00090882  1
  Co  Co99  1  0.87914028  0.62454555  0.87741233  1
  Co  Co100  1  0.25078753  0.00423237  0.00089492  1
  Co  Co101  1  0.12096150  0.12434556  0.37346790  1
  Co  Co102  1  -0.00649891  0.49607223  0.50761148  1
  Co  Co103  1  0.12941266  0.37245735  0.12155896  1
  Co  Co104  1  0.00034316  0.49603875  0.24084832  1
  Co  Co105  1  0.62217018  0.62464118  0.87682390  1
  Co  Co106  1  0.62660628  0.87619072  0.87408032  1
  Co  Co107  1  0.74888490  0.24353523  0.25284205  1
  Co  Co108  1  0.87326160  0.62926595  0.62547437  1
  Co  Co109  1  0.62930837  0.87191721  0.12709507  1
  Co  Co110  1  0.50077694  -0.00671958  0.00324897  1
  Co  Co111  1  0.75135908  0.50294108  0.75189548  1
  Co  Co112  1  0.00080752  0.25025069  0.75079226  1
  Co  Co113  1  0.87646204  0.88028472  0.37511202  1
  Co  Co114  1  0.00025895  -0.00031937  0.00073528  1
  Co  Co115  1  0.88117241  0.61837071  0.37316747  1
  Co  Co116  1  -0.00367859  0.75040087  0.49983383  1
  Co  Co117  1  0.62280645  0.11987287  0.37483873  1
  Co  Co118  1  0.75069414  0.50671849  0.24704307  1
  Co  Co119  1  0.87623451  0.62841815  0.12396266  1
  Co  Co120  1  0.12728210  0.87469835  0.12293714  1
  Co  Co121  1  0.62881778  0.87133826  0.62453417  1
  Co  Co122  1  -0.00201002  0.00232752  0.50464762  1
  Co  Co123  1  0.63031491  0.37794365  0.37331066  1
  Co  Co124  1  0.12036587  0.37818084  0.37665725  1
  Co  Co125  1  0.50108503  0.25612245  0.00214498  1
  Co  Co126  1  0.24996449  0.50047967  0.75099246  1
  Co  Co127  1  0.62023708  0.12380341  0.87968044  1
