# generated using pymatgen
data_Fe45Co19
_symmetry_space_group_name_H-M   'P 1'
_cell_length_a   11.41698008
_cell_length_b   11.41520206
_cell_length_c   11.41534979
_cell_angle_alpha   90.00336881
_cell_angle_beta   90.00145178
_cell_angle_gamma   89.99973460
_symmetry_Int_Tables_number   1
_chemical_formula_structural   Fe45Co19
_chemical_formula_sum   'Fe90 Co38'
_cell_volume   1487.72982370
_cell_formula_units_Z   2
loop_
 _symmetry_equiv_pos_site_id
 _symmetry_equiv_pos_as_xyz
  1  'x, y, z'
loop_
 _atom_site_type_symbol
 _atom_site_label
 _atom_site_symmetry_multiplicity
 _atom_site_fract_x
 _atom_site_fract_y
 _atom_site_fract_z
 _atom_site_occupancy
  Fe  Fe0  1  0.50056276  0.74877518  0.25064348  1
  Fe  Fe1  1  0.37600050  0.37340184  0.37509533  1
  Fe  Fe2  1  -0.00095755  -0.00052957  -0.00158372  1
  Fe  Fe3  1  0.37397224  0.62763807  0.62418843  1
  Fe  Fe4  1  0.25271773  0.75032412  0.25092371  1
  Fe  Fe5  1  0.37633756  0.87762280  0.12693205  1
  Fe  Fe6  1  0.74853522  0.50227150  0.50428277  1
  Fe  Fe7  1  0.74707470  0.75052635  0.25192208  1
  Fe  Fe8  1  0.37631888  0.37177245  0.87208699  1
  Fe  Fe9  1  0.87580953  0.12750662  0.12813898  1
  Fe  Fe10  1  0.24894243  0.24634831  0.24860560  1
  Fe  Fe11  1  0.75057710  0.25058862  -0.00209431  1
  Fe  Fe12  1  0.00140309  0.75122853  -0.00142928  1
  Fe  Fe13  1  0.25358640  0.50030282  0.75142318  1
  Fe  Fe14  1  0.50199152  0.24563754  0.49966290  1
  Fe  Fe15  1  0.87442649  0.87366598  0.12470882  1
  Fe  Fe16  1  0.12457193  0.37314933  0.87312285  1
  Fe  Fe17  1  0.12643827  0.37410632  0.62654981  1
  Fe  Fe18  1  0.25143881  0.49948502  0.50028972  1
  Fe  Fe19  1  0.87559455  0.37371723  0.12552125  1
  Fe  Fe20  1  0.74872285  0.74786495  0.74578315  1
  Fe  Fe21  1  0.74902906  0.49790505  -0.00139152  1
  Fe  Fe22  1  0.37325327  0.62400977  0.12157381  1
  Fe  Fe23  1  0.62405887  0.62299575  0.87249584  1
  Fe  Fe24  1  0.12406135  0.87793729  0.12636318  1
  Fe  Fe25  1  0.12433292  0.12439149  0.87247764  1
  Fe  Fe26  1  0.37480078  0.12322049  0.37392891  1
  Fe  Fe27  1  0.25355617  -0.00346831  0.50119896  1
  Fe  Fe28  1  0.75046720  0.00104093  0.24971979  1
  Fe  Fe29  1  0.37649692  0.37082179  0.12502842  1
  Fe  Fe30  1  0.49967393  0.75013758  -0.00002156  1
  Fe  Fe31  1  0.49867695  0.49960329  -0.00179939  1
  Fe  Fe32  1  0.12472676  0.87274086  0.62706715  1
  Fe  Fe33  1  0.12669650  0.62730306  0.62446548  1
  Fe  Fe34  1  0.62425182  0.87831725  0.62116378  1
  Fe  Fe35  1  0.37573675  0.37087228  0.62682251  1
  Fe  Fe36  1  0.50423417  0.00436838  0.75020388  1
  Fe  Fe37  1  0.87332354  0.62512419  0.12462839  1
  Fe  Fe38  1  0.12589049  0.37381921  0.37574035  1
  Fe  Fe39  1  0.87560545  0.87465043  0.87139701  1
  Fe  Fe40  1  0.87297632  0.12508556  0.86985433  1
  Fe  Fe41  1  0.62568313  0.62416172  0.12416825  1
  Fe  Fe42  1  0.50008121  0.24492533  -0.00428090  1
  Fe  Fe43  1  0.62306970  0.62422661  0.37860657  1
  Fe  Fe44  1  -0.00061738  0.50070625  0.75073331  1
  Fe  Fe45  1  0.87174897  0.12547670  0.62848689  1
  Fe  Fe46  1  0.00099445  0.49883167  0.49962763  1
  Fe  Fe47  1  0.12492269  0.37335288  0.12404405  1
  Fe  Fe48  1  -0.00023503  0.49816975  0.25129288  1
  Fe  Fe49  1  0.25014571  0.24717471  -0.00042140  1
  Fe  Fe50  1  0.37424667  0.12544372  0.62842488  1
  Fe  Fe51  1  0.62403104  0.87951723  0.37835201  1
  Fe  Fe52  1  0.12712187  0.87630035  0.37425416  1
  Fe  Fe53  1  0.49496443  0.75427440  0.49800980  1
  Fe  Fe54  1  0.00016802  0.75012885  0.49979072  1
  Fe  Fe55  1  -0.00188005  0.00008596  0.50132881  1
  Fe  Fe56  1  0.25031629  0.24886417  0.50043452  1
  Fe  Fe57  1  0.12543151  0.12560302  0.62584139  1
  Fe  Fe58  1  0.12779360  0.62436849  0.12301127  1
  Fe  Fe59  1  0.24792317  -0.00044082  0.74915524  1
  Fe  Fe60  1  0.12776870  0.62602405  0.37677769  1
  Fe  Fe61  1  0.50165510  0.00332408  -0.00162940  1
  Fe  Fe62  1  0.13064704  0.62715429  0.87757164  1
  Fe  Fe63  1  0.49750581  0.49923719  0.50201831  1
  Fe  Fe64  1  0.87401931  0.87393668  0.37623472  1
  Fe  Fe65  1  0.74749445  0.24976061  0.49774053  1
  Fe  Fe66  1  0.87385264  0.62448890  0.37727792  1
  Fe  Fe67  1  0.74866366  0.74992579  -0.00090275  1
  Fe  Fe68  1  0.25163434  0.49923506  0.24989233  1
  Fe  Fe69  1  0.75037104  0.00033476  -0.00033973  1
  Fe  Fe70  1  0.62408293  0.37603570  0.87050060  1
  Fe  Fe71  1  0.87606434  0.12778919  0.37275283  1
  Fe  Fe72  1  0.87509823  0.37516471  0.62646154  1
  Fe  Fe73  1  0.50211147  0.00460529  0.24851710  1
  Fe  Fe74  1  -0.00077867  0.24930555  -0.00233320  1
  Fe  Fe75  1  0.62222444  0.37430878  0.62773659  1
  Fe  Fe76  1  0.87565494  0.87378202  0.62646805  1
  Fe  Fe77  1  0.62298333  0.37071988  0.12546471  1
  Fe  Fe78  1  0.62540122  0.87669718  0.12372168  1
  Fe  Fe79  1  0.24974265  0.00142074  0.00214247  1
  Fe  Fe80  1  0.74893955  0.49671314  0.25156153  1
  Fe  Fe81  1  0.12344781  0.12310087  0.37459014  1
  Fe  Fe82  1  0.87329478  0.62417402  0.87405835  1
  Fe  Fe83  1  0.00068278  0.49976013  -0.00082520  1
  Fe  Fe84  1  0.49827305  0.74909208  0.75120651  1
  Fe  Fe85  1  0.49935416  0.49927456  0.25006576  1
  Fe  Fe86  1  0.62569136  0.87529265  0.87520116  1
  Fe  Fe87  1  0.00072079  0.25038929  0.50140129  1
  Fe  Fe88  1  0.37367480  0.87675522  0.87360741  1
  Fe  Fe89  1  -0.00017460  0.75000501  0.24992307  1
  Co  Co90  1  0.87439386  0.37520149  0.37866681  1
  Co  Co91  1  0.62666062  0.12721255  0.12343817  1
  Co  Co92  1  0.50265526  0.24778706  0.25421562  1
  Co  Co93  1  0.25146988  0.49464566  -0.00130737  1
  Co  Co94  1  0.74663756  0.25191742  0.25346083  1
  Co  Co95  1  0.62872776  0.12286440  0.62353352  1
  Co  Co96  1  0.25087615  0.75646730  0.00206618  1
  Co  Co97  1  0.49540573  0.00302904  0.50253157  1
  Co  Co98  1  0.75442643  0.00124427  0.49927627  1
  Co  Co99  1  -0.00201033  -0.00159003  0.25095596  1
  Co  Co100  1  0.87483121  0.37563753  0.87332101  1
  Co  Co101  1  0.49566697  0.50181052  0.74983490  1
  Co  Co102  1  0.24935009  0.24982149  0.75020586  1
  Co  Co103  1  0.00044099  0.00097849  0.74840222  1
  Co  Co104  1  0.74777839  0.25266410  0.75016346  1
  Co  Co105  1  0.37596825  0.87967547  0.37012470  1
  Co  Co106  1  0.50311169  0.24433564  0.75040897  1
  Co  Co107  1  -0.00034430  0.25008487  0.74848191  1
  Co  Co108  1  0.37806382  0.12635737  0.12431551  1
  Co  Co109  1  0.74773486  -0.00334148  0.74939389  1
  Co  Co110  1  0.37237013  0.12242852  0.87229519  1
  Co  Co111  1  0.37687832  0.87706457  0.63032863  1
  Co  Co112  1  0.12021034  0.12450546  0.12505020  1
  Co  Co113  1  0.12600720  0.87671886  0.87347744  1
  Co  Co114  1  0.37272164  0.62715757  0.87909881  1
  Co  Co115  1  0.62580116  0.12068354  0.37686845  1
  Co  Co116  1  0.62263621  0.37796302  0.37783371  1
  Co  Co117  1  0.25108291  0.75003445  0.75031272  1
  Co  Co118  1  0.74973400  0.50170712  0.74669174  1
  Co  Co119  1  0.61914777  0.62670737  0.62376606  1
  Co  Co120  1  0.63016514  0.12447418  0.87520058  1
  Co  Co121  1  0.74916085  0.74983915  0.50200954  1
  Co  Co122  1  0.87899404  0.62556468  0.62405376  1
  Co  Co123  1  0.00138477  0.74832232  0.75264136  1
  Co  Co124  1  0.25408436  0.75448774  0.49953823  1
  Co  Co125  1  0.37524981  0.62336726  0.37647390  1
  Co  Co126  1  0.24921625  0.00387570  0.24771842  1
  Co  Co127  1  0.00138448  0.25303662  0.25173681  1
