# generated using pymatgen
data_Fe45Co19
_symmetry_space_group_name_H-M   'P 1'
_cell_length_a   11.41474667
_cell_length_b   11.41342469
_cell_length_c   11.41513736
_cell_angle_alpha   89.99308171
_cell_angle_beta   89.99862856
_cell_angle_gamma   90.00402835
_symmetry_Int_Tables_number   1
_chemical_formula_structural   Fe45Co19
_chemical_formula_sum   'Fe90 Co38'
_cell_volume   1487.17950746
_cell_formula_units_Z   2
loop_
 _symmetry_equiv_pos_site_id
 _symmetry_equiv_pos_as_xyz
  1  'x, y, z'
loop_
 _atom_site_type_symbol
 _atom_site_label
 _atom_site_symmetry_multiplicity
 _atom_site_fract_x
 _atom_site_fract_y
 _atom_site_fract_z
 _atom_site_occupancy
  Fe  Fe0  1  0.87518807  0.12274122  0.62547675  1
  Fe  Fe1  1  0.25348127  0.25245173  -0.00279640  1
  Fe  Fe2  1  0.74726264  0.75014006  0.00074912  1
  Fe  Fe3  1  0.88142869  0.62630337  0.37108244  1
  Fe  Fe4  1  0.12398167  0.37393055  0.62757083  1
  Fe  Fe5  1  0.87778322  0.62634036  0.12723010  1
  Fe  Fe6  1  0.62680413  0.37723045  0.37476089  1
  Fe  Fe7  1  0.87620442  0.12269951  0.37413056  1
  Fe  Fe8  1  0.12395478  0.37629189  0.37565345  1
  Fe  Fe9  1  0.75062375  0.24948574  -0.00075384  1
  Fe  Fe10  1  0.87516015  0.12228721  0.12365528  1
  Fe  Fe11  1  0.24658336  0.50243757  0.49905090  1
  Fe  Fe12  1  0.38094117  0.87284252  0.12490040  1
  Fe  Fe13  1  0.24981689  -0.00105947  0.75140037  1
  Fe  Fe14  1  0.24683317  0.50271108  0.75170959  1
  Fe  Fe15  1  0.37696264  0.87209505  0.37436548  1
  Fe  Fe16  1  0.87561305  0.62629802  0.62827127  1
  Fe  Fe17  1  0.87607596  0.37721085  0.37291194  1
  Fe  Fe18  1  0.87709308  0.62784115  0.87437343  1
  Fe  Fe19  1  0.12744131  0.37614833  0.12229689  1
  Fe  Fe20  1  0.49897332  0.50300767  -0.00088193  1
  Fe  Fe21  1  0.62262995  0.62656726  0.12726536  1
  Fe  Fe22  1  0.12586210  0.12407673  0.62451829  1
  Fe  Fe23  1  0.74839351  0.75101973  0.25044709  1
  Fe  Fe24  1  0.12320442  0.37253048  0.87353359  1
  Fe  Fe25  1  0.37063266  0.87045006  0.62793614  1
  Fe  Fe26  1  0.87765742  0.37292861  0.87401564  1
  Fe  Fe27  1  0.74552908  -0.00232316  -0.00013040  1
  Fe  Fe28  1  0.62513836  0.37690383  0.12499444  1
  Fe  Fe29  1  0.37356966  0.12567879  0.62438458  1
  Fe  Fe30  1  0.75109377  0.24838121  0.75032537  1
  Fe  Fe31  1  0.24618535  0.50426354  0.25057694  1
  Fe  Fe32  1  0.62339722  0.37551853  0.87527755  1
  Fe  Fe33  1  0.37513508  0.62767265  0.87269265  1
  Fe  Fe34  1  0.12474120  0.12299902  0.37426884  1
  Fe  Fe35  1  0.25320312  0.74867294  0.00269147  1
  Fe  Fe36  1  0.25021388  0.25086294  0.49910609  1
  Fe  Fe37  1  0.12364952  0.12739634  0.87522723  1
  Fe  Fe38  1  -0.00028880  0.25050187  0.50054588  1
  Fe  Fe39  1  0.12677664  0.12375375  0.12484968  1
  Fe  Fe40  1  0.75016295  0.50249574  0.00033413  1
  Fe  Fe41  1  0.62260326  0.12147928  0.37889683  1
  Fe  Fe42  1  0.49844473  0.25275319  0.49925120  1
  Fe  Fe43  1  0.87425358  0.87434569  0.62639902  1
  Fe  Fe44  1  0.25245573  -0.00247658  0.25035944  1
  Fe  Fe45  1  -0.00018353  0.49868573  0.00023713  1
  Fe  Fe46  1  0.12377114  0.63029074  0.62259070  1
  Fe  Fe47  1  0.74897852  0.24853423  0.25053010  1
  Fe  Fe48  1  0.75258969  0.50303198  0.49751783  1
  Fe  Fe49  1  0.37405800  0.62508273  0.37603642  1
  Fe  Fe50  1  0.75232300  0.50057384  0.75258665  1
  Fe  Fe51  1  -0.00005853  -0.00591190  0.24828095  1
  Fe  Fe52  1  0.00159726  -0.00245180  0.75113862  1
  Fe  Fe53  1  0.62117295  0.12441972  0.12341861  1
  Fe  Fe54  1  0.62343183  0.87612872  0.37864689  1
  Fe  Fe55  1  0.62732460  0.37768611  0.62441523  1
  Fe  Fe56  1  0.25120594  -0.00275379  0.49931453  1
  Fe  Fe57  1  0.24770637  0.74765607  0.24790456  1
  Fe  Fe58  1  0.62350598  0.12213028  0.62275512  1
  Fe  Fe59  1  0.75099574  0.24869875  0.49974277  1
  Fe  Fe60  1  0.00063468  0.75378567  0.00363993  1
  Fe  Fe61  1  0.37569480  0.12423265  0.37606647  1
  Fe  Fe62  1  0.50094798  0.50267201  0.50109414  1
  Fe  Fe63  1  0.00070166  -0.00118224  0.00071241  1
  Fe  Fe64  1  0.25433295  -0.00132474  -0.00110895  1
  Fe  Fe65  1  0.37450659  0.37909273  0.12452592  1
  Fe  Fe66  1  0.37678121  0.12438911  0.12407812  1
  Fe  Fe67  1  0.87663642  0.37647413  0.62629419  1
  Fe  Fe68  1  0.75126561  0.74919822  0.50058135  1
  Fe  Fe69  1  0.12359383  0.62759871  0.87874066  1
  Fe  Fe70  1  0.74883355  -0.00128496  0.75104917  1
  Fe  Fe71  1  -0.00024708  -0.00433724  0.49959568  1
  Fe  Fe72  1  0.12814273  0.87356365  0.87605175  1
  Fe  Fe73  1  0.62260552  0.12589266  0.87515269  1
  Fe  Fe74  1  0.49860259  0.25091982  0.25132034  1
  Fe  Fe75  1  0.25131048  0.25055627  0.25155203  1
  Fe  Fe76  1  0.12455409  0.87108416  0.37637476  1
  Fe  Fe77  1  0.49959657  0.50331032  0.74724898  1
  Fe  Fe78  1  0.74754684  -0.00257713  0.24993261  1
  Fe  Fe79  1  0.62047838  0.87068893  0.87289147  1
  Fe  Fe80  1  0.00104264  0.25084405  0.24818688  1
  Fe  Fe81  1  0.50103218  0.50247770  0.25233131  1
  Fe  Fe82  1  0.37775631  0.12587665  0.87526458  1
  Fe  Fe83  1  0.87361101  0.37639169  0.12646265  1
  Fe  Fe84  1  0.37214036  0.37739479  0.62583270  1
  Fe  Fe85  1  0.50033560  0.74758946  0.50505747  1
  Fe  Fe86  1  0.87410459  0.87440054  0.87649264  1
  Fe  Fe87  1  0.49903324  0.25177043  0.74878262  1
  Fe  Fe88  1  0.62540933  0.62674775  0.87096693  1
  Fe  Fe89  1  0.49818371  -0.00384495  0.74887442  1
  Co  Co90  1  0.12697308  0.87345031  0.62443326  1
  Co  Co91  1  0.50000573  0.74718720  -0.00124468  1
  Co  Co92  1  0.00323123  0.75458589  0.24550273  1
  Co  Co93  1  0.12088148  0.62903636  0.37584755  1
  Co  Co94  1  0.37356975  0.37930307  0.37517827  1
  Co  Co95  1  0.00403244  0.49933466  0.24817472  1
  Co  Co96  1  0.25119792  0.75041314  0.49797295  1
  Co  Co97  1  0.50042141  0.74819583  0.74408561  1
  Co  Co98  1  0.12905827  0.87688016  0.12275890  1
  Co  Co99  1  -0.00325347  0.75175518  0.50183265  1
  Co  Co100  1  0.87147031  0.87499165  0.12327908  1
  Co  Co101  1  0.37588753  0.62391633  0.12664894  1
  Co  Co102  1  0.00171358  0.75230905  0.75070246  1
  Co  Co103  1  0.50008979  -0.00299074  -0.00170383  1
  Co  Co104  1  0.25103069  0.50104142  -0.00395750  1
  Co  Co105  1  0.37517937  0.87015076  0.87383033  1
  Co  Co106  1  0.24687526  0.74776107  0.75143208  1
  Co  Co107  1  0.75055646  0.75169646  0.75022385  1
  Co  Co108  1  0.63058419  0.62330053  0.62688866  1
  Co  Co109  1  -0.00077492  0.24983932  0.00196390  1
  Co  Co110  1  0.12345703  0.62399103  0.12150682  1
  Co  Co111  1  0.62668005  0.87523008  0.62350537  1
  Co  Co112  1  0.87508532  0.12273519  0.87684624  1
  Co  Co113  1  0.49829098  0.25254330  0.00055256  1
  Co  Co114  1  0.49452812  -0.00354016  0.50275135  1
  Co  Co115  1  0.50081730  0.74819619  0.25325378  1
  Co  Co116  1  0.87367103  0.87374653  0.37371714  1
  Co  Co117  1  0.25124167  0.24926391  0.75140921  1
  Co  Co118  1  0.62508807  0.62557265  0.37631933  1
  Co  Co119  1  0.00032906  0.50126322  0.50171693  1
  Co  Co120  1  0.62108146  0.87225324  0.12599557  1
  Co  Co121  1  -0.00176902  0.24701358  0.74859052  1
  Co  Co122  1  0.74965429  0.50346573  0.24982479  1
  Co  Co123  1  0.75248205  -0.00058263  0.50042816  1
  Co  Co124  1  0.37698296  0.37779788  0.87220888  1
  Co  Co125  1  0.49995989  0.00040566  0.25038721  1
  Co  Co126  1  0.37088542  0.62450606  0.62440512  1
  Co  Co127  1  0.00236576  0.50389138  0.75064447  1
