# generated using pymatgen
data_Fe45Co19
_symmetry_space_group_name_H-M   'P 1'
_cell_length_a   11.41522533
_cell_length_b   11.41477723
_cell_length_c   11.41710200
_cell_angle_alpha   90.00905118
_cell_angle_beta   90.00527113
_cell_angle_gamma   90.00060766
_symmetry_Int_Tables_number   1
_chemical_formula_structural   Fe45Co19
_chemical_formula_sum   'Fe90 Co38'
_cell_volume   1487.67410179
_cell_formula_units_Z   2
loop_
 _symmetry_equiv_pos_site_id
 _symmetry_equiv_pos_as_xyz
  1  'x, y, z'
loop_
 _atom_site_type_symbol
 _atom_site_label
 _atom_site_symmetry_multiplicity
 _atom_site_fract_x
 _atom_site_fract_y
 _atom_site_fract_z
 _atom_site_occupancy
  Fe  Fe0  1  0.12720490  0.62308472  0.87369594  1
  Fe  Fe1  1  0.12465464  0.37333409  0.12472467  1
  Fe  Fe2  1  0.12342950  0.12313453  0.62334500  1
  Fe  Fe3  1  0.87360762  0.62253365  0.37555325  1
  Fe  Fe4  1  0.37814235  0.12733131  0.62630882  1
  Fe  Fe5  1  0.62562319  0.87568657  0.87584093  1
  Fe  Fe6  1  0.50193312  0.74873284  -0.00039006  1
  Fe  Fe7  1  0.25049381  0.00078450  0.74914145  1
  Fe  Fe8  1  0.12365656  0.87883575  0.87691994  1
  Fe  Fe9  1  0.25040478  0.49990813  0.00204320  1
  Fe  Fe10  1  0.12562836  0.37482351  0.62524738  1
  Fe  Fe11  1  -0.00009096  0.75035351  -0.00063533  1
  Fe  Fe12  1  -0.00052034  0.75012886  0.49924435  1
  Fe  Fe13  1  0.25123866  0.49991629  0.24763849  1
  Fe  Fe14  1  0.74865538  0.25307143  0.00240620  1
  Fe  Fe15  1  0.12654175  0.12155532  0.37726860  1
  Fe  Fe16  1  0.74908720  0.74940725  0.75251924  1
  Fe  Fe17  1  0.12538520  0.12250373  0.87591299  1
  Fe  Fe18  1  0.62170128  0.12825126  0.62450003  1
  Fe  Fe19  1  0.87474611  0.62414736  0.12363386  1
  Fe  Fe20  1  0.62589051  0.12492489  0.37433479  1
  Fe  Fe21  1  0.25036389  0.24778910  0.24837960  1
  Fe  Fe22  1  -0.00236222  0.24964255  0.49611869  1
  Fe  Fe23  1  0.25101952  0.25130955  0.75093416  1
  Fe  Fe24  1  0.87401754  0.87646663  0.37550288  1
  Fe  Fe25  1  -0.00108783  0.75162292  0.75122339  1
  Fe  Fe26  1  0.87222608  0.12430807  0.87419378  1
  Fe  Fe27  1  -0.00250447  0.25194808  -0.00224064  1
  Fe  Fe28  1  0.62206207  0.87108687  0.62586076  1
  Fe  Fe29  1  0.87587127  0.87375038  0.12491573  1
  Fe  Fe30  1  0.50188261  0.00349943  0.75439695  1
  Fe  Fe31  1  0.87640233  0.12379877  0.62438456  1
  Fe  Fe32  1  0.62483803  0.37759031  0.37668968  1
  Fe  Fe33  1  -0.00021703  0.49884794  0.24987919  1
  Fe  Fe34  1  0.37957235  0.87913080  0.12401809  1
  Fe  Fe35  1  0.38084818  0.12258593  0.12321777  1
  Fe  Fe36  1  0.37458896  0.12261779  0.37363048  1
  Fe  Fe37  1  0.25148884  0.75061617  0.50115294  1
  Fe  Fe38  1  0.50010814  0.00061259  0.49847273  1
  Fe  Fe39  1  0.12586943  0.37433007  0.37410095  1
  Fe  Fe40  1  0.74704016  0.00089541  0.00372106  1
  Fe  Fe41  1  0.00058896  0.49683324  0.75255291  1
  Fe  Fe42  1  0.50083517  0.50159750  0.74741548  1
  Fe  Fe43  1  0.75101297  0.25122835  0.49820514  1
  Fe  Fe44  1  0.50137590  0.74878389  0.24986673  1
  Fe  Fe45  1  0.37419815  0.87754874  0.37347411  1
  Fe  Fe46  1  0.37463189  0.62534767  0.37443455  1
  Fe  Fe47  1  0.50113461  0.50041275  0.00515661  1
  Fe  Fe48  1  0.37564723  0.37471708  0.87716742  1
  Fe  Fe49  1  0.75002437  0.25302766  0.25142720  1
  Fe  Fe50  1  0.49892578  0.50078611  0.24605918  1
  Fe  Fe51  1  0.25230963  0.24885936  0.00041581  1
  Fe  Fe52  1  0.37595401  0.87869658  0.87693153  1
  Fe  Fe53  1  0.74657279  -0.00085299  0.24702842  1
  Fe  Fe54  1  0.74779978  0.25134220  0.74805487  1
  Fe  Fe55  1  0.50323595  0.50437089  0.50230007  1
  Fe  Fe56  1  0.87352537  0.62567935  0.62582240  1
  Fe  Fe57  1  0.12288927  0.87768415  0.62431180  1
  Fe  Fe58  1  0.74951745  -0.00086015  0.74739809  1
  Fe  Fe59  1  0.12638668  0.87712017  0.37405992  1
  Fe  Fe60  1  0.74606096  0.50047682  0.74738561  1
  Fe  Fe61  1  0.12724887  0.62378330  0.62767245  1
  Fe  Fe62  1  -0.00004560  0.00007399  0.24978371  1
  Fe  Fe63  1  0.87442374  0.87759357  0.87534763  1
  Fe  Fe64  1  0.37504349  0.37611166  0.37438769  1
  Fe  Fe65  1  0.25167217  0.50046103  0.50165509  1
  Fe  Fe66  1  0.00027894  0.25096334  0.75250058  1
  Fe  Fe67  1  0.25187450  0.75061857  0.75103647  1
  Fe  Fe68  1  0.25224408  0.24971179  0.49959060  1
  Fe  Fe69  1  0.24910628  0.75261478  0.00166861  1
  Fe  Fe70  1  0.74964740  -0.00010111  0.50162233  1
  Fe  Fe71  1  0.12325959  0.12303921  0.12255189  1
  Fe  Fe72  1  0.37468411  0.62392473  0.87532724  1
  Fe  Fe73  1  0.87310043  0.62223320  0.87489665  1
  Fe  Fe74  1  0.50018034  0.25108021  0.25040431  1
  Fe  Fe75  1  0.74938942  0.74933635  0.24936870  1
  Fe  Fe76  1  0.37885751  0.87309263  0.62567732  1
  Fe  Fe77  1  0.75036888  0.49800193  0.24721804  1
  Fe  Fe78  1  -0.00073208  0.49984455  0.50006235  1
  Fe  Fe79  1  -0.00164566  0.49628585  -0.00237209  1
  Fe  Fe80  1  0.24964431  0.75208037  0.24673635  1
  Fe  Fe81  1  0.74803092  0.74787641  -0.00024020  1
  Fe  Fe82  1  0.87384949  0.37575366  0.62413397  1
  Fe  Fe83  1  0.12557626  0.62601276  0.37392406  1
  Fe  Fe84  1  0.74761979  0.74780593  0.49879911  1
  Fe  Fe85  1  0.87425419  0.12749811  0.12786911  1
  Fe  Fe86  1  0.12400649  0.62625510  0.12509773  1
  Fe  Fe87  1  0.62453379  0.87474411  0.37417003  1
  Fe  Fe88  1  0.37880491  0.37264895  0.62431256  1
  Fe  Fe89  1  0.62501242  0.37586567  0.87648273  1
  Co  Co90  1  0.24948414  0.00119119  0.24558041  1
  Co  Co91  1  0.50050730  0.74907533  0.49502025  1
  Co  Co92  1  0.87371769  0.87258919  0.62424113  1
  Co  Co93  1  -0.00168898  0.74979067  0.25123727  1
  Co  Co94  1  0.37204451  0.12381318  0.87631382  1
  Co  Co95  1  0.37400633  0.62775911  0.12467178  1
  Co  Co96  1  0.87045510  0.37419324  0.87279945  1
  Co  Co97  1  0.62335815  0.37391513  0.12504012  1
  Co  Co98  1  0.50593889  0.00417659  -0.00366242  1
  Co  Co99  1  0.25365361  0.49768186  0.74892232  1
  Co  Co100  1  0.75088195  0.49770341  0.00158432  1
  Co  Co101  1  0.74671492  0.50083398  0.50321464  1
  Co  Co102  1  -0.00344925  -0.00097173  0.49877910  1
  Co  Co103  1  0.63139346  0.12655827  0.87469133  1
  Co  Co104  1  -0.00402909  0.00093033  0.00077611  1
  Co  Co105  1  0.62697851  0.62538773  0.12514671  1
  Co  Co106  1  0.62266600  0.87307346  0.12394442  1
  Co  Co107  1  0.62396661  0.12812629  0.12722619  1
  Co  Co108  1  0.00220065  0.24799918  0.25244713  1
  Co  Co109  1  0.87234493  0.12272093  0.37251608  1
  Co  Co110  1  0.12150576  0.87493392  0.12513373  1
  Co  Co111  1  0.62250120  0.37060282  0.62305467  1
  Co  Co112  1  0.50085866  0.24933307  0.75593734  1
  Co  Co113  1  -0.00223307  0.00005208  0.75059719  1
  Co  Co114  1  0.87726535  0.37308374  0.12696525  1
  Co  Co115  1  0.62380960  0.63202372  0.62653969  1
  Co  Co116  1  0.62382190  0.62238549  0.87734134  1
  Co  Co117  1  0.49934313  0.74885309  0.75582378  1
  Co  Co118  1  0.37598835  0.62855377  0.62539333  1
  Co  Co119  1  0.50191883  0.24730168  -0.00320230  1
  Co  Co120  1  0.87506745  0.37681773  0.37504714  1
  Co  Co121  1  0.12891224  0.37431981  0.87642713  1
  Co  Co122  1  0.49969607  0.24887363  0.49502588  1
  Co  Co123  1  0.25422846  -0.00004808  0.50297970  1
  Co  Co124  1  0.62503916  0.62267038  0.37088813  1
  Co  Co125  1  0.37483491  0.37175262  0.12430107  1
  Co  Co126  1  0.25036664  -0.00141633  0.00285526  1
  Co  Co127  1  0.50357258  0.00045063  0.25144217  1
