# generated using pymatgen
data_Fe45Co19
_symmetry_space_group_name_H-M   'P 1'
_cell_length_a   11.41574775
_cell_length_b   11.41431562
_cell_length_c   11.41444475
_cell_angle_alpha   89.99215053
_cell_angle_beta   90.00469987
_cell_angle_gamma   89.99795707
_symmetry_Int_Tables_number   1
_chemical_formula_structural   Fe45Co19
_chemical_formula_sum   'Fe90 Co38'
_cell_volume   1487.33577860
_cell_formula_units_Z   2
loop_
 _symmetry_equiv_pos_site_id
 _symmetry_equiv_pos_as_xyz
  1  'x, y, z'
loop_
 _atom_site_type_symbol
 _atom_site_label
 _atom_site_symmetry_multiplicity
 _atom_site_fract_x
 _atom_site_fract_y
 _atom_site_fract_z
 _atom_site_occupancy
  Fe  Fe0  1  0.12361040  0.87701221  0.12609672  1
  Fe  Fe1  1  0.49924142  0.75122254  0.74816879  1
  Fe  Fe2  1  0.62273170  0.88133637  0.12283974  1
  Fe  Fe3  1  0.25050006  0.75054472  0.25123072  1
  Fe  Fe4  1  0.25221581  0.00161355  0.25030903  1
  Fe  Fe5  1  0.00019696  0.50077488  0.49699478  1
  Fe  Fe6  1  0.50165260  0.75212511  0.24948555  1
  Fe  Fe7  1  -0.00087953  0.75138303  0.25137898  1
  Fe  Fe8  1  0.87292391  0.62850824  0.37259616  1
  Fe  Fe9  1  0.37399854  0.12593134  0.87436515  1
  Fe  Fe10  1  0.25248679  0.75355583  0.00143651  1
  Fe  Fe11  1  0.12516336  0.37168236  0.37466221  1
  Fe  Fe12  1  0.62547698  0.12451581  0.87560629  1
  Fe  Fe13  1  -0.00136357  -0.00044600  -0.00089965  1
  Fe  Fe14  1  0.12547814  0.87424009  0.87462096  1
  Fe  Fe15  1  0.74698214  0.50187454  0.49567243  1
  Fe  Fe16  1  0.37603123  0.62490614  0.12658601  1
  Fe  Fe17  1  0.74784489  0.24780061  0.50221030  1
  Fe  Fe18  1  0.49969611  0.25063054  0.74424739  1
  Fe  Fe19  1  0.37734023  0.37513745  0.12504541  1
  Fe  Fe20  1  0.25013343  0.49988859  0.49684161  1
  Fe  Fe21  1  0.37414070  0.87752714  0.62456052  1
  Fe  Fe22  1  0.87075285  0.37117630  0.37368467  1
  Fe  Fe23  1  0.62470237  0.87557423  0.87654828  1
  Fe  Fe24  1  -0.00108641  0.24643319  0.49916677  1
  Fe  Fe25  1  0.74836880  0.49934827  -0.00217388  1
  Fe  Fe26  1  0.37689674  0.37353626  0.87369422  1
  Fe  Fe27  1  0.00015573  0.50188232  -0.00209936  1
  Fe  Fe28  1  0.37810183  0.62613383  0.37456525  1
  Fe  Fe29  1  0.24875404  0.00000380  0.75159512  1
  Fe  Fe30  1  0.25017782  0.49844225  0.25161889  1
  Fe  Fe31  1  0.87242309  0.62543875  0.12748361  1
  Fe  Fe32  1  0.37934504  0.36996134  0.37543935  1
  Fe  Fe33  1  0.87305683  0.37857589  0.62507486  1
  Fe  Fe34  1  0.87496929  0.87381655  0.87383536  1
  Fe  Fe35  1  0.12336861  0.87512227  0.37834721  1
  Fe  Fe36  1  0.12513696  0.12384349  0.12458118  1
  Fe  Fe37  1  -0.00032512  -0.00195734  0.74588581  1
  Fe  Fe38  1  0.87309150  0.37754158  0.87234560  1
  Fe  Fe39  1  0.50315877  0.24785771  0.00339759  1
  Fe  Fe40  1  0.12427566  0.12526552  0.87549416  1
  Fe  Fe41  1  0.50171667  0.49936845  -0.00135890  1
  Fe  Fe42  1  0.24955791  0.00241297  0.49842731  1
  Fe  Fe43  1  0.62686323  0.62478254  0.12701324  1
  Fe  Fe44  1  0.37661099  0.62219560  0.62393574  1
  Fe  Fe45  1  0.25083533  0.74845121  0.49891973  1
  Fe  Fe46  1  0.12349589  0.37398868  0.87424498  1
  Fe  Fe47  1  0.74945932  0.25122474  0.74813490  1
  Fe  Fe48  1  0.50356811  0.49803655  0.75091087  1
  Fe  Fe49  1  0.12504086  0.37458710  0.62396766  1
  Fe  Fe50  1  0.12660762  0.12568991  0.62508957  1
  Fe  Fe51  1  0.62626198  0.62806569  0.87578347  1
  Fe  Fe52  1  -0.00143219  0.24812289  0.25039385  1
  Fe  Fe53  1  0.87549974  0.62198951  0.62755028  1
  Fe  Fe54  1  0.62537255  0.12845521  0.37477079  1
  Fe  Fe55  1  0.75065534  0.74975579  0.74693143  1
  Fe  Fe56  1  0.50398745  0.24654085  0.24535885  1
  Fe  Fe57  1  0.37541103  0.62581143  0.87482535  1
  Fe  Fe58  1  0.24841468  0.49898648  0.75066249  1
  Fe  Fe59  1  0.87481499  0.12542246  0.87427098  1
  Fe  Fe60  1  0.50451728  0.49941110  0.25271099  1
  Fe  Fe61  1  0.62653567  0.87553253  0.62258871  1
  Fe  Fe62  1  0.49762796  0.75286173  0.00085965  1
  Fe  Fe63  1  0.75046402  -0.00109199  0.75022882  1
  Fe  Fe64  1  -0.00125145  0.25090457  0.74754467  1
  Fe  Fe65  1  -0.00151481  0.25099517  0.00129400  1
  Fe  Fe66  1  0.50037954  -0.00040126  0.75064529  1
  Fe  Fe67  1  -0.00141391  0.74936442  -0.00043023  1
  Fe  Fe68  1  0.12565752  0.62451127  0.12633430  1
  Fe  Fe69  1  0.87476199  0.87498803  0.38233997  1
  Fe  Fe70  1  0.24983490  0.49870513  0.00037109  1
  Fe  Fe71  1  0.24921177  0.25057524  0.00139155  1
  Fe  Fe72  1  -0.00063022  0.74982532  0.74811586  1
  Fe  Fe73  1  0.50075877  0.00347512  0.49984168  1
  Fe  Fe74  1  0.25048942  0.24962261  0.24759151  1
  Fe  Fe75  1  0.12383708  0.62516430  0.62356245  1
  Fe  Fe76  1  0.50274350  0.49738746  0.49703150  1
  Fe  Fe77  1  -0.00146713  0.00260122  0.25529950  1
  Fe  Fe78  1  0.75021071  -0.00231723  0.25306474  1
  Fe  Fe79  1  0.62534539  0.87116431  0.37946472  1
  Fe  Fe80  1  0.62345898  0.62495885  0.62272549  1
  Fe  Fe81  1  0.25101166  0.74960037  0.74875577  1
  Fe  Fe82  1  0.87259238  0.12149552  0.12602491  1
  Fe  Fe83  1  0.25468301  0.24844729  0.50194000  1
  Fe  Fe84  1  0.74859049  0.24912172  0.00272757  1
  Fe  Fe85  1  0.75202310  0.75367139  0.00303085  1
  Fe  Fe86  1  0.00017072  0.49890681  0.25175214  1
  Fe  Fe87  1  0.87264565  0.37702822  0.12691991  1
  Fe  Fe88  1  0.37698865  0.87601994  0.37519036  1
  Fe  Fe89  1  0.87272181  0.12123425  0.62303978  1
  Co  Co90  1  0.62597998  0.37813929  0.12560798  1
  Co  Co91  1  0.87212352  0.62552323  0.87407960  1
  Co  Co92  1  0.12323168  0.37609518  0.12619480  1
  Co  Co93  1  0.37477547  0.87425794  0.87173190  1
  Co  Co94  1  0.12686156  0.62742416  0.87637646  1
  Co  Co95  1  0.74816456  0.24797320  0.24439389  1
  Co  Co96  1  0.62430263  0.63089867  0.37475345  1
  Co  Co97  1  -0.00053040  0.74839071  0.50152531  1
  Co  Co98  1  0.37705098  0.12766391  0.37382785  1
  Co  Co99  1  0.62513360  0.37107750  0.87430807  1
  Co  Co100  1  0.37482142  0.37788124  0.62488796  1
  Co  Co101  1  0.00237656  0.00329631  0.50081552  1
  Co  Co102  1  0.87782847  0.87752328  0.12624220  1
  Co  Co103  1  0.74484231  0.50094529  0.75078674  1
  Co  Co104  1  0.25001142  0.25104276  0.75005320  1
  Co  Co105  1  0.62526479  0.36781503  0.37564588  1
  Co  Co106  1  0.49922100  0.24694745  0.50622000  1
  Co  Co107  1  0.87294684  0.87767153  0.62049455  1
  Co  Co108  1  0.74619865  0.00204782  0.49843450  1
  Co  Co109  1  0.74877123  0.75566315  0.24831237  1
  Co  Co110  1  0.62651508  0.12324258  0.62739274  1
  Co  Co111  1  0.37371037  0.12115188  0.62696061  1
  Co  Co112  1  0.12739971  0.12726799  0.37459099  1
  Co  Co113  1  0.37512494  0.12328981  0.12486012  1
  Co  Co114  1  0.49459075  -0.00001699  -0.00355907  1
  Co  Co115  1  0.87137012  0.12583957  0.37629936  1
  Co  Co116  1  0.62668360  0.11624885  0.12267200  1
  Co  Co117  1  0.25237695  -0.00216459  -0.00009513  1
  Co  Co118  1  0.74658052  0.50019313  0.25508253  1
  Co  Co119  1  0.75338013  -0.00105913  -0.00269344  1
  Co  Co120  1  0.12411956  0.62562718  0.37359807  1
  Co  Co121  1  0.75177717  0.74584623  0.50320835  1
  Co  Co122  1  0.12658483  0.87391539  0.62303049  1
  Co  Co123  1  0.50177348  0.00080827  0.25452735  1
  Co  Co124  1  0.62683275  0.37555736  0.62275677  1
  Co  Co125  1  0.37744592  0.87729199  0.12849826  1
  Co  Co126  1  0.49698197  0.75118554  0.50212649  1
  Co  Co127  1  0.00272320  0.50008449  0.75172082  1
