# generated using pymatgen
data_Fe45Co19
_symmetry_space_group_name_H-M   'P 1'
_cell_length_a   11.41502237
_cell_length_b   11.41514602
_cell_length_c   11.41449464
_cell_angle_alpha   89.99678399
_cell_angle_beta   89.99999173
_cell_angle_gamma   89.99981913
_symmetry_Int_Tables_number   1
_chemical_formula_structural   Fe45Co19
_chemical_formula_sum   'Fe90 Co38'
_cell_volume   1487.35598721
_cell_formula_units_Z   2
loop_
 _symmetry_equiv_pos_site_id
 _symmetry_equiv_pos_as_xyz
  1  'x, y, z'
loop_
 _atom_site_type_symbol
 _atom_site_label
 _atom_site_symmetry_multiplicity
 _atom_site_fract_x
 _atom_site_fract_y
 _atom_site_fract_z
 _atom_site_occupancy
  Fe  Fe0  1  0.12566504  0.12499672  0.37584625  1
  Fe  Fe1  1  0.12573211  0.12368536  0.12481394  1
  Fe  Fe2  1  0.12522884  0.87703258  0.87374974  1
  Fe  Fe3  1  0.50086399  -0.00183226  0.00105713  1
  Fe  Fe4  1  0.87270352  0.62452633  0.87823721  1
  Fe  Fe5  1  0.62476312  0.12431828  0.87727604  1
  Fe  Fe6  1  0.37779741  0.37265581  0.62897588  1
  Fe  Fe7  1  -0.00145612  0.49959983  0.74950236  1
  Fe  Fe8  1  0.37498431  0.87216920  0.87500018  1
  Fe  Fe9  1  0.50342163  0.75147194  0.00340905  1
  Fe  Fe10  1  0.37632903  0.62644112  0.62298332  1
  Fe  Fe11  1  0.62462896  0.62608355  0.37078067  1
  Fe  Fe12  1  0.87400473  0.87500410  0.62364762  1
  Fe  Fe13  1  0.75096335  0.00097790  0.75037920  1
  Fe  Fe14  1  0.25014855  0.50235235  0.25168578  1
  Fe  Fe15  1  0.12568756  0.62368284  0.87529122  1
  Fe  Fe16  1  0.62296280  0.12923367  0.37426181  1
  Fe  Fe17  1  0.62783309  0.87614248  0.87729339  1
  Fe  Fe18  1  0.00070934  0.49909815  -0.00094728  1
  Fe  Fe19  1  0.12450800  0.62121956  0.62244764  1
  Fe  Fe20  1  0.12534206  0.37608659  0.37620685  1
  Fe  Fe21  1  0.12338088  0.62508367  0.12620303  1
  Fe  Fe22  1  0.62422297  0.62053045  0.87666791  1
  Fe  Fe23  1  0.12472999  0.87574353  0.62397484  1
  Fe  Fe24  1  0.37489757  0.12698682  0.87733311  1
  Fe  Fe25  1  0.37430472  0.12638653  0.12427398  1
  Fe  Fe26  1  0.00075985  0.75220993  -0.00059557  1
  Fe  Fe27  1  0.25219021  0.00026158  0.74801948  1
  Fe  Fe28  1  0.50148712  0.74952299  0.74984003  1
  Fe  Fe29  1  0.25036396  0.74989401  0.49891984  1
  Fe  Fe30  1  0.25259832  -0.00103878  0.50002092  1
  Fe  Fe31  1  0.24671594  0.24782248  0.75182299  1
  Fe  Fe32  1  0.87414753  0.37380926  0.62560412  1
  Fe  Fe33  1  0.74731178  0.49717837  0.50069192  1
  Fe  Fe34  1  0.50040808  0.75125692  0.49907822  1
  Fe  Fe35  1  0.62404598  0.37706103  0.12779593  1
  Fe  Fe36  1  -0.00135813  0.00069295  0.25120586  1
  Fe  Fe37  1  0.00387305  0.24984968  -0.00132851  1
  Fe  Fe38  1  -0.00232676  0.00039985  0.74922671  1
  Fe  Fe39  1  0.62541308  0.12532128  0.12447653  1
  Fe  Fe40  1  -0.00205087  0.00247824  0.49971395  1
  Fe  Fe41  1  0.87549193  0.37451481  0.12433499  1
  Fe  Fe42  1  0.37590582  0.87387037  0.37333710  1
  Fe  Fe43  1  0.74987336  0.00234187  0.49841371  1
  Fe  Fe44  1  0.87496743  0.37419789  0.87456306  1
  Fe  Fe45  1  0.24793952  0.75024522  0.00141243  1
  Fe  Fe46  1  0.62568586  0.87213989  0.36970920  1
  Fe  Fe47  1  0.87210233  0.87504881  0.12504019  1
  Fe  Fe48  1  0.12562069  0.87518428  0.37269841  1
  Fe  Fe49  1  0.37722282  0.37341450  0.37260407  1
  Fe  Fe50  1  0.62414667  0.87754564  0.62445265  1
  Fe  Fe51  1  0.62227581  0.37897996  0.87010723  1
  Fe  Fe52  1  0.25393603  0.50144447  0.75374109  1
  Fe  Fe53  1  0.74589416  0.24865665  0.74845667  1
  Fe  Fe54  1  0.74438852  0.25148422  0.50210675  1
  Fe  Fe55  1  0.12881563  0.37679092  0.12306654  1
  Fe  Fe56  1  -0.00127783  0.50069756  0.25263284  1
  Fe  Fe57  1  0.38020762  0.12599113  0.62211149  1
  Fe  Fe58  1  0.25167910  0.74755953  0.25109457  1
  Fe  Fe59  1  0.49924176  0.00090312  0.25026702  1
  Fe  Fe60  1  0.00159782  0.25043089  0.50217496  1
  Fe  Fe61  1  0.74991938  0.74981909  0.49820271  1
  Fe  Fe62  1  0.87421878  0.12762525  0.12470565  1
  Fe  Fe63  1  0.24996278  0.25144737  0.50124872  1
  Fe  Fe64  1  0.25142924  0.49897334  0.49910713  1
  Fe  Fe65  1  0.74759385  0.74805116  0.00462890  1
  Fe  Fe66  1  0.75006345  0.74861251  0.75009891  1
  Fe  Fe67  1  -0.00099900  -0.00188496  0.00012480  1
  Fe  Fe68  1  0.50195072  0.49659873  0.49956597  1
  Fe  Fe69  1  0.49875509  0.25451011  0.00166885  1
  Fe  Fe70  1  0.87481944  0.62383385  0.62192618  1
  Fe  Fe71  1  -0.00045685  0.74828447  0.49708319  1
  Fe  Fe72  1  0.87514544  0.12649437  0.87471896  1
  Fe  Fe73  1  0.62459005  0.62199596  0.62637595  1
  Fe  Fe74  1  0.75284249  0.50279127  0.24697836  1
  Fe  Fe75  1  0.75131403  0.00282242  0.25085072  1
  Fe  Fe76  1  0.49761387  0.49939335  0.24978950  1
  Fe  Fe77  1  0.25004078  0.24873698  0.24932830  1
  Fe  Fe78  1  0.49967558  -0.00035722  0.75073397  1
  Fe  Fe79  1  -0.00479521  0.74794321  0.25312707  1
  Fe  Fe80  1  -0.00134171  0.74958497  0.75030253  1
  Fe  Fe81  1  0.00081601  0.25064511  0.25031967  1
  Fe  Fe82  1  0.74819434  0.25296299  0.00009603  1
  Fe  Fe83  1  0.24858591  -0.00139973  0.00179730  1
  Fe  Fe84  1  0.37696610  0.62293841  0.12261002  1
  Fe  Fe85  1  0.87247770  0.37291711  0.37499467  1
  Fe  Fe86  1  0.00536937  0.24906680  0.74911149  1
  Fe  Fe87  1  0.25009308  0.74933345  0.74884858  1
  Fe  Fe88  1  0.37778062  0.12783261  0.37638864  1
  Fe  Fe89  1  0.37483764  0.87595358  0.12622498  1
  Co  Co90  1  0.50508203  0.25578442  0.50062706  1
  Co  Co91  1  0.12675262  0.37800082  0.62628221  1
  Co  Co92  1  0.37466284  0.37044648  0.87307805  1
  Co  Co93  1  0.12679723  0.37724847  0.87568702  1
  Co  Co94  1  0.74897702  0.49722446  0.00098094  1
  Co  Co95  1  0.12477659  0.12082837  0.87636525  1
  Co  Co96  1  0.25267644  0.50143871  -0.00276051  1
  Co  Co97  1  0.87753956  0.62410350  0.12111306  1
  Co  Co98  1  0.49763717  0.75014678  0.24717757  1
  Co  Co99  1  0.37711779  0.87367054  0.62546962  1
  Co  Co100  1  0.87208837  0.87333787  0.87611680  1
  Co  Co101  1  0.24832076  0.24965443  -0.00033637  1
  Co  Co102  1  0.37743783  0.63070965  0.87858042  1
  Co  Co103  1  0.75344835  0.74659652  0.24740197  1
  Co  Co104  1  0.49424828  0.50425801  0.75181908  1
  Co  Co105  1  0.12431739  0.87335105  0.12931542  1
  Co  Co106  1  0.37100478  0.37603075  0.12643505  1
  Co  Co107  1  0.62166898  0.62142860  0.12658310  1
  Co  Co108  1  0.62604624  0.37538652  0.36825052  1
  Co  Co109  1  0.25147083  0.00182931  0.25064747  1
  Co  Co110  1  0.50236390  0.24622406  0.75039123  1
  Co  Co111  1  0.75029249  0.24945532  0.24770427  1
  Co  Co112  1  0.87198014  0.62198828  0.37773287  1
  Co  Co113  1  0.87336628  0.12755464  0.62542792  1
  Co  Co114  1  0.12487959  0.62411217  0.37580698  1
  Co  Co115  1  0.49716929  0.49594516  -0.00136360  1
  Co  Co116  1  0.49861460  0.25009922  0.24706907  1
  Co  Co117  1  0.75392556  0.50148712  0.74994438  1
  Co  Co118  1  0.62732749  0.87752580  0.12822561  1
  Co  Co119  1  -0.00123425  0.49757453  0.49865026  1
  Co  Co120  1  0.37819471  0.62407221  0.37669635  1
  Co  Co121  1  0.75159014  0.00223325  0.00034471  1
  Co  Co122  1  0.50007152  -0.00294429  0.49645042  1
  Co  Co123  1  0.87307581  0.87621119  0.37562067  1
  Co  Co124  1  0.87462535  0.12976847  0.37569543  1
  Co  Co125  1  0.12669939  0.12338912  0.62332854  1
  Co  Co126  1  0.62159554  0.12155970  0.62285167  1
  Co  Co127  1  0.62227670  0.37890359  0.63246349  1
