# generated using pymatgen
data_Fe45Co19
_symmetry_space_group_name_H-M   'P 1'
_cell_length_a   11.41529654
_cell_length_b   11.41679812
_cell_length_c   11.41387987
_cell_angle_alpha   90.00586387
_cell_angle_beta   90.00327127
_cell_angle_gamma   89.99455063
_symmetry_Int_Tables_number   1
_chemical_formula_structural   Fe45Co19
_chemical_formula_sum   'Fe90 Co38'
_cell_volume   1487.52684540
_cell_formula_units_Z   2
loop_
 _symmetry_equiv_pos_site_id
 _symmetry_equiv_pos_as_xyz
  1  'x, y, z'
loop_
 _atom_site_type_symbol
 _atom_site_label
 _atom_site_symmetry_multiplicity
 _atom_site_fract_x
 _atom_site_fract_y
 _atom_site_fract_z
 _atom_site_occupancy
  Fe  Fe0  1  0.49770059  0.50171314  0.50419949  1
  Fe  Fe1  1  0.87343389  0.12351366  0.37559339  1
  Fe  Fe2  1  0.87222510  0.12147779  0.87241174  1
  Fe  Fe3  1  0.37551619  0.12251741  0.37689047  1
  Fe  Fe4  1  0.12428941  0.37494176  0.87527387  1
  Fe  Fe5  1  0.75148757  0.49964626  -0.00182944  1
  Fe  Fe6  1  0.75368700  0.75199220  0.00154351  1
  Fe  Fe7  1  0.74954826  0.24859798  -0.00208792  1
  Fe  Fe8  1  0.25104649  0.24966353  -0.00254963  1
  Fe  Fe9  1  0.37501588  0.37585436  0.87171490  1
  Fe  Fe10  1  0.62715215  0.12156759  0.87152663  1
  Fe  Fe11  1  0.12734704  0.12456314  0.12415627  1
  Fe  Fe12  1  0.62249061  0.87564563  0.12643169  1
  Fe  Fe13  1  0.24929920  0.25069540  0.25351272  1
  Fe  Fe14  1  0.37762248  0.87554172  0.12679279  1
  Fe  Fe15  1  0.50215040  0.24965910  0.74603138  1
  Fe  Fe16  1  0.50046511  0.00075564  -0.00000735  1
  Fe  Fe17  1  -0.00008598  0.50173589  0.25248150  1
  Fe  Fe18  1  0.37354577  0.62725515  0.87215971  1
  Fe  Fe19  1  0.62828253  0.62292502  0.37679788  1
  Fe  Fe20  1  0.87563686  0.37536468  0.12584095  1
  Fe  Fe21  1  0.37449969  0.37799388  0.37661916  1
  Fe  Fe22  1  0.75097300  -0.00132206  0.50286038  1
  Fe  Fe23  1  0.50266944  -0.00405428  0.74309343  1
  Fe  Fe24  1  0.12170988  0.62695893  0.62076702  1
  Fe  Fe25  1  0.49833870  -0.00318689  0.50460618  1
  Fe  Fe26  1  0.24920056  0.75086046  0.49929763  1
  Fe  Fe27  1  0.24956381  0.75107925  -0.00137425  1
  Fe  Fe28  1  0.12218327  0.62700500  0.12434389  1
  Fe  Fe29  1  0.12180504  0.87548425  0.37713460  1
  Fe  Fe30  1  0.49953723  0.74863740  -0.00223486  1
  Fe  Fe31  1  0.12442881  0.37703705  0.38059522  1
  Fe  Fe32  1  0.62446589  0.87476280  0.37519980  1
  Fe  Fe33  1  0.37639072  0.62455217  0.12466969  1
  Fe  Fe34  1  0.50016820  0.75007883  0.50075845  1
  Fe  Fe35  1  0.24810550  -0.00025489  0.74549435  1
  Fe  Fe36  1  0.62444111  0.12446579  0.37849209  1
  Fe  Fe37  1  0.25063762  0.50001110  -0.00025517  1
  Fe  Fe38  1  0.37493569  0.12302382  0.87061949  1
  Fe  Fe39  1  0.74788967  0.25133997  0.25100365  1
  Fe  Fe40  1  -0.00437079  0.74887689  0.25320101  1
  Fe  Fe41  1  -0.00186692  0.50071741  -0.00048923  1
  Fe  Fe42  1  0.87714226  0.87944100  0.87629698  1
  Fe  Fe43  1  0.12561096  0.12373007  0.38138466  1
  Fe  Fe44  1  0.12418281  0.62389132  0.87538815  1
  Fe  Fe45  1  0.87472739  0.37680727  0.37553916  1
  Fe  Fe46  1  0.87253543  0.12369959  0.12459288  1
  Fe  Fe47  1  0.12138095  0.87501642  0.12236595  1
  Fe  Fe48  1  0.87446513  0.37381307  0.86964919  1
  Fe  Fe49  1  0.37759602  0.87382353  0.37400906  1
  Fe  Fe50  1  0.12417420  0.37414016  0.12424253  1
  Fe  Fe51  1  0.00277801  0.75280796  0.75178183  1
  Fe  Fe52  1  0.24953913  0.75044399  0.25028341  1
  Fe  Fe53  1  0.37564575  0.37488738  0.12467881  1
  Fe  Fe54  1  0.24776310  0.49970671  0.74701846  1
  Fe  Fe55  1  0.74886320  0.75216865  0.75164286  1
  Fe  Fe56  1  0.49786352  0.25127514  0.50397701  1
  Fe  Fe57  1  0.50091891  0.24876957  -0.00202377  1
  Fe  Fe58  1  0.37446162  0.87321608  0.86983416  1
  Fe  Fe59  1  0.24807100  0.50168431  0.25120346  1
  Fe  Fe60  1  0.62548897  0.62351896  0.12256148  1
  Fe  Fe61  1  0.00014496  0.24893097  0.25254960  1
  Fe  Fe62  1  0.00340249  0.24628329  0.74865429  1
  Fe  Fe63  1  0.62641949  0.37744422  0.37965516  1
  Fe  Fe64  1  0.37505476  0.12458010  0.12601585  1
  Fe  Fe65  1  0.87670749  0.87376298  0.62520982  1
  Fe  Fe66  1  0.12597518  0.37141054  0.62048080  1
  Fe  Fe67  1  0.75218029  0.74949040  0.24959042  1
  Fe  Fe68  1  0.62520915  0.87508613  0.87420671  1
  Fe  Fe69  1  0.12449207  0.87866302  0.87820986  1
  Fe  Fe70  1  0.12675661  0.12216373  0.87576233  1
  Fe  Fe71  1  0.12284099  0.87636392  0.62091570  1
  Fe  Fe72  1  0.37292518  0.62950310  0.62847601  1
  Fe  Fe73  1  0.62677078  0.37686119  0.87141580  1
  Fe  Fe74  1  0.87529935  0.62513000  0.87209055  1
  Fe  Fe75  1  0.50312637  0.50388405  0.75025890  1
  Fe  Fe76  1  0.50232026  0.50121744  0.25082164  1
  Fe  Fe77  1  0.87480629  0.12486778  0.62743864  1
  Fe  Fe78  1  0.37387758  0.62598919  0.37456562  1
  Fe  Fe79  1  0.74751696  -0.00040764  0.24869810  1
  Fe  Fe80  1  0.50160025  0.24957947  0.25234849  1
  Fe  Fe81  1  0.75423473  0.75024365  0.49808488  1
  Fe  Fe82  1  -0.00084468  0.00119685  0.25072112  1
  Fe  Fe83  1  0.25016168  -0.00189230  0.25154282  1
  Fe  Fe84  1  -0.00119676  0.24748861  -0.00120509  1
  Fe  Fe85  1  0.75628609  0.49981258  0.50756820  1
  Fe  Fe86  1  0.62397295  0.37490013  0.12365434  1
  Fe  Fe87  1  -0.00122269  0.49938689  0.74537239  1
  Fe  Fe88  1  0.75105567  0.25100046  0.50409559  1
  Fe  Fe89  1  0.62814465  0.62795389  0.62643655  1
  Co  Co90  1  0.62500802  0.37662424  0.62560033  1
  Co  Co91  1  0.62553123  0.12426784  0.62364069  1
  Co  Co92  1  0.87543528  0.62326435  0.12523393  1
  Co  Co93  1  0.37284399  0.12567683  0.62608680  1
  Co  Co94  1  0.74707095  0.24854783  0.74844658  1
  Co  Co95  1  0.62870476  0.62660052  0.87620067  1
  Co  Co96  1  0.50467452  0.74994782  0.74981716  1
  Co  Co97  1  0.74837135  0.49933204  0.24904878  1
  Co  Co98  1  -0.00076033  0.00367282  0.00046041  1
  Co  Co99  1  0.12738055  0.12625987  0.61919931  1
  Co  Co100  1  0.87794056  0.87740268  0.12480313  1
  Co  Co101  1  0.37319571  0.86950556  0.62786431  1
  Co  Co102  1  0.25445109  0.25082372  0.49924640  1
  Co  Co103  1  0.75116807  0.50209581  0.74729991  1
  Co  Co104  1  0.87354941  0.62164946  0.37483476  1
  Co  Co105  1  0.74878033  -0.00343343  0.74662077  1
  Co  Co106  1  0.24266362  0.75099818  0.75024298  1
  Co  Co107  1  -0.00385623  0.75051658  0.49627502  1
  Co  Co108  1  -0.00501543  0.50005359  0.50334288  1
  Co  Co109  1  0.87378257  0.87808814  0.37426364  1
  Co  Co110  1  -0.00177079  0.74898179  -0.00267569  1
  Co  Co111  1  0.24747118  0.24975898  0.75073861  1
  Co  Co112  1  0.50146792  0.00233965  0.25125372  1
  Co  Co113  1  0.00196134  0.00067474  0.74770197  1
  Co  Co114  1  0.37445400  0.37544917  0.62841328  1
  Co  Co115  1  0.49988562  0.50079822  -0.00308859  1
  Co  Co116  1  0.87703440  0.63156133  0.62865314  1
  Co  Co117  1  0.25195040  0.50213184  0.50189672  1
  Co  Co118  1  0.25341825  -0.00358849  0.50066158  1
  Co  Co119  1  0.62491600  0.12641341  0.12517132  1
  Co  Co120  1  -0.00354759  0.00097654  0.50129408  1
  Co  Co121  1  -0.00392618  0.24897631  0.49931158  1
  Co  Co122  1  0.50252661  0.74613918  0.25137348  1
  Co  Co123  1  0.12398914  0.62525954  0.37810404  1
  Co  Co124  1  0.87580726  0.37026579  0.62989062  1
  Co  Co125  1  0.62786329  0.87112071  0.62238796  1
  Co  Co126  1  0.25302488  -0.00146525  0.00004132  1
  Co  Co127  1  0.74776508  -0.00111763  0.00099397  1
