# generated using pymatgen
data_Fe45Co19
_symmetry_space_group_name_H-M   'P 1'
_cell_length_a   11.41469428
_cell_length_b   11.41358931
_cell_length_c   11.41267148
_cell_angle_alpha   89.98191780
_cell_angle_beta   90.00256032
_cell_angle_gamma   90.00584528
_symmetry_Int_Tables_number   1
_chemical_formula_structural   Fe45Co19
_chemical_formula_sum   'Fe90 Co38'
_cell_volume   1486.87280265
_cell_formula_units_Z   2
loop_
 _symmetry_equiv_pos_site_id
 _symmetry_equiv_pos_as_xyz
  1  'x, y, z'
loop_
 _atom_site_type_symbol
 _atom_site_label
 _atom_site_symmetry_multiplicity
 _atom_site_fract_x
 _atom_site_fract_y
 _atom_site_fract_z
 _atom_site_occupancy
  Fe  Fe0  1  0.87638513  0.87591682  0.37373117  1
  Fe  Fe1  1  0.37573398  0.87509123  0.87548552  1
  Fe  Fe2  1  0.49652641  0.49938198  0.75164831  1
  Fe  Fe3  1  0.24992069  0.74863230  0.24824184  1
  Fe  Fe4  1  0.87643098  0.37371187  0.62418459  1
  Fe  Fe5  1  0.12257608  0.87333394  0.37181040  1
  Fe  Fe6  1  0.62754442  0.62515812  0.12617389  1
  Fe  Fe7  1  0.24641995  0.00047088  0.24722119  1
  Fe  Fe8  1  0.00130353  0.50119019  0.00140559  1
  Fe  Fe9  1  0.87417463  0.87567246  0.87517700  1
  Fe  Fe10  1  0.87407881  0.87270413  0.62513298  1
  Fe  Fe11  1  0.37247782  0.12368411  0.62403533  1
  Fe  Fe12  1  -0.00090903  0.25084855  0.75153764  1
  Fe  Fe13  1  0.49812432  0.25055960  0.49771174  1
  Fe  Fe14  1  0.75096895  0.49772711  0.75241889  1
  Fe  Fe15  1  0.50003743  0.74835545  0.24989622  1
  Fe  Fe16  1  0.50016902  0.74936885  0.49826776  1
  Fe  Fe17  1  0.12129447  0.12418057  0.37340367  1
  Fe  Fe18  1  0.87392456  0.62679065  0.62505188  1
  Fe  Fe19  1  0.74909630  0.00150607  0.49945751  1
  Fe  Fe20  1  0.62491995  0.12873872  0.62825615  1
  Fe  Fe21  1  -0.00080495  0.74695617  0.24672162  1
  Fe  Fe22  1  0.24799293  -0.00178786  0.49877123  1
  Fe  Fe23  1  -0.00185332  0.24735181  0.24715452  1
  Fe  Fe24  1  0.37505126  0.12454053  0.87788765  1
  Fe  Fe25  1  0.24855904  0.25254620  0.49578260  1
  Fe  Fe26  1  0.24646460  0.49900223  0.24888258  1
  Fe  Fe27  1  0.25161567  0.25016393  0.75197450  1
  Fe  Fe28  1  0.37578901  0.87660242  0.37284678  1
  Fe  Fe29  1  0.24930570  0.75036755  0.49862453  1
  Fe  Fe30  1  0.12516787  0.12440285  0.87617205  1
  Fe  Fe31  1  0.12534085  0.62490384  0.62303912  1
  Fe  Fe32  1  0.12563988  0.87268538  0.87603351  1
  Fe  Fe33  1  0.49920736  0.50018055  0.49970853  1
  Fe  Fe34  1  0.37543610  0.87674572  0.12485754  1
  Fe  Fe35  1  0.37307774  0.37627354  0.62370462  1
  Fe  Fe36  1  0.87635201  0.37825351  0.12289078  1
  Fe  Fe37  1  0.12665305  0.12463933  0.62587288  1
  Fe  Fe38  1  0.62538312  0.37260706  0.62725136  1
  Fe  Fe39  1  0.87904658  0.37542881  0.37588927  1
  Fe  Fe40  1  0.75294057  0.00368319  0.24822149  1
  Fe  Fe41  1  0.74539423  0.00136124  0.00193941  1
  Fe  Fe42  1  0.25330710  0.50296204  0.75485912  1
  Fe  Fe43  1  0.50184451  0.00375534  0.24493342  1
  Fe  Fe44  1  0.50076583  0.75244685  0.00238626  1
  Fe  Fe45  1  0.62636706  0.62442407  0.62522179  1
  Fe  Fe46  1  0.62596845  0.87381161  0.62505033  1
  Fe  Fe47  1  0.12558917  0.37659389  0.62564871  1
  Fe  Fe48  1  0.37382535  0.62374408  0.12143411  1
  Fe  Fe49  1  0.24924664  -0.00188630  0.00202852  1
  Fe  Fe50  1  0.62492177  0.87583205  0.87501065  1
  Fe  Fe51  1  0.12012107  0.37846505  0.37438080  1
  Fe  Fe52  1  0.62379642  0.37040358  0.87186389  1
  Fe  Fe53  1  0.87450681  0.87432907  0.12565692  1
  Fe  Fe54  1  0.25028676  0.74672285  0.75306874  1
  Fe  Fe55  1  0.87574292  0.12366391  0.87650927  1
  Fe  Fe56  1  0.37335139  0.12576566  0.37092913  1
  Fe  Fe57  1  0.49944182  0.74802063  0.74933274  1
  Fe  Fe58  1  0.00251938  -0.00139232  0.74914442  1
  Fe  Fe59  1  0.62679650  0.12873112  0.37040637  1
  Fe  Fe60  1  0.24760020  0.25169936  0.00231168  1
  Fe  Fe61  1  0.87853636  0.62411728  0.37502576  1
  Fe  Fe62  1  0.12585767  0.62635746  0.12043182  1
  Fe  Fe63  1  0.00019331  0.74945831  0.75201657  1
  Fe  Fe64  1  0.37332093  0.87581780  0.62557767  1
  Fe  Fe65  1  -0.00077126  0.50080617  0.75041331  1
  Fe  Fe66  1  0.75217207  0.50075085  0.25020378  1
  Fe  Fe67  1  0.75030906  0.74938769  0.00076148  1
  Fe  Fe68  1  0.12550176  0.37747173  0.87543858  1
  Fe  Fe69  1  0.74905779  0.74907512  0.49635024  1
  Fe  Fe70  1  0.62744341  0.37222591  0.12840048  1
  Fe  Fe71  1  0.50136869  0.00128102  0.49870086  1
  Fe  Fe72  1  0.49975266  0.00227756  0.75156899  1
  Fe  Fe73  1  0.75114186  0.49992877  0.49863171  1
  Fe  Fe74  1  0.50053671  0.49662948  0.00045651  1
  Fe  Fe75  1  0.74957155  0.00185776  0.74989703  1
  Fe  Fe76  1  0.00192067  -0.00283802  0.50168131  1
  Fe  Fe77  1  0.87697782  0.12579397  0.62369388  1
  Fe  Fe78  1  0.37315975  0.62209273  0.37610381  1
  Fe  Fe79  1  0.75150441  0.25115791  -0.00142803  1
  Fe  Fe80  1  0.62414062  0.62453048  0.87601853  1
  Fe  Fe81  1  0.87456882  0.62319193  0.87770386  1
  Fe  Fe82  1  0.37197290  0.37254652  0.12686708  1
  Fe  Fe83  1  0.00075495  0.25094828  -0.00016898  1
  Fe  Fe84  1  0.49980171  0.24782938  0.00296459  1
  Fe  Fe85  1  0.00257837  -0.00201621  0.00318793  1
  Fe  Fe86  1  0.62460474  0.37431229  0.37255379  1
  Fe  Fe87  1  0.62569687  0.87450160  0.37067950  1
  Fe  Fe88  1  0.49954707  0.49962441  0.24913798  1
  Fe  Fe89  1  0.75145669  0.24975873  0.49831352  1
  Co  Co90  1  -0.00019305  0.50162048  0.50239135  1
  Co  Co91  1  0.74635221  0.49790517  -0.00143121  1
  Co  Co92  1  0.12250296  0.37523528  0.12418518  1
  Co  Co93  1  -0.00125290  0.00162656  0.24703307  1
  Co  Co94  1  0.25115924  0.49815775  0.00001391  1
  Co  Co95  1  0.12426757  0.62421841  0.87982704  1
  Co  Co96  1  0.50254466  0.00149872  0.00259617  1
  Co  Co97  1  0.00048521  0.75067647  0.50001431  1
  Co  Co98  1  0.37423992  0.62466836  0.62245875  1
  Co  Co99  1  0.87733647  0.37747132  0.87799748  1
  Co  Co100  1  0.75770520  0.25095433  0.25003454  1
  Co  Co101  1  0.74992591  0.74932594  0.75290474  1
  Co  Co102  1  0.12384041  0.87297181  0.12603539  1
  Co  Co103  1  0.25126744  0.75241784  0.00032355  1
  Co  Co104  1  0.24942933  0.00007708  0.75237819  1
  Co  Co105  1  0.12448251  0.62504449  0.37562867  1
  Co  Co106  1  0.49765566  0.25026811  0.24957537  1
  Co  Co107  1  0.12724676  0.87287289  0.62670980  1
  Co  Co108  1  0.24529583  0.25241400  0.25244442  1
  Co  Co109  1  0.24760182  0.49846249  0.49786192  1
  Co  Co110  1  0.49394523  0.24936392  0.74892272  1
  Co  Co111  1  0.87555825  0.12475739  0.12015155  1
  Co  Co112  1  0.62371629  0.62304933  0.37400773  1
  Co  Co113  1  0.37465088  0.37337694  0.87815277  1
  Co  Co114  1  0.87268622  0.62263170  0.12132959  1
  Co  Co115  1  0.00082165  0.50358385  0.24650659  1
  Co  Co116  1  0.62692860  0.87295737  0.12859006  1
  Co  Co117  1  0.12494584  0.12563454  0.12451743  1
  Co  Co118  1  0.87761079  0.12416251  0.37808077  1
  Co  Co119  1  0.75601496  0.25008445  0.75168456  1
  Co  Co120  1  0.62824424  0.12988197  0.12670417  1
  Co  Co121  1  0.37086516  0.12653368  0.12645069  1
  Co  Co122  1  -0.00235094  0.75079842  0.00042213  1
  Co  Co123  1  0.00280341  0.24996064  0.50134725  1
  Co  Co124  1  0.37738433  0.62572725  0.88035347  1
  Co  Co125  1  0.37532300  0.37753624  0.37311659  1
  Co  Co126  1  0.62501906  0.12849704  0.87381124  1
  Co  Co127  1  0.75230506  0.74667422  0.25103180  1
