# generated using pymatgen
data_Fe45Co19
_symmetry_space_group_name_H-M   'P 1'
_cell_length_a   11.41500881
_cell_length_b   11.41662987
_cell_length_c   11.41519083
_cell_angle_alpha   89.99335471
_cell_angle_beta   90.00126894
_cell_angle_gamma   90.00158267
_symmetry_Int_Tables_number   1
_chemical_formula_structural   Fe45Co19
_chemical_formula_sum   'Fe90 Co38'
_cell_volume   1487.63827976
_cell_formula_units_Z   2
loop_
 _symmetry_equiv_pos_site_id
 _symmetry_equiv_pos_as_xyz
  1  'x, y, z'
loop_
 _atom_site_type_symbol
 _atom_site_label
 _atom_site_symmetry_multiplicity
 _atom_site_fract_x
 _atom_site_fract_y
 _atom_site_fract_z
 _atom_site_occupancy
  Fe  Fe0  1  0.74848474  0.49872669  0.25225840  1
  Fe  Fe1  1  0.25083728  0.25045175  -0.00094034  1
  Fe  Fe2  1  0.25141690  0.74885124  0.74914224  1
  Fe  Fe3  1  0.74647572  0.49749156  -0.00208368  1
  Fe  Fe4  1  0.25349475  0.50030346  0.50083057  1
  Fe  Fe5  1  0.12608411  0.37650875  0.12523535  1
  Fe  Fe6  1  0.87380006  0.87520230  0.62287810  1
  Fe  Fe7  1  0.24828397  0.00121961  0.25123625  1
  Fe  Fe8  1  0.62284114  0.37477329  0.12750585  1
  Fe  Fe9  1  0.87351290  0.87422263  0.37751937  1
  Fe  Fe10  1  0.49935837  -0.00329519  0.49880607  1
  Fe  Fe11  1  0.25300644  0.00109403  0.74781127  1
  Fe  Fe12  1  0.87428333  0.87532550  0.12673228  1
  Fe  Fe13  1  0.25236523  -0.00258145  -0.00134991  1
  Fe  Fe14  1  0.24964473  0.74909999  0.24944069  1
  Fe  Fe15  1  -0.00026045  0.74857683  0.25125805  1
  Fe  Fe16  1  0.25291665  0.24713499  0.74827122  1
  Fe  Fe17  1  0.75027680  -0.00034018  -0.00021452  1
  Fe  Fe18  1  0.00050386  0.49927766  0.25164495  1
  Fe  Fe19  1  0.00336578  0.00269267  0.25211651  1
  Fe  Fe20  1  0.87592545  0.12659662  0.62233851  1
  Fe  Fe21  1  0.12523362  0.62414130  0.37704626  1
  Fe  Fe22  1  -0.00106874  -0.00087213  -0.00135454  1
  Fe  Fe23  1  0.25550075  0.74796658  -0.00103115  1
  Fe  Fe24  1  0.37553177  0.62740452  0.37438308  1
  Fe  Fe25  1  0.87419794  0.37828035  0.87201557  1
  Fe  Fe26  1  0.12394620  0.87328993  0.37732132  1
  Fe  Fe27  1  0.50094484  0.75224801  0.49883837  1
  Fe  Fe28  1  0.12463854  0.87405653  0.12393543  1
  Fe  Fe29  1  0.62400256  0.12410038  0.62265796  1
  Fe  Fe30  1  0.62546154  0.87594296  0.62384920  1
  Fe  Fe31  1  -0.00124375  0.49681874  0.49877955  1
  Fe  Fe32  1  0.62189431  0.12624437  0.37577144  1
  Fe  Fe33  1  -0.00274532  0.74634769  0.75019688  1
  Fe  Fe34  1  0.12574833  0.62592638  0.12376608  1
  Fe  Fe35  1  0.74793222  0.74922397  0.25151522  1
  Fe  Fe36  1  0.87263213  0.62399495  0.12455535  1
  Fe  Fe37  1  0.37443360  0.12407751  0.12501415  1
  Fe  Fe38  1  0.75005918  0.75139063  -0.00062255  1
  Fe  Fe39  1  -0.00280322  0.74930270  -0.00273553  1
  Fe  Fe40  1  0.87315228  0.37738483  0.62735102  1
  Fe  Fe41  1  0.87489262  0.37324734  0.12898478  1
  Fe  Fe42  1  0.37878081  0.62600031  0.62544027  1
  Fe  Fe43  1  0.25386175  0.50405207  -0.00156144  1
  Fe  Fe44  1  0.37951164  0.87472098  0.86951965  1
  Fe  Fe45  1  0.49837311  0.25137194  0.00106691  1
  Fe  Fe46  1  0.87094404  0.62068764  0.62391688  1
  Fe  Fe47  1  0.74818019  0.25127380  0.74962743  1
  Fe  Fe48  1  0.62416246  0.87569345  0.87272541  1
  Fe  Fe49  1  0.87328615  0.62481475  0.37710464  1
  Fe  Fe50  1  0.74979726  0.00265158  0.25298604  1
  Fe  Fe51  1  0.00137667  0.25102307  0.74872373  1
  Fe  Fe52  1  0.62157668  0.37398978  0.37562824  1
  Fe  Fe53  1  0.25011671  0.50312497  0.75074637  1
  Fe  Fe54  1  0.74993732  0.25127920  -0.00070486  1
  Fe  Fe55  1  0.12737441  0.37699648  0.62550805  1
  Fe  Fe56  1  0.74927191  0.25174951  0.49921125  1
  Fe  Fe57  1  0.37649736  0.37409098  0.37486623  1
  Fe  Fe58  1  0.25019148  0.75197872  0.50255531  1
  Fe  Fe59  1  0.50290073  0.50099633  0.74862485  1
  Fe  Fe60  1  0.12461438  0.12441662  0.62198523  1
  Fe  Fe61  1  0.37809771  0.87278934  0.13033443  1
  Fe  Fe62  1  0.62410576  0.12503993  0.12635540  1
  Fe  Fe63  1  0.24947814  -0.00540436  0.50228110  1
  Fe  Fe64  1  0.37636419  0.37780464  0.12733900  1
  Fe  Fe65  1  0.62313766  0.12649569  0.87468044  1
  Fe  Fe66  1  0.74865230  0.74677856  0.74838458  1
  Fe  Fe67  1  0.49969809  -0.00120739  0.00001257  1
  Fe  Fe68  1  0.74965417  0.00122759  0.74877960  1
  Fe  Fe69  1  0.61974962  0.62522432  0.12445573  1
  Fe  Fe70  1  0.00038307  0.50187564  -0.00170050  1
  Fe  Fe71  1  0.25142039  0.50189337  0.25039943  1
  Fe  Fe72  1  0.87866188  0.13003838  0.37659317  1
  Fe  Fe73  1  0.87604958  0.12766810  0.12746996  1
  Fe  Fe74  1  0.12473977  0.87302874  0.87251762  1
  Fe  Fe75  1  0.12685076  0.12410270  0.87568382  1
  Fe  Fe76  1  0.24699565  0.24809694  0.25026098  1
  Fe  Fe77  1  0.00064212  0.24989182  0.00003605  1
  Fe  Fe78  1  0.62296704  0.87503135  0.12895425  1
  Fe  Fe79  1  0.25195208  0.25244654  0.50221846  1
  Fe  Fe80  1  0.12402142  0.62527547  0.62373856  1
  Fe  Fe81  1  0.62275416  0.62614552  0.87707194  1
  Fe  Fe82  1  -0.00066375  -0.00035798  0.74893150  1
  Fe  Fe83  1  0.62322282  0.37736175  0.62284325  1
  Fe  Fe84  1  0.62572147  0.62355942  0.37947272  1
  Fe  Fe85  1  0.87371601  0.12487531  0.87363402  1
  Fe  Fe86  1  0.37648226  0.37535710  0.87182151  1
  Fe  Fe87  1  0.12560612  0.37657284  0.87355689  1
  Fe  Fe88  1  0.37516890  0.12458529  0.37762902  1
  Fe  Fe89  1  0.49670730  0.24694106  0.74582270  1
  Co  Co90  1  0.37281409  0.87391515  0.37348058  1
  Co  Co91  1  0.12593093  0.62712603  0.87598352  1
  Co  Co92  1  0.12637352  0.12564692  0.38188963  1
  Co  Co93  1  0.00255187  0.50219890  0.74959580  1
  Co  Co94  1  0.37850862  0.87381881  0.62685289  1
  Co  Co95  1  0.74314723  0.50061502  0.75143771  1
  Co  Co96  1  0.87539036  0.37090706  0.37107228  1
  Co  Co97  1  -0.00014199  -0.00211189  0.50064474  1
  Co  Co98  1  0.49794058  0.24883078  0.24907564  1
  Co  Co99  1  0.74622300  0.24930854  0.25155022  1
  Co  Co100  1  0.49964722  0.00363998  0.74816067  1
  Co  Co101  1  0.75113093  0.49547009  0.49742068  1
  Co  Co102  1  0.37968276  0.62462950  0.87163443  1
  Co  Co103  1  0.37565516  0.37789673  0.62738761  1
  Co  Co104  1  0.49640516  0.50011049  0.49901538  1
  Co  Co105  1  0.49855481  0.25160200  0.50286632  1
  Co  Co106  1  0.87124889  0.62153286  0.87500536  1
  Co  Co107  1  0.50018851  0.50118274  0.25309664  1
  Co  Co108  1  0.49876629  0.00102080  0.25216078  1
  Co  Co109  1  0.87251686  0.87503064  0.87337775  1
  Co  Co110  1  0.62507247  0.62269254  0.61943938  1
  Co  Co111  1  0.12659692  0.12341900  0.12116018  1
  Co  Co112  1  0.74924323  0.75055465  0.50126316  1
  Co  Co113  1  -0.00096360  0.74860548  0.50130987  1
  Co  Co114  1  0.37914001  0.62571105  0.12805301  1
  Co  Co115  1  0.00772947  0.24930399  0.24991662  1
  Co  Co116  1  0.50459661  0.74830496  0.74711245  1
  Co  Co117  1  0.12854939  0.37671540  0.37620960  1
  Co  Co118  1  0.62802873  0.87645157  0.37501748  1
  Co  Co119  1  0.50282103  0.74935402  0.25516248  1
  Co  Co120  1  0.37695730  0.12538098  0.87684458  1
  Co  Co121  1  0.12344834  0.87329030  0.62736551  1
  Co  Co122  1  0.49849381  0.49842819  -0.00103904  1
  Co  Co123  1  0.00117394  0.25581641  0.50145996  1
  Co  Co124  1  0.62106333  0.37083901  0.87287090  1
  Co  Co125  1  0.75098684  0.00285175  0.49889932  1
  Co  Co126  1  0.37491651  0.12200287  0.61948129  1
  Co  Co127  1  0.49755989  0.75200663  -0.00045891  1
