# generated using pymatgen
data_Fe45Co19
_symmetry_space_group_name_H-M   'P 1'
_cell_length_a   11.41704115
_cell_length_b   11.41560030
_cell_length_c   11.41436352
_cell_angle_alpha   90.00323477
_cell_angle_beta   90.01005042
_cell_angle_gamma   90.00321283
_symmetry_Int_Tables_number   1
_chemical_formula_structural   Fe45Co19
_chemical_formula_sum   'Fe90 Co38'
_cell_volume   1487.66111758
_cell_formula_units_Z   2
loop_
 _symmetry_equiv_pos_site_id
 _symmetry_equiv_pos_as_xyz
  1  'x, y, z'
loop_
 _atom_site_type_symbol
 _atom_site_label
 _atom_site_symmetry_multiplicity
 _atom_site_fract_x
 _atom_site_fract_y
 _atom_site_fract_z
 _atom_site_occupancy
  Fe  Fe0  1  0.37630694  0.62421828  0.62784262  1
  Fe  Fe1  1  0.75015963  0.49901154  0.49913740  1
  Fe  Fe2  1  0.37424188  0.87473045  0.87679141  1
  Fe  Fe3  1  0.24756699  0.49928058  0.49865778  1
  Fe  Fe4  1  0.75090900  0.50332273  0.00049555  1
  Fe  Fe5  1  0.87709988  0.62409139  0.62489971  1
  Fe  Fe6  1  0.37180122  0.37691874  0.87406485  1
  Fe  Fe7  1  0.37508367  0.62391016  0.12453425  1
  Fe  Fe8  1  0.87548037  0.37728231  0.12437458  1
  Fe  Fe9  1  0.62618040  0.37382261  0.62521189  1
  Fe  Fe10  1  0.62940771  0.87375500  0.87447678  1
  Fe  Fe11  1  0.62181445  0.87330962  0.36980338  1
  Fe  Fe12  1  0.24735700  0.50099682  0.24915107  1
  Fe  Fe13  1  0.49619429  0.25242504  0.00195491  1
  Fe  Fe14  1  0.87732126  0.37355001  0.37642076  1
  Fe  Fe15  1  0.62562753  0.37460885  0.12595938  1
  Fe  Fe16  1  0.12356597  0.12674203  0.12277242  1
  Fe  Fe17  1  0.00038639  0.50012371  0.25131349  1
  Fe  Fe18  1  0.87701703  0.87814077  0.37668797  1
  Fe  Fe19  1  0.62609272  0.87553337  0.62652639  1
  Fe  Fe20  1  0.37462581  0.87734498  0.36685659  1
  Fe  Fe21  1  0.62548959  0.12615418  0.12432365  1
  Fe  Fe22  1  0.87837876  0.12350100  0.37802151  1
  Fe  Fe23  1  0.87630313  0.12218268  0.87788742  1
  Fe  Fe24  1  0.25099619  0.74948663  0.49729679  1
  Fe  Fe25  1  0.49730449  0.75127323  0.49911912  1
  Fe  Fe26  1  0.24840113  0.00191997  0.75250795  1
  Fe  Fe27  1  0.62496058  0.12520401  0.87639102  1
  Fe  Fe28  1  0.87557703  0.37609130  0.62473970  1
  Fe  Fe29  1  0.00117966  0.24658368  0.74978381  1
  Fe  Fe30  1  0.37231780  0.87658019  0.62509297  1
  Fe  Fe31  1  0.12609702  0.37426334  0.62568413  1
  Fe  Fe32  1  0.62490838  0.37355685  0.37391270  1
  Fe  Fe33  1  0.37357689  0.62440987  0.37395466  1
  Fe  Fe34  1  0.49979721  -0.00131877  0.49732808  1
  Fe  Fe35  1  0.74861651  -0.00000600  0.24985349  1
  Fe  Fe36  1  0.12762753  0.37243859  0.87432681  1
  Fe  Fe37  1  0.62703313  0.62623273  0.37406272  1
  Fe  Fe38  1  0.62435978  0.12658658  0.37559768  1
  Fe  Fe39  1  0.25109295  0.74711235  0.75306846  1
  Fe  Fe40  1  0.24725250  0.00088034  0.49388278  1
  Fe  Fe41  1  0.12468512  0.62581752  0.62327680  1
  Fe  Fe42  1  -0.00488524  0.74918362  0.00068067  1
  Fe  Fe43  1  0.87214987  0.87734225  0.87599268  1
  Fe  Fe44  1  0.87294687  0.87511570  0.12403123  1
  Fe  Fe45  1  0.49945044  0.49935121  0.50001961  1
  Fe  Fe46  1  0.75326668  0.25058744  0.25011732  1
  Fe  Fe47  1  0.37181098  0.37624300  0.62807431  1
  Fe  Fe48  1  0.75178559  0.24964355  0.00079214  1
  Fe  Fe49  1  0.50171368  0.50172405  0.24967017  1
  Fe  Fe50  1  0.49868611  -0.00055047  0.75124293  1
  Fe  Fe51  1  0.25259855  0.24721737  0.24655889  1
  Fe  Fe52  1  0.62598903  0.12387753  0.62331124  1
  Fe  Fe53  1  0.24681446  -0.00357568  0.00476410  1
  Fe  Fe54  1  0.37168948  0.12478547  0.87964028  1
  Fe  Fe55  1  -0.00113383  0.75040909  0.75127876  1
  Fe  Fe56  1  0.00350126  0.50159161  0.75196632  1
  Fe  Fe57  1  0.00075602  0.50091571  -0.00022668  1
  Fe  Fe58  1  0.62397369  0.62827989  0.87154192  1
  Fe  Fe59  1  0.25099634  0.75059376  0.00285791  1
  Fe  Fe60  1  0.50175145  0.50048881  0.00004578  1
  Fe  Fe61  1  0.87495113  0.37593881  0.87479617  1
  Fe  Fe62  1  0.12148886  0.62818126  0.12680791  1
  Fe  Fe63  1  0.87511174  0.62399619  0.37399050  1
  Fe  Fe64  1  0.12669856  0.12530145  0.62196342  1
  Fe  Fe65  1  0.00307822  -0.00017655  0.24854064  1
  Fe  Fe66  1  0.00193906  0.00081397  0.75070865  1
  Fe  Fe67  1  0.49780241  0.25110169  0.50013346  1
  Fe  Fe68  1  0.12683290  0.87201047  0.36953689  1
  Fe  Fe69  1  0.62229955  0.62697627  0.62635345  1
  Fe  Fe70  1  0.49635718  0.24810939  0.24722814  1
  Fe  Fe71  1  0.24770654  0.50034733  0.00025824  1
  Fe  Fe72  1  0.50070431  0.75152305  0.00283362  1
  Fe  Fe73  1  0.62642511  0.37373345  0.87543091  1
  Fe  Fe74  1  0.87416009  0.12041565  0.61950266  1
  Fe  Fe75  1  0.50271248  -0.00331368  0.00368557  1
  Fe  Fe76  1  0.75046270  0.75164500  0.49931116  1
  Fe  Fe77  1  0.63056291  0.62788035  0.12922947  1
  Fe  Fe78  1  0.00110940  0.25132386  0.00049872  1
  Fe  Fe79  1  0.87457317  0.87809847  0.62284613  1
  Fe  Fe80  1  0.12673397  0.87358172  0.62513610  1
  Fe  Fe81  1  0.37326794  0.12351563  0.62167053  1
  Fe  Fe82  1  0.49740895  0.24946024  0.75064291  1
  Fe  Fe83  1  0.00163186  0.75021591  0.49728869  1
  Fe  Fe84  1  0.75168234  0.24662153  0.74974498  1
  Fe  Fe85  1  0.74868681  0.50169483  0.75027477  1
  Fe  Fe86  1  0.37502497  0.37479277  0.37242316  1
  Fe  Fe87  1  0.87572491  0.12341517  0.12319179  1
  Fe  Fe88  1  0.12354633  0.87405840  0.87640033  1
  Fe  Fe89  1  0.12315941  0.37016765  0.37364743  1
  Co  Co90  1  0.12290092  0.87055578  0.12672990  1
  Co  Co91  1  0.37646633  0.87653326  0.12975361  1
  Co  Co92  1  0.74591158  -0.00215690  0.49653286  1
  Co  Co93  1  0.37526970  0.12382903  0.37533279  1
  Co  Co94  1  0.24574554  0.00396784  0.24774541  1
  Co  Co95  1  0.49737271  0.75437026  0.75025615  1
  Co  Co96  1  0.87508128  0.62321172  0.12905570  1
  Co  Co97  1  0.87538570  0.62309558  0.87266702  1
  Co  Co98  1  -0.00336481  0.24898983  0.24659929  1
  Co  Co99  1  0.75253615  0.75036766  0.74827145  1
  Co  Co100  1  0.12630989  0.12503172  0.88035049  1
  Co  Co101  1  0.75228753  0.74698976  0.00024387  1
  Co  Co102  1  0.62663497  0.87221116  0.12849707  1
  Co  Co103  1  0.74754971  0.00033892  0.00207861  1
  Co  Co104  1  0.50049662  0.49765403  0.75141284  1
  Co  Co105  1  0.24974045  0.24582795  0.75010194  1
  Co  Co106  1  0.75471670  0.75304261  0.25239912  1
  Co  Co107  1  0.75094962  0.49647827  0.25122314  1
  Co  Co108  1  0.12515518  0.62717519  0.37357110  1
  Co  Co109  1  0.50161489  0.00409209  0.24688182  1
  Co  Co110  1  0.25049310  0.25146805  0.49827020  1
  Co  Co111  1  0.75172124  0.25049470  0.49885147  1
  Co  Co112  1  0.25193183  0.74791440  0.24726900  1
  Co  Co113  1  0.00161023  -0.00179493  0.00171937  1
  Co  Co114  1  0.49755853  0.74590579  0.24841851  1
  Co  Co115  1  0.00723021  -0.00173261  0.49875165  1
  Co  Co116  1  0.12349484  0.62836637  0.87840394  1
  Co  Co117  1  0.37432075  0.12128196  0.12115965  1
  Co  Co118  1  -0.00309553  0.75087920  0.25148760  1
  Co  Co119  1  0.24749274  0.50501904  0.75196722  1
  Co  Co120  1  0.37762426  0.62516609  0.87632462  1
  Co  Co121  1  0.25071862  0.25345240  0.00454304  1
  Co  Co122  1  0.75064453  0.00201938  0.75088507  1
  Co  Co123  1  0.12227848  0.12982605  0.37315146  1
  Co  Co124  1  0.37572799  0.37942406  0.12627238  1
  Co  Co125  1  -0.00027412  0.25012787  0.50313710  1
  Co  Co126  1  0.00226724  0.49924328  0.49773589  1
  Co  Co127  1  0.12359366  0.37460969  0.12746620  1
