# generated using pymatgen
data_Fe45Co19
_symmetry_space_group_name_H-M   'P 1'
_cell_length_a   11.41508627
_cell_length_b   11.41429885
_cell_length_c   11.41469019
_cell_angle_alpha   90.00209167
_cell_angle_beta   90.01068277
_cell_angle_gamma   89.99490518
_symmetry_Int_Tables_number   1
_chemical_formula_structural   Fe45Co19
_chemical_formula_sum   'Fe90 Co38'
_cell_volume   1487.27937851
_cell_formula_units_Z   2
loop_
 _symmetry_equiv_pos_site_id
 _symmetry_equiv_pos_as_xyz
  1  'x, y, z'
loop_
 _atom_site_type_symbol
 _atom_site_label
 _atom_site_symmetry_multiplicity
 _atom_site_fract_x
 _atom_site_fract_y
 _atom_site_fract_z
 _atom_site_occupancy
  Fe  Fe0  1  0.62515746  0.37655110  0.12559170  1
  Fe  Fe1  1  0.12444476  0.12204575  0.12378193  1
  Fe  Fe2  1  0.37444359  0.87761223  0.62566850  1
  Fe  Fe3  1  0.00067869  0.25141351  0.00046032  1
  Fe  Fe4  1  0.37633881  0.87690148  0.12536292  1
  Fe  Fe5  1  0.87541205  0.62424145  0.62533440  1
  Fe  Fe6  1  -0.00159912  0.00175596  0.49797480  1
  Fe  Fe7  1  0.75034648  0.50046295  0.75148172  1
  Fe  Fe8  1  0.37566100  0.62242976  0.12523320  1
  Fe  Fe9  1  0.12310921  0.12595903  0.62523356  1
  Fe  Fe10  1  0.50285504  0.00201450  0.49994919  1
  Fe  Fe11  1  0.37368865  0.62599291  0.87448781  1
  Fe  Fe12  1  -0.00320461  0.24944574  0.25172717  1
  Fe  Fe13  1  0.37577246  0.12216171  0.62842116  1
  Fe  Fe14  1  0.37504787  0.37501979  0.12550423  1
  Fe  Fe15  1  0.75116792  0.74780327  0.00122641  1
  Fe  Fe16  1  0.50092966  0.24904286  0.24797839  1
  Fe  Fe17  1  0.12796048  0.12623856  0.87627254  1
  Fe  Fe18  1  0.75164322  0.74723635  0.24751109  1
  Fe  Fe19  1  0.24885640  0.25160219  0.50112083  1
  Fe  Fe20  1  0.24797279  0.24973336  0.25018024  1
  Fe  Fe21  1  0.62432910  0.62547684  0.87577015  1
  Fe  Fe22  1  0.12758974  0.62232023  0.62331110  1
  Fe  Fe23  1  0.50084298  0.49680635  -0.00210754  1
  Fe  Fe24  1  0.37452321  0.87496859  0.87362645  1
  Fe  Fe25  1  0.87441512  0.37625584  0.87682090  1
  Fe  Fe26  1  0.00297303  -0.00061800  0.75270022  1
  Fe  Fe27  1  0.12563165  0.87585024  0.37574150  1
  Fe  Fe28  1  0.49997701  0.74887597  0.24974803  1
  Fe  Fe29  1  0.37311227  0.37687171  0.62541270  1
  Fe  Fe30  1  0.87533589  0.12700543  0.62511305  1
  Fe  Fe31  1  0.49975959  0.00313097  -0.00133086  1
  Fe  Fe32  1  0.24806274  0.49746160  -0.00236049  1
  Fe  Fe33  1  0.37469540  0.12871742  0.87358162  1
  Fe  Fe34  1  0.12186910  0.37784597  0.12810305  1
  Fe  Fe35  1  0.24630910  0.75365232  0.74667635  1
  Fe  Fe36  1  0.87614121  0.87422710  0.62596589  1
  Fe  Fe37  1  0.75059638  0.49793089  0.50013021  1
  Fe  Fe38  1  0.37165478  0.62306833  0.62371477  1
  Fe  Fe39  1  0.25343263  0.49788474  0.25614937  1
  Fe  Fe40  1  0.49897347  0.49894545  0.75198767  1
  Fe  Fe41  1  0.75165079  0.00148221  0.24822676  1
  Fe  Fe42  1  0.12426169  0.87805338  0.12284757  1
  Fe  Fe43  1  0.62527355  0.62510256  0.37556980  1
  Fe  Fe44  1  0.62234890  0.62285825  0.12368637  1
  Fe  Fe45  1  0.37352161  0.12535891  0.12415226  1
  Fe  Fe46  1  0.62747315  0.87332026  0.37536106  1
  Fe  Fe47  1  0.75022738  0.25091679  0.00295181  1
  Fe  Fe48  1  0.75023798  0.00213709  -0.00035146  1
  Fe  Fe49  1  0.87372277  0.87392925  0.37540012  1
  Fe  Fe50  1  0.00051176  0.74995230  0.50084503  1
  Fe  Fe51  1  0.50092695  0.74937505  0.74816132  1
  Fe  Fe52  1  0.12871980  0.62474421  0.37666198  1
  Fe  Fe53  1  0.87680466  0.87738600  0.12379067  1
  Fe  Fe54  1  0.25016248  0.75157492  0.24949845  1
  Fe  Fe55  1  0.12423593  0.37549893  0.62682891  1
  Fe  Fe56  1  0.12571292  0.62127700  0.12581760  1
  Fe  Fe57  1  0.24888551  0.00109561  0.49944490  1
  Fe  Fe58  1  0.62528963  0.87503833  0.62506267  1
  Fe  Fe59  1  0.87731481  0.61668703  0.12202900  1
  Fe  Fe60  1  -0.00076085  0.74816619  0.00058581  1
  Fe  Fe61  1  0.37338997  0.12727784  0.37473160  1
  Fe  Fe62  1  0.74858018  0.00067011  0.75073500  1
  Fe  Fe63  1  0.49670024  0.50026534  0.49650822  1
  Fe  Fe64  1  0.62194218  0.12983067  0.87252810  1
  Fe  Fe65  1  0.87351461  0.62376943  0.37601336  1
  Fe  Fe66  1  0.62386272  0.87594453  0.12361792  1
  Fe  Fe67  1  -0.00310763  0.25247202  0.49756016  1
  Fe  Fe68  1  0.37378924  0.37078083  0.87493095  1
  Fe  Fe69  1  -0.00052102  0.50062934  0.75259536  1
  Fe  Fe70  1  0.12516014  0.62800552  0.87421160  1
  Fe  Fe71  1  0.74984936  0.74723599  0.74779963  1
  Fe  Fe72  1  0.62478333  0.37647590  0.62641183  1
  Fe  Fe73  1  -0.00102696  0.00268032  0.25239821  1
  Fe  Fe74  1  0.62913423  0.12722881  0.37514600  1
  Fe  Fe75  1  0.50068006  0.00180844  0.25145922  1
  Fe  Fe76  1  0.00031623  0.49710796  0.49777764  1
  Fe  Fe77  1  0.12686951  0.37195153  0.87154698  1
  Fe  Fe78  1  0.50002429  0.74860143  0.50148388  1
  Fe  Fe79  1  0.62510774  0.37405695  0.37405205  1
  Fe  Fe80  1  0.87538128  0.12652795  0.87567502  1
  Fe  Fe81  1  0.75121877  0.25161544  0.74707247  1
  Fe  Fe82  1  0.87686275  0.87215795  0.87380076  1
  Fe  Fe83  1  0.62429620  0.87310870  0.87634489  1
  Fe  Fe84  1  0.74991084  0.00134705  0.50153880  1
  Fe  Fe85  1  0.50213203  0.24840854  0.50368119  1
  Fe  Fe86  1  0.75420181  0.25120035  0.24704919  1
  Fe  Fe87  1  0.37428800  0.87448012  0.37557335  1
  Fe  Fe88  1  0.25125906  0.75103056  0.00188817  1
  Fe  Fe89  1  -0.00016360  0.74764033  0.24948630  1
  Co  Co90  1  0.12382872  0.87239640  0.87878827  1
  Co  Co91  1  -0.00033514  0.50145409  0.25532154  1
  Co  Co92  1  0.62575821  0.12422074  0.12530601  1
  Co  Co93  1  0.87754632  0.12438067  0.12329512  1
  Co  Co94  1  0.87683656  0.37563909  0.62691711  1
  Co  Co95  1  0.25063591  0.24914577  0.74662257  1
  Co  Co96  1  0.24977353  0.00010994  0.25057590  1
  Co  Co97  1  0.87854703  0.37975327  0.12342626  1
  Co  Co98  1  0.37335555  0.62856838  0.37584494  1
  Co  Co99  1  0.49833705  0.25256625  0.74592523  1
  Co  Co100  1  0.62662449  0.12559323  0.62784598  1
  Co  Co101  1  0.12594990  0.12638157  0.37591316  1
  Co  Co102  1  0.00237572  0.74938911  0.74702312  1
  Co  Co103  1  0.37749888  0.36831457  0.37482530  1
  Co  Co104  1  0.87290148  0.37597371  0.37355281  1
  Co  Co105  1  0.49826348  0.74959880  0.00037906  1
  Co  Co106  1  0.24927568  0.49905872  0.75235631  1
  Co  Co107  1  -0.00112040  0.24957119  0.75206413  1
  Co  Co108  1  0.24732981  0.25186017  0.00280103  1
  Co  Co109  1  0.49814819  0.49994723  0.25253116  1
  Co  Co110  1  0.87535312  0.62553455  0.87516602  1
  Co  Co111  1  0.24966948  0.75232961  0.50183849  1
  Co  Co112  1  0.12429575  0.37337882  0.37363850  1
  Co  Co113  1  0.00469888  0.49868015  -0.00553168  1
  Co  Co114  1  0.24610954  -0.00052076  0.75138616  1
  Co  Co115  1  0.50189759  -0.00069680  0.75138854  1
  Co  Co116  1  0.62383716  0.62174688  0.62460772  1
  Co  Co117  1  0.87144655  0.12639485  0.37658316  1
  Co  Co118  1  0.62517967  0.37143842  0.87318882  1
  Co  Co119  1  0.75042305  0.74900581  0.50177064  1
  Co  Co120  1  0.75034264  0.25281614  0.50318085  1
  Co  Co121  1  0.12319704  0.87795075  0.62185208  1
  Co  Co122  1  0.25244274  -0.00029784  -0.00166660  1
  Co  Co123  1  0.74958857  0.50118992  0.24905920  1
  Co  Co124  1  0.74676116  0.49926356  -0.00137393  1
  Co  Co125  1  0.50085307  0.25120394  0.00268245  1
  Co  Co126  1  0.25163228  0.49517282  0.49528590  1
  Co  Co127  1  -0.00112344  0.00087961  -0.00381608  1
