# generated using pymatgen
data_Fe45Co19
_symmetry_space_group_name_H-M   'P 1'
_cell_length_a   11.41519688
_cell_length_b   11.41396825
_cell_length_c   11.41536043
_cell_angle_alpha   90.00472780
_cell_angle_beta   89.99832925
_cell_angle_gamma   89.99234420
_symmetry_Int_Tables_number   1
_chemical_formula_structural   Fe45Co19
_chemical_formula_sum   'Fe90 Co38'
_cell_volume   1487.33805330
_cell_formula_units_Z   2
loop_
 _symmetry_equiv_pos_site_id
 _symmetry_equiv_pos_as_xyz
  1  'x, y, z'
loop_
 _atom_site_type_symbol
 _atom_site_label
 _atom_site_symmetry_multiplicity
 _atom_site_fract_x
 _atom_site_fract_y
 _atom_site_fract_z
 _atom_site_occupancy
  Fe  Fe0  1  0.00109312  -0.00026920  0.25139053  1
  Fe  Fe1  1  0.25308116  0.25162011  0.49938721  1
  Fe  Fe2  1  0.62667433  0.87223461  0.87589563  1
  Fe  Fe3  1  0.87613858  0.62473496  0.12628580  1
  Fe  Fe4  1  0.62578438  0.37512126  0.12551696  1
  Fe  Fe5  1  0.62394768  0.62815802  0.12314142  1
  Fe  Fe6  1  0.49506221  0.75275664  0.50031033  1
  Fe  Fe7  1  0.49890743  0.50274222  -0.00047027  1
  Fe  Fe8  1  -0.00429615  0.74994078  -0.00308390  1
  Fe  Fe9  1  0.87647049  0.87709195  0.62720450  1
  Fe  Fe10  1  0.50006973  0.24944039  0.24984397  1
  Fe  Fe11  1  0.62608808  0.12357195  0.37592590  1
  Fe  Fe12  1  0.24533834  -0.00037634  0.74892995  1
  Fe  Fe13  1  0.62649619  0.62897097  0.87697779  1
  Fe  Fe14  1  0.62598664  0.87469327  0.37649673  1
  Fe  Fe15  1  0.87532518  0.87633873  0.12681954  1
  Fe  Fe16  1  0.12365946  0.37644999  0.12418544  1
  Fe  Fe17  1  0.37466070  0.12345334  0.37334951  1
  Fe  Fe18  1  0.49895409  0.25060580  0.75010854  1
  Fe  Fe19  1  0.62513442  0.12442771  0.62399010  1
  Fe  Fe20  1  0.50132462  0.50114742  0.75090129  1
  Fe  Fe21  1  0.12457281  0.62535570  0.62233346  1
  Fe  Fe22  1  0.00134043  0.50196537  0.25380369  1
  Fe  Fe23  1  0.37392658  0.87370346  0.87241605  1
  Fe  Fe24  1  0.62491453  0.37444861  0.87524344  1
  Fe  Fe25  1  0.87618666  0.12130231  0.62758163  1
  Fe  Fe26  1  0.74881563  0.24814317  0.75143778  1
  Fe  Fe27  1  0.49964483  0.50254290  0.25114768  1
  Fe  Fe28  1  0.87573783  0.37831436  0.62912828  1
  Fe  Fe29  1  -0.00152055  0.74834002  0.75238891  1
  Fe  Fe30  1  -0.00294827  0.24837966  0.00056627  1
  Fe  Fe31  1  0.12232950  0.87513907  0.62184353  1
  Fe  Fe32  1  0.37558550  0.87005481  0.13152914  1
  Fe  Fe33  1  0.12404484  0.87367765  0.87767186  1
  Fe  Fe34  1  0.62468737  0.87274785  0.12334953  1
  Fe  Fe35  1  0.87590738  0.37907621  0.87082354  1
  Fe  Fe36  1  0.12514153  0.37457278  0.62433714  1
  Fe  Fe37  1  0.12622047  0.12221802  0.37693934  1
  Fe  Fe38  1  0.75124276  -0.00060971  -0.00019800  1
  Fe  Fe39  1  0.25149049  -0.00115440  0.00351266  1
  Fe  Fe40  1  -0.00194342  0.24932391  0.49965796  1
  Fe  Fe41  1  0.62637691  0.37613126  0.37482943  1
  Fe  Fe42  1  0.00323811  0.24815113  0.74898817  1
  Fe  Fe43  1  0.00392065  0.74881728  0.25405055  1
  Fe  Fe44  1  0.24675160  0.49809333  0.75308363  1
  Fe  Fe45  1  0.50415751  -0.00292593  0.74862327  1
  Fe  Fe46  1  -0.00136715  0.24926987  0.25062512  1
  Fe  Fe47  1  0.50020101  -0.00096826  0.25010867  1
  Fe  Fe48  1  0.37385489  0.62727160  0.87412629  1
  Fe  Fe49  1  0.25160790  -0.00403121  0.50020386  1
  Fe  Fe50  1  0.75215564  0.25081230  0.50000644  1
  Fe  Fe51  1  0.37443755  0.62557707  0.62683406  1
  Fe  Fe52  1  0.49898380  0.24976282  0.00028366  1
  Fe  Fe53  1  0.74975685  0.50135127  0.00056666  1
  Fe  Fe54  1  0.37636586  0.12284522  0.87526182  1
  Fe  Fe55  1  0.87337828  0.12225234  0.37323896  1
  Fe  Fe56  1  0.37416328  0.37726782  0.12618655  1
  Fe  Fe57  1  0.74937209  0.75007685  0.24963113  1
  Fe  Fe58  1  0.87577028  0.37727823  0.12605744  1
  Fe  Fe59  1  0.75433219  0.75096095  0.49995899  1
  Fe  Fe60  1  0.87727993  0.11901715  0.87293583  1
  Fe  Fe61  1  0.62484824  0.62823241  0.62297707  1
  Fe  Fe62  1  0.12396479  0.12432057  0.12393927  1
  Fe  Fe63  1  0.12604956  0.37603017  0.37490371  1
  Fe  Fe64  1  -0.00107470  0.75001339  0.49597418  1
  Fe  Fe65  1  0.12348521  0.87504609  0.12484139  1
  Fe  Fe66  1  0.75131694  0.25051040  0.24944270  1
  Fe  Fe67  1  0.75292480  0.49987855  0.50062794  1
  Fe  Fe68  1  0.00186611  0.50204071  -0.00548162  1
  Fe  Fe69  1  0.25289856  0.49837647  0.49888162  1
  Fe  Fe70  1  0.37422845  0.12358633  0.62644428  1
  Fe  Fe71  1  0.62799387  0.62572438  0.37672250  1
  Fe  Fe72  1  0.36969941  0.62997414  0.37119434  1
  Fe  Fe73  1  0.49731781  0.25186393  0.49965538  1
  Fe  Fe74  1  0.75256531  0.74955288  0.75042255  1
  Fe  Fe75  1  0.75153778  -0.00171535  0.50121524  1
  Fe  Fe76  1  -0.00301761  0.50043028  0.49877849  1
  Fe  Fe77  1  0.62392317  0.37546208  0.62406759  1
  Fe  Fe78  1  0.75267858  0.24866107  -0.00162889  1
  Fe  Fe79  1  0.49679456  0.50018048  0.49812853  1
  Fe  Fe80  1  0.24874088  0.75101347  0.74685059  1
  Fe  Fe81  1  0.62621717  0.12474697  0.12370179  1
  Fe  Fe82  1  0.12436834  0.12440935  0.87809287  1
  Fe  Fe83  1  0.25034521  0.25126689  0.75106310  1
  Fe  Fe84  1  0.49847814  -0.00300565  0.00093656  1
  Fe  Fe85  1  0.25122336  0.74828144  0.00460671  1
  Fe  Fe86  1  0.25170198  0.25016203  0.00067976  1
  Fe  Fe87  1  0.24876659  0.50221535  0.00048169  1
  Fe  Fe88  1  0.49751557  -0.00431895  0.50053687  1
  Fe  Fe89  1  0.25009766  0.24930219  0.24921372  1
  Co  Co90  1  0.12370282  0.37173091  0.87698482  1
  Co  Co91  1  0.37705083  0.62734379  0.12765129  1
  Co  Co92  1  0.87284914  0.62139482  0.87322757  1
  Co  Co93  1  0.37578137  0.37604393  0.87669005  1
  Co  Co94  1  0.37418863  0.37522799  0.37077550  1
  Co  Co95  1  0.37648927  0.12538769  0.12463634  1
  Co  Co96  1  0.74498720  0.50233328  0.74855821  1
  Co  Co97  1  0.50067265  0.75018989  0.74959383  1
  Co  Co98  1  0.12717578  0.12601985  0.62109757  1
  Co  Co99  1  0.75504154  0.75045633  0.00048775  1
  Co  Co100  1  0.49677668  0.75116816  -0.00140469  1
  Co  Co101  1  0.87366123  0.37612704  0.37314081  1
  Co  Co102  1  0.74735350  -0.00203495  0.24927850  1
  Co  Co103  1  0.12777705  0.62419569  0.38007268  1
  Co  Co104  1  0.24796943  0.50351004  0.24748496  1
  Co  Co105  1  0.87596006  0.87962454  0.87271677  1
  Co  Co106  1  0.12860465  0.87664267  0.37533538  1
  Co  Co107  1  0.25165479  0.75346977  0.50277379  1
  Co  Co108  1  0.00618378  0.50298975  0.75199038  1
  Co  Co109  1  -0.00112656  0.00047303  0.49914601  1
  Co  Co110  1  0.74599531  -0.00065411  0.74970283  1
  Co  Co111  1  0.87658271  0.62385497  0.62611329  1
  Co  Co112  1  0.37541989  0.37646993  0.62724352  1
  Co  Co113  1  0.24966146  0.00110280  0.24711483  1
  Co  Co114  1  0.87385541  0.12218229  0.12672115  1
  Co  Co115  1  0.00682089  -0.00035216  0.74911000  1
  Co  Co116  1  0.50466661  0.74891742  0.25264635  1
  Co  Co117  1  0.87304255  0.62580299  0.37317977  1
  Co  Co118  1  0.12756105  0.63067222  0.87634969  1
  Co  Co119  1  0.62268317  0.12417443  0.87698074  1
  Co  Co120  1  0.24101628  0.74627802  0.24687781  1
  Co  Co121  1  0.74869013  0.50203660  0.24847096  1
  Co  Co122  1  0.87480230  0.87570150  0.37283977  1
  Co  Co123  1  0.37538570  0.87585160  0.62889849  1
  Co  Co124  1  0.37080576  0.87145185  0.36888258  1
  Co  Co125  1  0.00033001  -0.00049933  0.00174157  1
  Co  Co126  1  0.62668933  0.87121310  0.62328621  1
  Co  Co127  1  0.11976702  0.62385220  0.12211157  1
