# generated using pymatgen
data_Fe45Co19
_symmetry_space_group_name_H-M   'P 1'
_cell_length_a   11.41549650
_cell_length_b   11.41427769
_cell_length_c   11.41605559
_cell_angle_alpha   90.00518980
_cell_angle_beta   89.99555948
_cell_angle_gamma   89.99649923
_symmetry_Int_Tables_number   1
_chemical_formula_structural   Fe45Co19
_chemical_formula_sum   'Fe90 Co38'
_cell_volume   1487.50800071
_cell_formula_units_Z   2
loop_
 _symmetry_equiv_pos_site_id
 _symmetry_equiv_pos_as_xyz
  1  'x, y, z'
loop_
 _atom_site_type_symbol
 _atom_site_label
 _atom_site_symmetry_multiplicity
 _atom_site_fract_x
 _atom_site_fract_y
 _atom_site_fract_z
 _atom_site_occupancy
  Fe  Fe0  1  0.37540573  0.37651858  0.62549802  1
  Fe  Fe1  1  0.75063167  -0.00015007  0.00031054  1
  Fe  Fe2  1  0.25179260  0.24628996  0.00003473  1
  Fe  Fe3  1  0.62596587  0.37520248  0.87672620  1
  Fe  Fe4  1  0.25133398  0.50228948  0.50106109  1
  Fe  Fe5  1  0.37339979  0.87631102  0.87188575  1
  Fe  Fe6  1  0.25092817  0.24691312  0.24997958  1
  Fe  Fe7  1  0.24368369  -0.00122074  0.74712627  1
  Fe  Fe8  1  0.62585161  0.37401517  0.12623440  1
  Fe  Fe9  1  0.87753810  0.62237647  0.36900541  1
  Fe  Fe10  1  0.37305358  0.12417517  0.62617106  1
  Fe  Fe11  1  -0.00223502  0.25085336  0.00179908  1
  Fe  Fe12  1  0.62723560  0.87378790  0.87608503  1
  Fe  Fe13  1  0.00192421  0.74751638  0.75286870  1
  Fe  Fe14  1  0.49924270  -0.00122773  0.25183551  1
  Fe  Fe15  1  0.50202361  0.75313665  0.74650956  1
  Fe  Fe16  1  0.12567013  0.87399103  0.12174755  1
  Fe  Fe17  1  0.74870352  -0.00109496  0.25011691  1
  Fe  Fe18  1  -0.00487458  0.24830285  0.49938629  1
  Fe  Fe19  1  0.25356461  0.74790681  0.50500286  1
  Fe  Fe20  1  0.12315760  0.12496993  0.37495446  1
  Fe  Fe21  1  0.12451796  0.62628404  0.12309956  1
  Fe  Fe22  1  0.75383254  0.74762049  -0.00231129  1
  Fe  Fe23  1  0.24603097  0.50065231  0.74880056  1
  Fe  Fe24  1  -0.00116469  0.25050808  0.74871690  1
  Fe  Fe25  1  0.75317593  0.00147686  0.49956094  1
  Fe  Fe26  1  0.50042900  -0.00018055  0.50235258  1
  Fe  Fe27  1  0.87162609  0.38148071  0.12955752  1
  Fe  Fe28  1  0.37497455  0.37596081  0.37448890  1
  Fe  Fe29  1  0.75036361  -0.00167451  0.75036243  1
  Fe  Fe30  1  0.62312014  0.87212217  0.12310872  1
  Fe  Fe31  1  0.74998054  0.75019848  0.25006568  1
  Fe  Fe32  1  0.87627203  0.12361586  0.12751220  1
  Fe  Fe33  1  0.12367453  0.12506041  0.87500660  1
  Fe  Fe34  1  0.75103704  0.50147894  0.49861922  1
  Fe  Fe35  1  0.24937671  0.25105743  0.75034655  1
  Fe  Fe36  1  -0.00048627  0.25235571  0.25036168  1
  Fe  Fe37  1  0.49940345  0.00057170  -0.00206105  1
  Fe  Fe38  1  0.87536665  0.12362928  0.87270169  1
  Fe  Fe39  1  0.75179835  0.25092777  -0.00002411  1
  Fe  Fe40  1  0.87532641  0.87350970  0.12469814  1
  Fe  Fe41  1  0.37657099  0.87224175  0.37814758  1
  Fe  Fe42  1  0.62394963  0.62736303  0.12301418  1
  Fe  Fe43  1  0.24684313  0.74872728  0.74871485  1
  Fe  Fe44  1  0.12383918  0.37578665  0.37655447  1
  Fe  Fe45  1  0.75464556  0.74925208  0.50083264  1
  Fe  Fe46  1  -0.00034368  -0.00148077  -0.00168498  1
  Fe  Fe47  1  -0.00315101  0.74793614  -0.00209337  1
  Fe  Fe48  1  0.49933325  0.50115296  -0.00031464  1
  Fe  Fe49  1  0.25087683  0.74908121  0.24960045  1
  Fe  Fe50  1  -0.00185697  0.50201462  0.00135346  1
  Fe  Fe51  1  0.37506167  0.62412570  0.87245950  1
  Fe  Fe52  1  0.25090280  0.24964291  0.49959672  1
  Fe  Fe53  1  0.62405148  0.87298255  0.37871878  1
  Fe  Fe54  1  0.49993604  0.50306948  0.25021271  1
  Fe  Fe55  1  0.12362720  0.62671489  0.37771422  1
  Fe  Fe56  1  0.25055074  0.00050399  0.25029143  1
  Fe  Fe57  1  0.12416091  0.37752812  0.87693852  1
  Fe  Fe58  1  0.25101641  0.00296743  0.00017631  1
  Fe  Fe59  1  0.87040620  0.37322171  0.62375856  1
  Fe  Fe60  1  0.12425465  0.37476538  0.62335187  1
  Fe  Fe61  1  0.62166339  0.62959349  0.37759424  1
  Fe  Fe62  1  0.37472540  0.37528591  0.12509236  1
  Fe  Fe63  1  0.74893504  0.49859377  0.74944693  1
  Fe  Fe64  1  0.24743749  -0.00026166  0.50230782  1
  Fe  Fe65  1  0.62635426  0.62561455  0.87444817  1
  Fe  Fe66  1  0.75179262  0.24932432  0.25553340  1
  Fe  Fe67  1  0.62633961  0.12592855  0.87467561  1
  Fe  Fe68  1  0.12723529  0.37495784  0.12291720  1
  Fe  Fe69  1  0.50148598  0.25082991  0.74906774  1
  Fe  Fe70  1  0.12366780  0.87140722  0.37871888  1
  Fe  Fe71  1  0.37357957  0.37648457  0.87522715  1
  Fe  Fe72  1  0.00324502  -0.00345193  0.24892435  1
  Fe  Fe73  1  0.49787648  0.24827339  -0.00153164  1
  Fe  Fe74  1  0.87672760  0.87282875  0.62929311  1
  Fe  Fe75  1  0.50054857  0.24892282  0.50037201  1
  Fe  Fe76  1  0.87712023  0.87568543  0.37362255  1
  Fe  Fe77  1  0.63117106  0.12880738  0.62374151  1
  Fe  Fe78  1  0.49838315  0.50165779  0.50108654  1
  Fe  Fe79  1  0.87478618  0.37909060  0.87441094  1
  Fe  Fe80  1  0.62618853  0.62592925  0.62418134  1
  Fe  Fe81  1  0.25203350  0.74792501  -0.00221516  1
  Fe  Fe82  1  -0.00193219  0.50170957  0.50244160  1
  Fe  Fe83  1  0.62445174  0.37471358  0.37623676  1
  Fe  Fe84  1  0.24975385  0.50287447  0.24980326  1
  Fe  Fe85  1  0.37709056  0.87293061  0.12369911  1
  Fe  Fe86  1  0.00006695  0.00128175  0.50531221  1
  Fe  Fe87  1  0.50292513  -0.00111993  0.74792051  1
  Fe  Fe88  1  0.62327573  0.12658263  0.12728944  1
  Fe  Fe89  1  0.50248153  0.49813759  0.74851964  1
  Co  Co90  1  0.87522980  0.87519301  0.87202159  1
  Co  Co91  1  0.37467429  0.12393534  0.37701283  1
  Co  Co92  1  0.12438842  0.62138441  0.87634486  1
  Co  Co93  1  0.25146482  0.50175096  0.00093128  1
  Co  Co94  1  0.37460967  0.12295299  0.87022934  1
  Co  Co95  1  0.12510743  0.12897128  0.62467309  1
  Co  Co96  1  0.00680709  0.50061491  0.24858081  1
  Co  Co97  1  0.37597811  0.62290343  0.62911428  1
  Co  Co98  1  0.74930980  0.50169965  -0.00064497  1
  Co  Co99  1  0.49982923  0.75043765  0.25072006  1
  Co  Co100  1  0.74334842  0.50331445  0.25280943  1
  Co  Co101  1  0.87626917  0.38137094  0.37276078  1
  Co  Co102  1  0.12530067  0.87486491  0.87668090  1
  Co  Co103  1  0.49736418  0.75086598  0.50620989  1
  Co  Co104  1  0.74763288  0.75029717  0.74978323  1
  Co  Co105  1  0.00332619  0.00062158  0.74781367  1
  Co  Co106  1  0.37566331  0.62729917  0.37551448  1
  Co  Co107  1  0.87103226  0.12676553  0.62847671  1
  Co  Co108  1  0.12274255  0.12441022  0.12529005  1
  Co  Co109  1  0.74971451  0.25297978  0.75391290  1
  Co  Co110  1  0.49842445  0.25054667  0.25288861  1
  Co  Co111  1  0.37739905  0.62607266  0.12414559  1
  Co  Co112  1  0.62401126  0.12300637  0.37477390  1
  Co  Co113  1  0.12126662  0.86881538  0.62270036  1
  Co  Co114  1  0.62833451  0.37396232  0.62152812  1
  Co  Co115  1  0.87445849  0.62289322  0.12893599  1
  Co  Co116  1  0.37819688  0.12423106  0.12664566  1
  Co  Co117  1  0.37302752  0.87685981  0.62699970  1
  Co  Co118  1  0.75331156  0.24889538  0.49214964  1
  Co  Co119  1  0.00148791  0.75102061  0.24931487  1
  Co  Co120  1  0.12308441  0.62621610  0.62256243  1
  Co  Co121  1  0.87417014  0.62553425  0.62957489  1
  Co  Co122  1  -0.00588435  0.74767468  0.49889052  1
  Co  Co123  1  0.87400397  0.62193190  0.87091997  1
  Co  Co124  1  0.49852530  0.75051687  -0.00510652  1
  Co  Co125  1  0.00122261  0.49829540  0.74685093  1
  Co  Co126  1  0.87881638  0.12055097  0.37194442  1
  Co  Co127  1  0.62961273  0.87469017  0.62126239  1
