# generated using pymatgen
data_Fe45Co19
_symmetry_space_group_name_H-M   'P 1'
_cell_length_a   11.41543530
_cell_length_b   11.41550254
_cell_length_c   11.41560623
_cell_angle_alpha   90.00009252
_cell_angle_beta   90.00220924
_cell_angle_gamma   89.99439817
_symmetry_Int_Tables_number   1
_chemical_formula_structural   Fe45Co19
_chemical_formula_sum   'Fe90 Co38'
_cell_volume   1487.60109495
_cell_formula_units_Z   2
loop_
 _symmetry_equiv_pos_site_id
 _symmetry_equiv_pos_as_xyz
  1  'x, y, z'
loop_
 _atom_site_type_symbol
 _atom_site_label
 _atom_site_symmetry_multiplicity
 _atom_site_fract_x
 _atom_site_fract_y
 _atom_site_fract_z
 _atom_site_occupancy
  Fe  Fe0  1  0.75087524  0.75505593  0.75101617  1
  Fe  Fe1  1  0.50071568  0.24922714  0.75014510  1
  Fe  Fe2  1  0.12414176  0.12485217  0.87388953  1
  Fe  Fe3  1  0.00071663  0.74719012  -0.00185380  1
  Fe  Fe4  1  0.37454351  0.62503077  0.37456167  1
  Fe  Fe5  1  0.50099518  0.74923251  0.25066306  1
  Fe  Fe6  1  0.37341770  0.87460766  0.37278118  1
  Fe  Fe7  1  0.12424856  0.12438340  0.62522642  1
  Fe  Fe8  1  0.87507672  0.87282362  0.37596075  1
  Fe  Fe9  1  0.12880171  0.62187912  0.87751266  1
  Fe  Fe10  1  0.87445808  0.37396668  0.87277077  1
  Fe  Fe11  1  0.62420283  0.37297140  0.12747946  1
  Fe  Fe12  1  0.49913858  0.74986806  0.49929388  1
  Fe  Fe13  1  0.00342785  0.49870452  0.74725129  1
  Fe  Fe14  1  0.50129522  0.50134993  0.49921141  1
  Fe  Fe15  1  0.62492056  0.62502707  0.12625859  1
  Fe  Fe16  1  0.62633201  0.87551288  0.62558128  1
  Fe  Fe17  1  0.74691942  0.25094661  0.74752243  1
  Fe  Fe18  1  0.74870821  0.00147631  0.49934407  1
  Fe  Fe19  1  0.25236672  0.00156503  0.24810026  1
  Fe  Fe20  1  0.49878281  0.50141697  0.75000198  1
  Fe  Fe21  1  0.37734714  0.37467961  0.12598640  1
  Fe  Fe22  1  0.50194835  0.50043606  0.25133441  1
  Fe  Fe23  1  -0.00039370  -0.00038466  0.25143889  1
  Fe  Fe24  1  0.00278763  0.25342967  0.74906114  1
  Fe  Fe25  1  0.12565755  0.12568580  0.12541803  1
  Fe  Fe26  1  0.12221791  0.37791996  0.12205386  1
  Fe  Fe27  1  0.87548729  0.62293543  0.12743338  1
  Fe  Fe28  1  -0.00052263  0.25015889  -0.00190884  1
  Fe  Fe29  1  0.87539911  0.87467962  0.12377304  1
  Fe  Fe30  1  0.87437821  0.62522970  0.87243492  1
  Fe  Fe31  1  0.37415641  0.12414973  0.87631431  1
  Fe  Fe32  1  0.49918962  -0.00053843  0.00285420  1
  Fe  Fe33  1  0.00034372  0.25188339  0.25070110  1
  Fe  Fe34  1  0.50134362  0.24815487  -0.00041343  1
  Fe  Fe35  1  0.49751281  0.75022829  0.75089451  1
  Fe  Fe36  1  0.25189001  0.24934200  0.49880244  1
  Fe  Fe37  1  0.12432461  0.37791642  0.37793967  1
  Fe  Fe38  1  0.62644400  0.87557091  0.37173454  1
  Fe  Fe39  1  0.24707016  0.50285610  0.24699493  1
  Fe  Fe40  1  -0.00036190  0.25069543  0.50162520  1
  Fe  Fe41  1  0.37151382  0.62425653  0.87677952  1
  Fe  Fe42  1  0.12840831  0.62930157  0.62546134  1
  Fe  Fe43  1  0.25198278  0.25071261  0.25123047  1
  Fe  Fe44  1  0.50164594  0.00099621  0.49748533  1
  Fe  Fe45  1  0.74820150  0.24972145  0.50198364  1
  Fe  Fe46  1  0.62592531  0.87642074  0.12751825  1
  Fe  Fe47  1  0.12519170  0.87303090  0.87338338  1
  Fe  Fe48  1  0.74969179  0.50060669  -0.00038977  1
  Fe  Fe49  1  0.62800401  0.12069605  0.87266286  1
  Fe  Fe50  1  0.37611225  0.12503769  0.62374174  1
  Fe  Fe51  1  0.62503014  0.62688530  0.87471804  1
  Fe  Fe52  1  0.12567849  0.12516177  0.37451958  1
  Fe  Fe53  1  0.74740445  0.49845608  0.74841415  1
  Fe  Fe54  1  0.24788406  0.74559931  0.24652993  1
  Fe  Fe55  1  0.87662287  0.37852054  0.37644660  1
  Fe  Fe56  1  0.25102942  -0.00250153  0.00069225  1
  Fe  Fe57  1  0.49930296  0.24857377  0.49626790  1
  Fe  Fe58  1  0.24990937  0.50288427  0.50245268  1
  Fe  Fe59  1  0.87539612  0.37824500  0.12598629  1
  Fe  Fe60  1  0.62534622  0.12556584  0.13241400  1
  Fe  Fe61  1  0.74931889  0.74993039  0.00074525  1
  Fe  Fe62  1  -0.00077351  0.00166538  -0.00167222  1
  Fe  Fe63  1  0.12637209  0.87321505  0.37404536  1
  Fe  Fe64  1  0.25047817  -0.00137280  0.74920181  1
  Fe  Fe65  1  0.24940491  0.25147661  -0.00083389  1
  Fe  Fe66  1  0.37636319  0.37578841  0.62409308  1
  Fe  Fe67  1  0.62465303  0.37585302  0.87499736  1
  Fe  Fe68  1  0.12433026  0.87375948  0.12460159  1
  Fe  Fe69  1  0.00178313  -0.00171341  0.50025155  1
  Fe  Fe70  1  -0.00479837  -0.00455638  0.74962604  1
  Fe  Fe71  1  0.37365169  0.87303124  0.62552323  1
  Fe  Fe72  1  0.87512161  0.62318406  0.37386033  1
  Fe  Fe73  1  0.49739188  0.75181922  -0.00049413  1
  Fe  Fe74  1  0.87341077  0.12442011  0.62683032  1
  Fe  Fe75  1  0.50009721  0.50073432  -0.00034507  1
  Fe  Fe76  1  0.87476548  0.12585699  0.37406419  1
  Fe  Fe77  1  0.37428078  0.37601883  0.87515321  1
  Fe  Fe78  1  0.00161078  0.74697674  0.25022074  1
  Fe  Fe79  1  0.62338291  0.62601293  0.62551135  1
  Fe  Fe80  1  0.24861747  0.25249322  0.75005668  1
  Fe  Fe81  1  0.00278592  0.74904576  0.50043613  1
  Fe  Fe82  1  0.24821553  -0.00219103  0.50125249  1
  Fe  Fe83  1  0.74972293  0.24815761  0.00081185  1
  Fe  Fe84  1  0.87426412  0.62623009  0.62619967  1
  Fe  Fe85  1  0.74822486  0.50018058  0.50114544  1
  Fe  Fe86  1  0.62613616  0.37284133  0.37320913  1
  Fe  Fe87  1  0.49990394  -0.00107274  0.74980403  1
  Fe  Fe88  1  0.74823315  0.74823495  0.49837205  1
  Fe  Fe89  1  0.87527800  0.12380954  0.12581766  1
  Co  Co90  1  0.62636687  0.12669253  0.37041354  1
  Co  Co91  1  0.25397583  0.49889674  0.00423625  1
  Co  Co92  1  0.87417842  0.12744766  0.87230824  1
  Co  Co93  1  0.49695202  0.00181155  0.25013152  1
  Co  Co94  1  0.25099996  0.75160443  0.00095281  1
  Co  Co95  1  -0.00516765  0.50031354  -0.00315459  1
  Co  Co96  1  0.74799376  0.50029233  0.25047754  1
  Co  Co97  1  0.00035021  0.74931850  0.75113960  1
  Co  Co98  1  0.12258955  0.62296394  0.11884410  1
  Co  Co99  1  0.87481175  0.87343612  0.87997360  1
  Co  Co100  1  0.75356816  -0.00128412  0.25128516  1
  Co  Co101  1  0.37541343  0.62534606  0.62355142  1
  Co  Co102  1  0.87466758  0.37567365  0.62511557  1
  Co  Co103  1  0.62117610  0.37575646  0.62428099  1
  Co  Co104  1  0.75453466  0.25158244  0.24966630  1
  Co  Co105  1  0.00051249  0.50314826  0.50416294  1
  Co  Co106  1  0.75070249  0.74948068  0.24968893  1
  Co  Co107  1  0.87481342  0.87234447  0.62002355  1
  Co  Co108  1  0.12678760  0.37381485  0.61985204  1
  Co  Co109  1  0.25117841  0.75152714  0.49977371  1
  Co  Co110  1  0.37812653  0.62532490  0.12559639  1
  Co  Co111  1  0.12460482  0.87281462  0.62682694  1
  Co  Co112  1  0.37261544  0.38099496  0.37525840  1
  Co  Co113  1  0.37306914  0.12160131  0.37665321  1
  Co  Co114  1  0.37416449  0.12707740  0.12282906  1
  Co  Co115  1  0.75397133  -0.00525225  0.75057356  1
  Co  Co116  1  0.37538772  0.87616817  0.87485594  1
  Co  Co117  1  0.62477481  0.12330453  0.62586315  1
  Co  Co118  1  0.62479224  0.62572276  0.37491358  1
  Co  Co119  1  0.62453951  0.87572677  0.87623168  1
  Co  Co120  1  0.37495385  0.87309358  0.12755043  1
  Co  Co121  1  0.12573396  0.37864430  0.87858430  1
  Co  Co122  1  0.00296472  0.50139343  0.25112977  1
  Co  Co123  1  0.49420280  0.24886257  0.25465060  1
  Co  Co124  1  0.25212953  0.74995595  0.75198689  1
  Co  Co125  1  0.24928505  0.49812888  0.74726961  1
  Co  Co126  1  0.12574700  0.62455789  0.37747630  1
  Co  Co127  1  0.74971857  0.00159601  0.00105270  1
