# generated using pymatgen
data_Fe45Co19
_symmetry_space_group_name_H-M   'P 1'
_cell_length_a   11.41520544
_cell_length_b   11.41521733
_cell_length_c   11.41530551
_cell_angle_alpha   89.99851658
_cell_angle_beta   90.00585572
_cell_angle_gamma   89.99749587
_symmetry_Int_Tables_number   1
_chemical_formula_structural   Fe45Co19
_chemical_formula_sum   'Fe90 Co38'
_cell_volume   1487.49478832
_cell_formula_units_Z   2
loop_
 _symmetry_equiv_pos_site_id
 _symmetry_equiv_pos_as_xyz
  1  'x, y, z'
loop_
 _atom_site_type_symbol
 _atom_site_label
 _atom_site_symmetry_multiplicity
 _atom_site_fract_x
 _atom_site_fract_y
 _atom_site_fract_z
 _atom_site_occupancy
  Fe  Fe0  1  0.12376407  0.62293243  0.37355605  1
  Fe  Fe1  1  0.12592599  0.37557323  0.37422897  1
  Fe  Fe2  1  0.12675093  0.62692541  0.12669893  1
  Fe  Fe3  1  0.86727174  0.37615345  0.37674849  1
  Fe  Fe4  1  0.62876529  0.87315404  0.12546723  1
  Fe  Fe5  1  0.87484288  0.12664887  0.37861684  1
  Fe  Fe6  1  0.50525099  0.25211253  0.49681185  1
  Fe  Fe7  1  0.12612803  0.87565502  0.87621436  1
  Fe  Fe8  1  0.25389936  0.74904775  0.25367780  1
  Fe  Fe9  1  0.24929158  -0.00018358  0.25081154  1
  Fe  Fe10  1  0.37487004  0.37790521  0.37368442  1
  Fe  Fe11  1  0.37995804  0.12540078  0.87567728  1
  Fe  Fe12  1  0.12207383  0.12847557  0.62400687  1
  Fe  Fe13  1  0.62479568  0.62653826  0.12324276  1
  Fe  Fe14  1  0.75189499  0.74857226  -0.00486054  1
  Fe  Fe15  1  0.24943737  0.75007559  0.49554339  1
  Fe  Fe16  1  0.12457888  0.62206415  0.62810088  1
  Fe  Fe17  1  0.50304803  -0.00134662  0.50391116  1
  Fe  Fe18  1  -0.00368455  0.25221999  0.25117084  1
  Fe  Fe19  1  0.00001390  0.74976969  -0.00290031  1
  Fe  Fe20  1  0.24993991  0.74771477  0.75245874  1
  Fe  Fe21  1  0.87323245  0.87496040  0.62598090  1
  Fe  Fe22  1  -0.00282548  0.75067847  0.25095578  1
  Fe  Fe23  1  0.24726823  0.24730023  -0.00075959  1
  Fe  Fe24  1  0.37476879  0.12536090  0.12296100  1
  Fe  Fe25  1  0.00048456  -0.00129246  0.50055712  1
  Fe  Fe26  1  0.49934792  0.75195025  0.00056326  1
  Fe  Fe27  1  0.25108453  0.00327596  0.74967268  1
  Fe  Fe28  1  0.24861823  0.24903520  0.49963290  1
  Fe  Fe29  1  0.12582386  0.38010752  0.87125922  1
  Fe  Fe30  1  0.24922982  0.49941738  0.50107725  1
  Fe  Fe31  1  -0.00403907  0.49777456  0.24722654  1
  Fe  Fe32  1  0.61931883  0.12546658  0.87411165  1
  Fe  Fe33  1  0.75234489  0.00198118  0.24792921  1
  Fe  Fe34  1  -0.00111986  0.49718051  0.50237083  1
  Fe  Fe35  1  0.24791923  0.50323143  0.00092721  1
  Fe  Fe36  1  0.49811930  0.49836004  0.75003191  1
  Fe  Fe37  1  0.00018417  -0.00197970  0.74716555  1
  Fe  Fe38  1  -0.00112174  0.75035875  0.75212851  1
  Fe  Fe39  1  0.49704574  0.74914689  0.25213492  1
  Fe  Fe40  1  0.75024584  0.00125407  -0.00015252  1
  Fe  Fe41  1  0.37215113  0.37214681  0.62640839  1
  Fe  Fe42  1  0.12416006  0.37190727  0.12546307  1
  Fe  Fe43  1  0.87659308  0.37861052  0.88132194  1
  Fe  Fe44  1  0.50123620  0.50012458  0.24847216  1
  Fe  Fe45  1  0.87484660  0.87520239  0.37544371  1
  Fe  Fe46  1  0.37302901  0.37631760  0.12513753  1
  Fe  Fe47  1  0.50213188  0.25132699  0.25100097  1
  Fe  Fe48  1  0.87639207  0.13047705  0.12215455  1
  Fe  Fe49  1  0.50006274  0.75042048  0.49722694  1
  Fe  Fe50  1  0.87790447  0.12323517  0.87430727  1
  Fe  Fe51  1  0.50092055  -0.00167609  0.24665612  1
  Fe  Fe52  1  0.12649433  0.87454240  0.12522835  1
  Fe  Fe53  1  0.75077195  0.74774871  0.49844490  1
  Fe  Fe54  1  0.25088987  0.24967195  0.25049555  1
  Fe  Fe55  1  0.00042763  0.25364806  0.75064220  1
  Fe  Fe56  1  0.62605184  0.62091012  0.37514544  1
  Fe  Fe57  1  0.75075891  0.24813783  0.75208106  1
  Fe  Fe58  1  0.75255756  0.74684110  0.25221505  1
  Fe  Fe59  1  0.37239283  0.37348661  0.87553063  1
  Fe  Fe60  1  0.62504632  0.12763253  0.12380732  1
  Fe  Fe61  1  0.62766378  0.37361540  0.62581705  1
  Fe  Fe62  1  0.62525330  0.37427189  0.87548910  1
  Fe  Fe63  1  0.00068302  0.75029921  0.49943411  1
  Fe  Fe64  1  0.87191067  0.37022419  0.62164782  1
  Fe  Fe65  1  0.74833828  0.00439974  0.50444719  1
  Fe  Fe66  1  0.37565473  0.62605278  0.62306907  1
  Fe  Fe67  1  0.74833369  0.00203134  0.74733746  1
  Fe  Fe68  1  0.12250741  0.12385384  0.87519558  1
  Fe  Fe69  1  0.87424484  0.62380162  0.12090204  1
  Fe  Fe70  1  0.63105574  0.37234332  0.12629892  1
  Fe  Fe71  1  0.50237630  0.49812289  0.00069333  1
  Fe  Fe72  1  0.62643523  0.87709875  0.37434740  1
  Fe  Fe73  1  0.12732870  0.87474276  0.62431525  1
  Fe  Fe74  1  0.37228194  0.87503692  0.62270483  1
  Fe  Fe75  1  0.75202263  0.74871731  0.75392720  1
  Fe  Fe76  1  0.87535980  0.62563122  0.62580217  1
  Fe  Fe77  1  0.62512540  0.87613493  0.87441695  1
  Fe  Fe78  1  0.37681067  0.62455152  0.87744351  1
  Fe  Fe79  1  0.12353991  0.12469649  0.37413536  1
  Fe  Fe80  1  -0.00197160  -0.00051762  0.24833162  1
  Fe  Fe81  1  0.37310334  0.87774143  0.87758265  1
  Fe  Fe82  1  0.75149716  0.50123119  0.75190379  1
  Fe  Fe83  1  0.37730770  0.12289489  0.37554034  1
  Fe  Fe84  1  0.37811435  0.12747713  0.62644238  1
  Fe  Fe85  1  0.50178536  0.49838244  0.50156211  1
  Fe  Fe86  1  0.62470112  0.62614463  0.62809701  1
  Fe  Fe87  1  0.49912349  0.75306965  0.74993391  1
  Fe  Fe88  1  0.37226189  0.87501333  0.12304097  1
  Fe  Fe89  1  0.00013333  -0.00083865  0.00304452  1
  Co  Co90  1  0.74397412  0.24480826  0.49912242  1
  Co  Co91  1  0.00413871  0.50096275  0.00442114  1
  Co  Co92  1  0.12789945  0.37491229  0.62802956  1
  Co  Co93  1  0.62779356  0.87094578  0.62498534  1
  Co  Co94  1  0.25508755  0.50269188  0.74913070  1
  Co  Co95  1  0.87205880  0.37202961  0.12025232  1
  Co  Co96  1  0.62040862  0.12927155  0.63003905  1
  Co  Co97  1  0.62124858  0.62528185  0.87357329  1
  Co  Co98  1  0.87746060  0.62239523  0.37615025  1
  Co  Co99  1  0.00106910  0.25380270  0.49845597  1
  Co  Co100  1  0.87872599  0.62021586  0.87648875  1
  Co  Co101  1  0.24826392  0.24600392  0.75178362  1
  Co  Co102  1  0.87871413  0.12855305  0.62549168  1
  Co  Co103  1  0.75009788  0.50290670  0.50326169  1
  Co  Co104  1  0.75027909  0.24747663  0.25251290  1
  Co  Co105  1  0.62316618  0.12109318  0.37256938  1
  Co  Co106  1  0.87357198  0.87290286  0.12363744  1
  Co  Co107  1  0.74929680  0.24735595  -0.00434199  1
  Co  Co108  1  0.24829743  0.00265610  0.50122155  1
  Co  Co109  1  0.37624967  0.87938750  0.37662709  1
  Co  Co110  1  0.00317772  0.25086407  -0.00252729  1
  Co  Co111  1  0.49985010  0.25502376  0.75139564  1
  Co  Co112  1  0.62979848  0.37913691  0.37315920  1
  Co  Co113  1  0.37546435  0.62344984  0.12391002  1
  Co  Co114  1  0.24886003  0.74701563  -0.00180201  1
  Co  Co115  1  0.74624117  0.50183403  -0.00085916  1
  Co  Co116  1  0.24855376  0.00386921  -0.00021013  1
  Co  Co117  1  0.87537843  0.87889980  0.87429035  1
  Co  Co118  1  0.24831592  0.50008599  0.24857212  1
  Co  Co119  1  0.49952684  -0.00486399  0.74790607  1
  Co  Co120  1  0.12316340  0.12660126  0.12817671  1
  Co  Co121  1  -0.00465575  0.49662438  0.74540904  1
  Co  Co122  1  0.37528120  0.61937167  0.37533101  1
  Co  Co123  1  0.12213919  0.62130637  0.87079857  1
  Co  Co124  1  0.50163270  -0.00208929  0.00270497  1
  Co  Co125  1  0.75302145  0.50302609  0.24596385  1
  Co  Co126  1  0.12369735  0.87556508  0.37316825  1
  Co  Co127  1  0.50020300  0.25271193  0.00247200  1
