# generated using pymatgen
data_Fe45Co19
_symmetry_space_group_name_H-M   'P 1'
_cell_length_a   11.41479993
_cell_length_b   11.41673324
_cell_length_c   11.41643500
_cell_angle_alpha   89.99967849
_cell_angle_beta   89.99999399
_cell_angle_gamma   89.99862730
_symmetry_Int_Tables_number   1
_chemical_formula_structural   Fe45Co19
_chemical_formula_sum   'Fe90 Co38'
_cell_volume   1487.78667812
_cell_formula_units_Z   2
loop_
 _symmetry_equiv_pos_site_id
 _symmetry_equiv_pos_as_xyz
  1  'x, y, z'
loop_
 _atom_site_type_symbol
 _atom_site_label
 _atom_site_symmetry_multiplicity
 _atom_site_fract_x
 _atom_site_fract_y
 _atom_site_fract_z
 _atom_site_occupancy
  Fe  Fe0  1  0.25005320  0.50108037  0.24928400  1
  Fe  Fe1  1  0.87528537  0.37726770  0.12349033  1
  Fe  Fe2  1  0.12026451  0.12622995  0.12213223  1
  Fe  Fe3  1  0.12396845  0.62542825  0.87392327  1
  Fe  Fe4  1  0.12493581  0.87295117  0.87523993  1
  Fe  Fe5  1  0.12522644  0.37572185  0.37580206  1
  Fe  Fe6  1  0.62783316  0.87628454  0.12174006  1
  Fe  Fe7  1  0.37422527  0.37376201  0.37499262  1
  Fe  Fe8  1  0.50121742  0.25187654  0.75153577  1
  Fe  Fe9  1  0.37688971  0.87539657  0.87492334  1
  Fe  Fe10  1  -0.00111097  -0.00141916  0.25209946  1
  Fe  Fe11  1  0.87633281  0.87285218  0.62324080  1
  Fe  Fe12  1  0.62393066  0.12356902  0.62595238  1
  Fe  Fe13  1  0.50159902  0.00048621  0.49798157  1
  Fe  Fe14  1  0.50119276  -0.00057430  0.25100324  1
  Fe  Fe15  1  0.24909064  0.00034884  0.74904206  1
  Fe  Fe16  1  0.37419025  0.12590359  0.37566402  1
  Fe  Fe17  1  0.50390853  0.49766229  0.49823169  1
  Fe  Fe18  1  0.12341089  0.87326518  0.37694431  1
  Fe  Fe19  1  0.74879277  0.50150898  -0.00158018  1
  Fe  Fe20  1  0.50100507  -0.00018138  -0.00105517  1
  Fe  Fe21  1  -0.00289175  0.74633072  0.24793521  1
  Fe  Fe22  1  0.25047841  0.50157908  0.50309543  1
  Fe  Fe23  1  0.87913910  0.12533047  0.62556820  1
  Fe  Fe24  1  0.74845914  -0.00253668  0.75002808  1
  Fe  Fe25  1  0.87085545  0.87606054  0.87663197  1
  Fe  Fe26  1  -0.00115132  0.50261916  0.24945832  1
  Fe  Fe27  1  0.24848550  -0.00165297  0.50280124  1
  Fe  Fe28  1  0.49999110  0.25021680  -0.00102259  1
  Fe  Fe29  1  0.50795250  0.75431023  0.75137541  1
  Fe  Fe30  1  0.37588558  0.12494310  0.62627432  1
  Fe  Fe31  1  -0.00253247  0.25208442  0.24986500  1
  Fe  Fe32  1  0.37367279  0.37338384  0.12291187  1
  Fe  Fe33  1  0.87579168  0.37346743  0.62440172  1
  Fe  Fe34  1  0.12090662  0.12634503  0.87588159  1
  Fe  Fe35  1  0.50499287  0.49626426  0.75476558  1
  Fe  Fe36  1  0.24860569  0.00051283  0.24925221  1
  Fe  Fe37  1  0.50191016  0.49804374  -0.00341180  1
  Fe  Fe38  1  0.24922614  0.74913709  0.50308153  1
  Fe  Fe39  1  0.87372210  0.37319967  0.87368371  1
  Fe  Fe40  1  0.62536582  0.62576417  0.12304697  1
  Fe  Fe41  1  0.74887476  0.50055179  0.25154892  1
  Fe  Fe42  1  0.75077227  0.74840921  0.24934905  1
  Fe  Fe43  1  0.74793879  0.50049046  0.75006361  1
  Fe  Fe44  1  0.87488016  0.87205060  0.37705807  1
  Fe  Fe45  1  0.24957902  0.74963727  0.74864644  1
  Fe  Fe46  1  0.37567238  0.37606838  0.62765138  1
  Fe  Fe47  1  0.25105894  0.74987744  0.24842433  1
  Fe  Fe48  1  0.50166831  0.49663603  0.25066851  1
  Fe  Fe49  1  -0.00307304  0.74895837  0.00056797  1
  Fe  Fe50  1  0.75094993  0.24851108  0.74849491  1
  Fe  Fe51  1  0.37701309  0.62563748  0.37513060  1
  Fe  Fe52  1  0.50280423  0.25152019  0.49975075  1
  Fe  Fe53  1  0.87448837  0.62741211  0.62620149  1
  Fe  Fe54  1  0.12399838  0.62569252  0.37404064  1
  Fe  Fe55  1  0.75021375  0.00104392  0.49818805  1
  Fe  Fe56  1  0.37486215  0.87524394  0.37470392  1
  Fe  Fe57  1  0.24637182  0.25171045  0.50350907  1
  Fe  Fe58  1  0.12170892  0.62421997  0.62906619  1
  Fe  Fe59  1  0.62735427  0.12579689  0.12863908  1
  Fe  Fe60  1  0.12322939  0.12492723  0.37785554  1
  Fe  Fe61  1  0.74604538  0.74801111  0.50119977  1
  Fe  Fe62  1  0.37400047  0.12431579  0.12379384  1
  Fe  Fe63  1  0.75604378  0.24360036  0.00094580  1
  Fe  Fe64  1  0.12417818  0.37482806  0.12297755  1
  Fe  Fe65  1  0.25286414  0.74971328  0.00091110  1
  Fe  Fe66  1  0.50333088  0.75081843  0.50084423  1
  Fe  Fe67  1  -0.00116740  0.50190725  -0.00122019  1
  Fe  Fe68  1  0.12401539  0.87381031  0.12407262  1
  Fe  Fe69  1  0.87329858  0.87882390  0.12268235  1
  Fe  Fe70  1  0.37573265  0.62423588  0.12420552  1
  Fe  Fe71  1  0.50002997  0.75217975  0.24781848  1
  Fe  Fe72  1  0.25011781  0.24880613  0.24869767  1
  Fe  Fe73  1  -0.00061366  0.50111191  0.50056478  1
  Fe  Fe74  1  0.74573438  0.50047482  0.49976392  1
  Fe  Fe75  1  0.24879006  -0.00024910  -0.00032895  1
  Fe  Fe76  1  0.12398441  0.37648426  0.87328899  1
  Fe  Fe77  1  0.37838367  0.62553990  0.87362046  1
  Fe  Fe78  1  0.87442797  0.12756093  0.37479408  1
  Fe  Fe79  1  0.37419584  0.12652754  0.87484050  1
  Fe  Fe80  1  0.37742485  0.87645247  0.62626527  1
  Fe  Fe81  1  0.62607092  0.12435838  0.87329540  1
  Fe  Fe82  1  0.38010739  0.62403927  0.62781139  1
  Fe  Fe83  1  0.87241183  0.37471792  0.37745454  1
  Fe  Fe84  1  0.25120626  0.50054459  -0.00241934  1
  Fe  Fe85  1  0.62808299  0.12949064  0.37159296  1
  Fe  Fe86  1  0.87157270  0.62739123  0.87360881  1
  Fe  Fe87  1  0.62720237  0.37151359  0.12411119  1
  Fe  Fe88  1  0.24652315  0.25105291  0.74849437  1
  Fe  Fe89  1  0.00113363  -0.00341947  0.74973882  1
  Co  Co90  1  0.24836411  0.25010688  -0.00078893  1
  Co  Co91  1  -0.00226433  -0.00024579  0.49915929  1
  Co  Co92  1  0.00103057  0.25144173  0.50038428  1
  Co  Co93  1  0.62579062  0.37451354  0.62678134  1
  Co  Co94  1  0.49897679  0.75106213  0.00074226  1
  Co  Co95  1  0.75091240  -0.00124473  0.25219031  1
  Co  Co96  1  0.74667865  0.75321728  0.74810533  1
  Co  Co97  1  0.62848115  0.87616577  0.88031413  1
  Co  Co98  1  0.37275884  0.37320307  0.87415400  1
  Co  Co99  1  0.62381808  0.62595949  0.37318995  1
  Co  Co100  1  0.87358078  0.62472062  0.37676370  1
  Co  Co101  1  0.37415994  0.87809992  0.12504600  1
  Co  Co102  1  0.00159408  0.74731880  0.50092578  1
  Co  Co103  1  -0.00473750  0.25118627  -0.00134117  1
  Co  Co104  1  0.49732610  0.25073538  0.24929753  1
  Co  Co105  1  0.12565678  0.62513879  0.12352987  1
  Co  Co106  1  0.87925425  0.12052916  0.12765430  1
  Co  Co107  1  0.62515389  0.87912949  0.62248397  1
  Co  Co108  1  0.87810850  0.12289958  0.87032688  1
  Co  Co109  1  0.62632046  0.87389151  0.37490748  1
  Co  Co110  1  0.62811032  0.37047828  0.37288912  1
  Co  Co111  1  0.12244778  0.87502881  0.62503974  1
  Co  Co112  1  0.62391330  0.62270301  0.62711496  1
  Co  Co113  1  0.75080906  0.00678000  -0.00064551  1
  Co  Co114  1  -0.00061617  -0.00143049  -0.00195569  1
  Co  Co115  1  0.75163822  0.74873836  0.00080469  1
  Co  Co116  1  0.50084356  -0.00114866  0.75244183  1
  Co  Co117  1  0.62678440  0.62736143  0.87588662  1
  Co  Co118  1  0.00136670  0.25177315  0.74944358  1
  Co  Co119  1  0.74894698  0.24834253  0.50336570  1
  Co  Co120  1  0.75558889  0.25121164  0.24625163  1
  Co  Co121  1  0.25135235  0.50169529  0.74987490  1
  Co  Co122  1  0.12194259  0.12253199  0.62446710  1
  Co  Co123  1  0.12238225  0.37950301  0.62729585  1
  Co  Co124  1  0.63088113  0.37025237  0.87683775  1
  Co  Co125  1  -0.00482498  0.50097834  0.75153307  1
  Co  Co126  1  -0.00225190  0.75115417  0.75228276  1
  Co  Co127  1  0.87311991  0.62235719  0.12404937  1
