# generated using pymatgen
data_Fe45Co19
_symmetry_space_group_name_H-M   'P 1'
_cell_length_a   11.41606363
_cell_length_b   11.41512049
_cell_length_c   11.41602836
_cell_angle_alpha   90.00384186
_cell_angle_beta   89.99212148
_cell_angle_gamma   89.99836033
_symmetry_Int_Tables_number   1
_chemical_formula_structural   Fe45Co19
_chemical_formula_sum   'Fe90 Co38'
_cell_volume   1487.68818552
_cell_formula_units_Z   2
loop_
 _symmetry_equiv_pos_site_id
 _symmetry_equiv_pos_as_xyz
  1  'x, y, z'
loop_
 _atom_site_type_symbol
 _atom_site_label
 _atom_site_symmetry_multiplicity
 _atom_site_fract_x
 _atom_site_fract_y
 _atom_site_fract_z
 _atom_site_occupancy
  Fe  Fe0  1  0.25060752  0.25079799  0.25071209  1
  Fe  Fe1  1  0.49893129  0.49802718  0.24726961  1
  Fe  Fe2  1  0.50285882  -0.00143656  -0.00259290  1
  Fe  Fe3  1  0.87259172  0.87619136  0.12222499  1
  Fe  Fe4  1  0.25070549  0.25010034  0.75313165  1
  Fe  Fe5  1  0.24818464  0.00102973  0.74869405  1
  Fe  Fe6  1  0.12304937  0.62417940  0.87440669  1
  Fe  Fe7  1  0.50006180  0.49697490  0.75203859  1
  Fe  Fe8  1  0.87680430  0.12551465  0.12675622  1
  Fe  Fe9  1  0.25007637  0.49965441  0.75046145  1
  Fe  Fe10  1  0.24968990  0.25120581  0.49723323  1
  Fe  Fe11  1  0.37639036  0.12480938  0.12273054  1
  Fe  Fe12  1  0.37421656  0.87581124  0.12213136  1
  Fe  Fe13  1  0.37549468  0.62405450  0.87592223  1
  Fe  Fe14  1  0.87351735  0.62461327  0.62506157  1
  Fe  Fe15  1  0.25068438  0.75007260  0.75140355  1
  Fe  Fe16  1  0.12167462  0.12317320  0.37465245  1
  Fe  Fe17  1  -0.00150223  0.49770805  0.74835003  1
  Fe  Fe18  1  -0.00011501  0.49780307  0.24804027  1
  Fe  Fe19  1  0.37471947  0.37435378  0.87981916  1
  Fe  Fe20  1  0.62675488  0.87600423  0.37728516  1
  Fe  Fe21  1  0.12496282  0.87597841  0.12491126  1
  Fe  Fe22  1  0.37722061  0.12428276  0.87465139  1
  Fe  Fe23  1  0.62389491  0.62456558  0.37229562  1
  Fe  Fe24  1  0.49974778  0.75140858  0.24909430  1
  Fe  Fe25  1  0.75217023  0.24693782  -0.00142055  1
  Fe  Fe26  1  0.37638907  0.12641602  0.62698905  1
  Fe  Fe27  1  0.75097523  0.74952832  0.25030418  1
  Fe  Fe28  1  0.62644499  0.37207266  0.12416847  1
  Fe  Fe29  1  0.25276218  0.74561586  0.50079614  1
  Fe  Fe30  1  -0.00280992  0.75447817  0.74825428  1
  Fe  Fe31  1  0.62391041  0.12347129  0.87168431  1
  Fe  Fe32  1  -0.00226167  0.24772796  0.75223652  1
  Fe  Fe33  1  0.24770170  0.00199773  -0.00068267  1
  Fe  Fe34  1  0.12564543  0.62298253  0.37481855  1
  Fe  Fe35  1  0.12261632  0.87920072  0.87341286  1
  Fe  Fe36  1  0.87791749  0.12312422  0.37554955  1
  Fe  Fe37  1  -0.00042666  0.50034789  0.00246302  1
  Fe  Fe38  1  0.49706915  0.50175310  0.49945772  1
  Fe  Fe39  1  0.87535894  0.62437062  0.37402233  1
  Fe  Fe40  1  0.87296516  0.37260716  0.62550741  1
  Fe  Fe41  1  0.50247115  0.00208539  0.50158821  1
  Fe  Fe42  1  0.62348184  0.12742538  0.12859529  1
  Fe  Fe43  1  0.62431643  0.62487051  0.62705445  1
  Fe  Fe44  1  0.62805472  0.87438468  0.62364728  1
  Fe  Fe45  1  0.62579019  0.37473461  0.62483810  1
  Fe  Fe46  1  0.87575140  0.37302435  0.37313993  1
  Fe  Fe47  1  0.50215223  0.75198176  -0.00251061  1
  Fe  Fe48  1  0.12349504  0.12443049  0.12716753  1
  Fe  Fe49  1  0.62748982  0.37578508  0.87684460  1
  Fe  Fe50  1  -0.00092843  0.75132359  0.50180896  1
  Fe  Fe51  1  0.74734788  0.24734240  0.49640431  1
  Fe  Fe52  1  0.49998968  -0.00202628  0.24942772  1
  Fe  Fe53  1  0.37440693  0.37322887  0.11907024  1
  Fe  Fe54  1  0.25018843  0.49785263  0.25039496  1
  Fe  Fe55  1  -0.00078726  0.74996675  0.00095168  1
  Fe  Fe56  1  0.75202946  0.50207443  0.00298936  1
  Fe  Fe57  1  0.37527891  0.87502837  0.37607006  1
  Fe  Fe58  1  0.24979904  0.75089595  0.24950065  1
  Fe  Fe59  1  0.62319943  0.12727069  0.62829146  1
  Fe  Fe60  1  0.37413072  0.87507628  0.62546320  1
  Fe  Fe61  1  0.24760894  0.74873187  -0.00069722  1
  Fe  Fe62  1  0.37925536  0.12694468  0.37430030  1
  Fe  Fe63  1  0.87389749  0.88130777  0.87752914  1
  Fe  Fe64  1  0.12423367  0.37445121  0.87621826  1
  Fe  Fe65  1  0.12546097  0.62507797  0.62588299  1
  Fe  Fe66  1  0.75303215  0.00094623  0.74639398  1
  Fe  Fe67  1  0.74987930  0.00161711  0.25142452  1
  Fe  Fe68  1  0.37492066  0.37478891  0.62329668  1
  Fe  Fe69  1  0.37524679  0.62460646  0.12323542  1
  Fe  Fe70  1  0.75228959  0.25133289  0.75279433  1
  Fe  Fe71  1  0.75165967  0.74966635  0.75102385  1
  Fe  Fe72  1  0.49898480  0.74805438  0.49978629  1
  Fe  Fe73  1  0.87540343  0.62231504  0.87485878  1
  Fe  Fe74  1  0.74996592  0.50036503  0.49935189  1
  Fe  Fe75  1  0.87282121  0.87840886  0.38151911  1
  Fe  Fe76  1  0.62798755  0.87354414  0.12253500  1
  Fe  Fe77  1  -0.00008851  0.49875351  0.50141606  1
  Fe  Fe78  1  0.12523365  0.87670979  0.37829282  1
  Fe  Fe79  1  0.25052786  0.00023259  0.25074728  1
  Fe  Fe80  1  0.24913921  0.00216774  0.50106418  1
  Fe  Fe81  1  0.12502591  0.37318532  0.12358012  1
  Fe  Fe82  1  0.62636095  0.62392006  0.87521858  1
  Fe  Fe83  1  -0.00067470  0.24752956  -0.00197910  1
  Fe  Fe84  1  -0.00047635  0.75283164  0.25037428  1
  Fe  Fe85  1  0.50023079  0.75504480  0.75336082  1
  Fe  Fe86  1  0.75096815  0.49851381  0.24817237  1
  Fe  Fe87  1  0.62148578  0.37136711  0.37323888  1
  Fe  Fe88  1  0.12626431  0.37367258  0.62446781  1
  Fe  Fe89  1  0.00132333  0.25023179  0.49931277  1
  Co  Co90  1  0.37515802  0.62469188  0.37074266  1
  Co  Co91  1  0.00178974  0.00167910  0.00274899  1
  Co  Co92  1  0.74887354  0.74478233  0.49918402  1
  Co  Co93  1  0.50224250  0.50006144  0.00023072  1
  Co  Co94  1  0.12899435  0.87279864  0.62480342  1
  Co  Co95  1  0.62506859  0.62661371  0.12557138  1
  Co  Co96  1  0.37139633  0.87714263  0.87641315  1
  Co  Co97  1  0.74608113  0.00718663  0.49983227  1
  Co  Co98  1  0.61987920  0.12714846  0.37042001  1
  Co  Co99  1  0.24723661  0.50134917  -0.00056153  1
  Co  Co100  1  0.75044069  0.49955396  0.74852186  1
  Co  Co101  1  0.12429657  0.62525098  0.12714458  1
  Co  Co102  1  0.12653689  0.12936746  0.62542775  1
  Co  Co103  1  0.87561163  0.62627779  0.12712558  1
  Co  Co104  1  0.86942859  0.87457433  0.62022107  1
  Co  Co105  1  0.49577335  0.25260508  0.24689045  1
  Co  Co106  1  0.74735659  0.00569647  0.00303554  1
  Co  Co107  1  0.37722104  0.62513500  0.62986715  1
  Co  Co108  1  0.00140790  -0.00012420  0.50793369  1
  Co  Co109  1  0.49994111  -0.00388164  0.75023185  1
  Co  Co110  1  0.12239805  0.12228499  0.87202372  1
  Co  Co111  1  0.12480986  0.37678013  0.37595455  1
  Co  Co112  1  -0.00071764  -0.00071652  0.74124568  1
  Co  Co113  1  0.75175094  0.24843348  0.25177261  1
  Co  Co114  1  0.87395163  0.12928169  0.62317932  1
  Co  Co115  1  0.24760118  0.24658552  -0.00133514  1
  Co  Co116  1  0.75148546  0.74700622  -0.00184070  1
  Co  Co117  1  0.50256154  0.24835980  -0.00200078  1
  Co  Co118  1  0.87498258  0.37138942  0.12426170  1
  Co  Co119  1  -0.00103173  -0.00394811  0.24996994  1
  Co  Co120  1  0.50119991  0.24889649  0.50245596  1
  Co  Co121  1  0.00175068  0.25095724  0.25023899  1
  Co  Co122  1  0.63192629  0.87795535  0.87555078  1
  Co  Co123  1  0.87484040  0.37675631  0.87620660  1
  Co  Co124  1  0.87651273  0.11922088  0.87470529  1
  Co  Co125  1  0.49957709  0.25424759  0.75172070  1
  Co  Co126  1  0.25173755  0.50202506  0.50108200  1
  Co  Co127  1  0.37665309  0.37399023  0.37732088  1
