# generated using pymatgen
data_Fe45Co19
_symmetry_space_group_name_H-M   'P 1'
_cell_length_a   11.41473034
_cell_length_b   11.41532249
_cell_length_c   11.41500846
_cell_angle_alpha   89.98819536
_cell_angle_beta   90.00081137
_cell_angle_gamma   89.99603804
_symmetry_Int_Tables_number   1
_chemical_formula_structural   Fe45Co19
_chemical_formula_sum   'Fe90 Co38'
_cell_volume   1487.40784853
_cell_formula_units_Z   2
loop_
 _symmetry_equiv_pos_site_id
 _symmetry_equiv_pos_as_xyz
  1  'x, y, z'
loop_
 _atom_site_type_symbol
 _atom_site_label
 _atom_site_symmetry_multiplicity
 _atom_site_fract_x
 _atom_site_fract_y
 _atom_site_fract_z
 _atom_site_occupancy
  Fe  Fe0  1  -0.00162209  0.00159412  0.74866411  1
  Fe  Fe1  1  0.62201346  0.12365193  0.37424845  1
  Fe  Fe2  1  0.75036359  0.75201121  -0.00147306  1
  Fe  Fe3  1  0.49924228  0.50110374  0.74993059  1
  Fe  Fe4  1  0.87456626  0.62472744  0.62491708  1
  Fe  Fe5  1  0.37703294  0.37353341  0.87472926  1
  Fe  Fe6  1  0.12481131  0.37563982  0.87438884  1
  Fe  Fe7  1  0.00238553  0.74930079  0.25019853  1
  Fe  Fe8  1  -0.00111598  0.00190061  0.25008383  1
  Fe  Fe9  1  0.50027306  -0.00219386  0.00125700  1
  Fe  Fe10  1  0.24885913  0.24967657  0.74950594  1
  Fe  Fe11  1  0.50345534  0.25192717  0.00163627  1
  Fe  Fe12  1  0.49823363  0.74948584  0.75009688  1
  Fe  Fe13  1  0.37714161  0.12519161  0.87516432  1
  Fe  Fe14  1  -0.00099302  0.74955880  0.75100889  1
  Fe  Fe15  1  0.50205589  0.49749517  0.00074763  1
  Fe  Fe16  1  0.62400948  0.87653276  0.87367138  1
  Fe  Fe17  1  0.24886708  0.00197065  0.49761605  1
  Fe  Fe18  1  0.37520080  0.37446930  0.62431720  1
  Fe  Fe19  1  -0.00029271  0.25005143  0.00209727  1
  Fe  Fe20  1  0.37383402  0.87399758  0.62623623  1
  Fe  Fe21  1  0.37303241  0.62569988  0.87839577  1
  Fe  Fe22  1  0.74958539  0.75036926  0.49895185  1
  Fe  Fe23  1  0.87472588  0.87593528  0.12544182  1
  Fe  Fe24  1  0.62705634  0.87603935  0.62622173  1
  Fe  Fe25  1  0.62548848  0.12226690  0.12687386  1
  Fe  Fe26  1  0.37442381  0.87407737  0.87495041  1
  Fe  Fe27  1  0.62486029  0.87612500  0.37283207  1
  Fe  Fe28  1  0.87423060  0.12517204  0.87547319  1
  Fe  Fe29  1  0.87514153  0.37710400  0.37420651  1
  Fe  Fe30  1  0.00094924  0.25033485  0.74647626  1
  Fe  Fe31  1  0.74842567  0.24745302  0.75059041  1
  Fe  Fe32  1  0.12462879  0.37420354  0.12744323  1
  Fe  Fe33  1  0.37388106  0.12453736  0.62446365  1
  Fe  Fe34  1  0.00084696  0.24925757  0.50221390  1
  Fe  Fe35  1  0.37654891  0.37470004  0.12648247  1
  Fe  Fe36  1  0.87254756  0.37504139  0.62408383  1
  Fe  Fe37  1  0.25053938  0.50020865  0.74988488  1
  Fe  Fe38  1  0.87501110  0.12543699  0.37702394  1
  Fe  Fe39  1  0.12296250  0.37482079  0.37371739  1
  Fe  Fe40  1  0.25154084  0.50133961  0.25185287  1
  Fe  Fe41  1  0.87601156  0.87461782  0.37479684  1
  Fe  Fe42  1  0.49888508  0.50143048  0.49890307  1
  Fe  Fe43  1  0.62625546  0.62391298  0.87623957  1
  Fe  Fe44  1  0.75035417  0.24919539  0.25091454  1
  Fe  Fe45  1  0.62271608  0.37501170  0.37375209  1
  Fe  Fe46  1  0.00018888  0.00125860  0.00120862  1
  Fe  Fe47  1  0.87244119  0.87714807  0.62499376  1
  Fe  Fe48  1  0.49953863  -0.00117182  0.50009435  1
  Fe  Fe49  1  0.74683649  0.25199900  -0.00050788  1
  Fe  Fe50  1  0.62900740  0.12206520  0.62310698  1
  Fe  Fe51  1  0.87259028  0.37669393  0.12678009  1
  Fe  Fe52  1  0.50248356  0.24713506  0.74839852  1
  Fe  Fe53  1  0.87281962  0.62307449  0.12413764  1
  Fe  Fe54  1  0.12430986  0.12581903  0.12769194  1
  Fe  Fe55  1  0.37902393  0.37231126  0.37435886  1
  Fe  Fe56  1  0.87605641  0.62397696  0.37483439  1
  Fe  Fe57  1  0.37612840  0.12458461  0.12600909  1
  Fe  Fe58  1  0.24644574  0.75052076  0.25026336  1
  Fe  Fe59  1  0.50132406  0.75065073  0.24742524  1
  Fe  Fe60  1  0.12541491  0.62379955  0.87569302  1
  Fe  Fe61  1  0.00060120  0.75068816  -0.00002366  1
  Fe  Fe62  1  0.12679151  0.87621639  0.62563583  1
  Fe  Fe63  1  0.75111069  0.50139063  0.75040645  1
  Fe  Fe64  1  -0.00074323  0.49919202  0.00031700  1
  Fe  Fe65  1  0.24949898  0.74771609  0.49988189  1
  Fe  Fe66  1  0.75023271  -0.00131665  -0.00087671  1
  Fe  Fe67  1  0.00029195  0.00169662  0.50123366  1
  Fe  Fe68  1  0.24993823  0.25066547  0.00042234  1
  Fe  Fe69  1  0.25032428  -0.00015849  0.25206510  1
  Fe  Fe70  1  0.25129099  0.24806892  0.25182704  1
  Fe  Fe71  1  0.62590571  0.37577046  0.62381304  1
  Fe  Fe72  1  0.62608945  0.62343050  0.12377194  1
  Fe  Fe73  1  0.00069865  0.75003848  0.50026468  1
  Fe  Fe74  1  0.37474227  0.87272910  0.12394260  1
  Fe  Fe75  1  0.87420080  0.37650051  0.87406183  1
  Fe  Fe76  1  0.12507705  0.62316037  0.62521727  1
  Fe  Fe77  1  -0.00029899  0.49967768  0.50065987  1
  Fe  Fe78  1  0.62427337  0.62620789  0.62370114  1
  Fe  Fe79  1  0.25259606  0.50203729  0.49755118  1
  Fe  Fe80  1  0.62260421  0.62552982  0.37575742  1
  Fe  Fe81  1  0.37535175  0.87253264  0.37533478  1
  Fe  Fe82  1  0.75002607  0.75008187  0.24995314  1
  Fe  Fe83  1  0.12535727  0.12547942  0.87361820  1
  Fe  Fe84  1  0.24888925  0.24790966  0.49864424  1
  Fe  Fe85  1  0.12658023  0.62363823  0.12416006  1
  Fe  Fe86  1  0.37461224  0.62588956  0.12312601  1
  Fe  Fe87  1  0.75241556  0.75065273  0.75214370  1
  Fe  Fe88  1  0.12546420  0.87536984  0.87418215  1
  Fe  Fe89  1  0.24882934  -0.00083117  0.00016468  1
  Co  Co90  1  -0.00027552  0.49903942  0.74905209  1
  Co  Co91  1  0.87506694  0.62374953  0.87636217  1
  Co  Co92  1  0.87170312  0.12487441  0.62417871  1
  Co  Co93  1  0.75002764  -0.00138356  0.49707584  1
  Co  Co94  1  0.37640923  0.62530370  0.62373277  1
  Co  Co95  1  0.74920585  0.25040765  0.49706388  1
  Co  Co96  1  0.87655389  0.87623369  0.87620039  1
  Co  Co97  1  0.74939074  0.50139614  0.25255629  1
  Co  Co98  1  0.62399336  0.12306610  0.87704609  1
  Co  Co99  1  0.49936366  0.00068525  0.74825629  1
  Co  Co100  1  0.50110577  0.75252642  0.50150674  1
  Co  Co101  1  0.24719945  0.75263160  0.00026271  1
  Co  Co102  1  0.12653368  0.12435650  0.62566584  1
  Co  Co103  1  0.12381836  0.62440924  0.37597904  1
  Co  Co104  1  0.37740264  0.62963124  0.37390994  1
  Co  Co105  1  0.25108310  0.00058472  0.75192950  1
  Co  Co106  1  0.12720280  0.37643053  0.62285907  1
  Co  Co107  1  0.12385242  0.87535458  0.37612323  1
  Co  Co108  1  0.62692172  0.87659220  0.12618768  1
  Co  Co109  1  -0.00391251  0.24945486  0.24906905  1
  Co  Co110  1  0.37823010  0.12583909  0.37523843  1
  Co  Co111  1  0.75134355  0.00026547  0.75256022  1
  Co  Co112  1  0.74879945  0.49716472  -0.00125017  1
  Co  Co113  1  0.50149450  0.24861176  0.50260810  1
  Co  Co114  1  0.12299587  0.12595973  0.37318388  1
  Co  Co115  1  0.87287711  0.12487159  0.12270953  1
  Co  Co116  1  0.25031754  0.49669584  0.00043428  1
  Co  Co117  1  0.50087869  0.24840013  0.24773824  1
  Co  Co118  1  0.49757127  -0.00203423  0.24988655  1
  Co  Co119  1  0.49907760  0.50167053  0.24960262  1
  Co  Co120  1  0.25025426  0.74832594  0.74998282  1
  Co  Co121  1  0.62621901  0.37626739  0.12893833  1
  Co  Co122  1  0.75253419  0.00097873  0.25125948  1
  Co  Co123  1  0.12271544  0.87745566  0.12641312  1
  Co  Co124  1  0.62445628  0.37530697  0.87164962  1
  Co  Co125  1  0.74925607  0.50129563  0.49887318  1
  Co  Co126  1  0.50194461  0.75053768  -0.00018026  1
  Co  Co127  1  0.00005625  0.50129639  0.24866102  1
