# generated using pymatgen
data_Fe45Co19
_symmetry_space_group_name_H-M   'P 1'
_cell_length_a   11.41383972
_cell_length_b   11.41537947
_cell_length_c   11.41535420
_cell_angle_alpha   90.00513886
_cell_angle_beta   90.00449209
_cell_angle_gamma   90.00294861
_symmetry_Int_Tables_number   1
_chemical_formula_structural   Fe45Co19
_chemical_formula_sum   'Fe90 Co38'
_cell_volume   1487.34428920
_cell_formula_units_Z   2
loop_
 _symmetry_equiv_pos_site_id
 _symmetry_equiv_pos_as_xyz
  1  'x, y, z'
loop_
 _atom_site_type_symbol
 _atom_site_label
 _atom_site_symmetry_multiplicity
 _atom_site_fract_x
 _atom_site_fract_y
 _atom_site_fract_z
 _atom_site_occupancy
  Fe  Fe0  1  0.49887971  0.25070072  0.74723565  1
  Fe  Fe1  1  0.00325982  0.25383822  0.75007557  1
  Fe  Fe2  1  0.24808219  0.00289908  0.50119654  1
  Fe  Fe3  1  0.74945911  0.49964351  0.25017578  1
  Fe  Fe4  1  0.00038079  0.49728116  0.25204330  1
  Fe  Fe5  1  0.49769492  0.50127921  0.75196157  1
  Fe  Fe6  1  0.00155578  -0.00325917  0.75457368  1
  Fe  Fe7  1  0.12292252  0.12090778  0.12581264  1
  Fe  Fe8  1  0.24892416  0.74883656  0.74675699  1
  Fe  Fe9  1  0.12295502  0.12276381  0.37205543  1
  Fe  Fe10  1  0.00159867  0.24914987  0.00045582  1
  Fe  Fe11  1  0.37310202  0.87504609  0.37550956  1
  Fe  Fe12  1  0.25251702  0.49946311  0.25258278  1
  Fe  Fe13  1  0.62521092  0.87716175  0.12501055  1
  Fe  Fe14  1  0.12841943  0.37362347  0.37718146  1
  Fe  Fe15  1  0.87560102  0.37401786  0.87560226  1
  Fe  Fe16  1  0.25023744  0.24858163  0.25006090  1
  Fe  Fe17  1  0.87553476  0.37521607  0.62619653  1
  Fe  Fe18  1  0.62502470  0.87494639  0.37617561  1
  Fe  Fe19  1  0.87570990  0.62600524  0.37402005  1
  Fe  Fe20  1  0.24882962  0.74782554  0.50397140  1
  Fe  Fe21  1  0.74745975  0.24922039  0.24960383  1
  Fe  Fe22  1  0.87272380  0.87285342  0.37331621  1
  Fe  Fe23  1  0.00455340  0.75293426  0.75289503  1
  Fe  Fe24  1  0.87802920  0.62793427  0.87525679  1
  Fe  Fe25  1  0.75162743  0.74913782  0.50268298  1
  Fe  Fe26  1  0.87479296  0.12726973  0.87294741  1
  Fe  Fe27  1  0.87815323  0.62560792  0.12484978  1
  Fe  Fe28  1  0.75194379  0.50292312  0.75216405  1
  Fe  Fe29  1  0.00185427  0.25112934  0.50011964  1
  Fe  Fe30  1  0.49777793  0.75014975  0.50293634  1
  Fe  Fe31  1  0.37456560  0.62650850  0.87620305  1
  Fe  Fe32  1  0.87652059  0.87391052  0.62720362  1
  Fe  Fe33  1  0.37139739  0.37350712  0.87415468  1
  Fe  Fe34  1  0.75051976  0.74969704  0.00042629  1
  Fe  Fe35  1  0.49929978  -0.00051571  -0.00350917  1
  Fe  Fe36  1  0.00305445  0.50084871  -0.00262631  1
  Fe  Fe37  1  0.75032104  -0.00081183  0.75014807  1
  Fe  Fe38  1  0.62522698  0.12672971  0.87473428  1
  Fe  Fe39  1  0.74870853  0.74860914  0.24866281  1
  Fe  Fe40  1  0.75000289  0.00132804  0.25060862  1
  Fe  Fe41  1  0.12403488  0.62822982  0.37497865  1
  Fe  Fe42  1  0.24952051  0.50050513  0.00030599  1
  Fe  Fe43  1  0.37263476  0.87407462  0.87437555  1
  Fe  Fe44  1  0.62472330  0.37445734  0.87465144  1
  Fe  Fe45  1  0.00034423  0.49892191  0.49849571  1
  Fe  Fe46  1  0.50063654  0.00290389  0.25156974  1
  Fe  Fe47  1  0.62157404  0.37336663  0.37322746  1
  Fe  Fe48  1  0.62026067  0.37517083  0.12430430  1
  Fe  Fe49  1  0.49998695  0.75027678  0.24882147  1
  Fe  Fe50  1  0.37717982  0.12454338  0.12375877  1
  Fe  Fe51  1  0.50054684  0.00089590  0.50138518  1
  Fe  Fe52  1  0.24573602  0.50221039  0.74782166  1
  Fe  Fe53  1  0.12566566  0.12409388  0.87633910  1
  Fe  Fe54  1  0.37487729  0.87796683  0.62634267  1
  Fe  Fe55  1  0.74918535  0.50071495  -0.00159420  1
  Fe  Fe56  1  0.75208976  -0.00055876  0.50125493  1
  Fe  Fe57  1  0.62495319  0.12446349  0.62582329  1
  Fe  Fe58  1  0.24801266  0.00107352  0.74848951  1
  Fe  Fe59  1  0.00009106  -0.00394810  0.49738688  1
  Fe  Fe60  1  0.62530757  0.87045551  0.87196767  1
  Fe  Fe61  1  0.36883504  0.37487984  0.61993546  1
  Fe  Fe62  1  0.87648061  0.37466266  0.12562478  1
  Fe  Fe63  1  0.74940015  0.25086851  0.50124783  1
  Fe  Fe64  1  0.37655500  0.62430831  0.12413747  1
  Fe  Fe65  1  0.75146923  0.49977611  0.49895683  1
  Fe  Fe66  1  0.37849287  0.37468329  0.12674164  1
  Fe  Fe67  1  0.88006292  0.62555776  0.62608192  1
  Fe  Fe68  1  0.62300922  0.62504742  0.62665536  1
  Fe  Fe69  1  0.24841427  0.75203540  0.24731053  1
  Fe  Fe70  1  0.87574661  0.12766676  0.37372384  1
  Fe  Fe71  1  0.37505694  0.12553615  0.87226108  1
  Fe  Fe72  1  0.62148653  0.62334036  0.12220235  1
  Fe  Fe73  1  0.37517402  0.62676735  0.37493131  1
  Fe  Fe74  1  0.87769359  0.12543398  0.62650359  1
  Fe  Fe75  1  0.24635802  0.74895864  0.00230115  1
  Fe  Fe76  1  0.49732895  0.49863048  0.49832292  1
  Fe  Fe77  1  0.62672681  0.37722890  0.62725776  1
  Fe  Fe78  1  0.24622516  0.24761546  0.74490389  1
  Fe  Fe79  1  0.62419848  0.87324306  0.62694771  1
  Fe  Fe80  1  0.75375628  -0.00144684  -0.00160109  1
  Fe  Fe81  1  0.00234486  0.75423511  0.24836020  1
  Fe  Fe82  1  0.25035838  0.24859616  0.00140689  1
  Fe  Fe83  1  0.87701339  0.12466994  0.12730106  1
  Fe  Fe84  1  0.12459380  0.88193789  0.12259593  1
  Fe  Fe85  1  0.74958868  0.25044357  0.00076274  1
  Fe  Fe86  1  0.37742582  0.12929790  0.37861565  1
  Fe  Fe87  1  0.37492924  0.87740066  0.12466271  1
  Fe  Fe88  1  0.62378900  0.62595795  0.37645101  1
  Fe  Fe89  1  0.12578993  0.37619599  0.12417993  1
  Co  Co90  1  0.50111716  0.24524598  0.24856193  1
  Co  Co91  1  0.75098552  0.74722235  0.74746482  1
  Co  Co92  1  0.75000407  0.25013590  0.74894957  1
  Co  Co93  1  0.87526663  0.87397736  0.12421485  1
  Co  Co94  1  0.37522502  0.62124492  0.62435991  1
  Co  Co95  1  0.12571529  0.87576617  0.62400356  1
  Co  Co96  1  0.12356381  0.62182888  0.12705573  1
  Co  Co97  1  0.62583331  0.12310453  0.12037806  1
  Co  Co98  1  0.37655899  0.12407410  0.62495214  1
  Co  Co99  1  0.49571705  0.74850415  0.74865530  1
  Co  Co100  1  0.11937069  0.12141632  0.62611438  1
  Co  Co101  1  0.49794689  0.50201958  0.25192391  1
  Co  Co102  1  0.12831917  0.37383681  0.87677608  1
  Co  Co103  1  0.12599025  0.62505693  0.87380221  1
  Co  Co104  1  0.87363265  0.87074033  0.87443648  1
  Co  Co105  1  0.12981988  0.87683304  0.87855121  1
  Co  Co106  1  0.12692972  0.37806352  0.62209973  1
  Co  Co107  1  0.24863469  0.50461855  0.49710017  1
  Co  Co108  1  0.00279345  0.25267028  0.24966136  1
  Co  Co109  1  0.50232856  0.25193176  0.50541608  1
  Co  Co110  1  0.49888571  0.75183310  0.00024346  1
  Co  Co111  1  0.24504333  0.24410203  0.50229103  1
  Co  Co112  1  0.11998982  0.62489224  0.62491047  1
  Co  Co113  1  0.25319019  0.00308455  -0.00074267  1
  Co  Co114  1  0.62563807  0.12473088  0.37918959  1
  Co  Co115  1  -0.00008743  0.75375436  0.49834909  1
  Co  Co116  1  0.13004985  0.87504724  0.37584276  1
  Co  Co117  1  -0.00171993  -0.00410940  0.25243888  1
  Co  Co118  1  0.00136777  0.49622211  0.75239134  1
  Co  Co119  1  0.37487512  0.37045167  0.37757628  1
  Co  Co120  1  0.25296416  0.00233791  0.25158010  1
  Co  Co121  1  0.49820368  0.25000972  -0.00251730  1
  Co  Co122  1  0.49817753  0.49897672  -0.00367061  1
  Co  Co123  1  -0.00443757  0.00024429  -0.00319940  1
  Co  Co124  1  0.62306419  0.62756809  0.87477607  1
  Co  Co125  1  0.00435090  0.75139051  0.00032511  1
  Co  Co126  1  0.87346069  0.37301343  0.37421388  1
  Co  Co127  1  0.50113392  -0.00008676  0.75160416  1
