# generated using pymatgen
data_Fe45Co19
_symmetry_space_group_name_H-M   'P 1'
_cell_length_a   11.41530054
_cell_length_b   11.41581089
_cell_length_c   11.41496917
_cell_angle_alpha   90.00271492
_cell_angle_beta   90.00128073
_cell_angle_gamma   90.00786732
_symmetry_Int_Tables_number   1
_chemical_formula_structural   Fe45Co19
_chemical_formula_sum   'Fe90 Co38'
_cell_volume   1487.54069021
_cell_formula_units_Z   2
loop_
 _symmetry_equiv_pos_site_id
 _symmetry_equiv_pos_as_xyz
  1  'x, y, z'
loop_
 _atom_site_type_symbol
 _atom_site_label
 _atom_site_symmetry_multiplicity
 _atom_site_fract_x
 _atom_site_fract_y
 _atom_site_fract_z
 _atom_site_occupancy
  Fe  Fe0  1  0.12611073  0.12487039  0.62637738  1
  Fe  Fe1  1  0.12388710  0.37381821  0.87359480  1
  Fe  Fe2  1  -0.00098172  0.74859170  0.24846146  1
  Fe  Fe3  1  0.50149022  0.00196126  0.75372322  1
  Fe  Fe4  1  -0.00148944  -0.00075789  0.49968900  1
  Fe  Fe5  1  0.75151601  0.49957300  -0.00237251  1
  Fe  Fe6  1  0.24810775  0.25051533  0.24680563  1
  Fe  Fe7  1  0.25166464  0.75173223  0.00308548  1
  Fe  Fe8  1  0.24976951  0.25077117  0.00210446  1
  Fe  Fe9  1  0.24956469  0.25149297  0.50055815  1
  Fe  Fe10  1  0.75033878  0.25219718  0.00185323  1
  Fe  Fe11  1  0.37560350  0.37774094  0.12630962  1
  Fe  Fe12  1  0.50090261  0.50316089  0.75322602  1
  Fe  Fe13  1  0.50185700  0.24825024  0.50136052  1
  Fe  Fe14  1  0.49809433  0.50132818  0.00130570  1
  Fe  Fe15  1  0.62546026  0.87628021  0.62568080  1
  Fe  Fe16  1  0.24895366  0.50016519  0.25001303  1
  Fe  Fe17  1  0.74721005  0.50031647  0.25065779  1
  Fe  Fe18  1  0.87450665  0.87618952  0.62601740  1
  Fe  Fe19  1  0.50064908  0.74954137  0.00528914  1
  Fe  Fe20  1  0.87217278  0.12677669  0.87536632  1
  Fe  Fe21  1  0.74977736  0.74761372  0.75169646  1
  Fe  Fe22  1  -0.00096494  0.25014671  0.50127820  1
  Fe  Fe23  1  0.87656668  0.37508620  0.86832146  1
  Fe  Fe24  1  0.12431610  0.87252110  0.62442659  1
  Fe  Fe25  1  0.87268508  0.62009626  0.62563486  1
  Fe  Fe26  1  0.12378546  0.62671411  0.37584747  1
  Fe  Fe27  1  0.00010455  0.00102173  0.75176596  1
  Fe  Fe28  1  0.37445367  0.12516380  0.62604530  1
  Fe  Fe29  1  0.12252284  0.37489122  0.62785517  1
  Fe  Fe30  1  0.24946158  0.50107010  0.75137358  1
  Fe  Fe31  1  0.37597169  0.37347460  0.37299559  1
  Fe  Fe32  1  0.50269956  0.24945199  0.24654606  1
  Fe  Fe33  1  -0.00047056  0.00122164  0.24958870  1
  Fe  Fe34  1  0.50154717  -0.00094463  0.25090687  1
  Fe  Fe35  1  0.74858654  -0.00424800  -0.00139271  1
  Fe  Fe36  1  0.74774630  -0.00019111  0.75299898  1
  Fe  Fe37  1  0.00048642  0.25073387  0.00249153  1
  Fe  Fe38  1  0.25041041  0.49916965  0.49837651  1
  Fe  Fe39  1  0.87463451  0.12278514  0.12337168  1
  Fe  Fe40  1  0.62509979  0.37373802  0.87532428  1
  Fe  Fe41  1  0.12504294  0.12610350  0.37330276  1
  Fe  Fe42  1  0.37404813  0.62322582  0.62489566  1
  Fe  Fe43  1  0.37427406  0.12574371  0.37364250  1
  Fe  Fe44  1  0.12534892  0.62720771  0.87577966  1
  Fe  Fe45  1  0.74648199  0.75020391  0.24580458  1
  Fe  Fe46  1  0.87708494  0.37659717  0.12787802  1
  Fe  Fe47  1  0.25153741  0.50024161  0.00014646  1
  Fe  Fe48  1  0.74874599  0.24957973  0.24738424  1
  Fe  Fe49  1  0.12081916  0.37468041  0.37106725  1
  Fe  Fe50  1  0.12608834  0.62518504  0.12534256  1
  Fe  Fe51  1  0.62645589  0.62733204  0.87903919  1
  Fe  Fe52  1  0.37827917  0.62719560  0.36876788  1
  Fe  Fe53  1  0.25050497  -0.00071694  0.49862161  1
  Fe  Fe54  1  0.49975849  0.74948173  0.49971344  1
  Fe  Fe55  1  0.50223438  0.00051729  -0.00246840  1
  Fe  Fe56  1  -0.00146231  0.75167319  0.00113671  1
  Fe  Fe57  1  0.62671527  0.62169611  0.62225721  1
  Fe  Fe58  1  0.62444449  0.37431493  0.37492502  1
  Fe  Fe59  1  0.37579622  0.87366303  0.87722067  1
  Fe  Fe60  1  0.24982996  -0.00398522  0.24888250  1
  Fe  Fe61  1  0.62507521  0.87388231  0.37575528  1
  Fe  Fe62  1  0.49990676  0.74859952  0.74929492  1
  Fe  Fe63  1  0.87218089  0.62517503  0.12252303  1
  Fe  Fe64  1  0.25193060  0.74985971  0.74993859  1
  Fe  Fe65  1  -0.00089287  0.74687907  0.74834875  1
  Fe  Fe66  1  0.87494787  0.87378303  0.37415773  1
  Fe  Fe67  1  0.37716351  0.37582596  0.62640364  1
  Fe  Fe68  1  0.87301539  0.62468925  0.37536154  1
  Fe  Fe69  1  0.37603505  0.87615224  0.62383623  1
  Fe  Fe70  1  0.74884568  0.00040773  0.25069121  1
  Fe  Fe71  1  0.37392478  0.12130094  0.12294940  1
  Fe  Fe72  1  0.50094522  0.00150757  0.49802006  1
  Fe  Fe73  1  0.75096838  0.75032300  0.50084440  1
  Fe  Fe74  1  0.87721572  0.37524036  0.37288844  1
  Fe  Fe75  1  -0.00063622  0.50111256  0.50083906  1
  Fe  Fe76  1  0.00280963  -0.00232950  -0.00056736  1
  Fe  Fe77  1  -0.00043922  0.49975272  -0.00029014  1
  Fe  Fe78  1  0.50355507  0.24667966  0.75003004  1
  Fe  Fe79  1  0.37570376  0.37338406  0.87353810  1
  Fe  Fe80  1  0.87220416  0.12672891  0.37687572  1
  Fe  Fe81  1  0.49982586  0.50113302  0.49615039  1
  Fe  Fe82  1  0.50066658  0.24873552  0.00144811  1
  Fe  Fe83  1  0.87538688  0.87190680  0.87491200  1
  Fe  Fe84  1  0.12270747  0.87253225  0.37605883  1
  Fe  Fe85  1  0.25108083  -0.00154780  0.75314018  1
  Fe  Fe86  1  0.87159215  0.12443273  0.62479903  1
  Fe  Fe87  1  0.25242327  0.74998872  0.49789930  1
  Fe  Fe88  1  0.12767478  0.12648067  0.87560904  1
  Fe  Fe89  1  0.74819656  0.25428858  0.50533390  1
  Co  Co90  1  0.62508638  0.62699278  0.37492468  1
  Co  Co91  1  -0.00134648  0.50465933  0.24880277  1
  Co  Co92  1  0.74975214  0.75306410  0.00214428  1
  Co  Co93  1  0.50338523  0.49823114  0.25002805  1
  Co  Co94  1  0.50304217  0.75326074  0.24645169  1
  Co  Co95  1  0.75076954  0.49658423  0.49799088  1
  Co  Co96  1  0.37303524  0.12584909  0.87665783  1
  Co  Co97  1  0.25100273  0.25098914  0.74951054  1
  Co  Co98  1  0.37461471  0.62732036  0.87589717  1
  Co  Co99  1  0.75041355  -0.00281334  0.49814063  1
  Co  Co100  1  0.62541346  0.62173450  0.12339724  1
  Co  Co101  1  0.37699605  0.87437651  0.37551354  1
  Co  Co102  1  0.62506878  0.87821907  0.12393475  1
  Co  Co103  1  0.00286182  0.50479395  0.75087712  1
  Co  Co104  1  0.87749220  0.37808037  0.63019602  1
  Co  Co105  1  0.74684423  0.25171851  0.74639727  1
  Co  Co106  1  0.12736977  0.62717466  0.62349505  1
  Co  Co107  1  0.12521479  0.12348027  0.12455226  1
  Co  Co108  1  0.12420391  0.87133978  0.87305594  1
  Co  Co109  1  0.62688770  0.12687069  0.37571077  1
  Co  Co110  1  0.74751409  0.50105025  0.75375547  1
  Co  Co111  1  0.62648307  0.12326664  0.12323241  1
  Co  Co112  1  0.62692197  0.12054134  0.62397378  1
  Co  Co113  1  0.62916928  0.12761705  0.87774640  1
  Co  Co114  1  0.12312644  0.37693777  0.12663650  1
  Co  Co115  1  -0.00106840  0.24559025  0.75032335  1
  Co  Co116  1  0.62148821  0.38076301  0.62565308  1
  Co  Co117  1  0.62588493  0.37724858  0.12273700  1
  Co  Co118  1  0.87583259  0.87630319  0.12566415  1
  Co  Co119  1  0.37558179  0.62431978  0.12955104  1
  Co  Co120  1  0.62413882  0.87104885  0.87455912  1
  Co  Co121  1  0.37542954  0.87697825  0.12322288  1
  Co  Co122  1  0.12383182  0.87376640  0.12637754  1
  Co  Co123  1  0.25047906  0.75261998  0.25027704  1
  Co  Co124  1  0.24683313  -0.00280730  -0.00154578  1
  Co  Co125  1  -0.00159842  0.24652718  0.24732212  1
  Co  Co126  1  -0.00426340  0.74905030  0.50139725  1
  Co  Co127  1  0.87525701  0.62637619  0.87675003  1
