# generated using pymatgen
data_Fe45Co19
_symmetry_space_group_name_H-M   'P 1'
_cell_length_a   11.41466399
_cell_length_b   11.41505206
_cell_length_c   11.41580316
_cell_angle_alpha   89.99875999
_cell_angle_beta   90.00356447
_cell_angle_gamma   90.00399432
_symmetry_Int_Tables_number   1
_chemical_formula_structural   Fe45Co19
_chemical_formula_sum   'Fe90 Co38'
_cell_volume   1487.46754320
_cell_formula_units_Z   2
loop_
 _symmetry_equiv_pos_site_id
 _symmetry_equiv_pos_as_xyz
  1  'x, y, z'
loop_
 _atom_site_type_symbol
 _atom_site_label
 _atom_site_symmetry_multiplicity
 _atom_site_fract_x
 _atom_site_fract_y
 _atom_site_fract_z
 _atom_site_occupancy
  Fe  Fe0  1  0.12508640  0.37128982  0.62681828  1
  Fe  Fe1  1  0.11881239  0.87702310  0.62715917  1
  Fe  Fe2  1  0.62244666  0.87899874  0.62657955  1
  Fe  Fe3  1  0.62675858  0.62535783  0.12527659  1
  Fe  Fe4  1  0.37657530  0.12167896  0.62145984  1
  Fe  Fe5  1  0.87697867  0.37546227  0.62641602  1
  Fe  Fe6  1  0.12671975  0.12621405  0.12543340  1
  Fe  Fe7  1  0.12175407  0.87354971  0.37109173  1
  Fe  Fe8  1  0.37365421  0.37506660  0.62192262  1
  Fe  Fe9  1  0.37645827  0.12491428  0.12486674  1
  Fe  Fe10  1  0.62892424  0.13128235  0.37735764  1
  Fe  Fe11  1  0.24969374  0.75099071  0.74716910  1
  Fe  Fe12  1  0.37228955  0.12514057  0.37534232  1
  Fe  Fe13  1  0.50129336  0.50046416  -0.00085251  1
  Fe  Fe14  1  0.87422071  0.62290712  0.62232580  1
  Fe  Fe15  1  0.62337253  0.37566429  0.12485441  1
  Fe  Fe16  1  0.87862893  0.87494332  0.87131765  1
  Fe  Fe17  1  0.62742661  0.12718333  0.87493694  1
  Fe  Fe18  1  0.62544087  0.62626721  0.87358816  1
  Fe  Fe19  1  0.75103841  0.75048605  0.74688474  1
  Fe  Fe20  1  0.50249075  0.00067654  0.25292620  1
  Fe  Fe21  1  0.50123757  0.50257064  0.74670341  1
  Fe  Fe22  1  0.50064792  0.49969056  0.25391469  1
  Fe  Fe23  1  0.75283674  0.75163024  0.00019154  1
  Fe  Fe24  1  0.37715603  0.87401829  0.87365133  1
  Fe  Fe25  1  0.00028059  -0.00161468  0.00065182  1
  Fe  Fe26  1  0.12639840  0.37105004  0.37298046  1
  Fe  Fe27  1  0.24962213  -0.00338259  0.24675397  1
  Fe  Fe28  1  0.12470256  0.12517275  0.62596704  1
  Fe  Fe29  1  0.24954389  0.00070389  0.75132814  1
  Fe  Fe30  1  0.62520706  0.37341980  0.87464488  1
  Fe  Fe31  1  0.75175325  0.00056574  0.49787137  1
  Fe  Fe32  1  0.62476394  0.87414508  0.12633267  1
  Fe  Fe33  1  0.12675305  0.12742950  0.87664171  1
  Fe  Fe34  1  0.62247648  0.87361328  0.87158965  1
  Fe  Fe35  1  -0.00092077  0.24957740  0.00142721  1
  Fe  Fe36  1  0.87301678  0.37297577  0.37496247  1
  Fe  Fe37  1  0.37311776  0.12695102  0.87782015  1
  Fe  Fe38  1  0.37494635  0.87384059  0.37436699  1
  Fe  Fe39  1  0.37293588  0.62528478  0.87434801  1
  Fe  Fe40  1  0.87488185  0.37460092  0.87464125  1
  Fe  Fe41  1  0.87481513  0.62308309  0.12368780  1
  Fe  Fe42  1  0.50040063  0.74904766  0.50301371  1
  Fe  Fe43  1  0.62706303  0.62520624  0.37768532  1
  Fe  Fe44  1  0.12206252  0.87197597  0.87357603  1
  Fe  Fe45  1  0.75095336  0.25184723  0.00162158  1
  Fe  Fe46  1  0.74892383  0.49911740  0.74963991  1
  Fe  Fe47  1  0.24678052  0.49900932  0.75076457  1
  Fe  Fe48  1  0.24936964  0.49890954  0.24985061  1
  Fe  Fe49  1  0.00366149  0.50080118  -0.00370750  1
  Fe  Fe50  1  0.62485886  0.37194360  0.62162657  1
  Fe  Fe51  1  0.74833950  0.49697876  0.49962979  1
  Fe  Fe52  1  0.37558543  0.37390815  0.87437948  1
  Fe  Fe53  1  0.37139258  0.62624291  0.37905966  1
  Fe  Fe54  1  -0.00008814  0.50298435  0.25344039  1
  Fe  Fe55  1  0.75101916  0.00225213  0.75099817  1
  Fe  Fe56  1  0.87461353  0.62514111  0.87404276  1
  Fe  Fe57  1  0.49940171  0.25201668  0.25136820  1
  Fe  Fe58  1  0.24881961  -0.00401074  0.00275478  1
  Fe  Fe59  1  0.75413348  0.75444560  0.50072119  1
  Fe  Fe60  1  -0.00142107  0.24698361  0.49818402  1
  Fe  Fe61  1  0.00366943  0.50278246  0.75248443  1
  Fe  Fe62  1  0.24716652  -0.00255058  0.49965283  1
  Fe  Fe63  1  0.50038276  0.24620921  0.74735272  1
  Fe  Fe64  1  0.49986680  0.74952050  0.00041086  1
  Fe  Fe65  1  0.12533839  0.62590376  0.62223721  1
  Fe  Fe66  1  0.37900614  0.87895144  0.62587007  1
  Fe  Fe67  1  0.00256924  0.49818162  0.49810953  1
  Fe  Fe68  1  0.24664611  0.49593845  0.00054503  1
  Fe  Fe69  1  0.87487938  0.12275874  0.62559827  1
  Fe  Fe70  1  -0.00211381  0.24684088  0.75282539  1
  Fe  Fe71  1  0.12606916  0.12472321  0.37321140  1
  Fe  Fe72  1  -0.00233597  0.24749955  0.24891093  1
  Fe  Fe73  1  0.87154887  0.12042877  0.12731332  1
  Fe  Fe74  1  0.25076381  0.75293846  0.00434870  1
  Fe  Fe75  1  0.62495346  0.12542426  0.12482506  1
  Fe  Fe76  1  0.37235478  0.62349480  0.62180486  1
  Fe  Fe77  1  0.75564342  0.75091128  0.25182287  1
  Fe  Fe78  1  0.74936677  0.49847998  0.25088324  1
  Fe  Fe79  1  0.87696805  0.37825330  0.12466078  1
  Fe  Fe80  1  0.49817700  0.74805894  0.24962530  1
  Fe  Fe81  1  -0.00390763  0.75250574  0.49857908  1
  Fe  Fe82  1  0.12368037  0.62785199  0.12575931  1
  Fe  Fe83  1  0.37445544  0.62303150  0.12470062  1
  Fe  Fe84  1  0.37302003  0.37443298  0.37797870  1
  Fe  Fe85  1  0.12723185  0.62967537  0.37569591  1
  Fe  Fe86  1  0.50115480  0.00028083  -0.00172324  1
  Fe  Fe87  1  0.25005596  0.25537422  0.00440206  1
  Fe  Fe88  1  0.74994300  -0.00269400  -0.00079913  1
  Fe  Fe89  1  0.62501130  0.87239444  0.37519411  1
  Co  Co90  1  0.25320902  0.24801452  0.74803967  1
  Co  Co91  1  0.00323523  0.00307968  0.24722336  1
  Co  Co92  1  0.87318048  0.12308896  0.37095433  1
  Co  Co93  1  0.38049217  0.87787550  0.12580589  1
  Co  Co94  1  0.24526523  0.49700380  0.49920941  1
  Co  Co95  1  0.50146247  0.50100733  0.49919895  1
  Co  Co96  1  -0.00102259  0.74524778  0.74761554  1
  Co  Co97  1  0.50124569  0.24998411  -0.00016693  1
  Co  Co98  1  0.74997156  0.24907915  0.74859857  1
  Co  Co99  1  0.87332532  0.12512800  0.87757018  1
  Co  Co100  1  0.24897396  0.75599898  0.50283267  1
  Co  Co101  1  -0.00676647  0.74647458  0.25207198  1
  Co  Co102  1  0.87774885  0.87896387  0.62782042  1
  Co  Co103  1  0.12835049  0.63029813  0.87705272  1
  Co  Co104  1  0.87805430  0.88199927  0.37117903  1
  Co  Co105  1  0.75497741  0.24860316  0.50318047  1
  Co  Co106  1  0.49794501  0.24917602  0.49990430  1
  Co  Co107  1  0.62894767  0.62538803  0.62190299  1
  Co  Co108  1  0.00058701  0.00511523  0.75354183  1
  Co  Co109  1  0.87204807  0.62154315  0.37982891  1
  Co  Co110  1  0.25162841  0.25140096  0.24740446  1
  Co  Co111  1  0.24857859  0.24815843  0.50061987  1
  Co  Co112  1  0.12080484  0.37597508  0.12877865  1
  Co  Co113  1  0.12003180  0.87072767  0.12831195  1
  Co  Co114  1  0.74880555  0.49985783  -0.00123010  1
  Co  Co115  1  0.75100286  0.25237290  0.24612241  1
  Co  Co116  1  0.49959718  0.74633685  0.74671345  1
  Co  Co117  1  0.12484229  0.36991002  0.87274660  1
  Co  Co118  1  0.25271738  0.75161740  0.24669879  1
  Co  Co119  1  -0.00379187  0.75068281  0.00105834  1
  Co  Co120  1  0.50179947  0.00035846  0.49419117  1
  Co  Co121  1  -0.00019677  0.00248377  0.49914583  1
  Co  Co122  1  0.62474380  0.12202226  0.62279093  1
  Co  Co123  1  0.74421481  -0.00037513  0.25251090  1
  Co  Co124  1  0.49957305  0.00511745  0.75432160  1
  Co  Co125  1  0.37839900  0.37607269  0.12539950  1
  Co  Co126  1  0.62734346  0.37215111  0.37738184  1
  Co  Co127  1  0.87500356  0.87877026  0.12938905  1
