# generated using pymatgen
data_Fe45Co19
_symmetry_space_group_name_H-M   'P 1'
_cell_length_a   11.41640651
_cell_length_b   11.41548050
_cell_length_c   11.41688145
_cell_angle_alpha   90.00138173
_cell_angle_beta   90.00003630
_cell_angle_gamma   89.99858846
_symmetry_Int_Tables_number   1
_chemical_formula_structural   Fe45Co19
_chemical_formula_sum   'Fe90 Co38'
_cell_volume   1487.89098462
_cell_formula_units_Z   2
loop_
 _symmetry_equiv_pos_site_id
 _symmetry_equiv_pos_as_xyz
  1  'x, y, z'
loop_
 _atom_site_type_symbol
 _atom_site_label
 _atom_site_symmetry_multiplicity
 _atom_site_fract_x
 _atom_site_fract_y
 _atom_site_fract_z
 _atom_site_occupancy
  Fe  Fe0  1  0.74567571  -0.00033657  0.49957437  1
  Fe  Fe1  1  0.00009317  0.50083249  0.74802349  1
  Fe  Fe2  1  0.50185039  -0.00133263  0.00021769  1
  Fe  Fe3  1  0.50476966  -0.00076239  0.25064787  1
  Fe  Fe4  1  0.74893779  0.24993781  0.75036461  1
  Fe  Fe5  1  0.00181119  0.75293784  0.49889185  1
  Fe  Fe6  1  0.87649782  0.12538598  0.87620191  1
  Fe  Fe7  1  0.87634206  0.87424894  0.62634221  1
  Fe  Fe8  1  0.87459793  0.87247886  0.12010795  1
  Fe  Fe9  1  0.12455490  0.12796144  0.88065928  1
  Fe  Fe10  1  0.12764334  0.62480668  0.87469940  1
  Fe  Fe11  1  0.37767688  0.87319995  0.12463885  1
  Fe  Fe12  1  0.75111749  -0.00192502  0.75179435  1
  Fe  Fe13  1  0.50075475  0.24580999  0.50330828  1
  Fe  Fe14  1  0.12392186  0.37534894  0.37610544  1
  Fe  Fe15  1  0.12535512  0.37350302  0.87782926  1
  Fe  Fe16  1  0.62473647  0.37487998  0.37682951  1
  Fe  Fe17  1  0.75271972  0.50163331  0.50300226  1
  Fe  Fe18  1  0.74812061  0.74776794  0.24846494  1
  Fe  Fe19  1  0.37356811  0.37524113  0.12786792  1
  Fe  Fe20  1  0.62357976  0.87390281  0.62558918  1
  Fe  Fe21  1  -0.00085791  0.24917183  0.24858756  1
  Fe  Fe22  1  0.50161427  0.50199934  0.24802912  1
  Fe  Fe23  1  0.87628992  0.62551238  0.37563618  1
  Fe  Fe24  1  0.12462715  0.12454205  0.37452644  1
  Fe  Fe25  1  0.62219493  0.38153409  0.87505524  1
  Fe  Fe26  1  0.00273598  -0.00156632  0.50051092  1
  Fe  Fe27  1  0.50376399  0.74804823  0.24720061  1
  Fe  Fe28  1  0.87441446  0.87578430  0.37421911  1
  Fe  Fe29  1  0.12388640  0.87461967  0.12199080  1
  Fe  Fe30  1  0.87489237  0.37342333  0.37761929  1
  Fe  Fe31  1  0.50283439  0.24938881  0.24829674  1
  Fe  Fe32  1  0.24826119  -0.00005844  0.24834337  1
  Fe  Fe33  1  0.00186027  -0.00261780  0.75329030  1
  Fe  Fe34  1  0.25057112  0.00206011  0.00180494  1
  Fe  Fe35  1  -0.00001794  -0.00028142  0.24659336  1
  Fe  Fe36  1  -0.00158904  0.50095485  0.24855986  1
  Fe  Fe37  1  0.00142858  0.24969615  0.74906594  1
  Fe  Fe38  1  0.75059183  0.74992867  0.50152135  1
  Fe  Fe39  1  0.25363464  0.50076406  0.00161480  1
  Fe  Fe40  1  0.37543798  0.87455314  0.87579674  1
  Fe  Fe41  1  0.37340049  0.62722758  0.62613346  1
  Fe  Fe42  1  0.37344041  0.62413154  0.37215172  1
  Fe  Fe43  1  0.24922246  0.75162351  0.25187015  1
  Fe  Fe44  1  0.49881491  0.50089557  0.50262376  1
  Fe  Fe45  1  0.75065796  0.50414230  0.74690258  1
  Fe  Fe46  1  0.37186330  0.87462363  0.62352841  1
  Fe  Fe47  1  0.37516106  0.12625256  0.87468495  1
  Fe  Fe48  1  0.37570664  0.87705798  0.37570905  1
  Fe  Fe49  1  0.87417838  0.12595745  0.62417541  1
  Fe  Fe50  1  0.12491641  0.62464759  0.37453480  1
  Fe  Fe51  1  0.12889350  0.12697633  0.62372211  1
  Fe  Fe52  1  0.74615671  0.74845556  0.75212738  1
  Fe  Fe53  1  0.25085376  0.50001983  0.74909032  1
  Fe  Fe54  1  0.50048739  0.74755030  0.75336031  1
  Fe  Fe55  1  0.37718540  0.12503241  0.12572042  1
  Fe  Fe56  1  0.87673921  0.37553629  0.87135555  1
  Fe  Fe57  1  0.12612610  0.37276778  0.12372893  1
  Fe  Fe58  1  0.74777601  0.24954755  0.25051011  1
  Fe  Fe59  1  0.12650368  0.62481843  0.12569184  1
  Fe  Fe60  1  0.87526268  0.62770598  0.87450625  1
  Fe  Fe61  1  0.25353994  0.74798230  -0.00187378  1
  Fe  Fe62  1  0.74848381  -0.00143197  -0.00173693  1
  Fe  Fe63  1  -0.00210656  0.50020695  0.50360734  1
  Fe  Fe64  1  0.25043398  0.24889026  0.25097019  1
  Fe  Fe65  1  0.24836035  -0.00073322  0.75073856  1
  Fe  Fe66  1  -0.00266965  0.50188317  0.00062888  1
  Fe  Fe67  1  0.12663278  0.37277654  0.62368106  1
  Fe  Fe68  1  0.62550890  0.62443529  0.37729182  1
  Fe  Fe69  1  0.37662482  0.37563812  0.37429594  1
  Fe  Fe70  1  0.25083943  0.50099563  0.49915666  1
  Fe  Fe71  1  0.12596822  0.62926897  0.62546220  1
  Fe  Fe72  1  0.49921425  0.24899848  0.74829769  1
  Fe  Fe73  1  0.50034574  0.25207961  0.00055898  1
  Fe  Fe74  1  0.74330446  0.74862601  -0.00279147  1
  Fe  Fe75  1  0.62788208  0.38017268  0.12316974  1
  Fe  Fe76  1  0.37590109  0.37678006  0.87341704  1
  Fe  Fe77  1  0.74939471  0.25232227  -0.00215462  1
  Fe  Fe78  1  0.00297333  0.75441520  0.75455322  1
  Fe  Fe79  1  0.37664448  0.12183660  0.37765884  1
  Fe  Fe80  1  0.87396720  0.12567262  0.37688226  1
  Fe  Fe81  1  0.74736461  -0.00016674  0.24935477  1
  Fe  Fe82  1  0.62634935  0.37544168  0.62538470  1
  Fe  Fe83  1  0.49870755  0.75084435  0.49865023  1
  Fe  Fe84  1  0.87282679  0.37756888  0.12628029  1
  Fe  Fe85  1  0.62347214  0.12423737  0.87433415  1
  Fe  Fe86  1  -0.00152374  0.75002050  0.24812976  1
  Fe  Fe87  1  0.49809892  0.00162837  0.74640410  1
  Fe  Fe88  1  0.87418263  0.12514688  0.12214430  1
  Fe  Fe89  1  0.37224190  0.37179329  0.62525204  1
  Co  Co90  1  0.50170664  0.74845404  -0.00052186  1
  Co  Co91  1  0.37754153  0.62219352  0.87297041  1
  Co  Co92  1  0.25481083  0.25020161  0.00088054  1
  Co  Co93  1  0.37350261  0.62698578  0.12861708  1
  Co  Co94  1  0.12354137  0.87519081  0.37220554  1
  Co  Co95  1  0.75554385  0.49986686  -0.00442955  1
  Co  Co96  1  0.50297312  -0.00009872  0.50248301  1
  Co  Co97  1  0.12834577  0.87570389  0.87954071  1
  Co  Co98  1  0.62029704  0.61732424  0.87693620  1
  Co  Co99  1  0.00187869  0.74726270  -0.00136014  1
  Co  Co100  1  -0.00445186  0.25259729  0.00122562  1
  Co  Co101  1  0.62404225  0.12609852  0.37439565  1
  Co  Co102  1  0.62752053  0.61932597  0.12188854  1
  Co  Co103  1  0.87398184  0.87246659  0.87751556  1
  Co  Co104  1  0.74816894  0.24961042  0.50077103  1
  Co  Co105  1  0.62203930  0.87806496  0.87270251  1
  Co  Co106  1  0.25113331  0.25037671  0.49534533  1
  Co  Co107  1  0.62520831  0.12472112  0.12243815  1
  Co  Co108  1  0.24678244  -0.00291694  0.49936538  1
  Co  Co109  1  0.00010542  0.24904626  0.50122994  1
  Co  Co110  1  0.25146199  0.75061834  0.75333922  1
  Co  Co111  1  0.87216233  0.62578316  0.12366295  1
  Co  Co112  1  0.12695853  0.87183424  0.62595810  1
  Co  Co113  1  0.49341229  0.50114855  0.00518077  1
  Co  Co114  1  0.62427563  0.87568758  0.12489714  1
  Co  Co115  1  0.62533763  0.87303377  0.37486517  1
  Co  Co116  1  0.75064397  0.50143122  0.25497070  1
  Co  Co117  1  0.36963543  0.12463477  0.62350927  1
  Co  Co118  1  0.87880364  0.63043020  0.62735738  1
  Co  Co119  1  0.87443035  0.37233838  0.62635403  1
  Co  Co120  1  0.25019689  0.75046578  0.49604775  1
  Co  Co121  1  -0.00070590  -0.00110928  -0.00158192  1
  Co  Co122  1  0.62260953  0.62635447  0.62319911  1
  Co  Co123  1  0.24905784  0.49836446  0.25057173  1
  Co  Co124  1  0.62726694  0.12385640  0.62805926  1
  Co  Co125  1  0.12437726  0.12725224  0.12250551  1
  Co  Co126  1  0.49844510  0.49997223  0.74435623  1
  Co  Co127  1  0.24974936  0.25014999  0.75324919  1
