# generated using pymatgen
data_Fe45Co19
_symmetry_space_group_name_H-M   'P 1'
_cell_length_a   11.41583259
_cell_length_b   11.41813631
_cell_length_c   11.41430579
_cell_angle_alpha   90.01111646
_cell_angle_beta   90.00458267
_cell_angle_gamma   89.99818145
_symmetry_Int_Tables_number   1
_chemical_formula_structural   Fe45Co19
_chemical_formula_sum   'Fe90 Co38'
_cell_volume   1487.82656265
_cell_formula_units_Z   2
loop_
 _symmetry_equiv_pos_site_id
 _symmetry_equiv_pos_as_xyz
  1  'x, y, z'
loop_
 _atom_site_type_symbol
 _atom_site_label
 _atom_site_symmetry_multiplicity
 _atom_site_fract_x
 _atom_site_fract_y
 _atom_site_fract_z
 _atom_site_occupancy
  Fe  Fe0  1  0.00216877  0.49904025  0.00254021  1
  Fe  Fe1  1  0.37512992  0.37590163  0.37475696  1
  Fe  Fe2  1  0.25024812  0.50132375  0.74787689  1
  Fe  Fe3  1  0.75037277  0.24937263  0.49968674  1
  Fe  Fe4  1  0.12638939  0.12726964  0.87528358  1
  Fe  Fe5  1  0.12439092  0.87344646  0.87356033  1
  Fe  Fe6  1  0.75140083  0.75028326  0.49994446  1
  Fe  Fe7  1  0.25326523  0.25021813  0.00284480  1
  Fe  Fe8  1  0.49984606  -0.00103533  0.49912941  1
  Fe  Fe9  1  0.37234459  0.87602244  0.37567374  1
  Fe  Fe10  1  0.75220256  0.24832996  0.25012975  1
  Fe  Fe11  1  0.12600282  0.37436782  0.87685420  1
  Fe  Fe12  1  0.87745784  0.62377262  0.62457994  1
  Fe  Fe13  1  0.75031101  0.25083792  0.75056841  1
  Fe  Fe14  1  0.62234346  0.62629665  0.62755581  1
  Fe  Fe15  1  0.24708556  0.00012305  0.74964716  1
  Fe  Fe16  1  0.87849959  0.62577334  0.12695771  1
  Fe  Fe17  1  0.24977000  0.24829646  0.49898772  1
  Fe  Fe18  1  0.87206113  0.37636878  0.87871125  1
  Fe  Fe19  1  0.74932730  0.74931642  0.00024086  1
  Fe  Fe20  1  0.24918403  0.49834454  0.24393595  1
  Fe  Fe21  1  0.49838994  0.75095691  0.75397130  1
  Fe  Fe22  1  0.12579770  0.13014751  0.12910099  1
  Fe  Fe23  1  0.49705439  0.24422090  0.00016485  1
  Fe  Fe24  1  0.00201565  0.75131015  0.49800874  1
  Fe  Fe25  1  0.87730118  0.12161261  0.37331113  1
  Fe  Fe26  1  0.87435905  0.87659855  0.12629825  1
  Fe  Fe27  1  0.00197241  0.49906935  0.75051350  1
  Fe  Fe28  1  0.62448993  0.37355011  0.37362550  1
  Fe  Fe29  1  0.74687640  0.49806882  0.75213103  1
  Fe  Fe30  1  0.12481823  0.62557453  0.87633998  1
  Fe  Fe31  1  0.24994328  0.74879166  0.74985041  1
  Fe  Fe32  1  0.87350045  0.37655953  0.12331150  1
  Fe  Fe33  1  0.74998178  0.50258634  0.24932125  1
  Fe  Fe34  1  0.49466140  0.24802154  0.24758625  1
  Fe  Fe35  1  0.37516266  0.87775528  0.11983283  1
  Fe  Fe36  1  0.49971123  0.49971216  0.24853270  1
  Fe  Fe37  1  0.24883973  0.74848305  0.50150435  1
  Fe  Fe38  1  0.87465407  0.87870112  0.87465138  1
  Fe  Fe39  1  0.50347516  0.50222991  -0.00249492  1
  Fe  Fe40  1  0.24830471  0.00211084  0.25090006  1
  Fe  Fe41  1  0.00665571  -0.00099987  0.49764238  1
  Fe  Fe42  1  0.75221298  0.75175587  0.75015513  1
  Fe  Fe43  1  0.37501851  0.62379171  0.37314357  1
  Fe  Fe44  1  0.87576249  0.37570660  0.62483811  1
  Fe  Fe45  1  0.12602505  0.87132261  0.12664669  1
  Fe  Fe46  1  0.25370317  0.74787303  0.24563909  1
  Fe  Fe47  1  0.00059322  0.75127198  -0.00071880  1
  Fe  Fe48  1  0.62593026  0.87344202  0.37269723  1
  Fe  Fe49  1  0.37361818  0.87462438  0.62458660  1
  Fe  Fe50  1  0.87750192  0.12283825  0.62570431  1
  Fe  Fe51  1  0.37435307  0.62533621  0.87793486  1
  Fe  Fe52  1  0.37320571  0.87947169  0.88040879  1
  Fe  Fe53  1  0.24821943  0.50039110  0.00400049  1
  Fe  Fe54  1  0.87905067  0.87772387  0.62790000  1
  Fe  Fe55  1  0.49984835  0.50129427  0.50069790  1
  Fe  Fe56  1  0.74614998  0.00076008  0.00094102  1
  Fe  Fe57  1  0.00252719  0.49880467  0.49836741  1
  Fe  Fe58  1  0.62479170  0.87527872  0.62705529  1
  Fe  Fe59  1  0.12582888  0.37064896  0.36974527  1
  Fe  Fe60  1  0.87498402  0.12188616  0.87481835  1
  Fe  Fe61  1  0.00151209  0.25060038  0.50011822  1
  Fe  Fe62  1  0.24838488  0.50145086  0.50149073  1
  Fe  Fe63  1  0.62649791  0.12611704  0.87472436  1
  Fe  Fe64  1  0.49827776  0.75051705  0.49842915  1
  Fe  Fe65  1  0.87396770  0.37740010  0.37443130  1
  Fe  Fe66  1  0.62505433  0.12446099  0.62517666  1
  Fe  Fe67  1  0.49954992  -0.00011206  0.24919477  1
  Fe  Fe68  1  0.62185470  0.37455951  0.62709465  1
  Fe  Fe69  1  0.24570844  0.00147010  0.49909274  1
  Fe  Fe70  1  0.49997502  0.00056349  0.75265924  1
  Fe  Fe71  1  0.00445888  0.00029576  0.00120874  1
  Fe  Fe72  1  0.00077342  0.25100988  0.75052804  1
  Fe  Fe73  1  0.87353921  0.62343127  0.87650003  1
  Fe  Fe74  1  0.12370996  0.62622802  0.37026160  1
  Fe  Fe75  1  0.74982767  -0.00060513  0.49984652  1
  Fe  Fe76  1  0.62479170  0.62769421  0.37331081  1
  Fe  Fe77  1  0.74836535  0.50092938  0.49961597  1
  Fe  Fe78  1  0.62578600  0.37141659  0.12205295  1
  Fe  Fe79  1  0.62368820  0.12510621  0.37335107  1
  Fe  Fe80  1  0.87453732  0.12109053  0.12689411  1
  Fe  Fe81  1  0.62385565  0.87327410  0.12544833  1
  Fe  Fe82  1  0.25156626  0.25009714  0.74944613  1
  Fe  Fe83  1  0.37730891  0.37465560  0.87556508  1
  Fe  Fe84  1  0.37599545  0.37631520  0.62560173  1
  Fe  Fe85  1  0.37454640  0.12381632  0.62490867  1
  Fe  Fe86  1  0.62168027  0.62942221  0.12584462  1
  Fe  Fe87  1  0.49869699  0.24949440  0.50020725  1
  Fe  Fe88  1  0.87445933  0.87574439  0.37116510  1
  Fe  Fe89  1  -0.00234052  0.24934271  0.00086250  1
  Co  Co90  1  0.37142199  0.12100013  0.87722147  1
  Co  Co91  1  -0.00136246  0.75251129  0.25074256  1
  Co  Co92  1  0.75300237  0.24641370  0.00032284  1
  Co  Co93  1  0.37539823  0.12346278  0.37555430  1
  Co  Co94  1  0.75179630  0.74871240  0.24968993  1
  Co  Co95  1  0.00436037  -0.00223100  0.24915278  1
  Co  Co96  1  0.37847724  0.37757853  0.12111230  1
  Co  Co97  1  0.62730578  0.87499163  0.87503704  1
  Co  Co98  1  0.49492962  0.75256109  0.25079387  1
  Co  Co99  1  0.87672895  0.62451876  0.37538388  1
  Co  Co100  1  0.24211282  0.00018506  0.00090105  1
  Co  Co101  1  0.50469320  0.00228326  -0.00053879  1
  Co  Co102  1  0.00115996  0.49798064  0.24859447  1
  Co  Co103  1  0.12603466  0.37472324  0.62561533  1
  Co  Co104  1  0.12427098  0.13003741  0.36988144  1
  Co  Co105  1  0.37220075  0.11840759  0.12230779  1
  Co  Co106  1  0.62752639  0.62717942  0.87367151  1
  Co  Co107  1  0.49961761  0.75137038  -0.00318004  1
  Co  Co108  1  0.12425216  0.87302519  0.62766469  1
  Co  Co109  1  0.62474864  0.37120549  0.87905492  1
  Co  Co110  1  0.37814466  0.62476866  0.12193121  1
  Co  Co111  1  0.74715462  0.50354180  0.00292913  1
  Co  Co112  1  0.62565848  0.12695995  0.12715316  1
  Co  Co113  1  0.25843325  0.25145592  0.24748949  1
  Co  Co114  1  0.24927691  0.74959804  0.00064957  1
  Co  Co115  1  0.12258902  0.62743725  0.12498363  1
  Co  Co116  1  0.12380297  0.36994142  0.12520992  1
  Co  Co117  1  0.12475588  0.12600350  0.62586428  1
  Co  Co118  1  0.12228452  0.62631436  0.62596821  1
  Co  Co119  1  0.37670235  0.62603343  0.62500568  1
  Co  Co120  1  0.49819282  0.24751939  0.75169114  1
  Co  Co121  1  0.74915927  0.00083495  0.74953149  1
  Co  Co122  1  -0.00619661  0.25151178  0.24850801  1
  Co  Co123  1  0.49947877  0.50100254  0.75325786  1
  Co  Co124  1  0.00397655  0.00180524  0.75225985  1
  Co  Co125  1  0.12902887  0.87200958  0.37201824  1
  Co  Co126  1  0.74762452  -0.00028121  0.25029230  1
  Co  Co127  1  -0.00186334  0.74888655  0.75311177  1
