# generated using pymatgen
data_Fe45Co19
_symmetry_space_group_name_H-M   'P 1'
_cell_length_a   11.41560427
_cell_length_b   11.41516142
_cell_length_c   11.41454074
_cell_angle_alpha   90.00329210
_cell_angle_beta   90.00143869
_cell_angle_gamma   90.00637887
_symmetry_Int_Tables_number   1
_chemical_formula_structural   Fe45Co19
_chemical_formula_sum   'Fe90 Co38'
_cell_volume   1487.43981092
_cell_formula_units_Z   2
loop_
 _symmetry_equiv_pos_site_id
 _symmetry_equiv_pos_as_xyz
  1  'x, y, z'
loop_
 _atom_site_type_symbol
 _atom_site_label
 _atom_site_symmetry_multiplicity
 _atom_site_fract_x
 _atom_site_fract_y
 _atom_site_fract_z
 _atom_site_occupancy
  Fe  Fe0  1  0.74975197  0.75561557  0.24818126  1
  Fe  Fe1  1  0.12982923  0.12552696  0.62828372  1
  Fe  Fe2  1  0.12672008  0.87569447  0.12282511  1
  Fe  Fe3  1  0.37514764  0.62420459  0.12623115  1
  Fe  Fe4  1  0.12212915  0.37596257  0.62252846  1
  Fe  Fe5  1  0.87165556  0.12302875  0.62655468  1
  Fe  Fe6  1  0.75056737  0.49682926  0.74891722  1
  Fe  Fe7  1  0.12572080  0.62474523  0.37461217  1
  Fe  Fe8  1  0.62592041  0.62361264  0.12222614  1
  Fe  Fe9  1  0.75020380  0.49899322  0.24861740  1
  Fe  Fe10  1  0.87167346  0.12335534  0.12560686  1
  Fe  Fe11  1  0.24831182  0.49828903  0.74853012  1
  Fe  Fe12  1  0.62410553  0.37510747  0.37793297  1
  Fe  Fe13  1  -0.00215727  0.75079961  0.49976800  1
  Fe  Fe14  1  0.37560250  0.12777687  0.12707119  1
  Fe  Fe15  1  0.50041514  0.24846884  -0.00110258  1
  Fe  Fe16  1  0.87671774  0.37407980  0.12696725  1
  Fe  Fe17  1  0.12948921  0.12784095  0.12478371  1
  Fe  Fe18  1  0.25305645  0.00254190  0.50109716  1
  Fe  Fe19  1  0.49851286  0.00168853  0.74898415  1
  Fe  Fe20  1  0.62251806  0.12396064  0.37513780  1
  Fe  Fe21  1  0.37171762  0.87080131  0.87353852  1
  Fe  Fe22  1  -0.00035308  0.24793110  0.00123463  1
  Fe  Fe23  1  0.87567841  0.37168787  0.37448411  1
  Fe  Fe24  1  0.12549787  0.87635002  0.62298544  1
  Fe  Fe25  1  -0.00160626  0.75210313  0.24922530  1
  Fe  Fe26  1  0.87284379  0.62725037  0.37327368  1
  Fe  Fe27  1  0.24983957  0.75096177  0.24931070  1
  Fe  Fe28  1  0.25190445  0.49973393  0.00095564  1
  Fe  Fe29  1  0.37426888  0.62382528  0.37527292  1
  Fe  Fe30  1  0.25216724  -0.00069636  0.24902165  1
  Fe  Fe31  1  0.62345070  0.87443474  0.87569459  1
  Fe  Fe32  1  0.12421272  0.62279775  0.12635886  1
  Fe  Fe33  1  0.62543059  0.37638050  0.87772326  1
  Fe  Fe34  1  0.50172457  0.74995467  0.25017666  1
  Fe  Fe35  1  0.37564790  0.12776249  0.37370509  1
  Fe  Fe36  1  0.00093635  0.24985048  0.74976104  1
  Fe  Fe37  1  0.24926996  0.49587729  0.25106964  1
  Fe  Fe38  1  0.37605496  0.37468395  0.87467541  1
  Fe  Fe39  1  0.00133336  -0.00012038  0.75060940  1
  Fe  Fe40  1  -0.00053030  0.24639793  0.50115867  1
  Fe  Fe41  1  0.74725427  0.24911607  0.24881814  1
  Fe  Fe42  1  0.49862716  0.74391304  -0.00487116  1
  Fe  Fe43  1  0.25043350  0.74846490  0.50109715  1
  Fe  Fe44  1  0.62420604  0.37408395  0.12162931  1
  Fe  Fe45  1  0.37517694  0.87450863  0.62619238  1
  Fe  Fe46  1  0.87665670  0.62281855  0.62693848  1
  Fe  Fe47  1  0.87495515  0.37387648  0.87400961  1
  Fe  Fe48  1  0.12769675  0.62558650  0.87435097  1
  Fe  Fe49  1  0.50114583  0.50166483  0.75331939  1
  Fe  Fe50  1  0.37527953  0.62391056  0.62695685  1
  Fe  Fe51  1  0.62652205  0.12601554  0.87356383  1
  Fe  Fe52  1  0.12665694  0.12548206  0.37405724  1
  Fe  Fe53  1  0.12282288  0.37283707  0.37484729  1
  Fe  Fe54  1  0.50114230  0.49849911  0.25052659  1
  Fe  Fe55  1  0.37682026  0.37380392  0.37848443  1
  Fe  Fe56  1  0.50077069  0.74893346  0.50162763  1
  Fe  Fe57  1  0.37640409  0.37262458  0.12461684  1
  Fe  Fe58  1  -0.00245515  0.50017802  0.49693382  1
  Fe  Fe59  1  0.74800669  0.00039291  0.00024123  1
  Fe  Fe60  1  0.37746903  0.37425130  0.62441913  1
  Fe  Fe61  1  0.49784844  0.00263010  -0.00178770  1
  Fe  Fe62  1  0.12281447  0.62285162  0.62478294  1
  Fe  Fe63  1  -0.00059235  0.74870027  0.00094831  1
  Fe  Fe64  1  0.87379913  0.87910431  0.62160630  1
  Fe  Fe65  1  0.36940492  0.12788919  0.86994149  1
  Fe  Fe66  1  -0.00018078  -0.00018479  0.24924179  1
  Fe  Fe67  1  0.74860193  0.75310155  0.74811404  1
  Fe  Fe68  1  0.74731820  0.25238543  0.74787437  1
  Fe  Fe69  1  0.62495147  0.62340525  0.62582724  1
  Fe  Fe70  1  -0.00335800  0.50128582  0.00066725  1
  Fe  Fe71  1  0.00066451  0.75184558  0.75003815  1
  Fe  Fe72  1  0.87302390  0.62506779  0.87264625  1
  Fe  Fe73  1  0.62663205  0.62634649  0.37622128  1
  Fe  Fe74  1  0.50149226  0.24616441  0.50512240  1
  Fe  Fe75  1  0.75082314  0.74980473  0.00056040  1
  Fe  Fe76  1  0.74827140  0.25005643  0.50370936  1
  Fe  Fe77  1  0.87424845  0.12543144  0.87363846  1
  Fe  Fe78  1  0.00238651  0.00288998  -0.00068570  1
  Fe  Fe79  1  0.12413932  0.37399823  0.87793269  1
  Fe  Fe80  1  0.12448950  0.87674806  0.37689696  1
  Fe  Fe81  1  0.37664414  0.87366311  0.12243999  1
  Fe  Fe82  1  0.75097656  0.49875712  0.50201760  1
  Fe  Fe83  1  0.37667026  0.87418962  0.37577481  1
  Fe  Fe84  1  0.50253195  -0.00229021  0.24973707  1
  Fe  Fe85  1  0.12889058  0.87479976  0.87701444  1
  Fe  Fe86  1  0.87564763  0.12413149  0.37393212  1
  Fe  Fe87  1  0.62524618  0.88021205  0.62145197  1
  Fe  Fe88  1  0.74602727  -0.00437574  0.25009677  1
  Fe  Fe89  1  0.87589270  0.87622234  0.87710230  1
  Co  Co90  1  0.50246381  0.25249157  0.25044731  1
  Co  Co91  1  0.62077532  0.87379265  0.11972168  1
  Co  Co92  1  0.24954650  -0.00332062  0.75041856  1
  Co  Co93  1  0.25099418  0.25049619  -0.00020790  1
  Co  Co94  1  0.12288541  0.37506385  0.12424986  1
  Co  Co95  1  0.87471233  0.62610710  0.12724066  1
  Co  Co96  1  0.49814157  0.50226049  -0.00149739  1
  Co  Co97  1  0.37088634  0.62603990  0.87032153  1
  Co  Co98  1  0.62375283  0.12504535  0.12434059  1
  Co  Co99  1  0.62086681  0.37713942  0.62456859  1
  Co  Co100  1  0.87574299  0.87762555  0.12265061  1
  Co  Co101  1  0.62802383  0.12029388  0.62676462  1
  Co  Co102  1  0.00062291  0.24735225  0.24803828  1
  Co  Co103  1  -0.00112239  0.49998376  0.25186554  1
  Co  Co104  1  0.25104618  0.74781608  0.00233365  1
  Co  Co105  1  0.24987760  0.25336431  0.25129579  1
  Co  Co106  1  0.50367856  0.75026573  0.74977192  1
  Co  Co107  1  0.49563586  0.00332063  0.50166957  1
  Co  Co108  1  0.62311655  0.87346887  0.37967508  1
  Co  Co109  1  0.87665679  0.87625767  0.37653435  1
  Co  Co110  1  0.75407318  0.49905974  0.00131807  1
  Co  Co111  1  0.12782400  0.12628246  0.87290960  1
  Co  Co112  1  0.74987362  0.00206502  0.49405619  1
  Co  Co113  1  0.24989083  0.25019545  0.50013986  1
  Co  Co114  1  0.50319090  0.24906665  0.75003355  1
  Co  Co115  1  0.62956073  0.62272482  0.87441674  1
  Co  Co116  1  0.75057230  0.74960499  0.50296721  1
  Co  Co117  1  0.50066750  0.50250387  0.49864097  1
  Co  Co118  1  0.87857401  0.37503639  0.62499720  1
  Co  Co119  1  0.75066663  0.24943437  0.00025058  1
  Co  Co120  1  0.24785314  0.25673338  0.75034220  1
  Co  Co121  1  0.24707054  0.74940615  0.74669041  1
  Co  Co122  1  0.00105434  0.49936217  0.75307986  1
  Co  Co123  1  0.75024292  -0.00205372  0.75387201  1
  Co  Co124  1  0.37146100  0.12872944  0.63005316  1
  Co  Co125  1  0.25242079  0.00183300  -0.00016896  1
  Co  Co126  1  0.00087530  0.00368404  0.50133455  1
  Co  Co127  1  0.24954604  0.49958416  0.50025226  1
