# generated using pymatgen
data_Fe45Co19
_symmetry_space_group_name_H-M   'P 1'
_cell_length_a   11.41298192
_cell_length_b   11.41195749
_cell_length_c   11.41301570
_cell_angle_alpha   89.98750472
_cell_angle_beta   90.00987087
_cell_angle_gamma   89.99884331
_symmetry_Int_Tables_number   1
_chemical_formula_structural   Fe45Co19
_chemical_formula_sum   'Fe90 Co38'
_cell_volume   1486.48206088
_cell_formula_units_Z   2
loop_
 _symmetry_equiv_pos_site_id
 _symmetry_equiv_pos_as_xyz
  1  'x, y, z'
loop_
 _atom_site_type_symbol
 _atom_site_label
 _atom_site_symmetry_multiplicity
 _atom_site_fract_x
 _atom_site_fract_y
 _atom_site_fract_z
 _atom_site_occupancy
  Fe  Fe0  1  0.87611742  0.37413351  0.62458929  1
  Fe  Fe1  1  0.37518880  0.12088604  0.37721647  1
  Fe  Fe2  1  0.74999702  -0.00182039  0.00069799  1
  Fe  Fe3  1  0.25049763  0.24849416  0.50057639  1
  Fe  Fe4  1  0.12618726  0.12376748  0.37427065  1
  Fe  Fe5  1  0.37436233  0.37569261  0.12453366  1
  Fe  Fe6  1  0.62441870  0.62585851  0.62466061  1
  Fe  Fe7  1  0.62497817  0.12337275  0.87578861  1
  Fe  Fe8  1  0.49925375  0.50225480  0.49950475  1
  Fe  Fe9  1  0.37388304  0.37739274  0.87623854  1
  Fe  Fe10  1  0.00146420  0.25075145  0.75134624  1
  Fe  Fe11  1  0.25013867  0.50305191  0.49761152  1
  Fe  Fe12  1  0.87547153  0.37439518  0.87753570  1
  Fe  Fe13  1  0.00056577  -0.00362549  0.74974204  1
  Fe  Fe14  1  0.75135081  0.75141396  0.00015679  1
  Fe  Fe15  1  0.00099974  0.50072056  0.75015791  1
  Fe  Fe16  1  0.87605524  0.12574135  0.62355339  1
  Fe  Fe17  1  0.49971143  0.50179514  0.24896315  1
  Fe  Fe18  1  0.12578913  0.87470288  0.37730760  1
  Fe  Fe19  1  -0.00075625  0.50268772  0.50023106  1
  Fe  Fe20  1  0.12813100  0.62915435  0.12851586  1
  Fe  Fe21  1  -0.00128752  0.75281866  0.00185768  1
  Fe  Fe22  1  0.37527759  0.37622733  0.62549476  1
  Fe  Fe23  1  0.49901247  -0.00150956  0.74806277  1
  Fe  Fe24  1  0.50010657  0.74942472  -0.00023584  1
  Fe  Fe25  1  0.87520681  0.37508806  0.37357708  1
  Fe  Fe26  1  0.87439163  0.12421063  0.87621693  1
  Fe  Fe27  1  0.74583291  -0.00215404  0.49982372  1
  Fe  Fe28  1  0.49796770  0.24967136  0.24973554  1
  Fe  Fe29  1  0.25046797  0.24770687  -0.00060625  1
  Fe  Fe30  1  0.74631571  0.74786475  0.25063110  1
  Fe  Fe31  1  0.62261251  0.12447841  0.12522333  1
  Fe  Fe32  1  0.24926406  -0.00569359  0.74911039  1
  Fe  Fe33  1  0.12526127  0.37443909  0.62371296  1
  Fe  Fe34  1  -0.00019004  0.75253163  0.74969199  1
  Fe  Fe35  1  0.49903779  0.25024168  0.74988001  1
  Fe  Fe36  1  0.62514827  0.37706634  0.37439336  1
  Fe  Fe37  1  0.87180330  0.87770778  0.37059093  1
  Fe  Fe38  1  0.37242149  0.62957334  0.12824179  1
  Fe  Fe39  1  0.75077050  0.25026714  0.24786888  1
  Fe  Fe40  1  0.74901273  0.25173513  0.75049131  1
  Fe  Fe41  1  0.25025584  0.24952745  0.75169577  1
  Fe  Fe42  1  0.62468538  0.37633263  0.12394964  1
  Fe  Fe43  1  0.74756696  0.75061921  0.49842596  1
  Fe  Fe44  1  0.24993427  0.50302019  0.00090387  1
  Fe  Fe45  1  0.37458006  0.37553647  0.37478335  1
  Fe  Fe46  1  0.50123455  0.50153812  0.75114625  1
  Fe  Fe47  1  0.37379395  0.62695465  0.87372357  1
  Fe  Fe48  1  0.37503314  0.11974935  0.87695156  1
  Fe  Fe49  1  0.62544593  0.87523538  0.12695125  1
  Fe  Fe50  1  0.49877247  0.24817282  -0.00040583  1
  Fe  Fe51  1  0.00146116  0.24992575  0.00005816  1
  Fe  Fe52  1  0.75035173  0.74907878  0.75024954  1
  Fe  Fe53  1  0.87401084  0.62471294  0.37330340  1
  Fe  Fe54  1  0.25307787  -0.00595014  0.24892057  1
  Fe  Fe55  1  0.49699703  -0.00456648  0.24898427  1
  Fe  Fe56  1  0.62370171  0.12367923  0.37351262  1
  Fe  Fe57  1  0.87493572  0.12318568  0.37472062  1
  Fe  Fe58  1  0.12519658  0.37623403  0.37424053  1
  Fe  Fe59  1  0.74903835  0.25090586  0.50024075  1
  Fe  Fe60  1  0.62399465  0.87406651  0.87336943  1
  Fe  Fe61  1  0.24820434  0.50193958  0.74932640  1
  Fe  Fe62  1  0.37615901  0.87658327  0.61857416  1
  Fe  Fe63  1  0.12518727  0.12433667  0.62473933  1
  Fe  Fe64  1  0.87501733  0.87336246  0.62411902  1
  Fe  Fe65  1  0.25179625  0.24934788  0.24977593  1
  Fe  Fe66  1  0.37708885  0.62973806  0.37307017  1
  Fe  Fe67  1  0.49876657  0.24818370  0.50151061  1
  Fe  Fe68  1  0.00147173  0.75230112  0.25122854  1
  Fe  Fe69  1  0.12675400  0.37567333  0.12531328  1
  Fe  Fe70  1  0.12539358  0.12091190  0.87561950  1
  Fe  Fe71  1  0.62442270  0.37642545  0.87867715  1
  Fe  Fe72  1  -0.00066102  0.50125870  0.24787585  1
  Fe  Fe73  1  0.75220987  0.50156098  0.00166477  1
  Fe  Fe74  1  0.00052983  -0.00103607  0.49951222  1
  Fe  Fe75  1  0.49698292  0.75003644  0.74830853  1
  Fe  Fe76  1  0.62554372  0.62355622  0.12494907  1
  Fe  Fe77  1  0.24947059  0.74909768  0.49899537  1
  Fe  Fe78  1  0.00065301  0.50185617  0.00138777  1
  Fe  Fe79  1  0.12675466  0.62963826  0.87377232  1
  Fe  Fe80  1  0.75085385  -0.00102649  0.74940741  1
  Fe  Fe81  1  0.12351651  0.62963653  0.62355922  1
  Fe  Fe82  1  0.87538699  0.62675906  0.87527567  1
  Fe  Fe83  1  0.62445589  0.12533207  0.62618492  1
  Fe  Fe84  1  0.74919655  0.50064967  0.74972584  1
  Fe  Fe85  1  -0.00018049  0.24867743  0.25027509  1
  Fe  Fe86  1  0.75045236  0.50086688  0.50115483  1
  Fe  Fe87  1  0.12732425  0.12139112  0.12602580  1
  Fe  Fe88  1  0.87554737  0.12249828  0.12564570  1
  Fe  Fe89  1  -0.00017626  -0.00570144  0.00169763  1
  Co  Co90  1  0.50200117  0.75127397  0.24897558  1
  Co  Co91  1  0.12344926  0.87133429  0.62245765  1
  Co  Co92  1  0.50252107  -0.00193161  0.00157728  1
  Co  Co93  1  0.25122809  0.50104062  0.25098361  1
  Co  Co94  1  0.62516017  0.87304639  0.62774318  1
  Co  Co95  1  0.62257206  0.37622131  0.62383443  1
  Co  Co96  1  0.62306772  0.87597232  0.37270929  1
  Co  Co97  1  0.87410130  0.87438115  0.87399905  1
  Co  Co98  1  0.12745670  0.87283368  0.12443992  1
  Co  Co99  1  0.37805524  0.87385429  0.38051768  1
  Co  Co100  1  0.12425804  0.62542891  0.37374585  1
  Co  Co101  1  0.50424470  0.74983148  0.50030950  1
  Co  Co102  1  0.50504209  0.00083453  0.50072402  1
  Co  Co103  1  -0.00311821  0.75162465  0.49530152  1
  Co  Co104  1  0.74744939  0.00281503  0.24885234  1
  Co  Co105  1  0.37385034  0.12274767  0.62539374  1
  Co  Co106  1  0.37483022  0.12249710  0.12420909  1
  Co  Co107  1  0.87311431  0.87509879  0.13033552  1
  Co  Co108  1  0.25350533  0.75395089  0.74736833  1
  Co  Co109  1  0.00138203  0.24891273  0.49836504  1
  Co  Co110  1  0.87633807  0.37372411  0.12400310  1
  Co  Co111  1  0.74888404  0.24807550  0.00200836  1
  Co  Co112  1  0.49713406  0.50399758  0.00099970  1
  Co  Co113  1  0.00321678  -0.00142427  0.25029745  1
  Co  Co114  1  0.12615869  0.37604920  0.87730126  1
  Co  Co115  1  0.25040164  0.75027191  -0.00192260  1
  Co  Co116  1  0.12614621  0.87259856  0.87585960  1
  Co  Co117  1  0.37618537  0.87582283  0.87855959  1
  Co  Co118  1  0.87505501  0.62765027  0.62556158  1
  Co  Co119  1  0.87516719  0.62868115  0.12667381  1
  Co  Co120  1  0.24720431  -0.00012214  0.49984738  1
  Co  Co121  1  0.62471345  0.62261593  0.37496010  1
  Co  Co122  1  0.75067300  0.50008543  0.24766264  1
  Co  Co123  1  0.24933160  -0.00203852  0.00093676  1
  Co  Co124  1  0.25014953  0.75555292  0.25440989  1
  Co  Co125  1  0.37510803  0.62443655  0.62408827  1
  Co  Co126  1  0.37414483  0.87132791  0.12173751  1
  Co  Co127  1  0.62538759  0.62659664  0.87511500  1
