# generated using pymatgen
data_Fe45Co19
_symmetry_space_group_name_H-M   'P 1'
_cell_length_a   11.41557967
_cell_length_b   11.41627515
_cell_length_c   11.41345764
_cell_angle_alpha   89.99425317
_cell_angle_beta   90.00525849
_cell_angle_gamma   89.99909980
_symmetry_Int_Tables_number   1
_chemical_formula_structural   Fe45Co19
_chemical_formula_sum   'Fe90 Co38'
_cell_volume   1487.44057576
_cell_formula_units_Z   2
loop_
 _symmetry_equiv_pos_site_id
 _symmetry_equiv_pos_as_xyz
  1  'x, y, z'
loop_
 _atom_site_type_symbol
 _atom_site_label
 _atom_site_symmetry_multiplicity
 _atom_site_fract_x
 _atom_site_fract_y
 _atom_site_fract_z
 _atom_site_occupancy
  Fe  Fe0  1  0.37426819  0.37474431  0.87437699  1
  Fe  Fe1  1  0.87350492  0.37543221  0.12406321  1
  Fe  Fe2  1  0.87650988  0.12363484  0.87300830  1
  Fe  Fe3  1  0.37493608  0.87705143  0.87467848  1
  Fe  Fe4  1  0.62624817  0.37368729  0.38016030  1
  Fe  Fe5  1  0.37515721  0.12372018  0.12517080  1
  Fe  Fe6  1  0.50171879  0.49985538  0.25045577  1
  Fe  Fe7  1  -0.00061488  0.75012561  0.25110719  1
  Fe  Fe8  1  0.87503912  0.37363701  0.37611525  1
  Fe  Fe9  1  0.87543693  0.37393124  0.62466731  1
  Fe  Fe10  1  0.24754697  -0.00111045  0.25505515  1
  Fe  Fe11  1  0.12808148  0.37396248  0.87744147  1
  Fe  Fe12  1  0.87585215  0.12414565  0.12620985  1
  Fe  Fe13  1  0.12496830  0.87816718  0.62115569  1
  Fe  Fe14  1  -0.00079886  0.75296190  0.74996970  1
  Fe  Fe15  1  0.00270897  0.25264675  0.25009181  1
  Fe  Fe16  1  0.74917482  0.50068921  0.25091225  1
  Fe  Fe17  1  0.87553578  0.87727461  0.37905747  1
  Fe  Fe18  1  0.00057050  0.75000090  -0.00183172  1
  Fe  Fe19  1  0.37180565  0.37857619  0.37786814  1
  Fe  Fe20  1  0.62350810  0.12387470  0.87396838  1
  Fe  Fe21  1  0.49568291  0.50288339  0.50310286  1
  Fe  Fe22  1  0.62652134  0.62506086  0.87305616  1
  Fe  Fe23  1  0.50128143  0.75014477  0.25091738  1
  Fe  Fe24  1  -0.00180888  0.74923981  0.50122777  1
  Fe  Fe25  1  0.00111854  0.49883533  0.50134705  1
  Fe  Fe26  1  0.37617488  0.12398746  0.87295110  1
  Fe  Fe27  1  0.87316781  0.62387958  0.12455674  1
  Fe  Fe28  1  0.50111965  0.75084603  -0.00144446  1
  Fe  Fe29  1  0.74766639  0.24898769  0.25259774  1
  Fe  Fe30  1  0.37456455  0.87686353  0.12377754  1
  Fe  Fe31  1  0.49881572  0.24982497  0.74705491  1
  Fe  Fe32  1  0.74957199  -0.00067076  -0.00156735  1
  Fe  Fe33  1  0.24874929  0.75004083  0.25010626  1
  Fe  Fe34  1  0.24730121  0.00304390  -0.00344996  1
  Fe  Fe35  1  0.00147379  0.25301158  0.75094590  1
  Fe  Fe36  1  0.62619578  0.37562767  0.12343882  1
  Fe  Fe37  1  0.62185852  0.12595152  0.61875461  1
  Fe  Fe38  1  0.75040230  0.50045864  0.74683013  1
  Fe  Fe39  1  0.49965210  -0.00109777  0.74727689  1
  Fe  Fe40  1  0.49756084  0.74835600  0.50170170  1
  Fe  Fe41  1  0.25092038  0.74625425  0.50041808  1
  Fe  Fe42  1  0.12397191  0.62409656  0.12421977  1
  Fe  Fe43  1  0.24926562  0.74771725  -0.00134991  1
  Fe  Fe44  1  0.62572677  0.62502277  0.37890677  1
  Fe  Fe45  1  0.49992156  0.24991811  -0.00114029  1
  Fe  Fe46  1  0.37610489  0.12513775  0.37849893  1
  Fe  Fe47  1  0.37310875  0.62451389  0.87167228  1
  Fe  Fe48  1  0.87617829  0.62410814  0.87255691  1
  Fe  Fe49  1  0.12565282  0.12589273  0.12594744  1
  Fe  Fe50  1  0.37347401  0.87296096  0.37593528  1
  Fe  Fe51  1  0.62357925  0.87559395  0.12431936  1
  Fe  Fe52  1  0.75056954  -0.00008298  0.74788625  1
  Fe  Fe53  1  0.87424600  0.62350677  0.37757085  1
  Fe  Fe54  1  0.12464562  0.87558524  0.12409697  1
  Fe  Fe55  1  0.74904329  0.75101480  -0.00081075  1
  Fe  Fe56  1  0.00175779  0.49742993  0.25032670  1
  Fe  Fe57  1  0.75321145  0.75020874  0.74614660  1
  Fe  Fe58  1  0.24689634  0.49846927  0.24949939  1
  Fe  Fe59  1  0.12579926  0.62417351  0.37544127  1
  Fe  Fe60  1  0.00075403  0.24891123  -0.00024834  1
  Fe  Fe61  1  0.00155681  -0.00353276  0.75156164  1
  Fe  Fe62  1  0.50140742  0.50045042  0.74784458  1
  Fe  Fe63  1  0.37681310  0.62461151  0.12674422  1
  Fe  Fe64  1  0.24689871  0.75274813  0.75092309  1
  Fe  Fe65  1  0.24942159  0.25249619  0.25015594  1
  Fe  Fe66  1  0.25223093  0.25082029  0.50373494  1
  Fe  Fe67  1  0.62310832  0.12451484  0.12542837  1
  Fe  Fe68  1  0.74821581  0.00159148  0.25270947  1
  Fe  Fe69  1  0.12305324  0.62342393  0.62784278  1
  Fe  Fe70  1  0.50064344  0.75109802  0.74866417  1
  Fe  Fe71  1  0.00094767  0.49965849  -0.00219108  1
  Fe  Fe72  1  0.87205633  0.37512037  0.87455316  1
  Fe  Fe73  1  0.74875019  0.24902594  0.74809553  1
  Fe  Fe74  1  0.24728173  0.49781120  0.74731556  1
  Fe  Fe75  1  0.49989710  -0.00004542  0.25289359  1
  Fe  Fe76  1  0.37305290  0.37520380  0.12248137  1
  Fe  Fe77  1  0.87674250  0.87706599  0.12458377  1
  Fe  Fe78  1  0.49991223  0.25088229  0.25244353  1
  Fe  Fe79  1  0.00405495  -0.00005689  0.25452006  1
  Fe  Fe80  1  0.62853291  0.87486200  0.62219242  1
  Fe  Fe81  1  0.62489115  0.37380702  0.62227490  1
  Fe  Fe82  1  0.75001654  0.74978352  0.25163806  1
  Fe  Fe83  1  0.25126440  0.24902537  0.74821361  1
  Fe  Fe84  1  -0.00246570  0.24600073  0.50026538  1
  Fe  Fe85  1  0.50191282  0.50042781  -0.00134645  1
  Fe  Fe86  1  0.74871438  0.24954508  -0.00151739  1
  Fe  Fe87  1  0.12555224  0.12331545  0.62566131  1
  Fe  Fe88  1  0.62774938  0.87673163  0.38016812  1
  Fe  Fe89  1  0.37159648  0.87652602  0.62476727  1
  Co  Co90  1  0.12615475  0.37451813  0.12141729  1
  Co  Co91  1  0.62593300  0.87504284  0.87178174  1
  Co  Co92  1  0.62536068  0.62633038  0.62344667  1
  Co  Co93  1  0.49581977  0.25310903  0.50028796  1
  Co  Co94  1  0.25073829  0.24603436  -0.00090650  1
  Co  Co95  1  0.62483748  0.37494397  0.87252668  1
  Co  Co96  1  0.12490262  0.62431724  0.87177960  1
  Co  Co97  1  0.62542568  0.62587785  0.12530992  1
  Co  Co98  1  0.24899749  -0.00009343  0.49691065  1
  Co  Co99  1  0.00154612  0.00175513  -0.00108244  1
  Co  Co100  1  0.74905692  0.50050133  -0.00138667  1
  Co  Co101  1  0.62166838  0.12569144  0.37979679  1
  Co  Co102  1  0.25037969  0.50268787  -0.00027963  1
  Co  Co103  1  0.12388664  0.87112615  0.37831154  1
  Co  Co104  1  0.75351930  0.74826906  0.50190514  1
  Co  Co105  1  0.37524549  0.37681103  0.62658233  1
  Co  Co106  1  0.37287224  0.62632992  0.63015012  1
  Co  Co107  1  0.75461169  0.00683167  0.50099842  1
  Co  Co108  1  0.12282294  0.12658964  0.87124704  1
  Co  Co109  1  0.37438261  0.12164600  0.62305522  1
  Co  Co110  1  0.24986587  0.50299094  0.50366240  1
  Co  Co111  1  0.00045857  0.49608012  0.75129051  1
  Co  Co112  1  0.50090127  -0.00024679  -0.00128769  1
  Co  Co113  1  0.12589903  0.37381951  0.37923291  1
  Co  Co114  1  0.49783766  -0.00400836  0.50045252  1
  Co  Co115  1  0.12456592  0.87461310  0.87708738  1
  Co  Co116  1  0.12711680  0.13004913  0.37695413  1
  Co  Co117  1  0.87581854  0.87755531  0.62203018  1
  Co  Co118  1  0.75446392  0.24559596  0.50081017  1
  Co  Co119  1  0.24927346  0.00019592  0.75143023  1
  Co  Co120  1  0.37387946  0.62403466  0.37214946  1
  Co  Co121  1  0.87953614  0.12445008  0.63115024  1
  Co  Co122  1  0.87854004  0.62255387  0.62570845  1
  Co  Co123  1  -0.00026528  0.00434103  0.49769215  1
  Co  Co124  1  0.75204744  0.49925647  0.50256926  1
  Co  Co125  1  0.87611346  0.12557862  0.36970137  1
  Co  Co126  1  0.87504456  0.87590172  0.87509894  1
  Co  Co127  1  0.12387586  0.37329017  0.62301650  1
