# generated using pymatgen
data_Fe45Co19
_symmetry_space_group_name_H-M   'P 1'
_cell_length_a   11.41426162
_cell_length_b   11.41462354
_cell_length_c   11.41382214
_cell_angle_alpha   90.00562943
_cell_angle_beta   89.98702676
_cell_angle_gamma   90.00732072
_symmetry_Int_Tables_number   1
_chemical_formula_structural   Fe45Co19
_chemical_formula_sum   'Fe90 Co38'
_cell_volume   1487.10111429
_cell_formula_units_Z   2
loop_
 _symmetry_equiv_pos_site_id
 _symmetry_equiv_pos_as_xyz
  1  'x, y, z'
loop_
 _atom_site_type_symbol
 _atom_site_label
 _atom_site_symmetry_multiplicity
 _atom_site_fract_x
 _atom_site_fract_y
 _atom_site_fract_z
 _atom_site_occupancy
  Fe  Fe0  1  0.87400751  0.37641291  0.87665753  1
  Fe  Fe1  1  0.62686977  0.37666727  0.87332003  1
  Fe  Fe2  1  0.12777235  0.87602725  0.36964166  1
  Fe  Fe3  1  0.50014515  0.49913920  0.74698323  1
  Fe  Fe4  1  0.25361493  0.00133656  0.75229602  1
  Fe  Fe5  1  0.12086937  0.12702962  0.37847033  1
  Fe  Fe6  1  0.87442034  0.87305022  0.37174462  1
  Fe  Fe7  1  0.24788089  0.74970477  0.74975640  1
  Fe  Fe8  1  0.87770396  0.62342386  0.87752237  1
  Fe  Fe9  1  0.37555907  0.62349667  0.37606613  1
  Fe  Fe10  1  0.37604576  0.62348135  0.12566653  1
  Fe  Fe11  1  0.87817232  0.12592144  0.37579451  1
  Fe  Fe12  1  0.25026799  0.24659931  0.25296853  1
  Fe  Fe13  1  0.00103648  0.75105597  0.49887457  1
  Fe  Fe14  1  0.24954752  0.50002512  0.25029298  1
  Fe  Fe15  1  0.50031203  0.49782775  0.25098304  1
  Fe  Fe16  1  0.12212891  0.62282372  0.37436519  1
  Fe  Fe17  1  0.24662449  0.49924799  0.50100197  1
  Fe  Fe18  1  0.25358259  0.00040493  0.00144145  1
  Fe  Fe19  1  0.74899896  0.00295282  0.25009581  1
  Fe  Fe20  1  0.87725001  0.37676195  0.62624583  1
  Fe  Fe21  1  0.12707500  0.87759468  0.87790267  1
  Fe  Fe22  1  0.75198595  0.50136176  0.50140250  1
  Fe  Fe23  1  0.25094083  0.74962729  0.00134979  1
  Fe  Fe24  1  0.24798357  0.74913297  0.49801297  1
  Fe  Fe25  1  0.75214293  0.50447852  0.24546931  1
  Fe  Fe26  1  0.24768562  0.24895170  0.74759707  1
  Fe  Fe27  1  0.50046876  0.75029182  0.25135914  1
  Fe  Fe28  1  0.49917902  0.75285181  0.00220528  1
  Fe  Fe29  1  0.75296663  -0.00068714  0.49950904  1
  Fe  Fe30  1  0.62226860  0.62487547  0.87500099  1
  Fe  Fe31  1  0.62464701  0.12386042  0.62388773  1
  Fe  Fe32  1  0.61857553  0.12206166  0.87706588  1
  Fe  Fe33  1  0.74802440  0.24790173  -0.00242814  1
  Fe  Fe34  1  0.87431144  0.87326501  0.62801038  1
  Fe  Fe35  1  0.12375111  0.12402291  0.87643100  1
  Fe  Fe36  1  0.12512585  0.62273957  0.12298458  1
  Fe  Fe37  1  0.74961520  0.24818490  0.74994972  1
  Fe  Fe38  1  0.00261509  0.75272978  -0.00002787  1
  Fe  Fe39  1  0.00135480  0.00102063  0.24838026  1
  Fe  Fe40  1  0.62671449  0.37384784  0.12510972  1
  Fe  Fe41  1  0.37063397  0.87513184  0.13046791  1
  Fe  Fe42  1  0.49986198  -0.00256756  0.50178814  1
  Fe  Fe43  1  0.12248132  0.37207985  0.37608510  1
  Fe  Fe44  1  0.49954171  0.75256663  0.50006122  1
  Fe  Fe45  1  0.88065313  0.62624546  0.62759072  1
  Fe  Fe46  1  0.25193341  0.25056773  -0.00186903  1
  Fe  Fe47  1  0.49994629  0.24971514  0.75013904  1
  Fe  Fe48  1  0.62631776  0.87676221  0.12610232  1
  Fe  Fe49  1  0.62617959  0.62473186  0.37419966  1
  Fe  Fe50  1  0.74685689  0.24589061  0.25135084  1
  Fe  Fe51  1  0.37487023  0.37543832  0.62306043  1
  Fe  Fe52  1  0.87528889  0.12662483  0.12407807  1
  Fe  Fe53  1  0.38019475  0.12886156  0.12361831  1
  Fe  Fe54  1  0.24744749  0.50050563  0.74804674  1
  Fe  Fe55  1  0.37412368  0.12470825  0.62387446  1
  Fe  Fe56  1  0.75157034  0.00233634  -0.00090781  1
  Fe  Fe57  1  0.37381781  0.62544715  0.62295655  1
  Fe  Fe58  1  0.75015970  0.00163042  0.75198125  1
  Fe  Fe59  1  0.62328169  0.87667050  0.87299079  1
  Fe  Fe60  1  0.74693192  0.74755583  0.00048285  1
  Fe  Fe61  1  0.24854618  0.00220677  0.49765558  1
  Fe  Fe62  1  0.12307625  0.62179307  0.87645244  1
  Fe  Fe63  1  0.75038787  0.50214626  0.74947339  1
  Fe  Fe64  1  0.37336942  0.37370588  0.12645278  1
  Fe  Fe65  1  0.37138372  0.87711825  0.37168618  1
  Fe  Fe66  1  0.87678545  0.37469424  0.37353711  1
  Fe  Fe67  1  0.87858382  0.12305453  0.62543524  1
  Fe  Fe68  1  -0.00216783  0.49676642  0.24430033  1
  Fe  Fe69  1  0.62463787  0.62589053  0.62439751  1
  Fe  Fe70  1  0.12538939  0.37757840  0.87725559  1
  Fe  Fe71  1  0.62730421  0.37608959  0.37628622  1
  Fe  Fe72  1  -0.00045596  0.25326808  0.00193662  1
  Fe  Fe73  1  0.50193193  0.00464598  0.25068965  1
  Fe  Fe74  1  0.49957902  0.75505628  0.74567099  1
  Fe  Fe75  1  0.62738282  0.87526846  0.37501874  1
  Fe  Fe76  1  0.87494669  0.87352934  0.12531560  1
  Fe  Fe77  1  0.37332003  0.37524491  0.87341781  1
  Fe  Fe78  1  0.87359177  0.87366908  0.87509376  1
  Fe  Fe79  1  0.75256480  0.25030042  0.50107710  1
  Fe  Fe80  1  0.12546604  0.87636470  0.62555809  1
  Fe  Fe81  1  0.50085305  0.25153052  0.49839458  1
  Fe  Fe82  1  0.75199424  0.74870798  0.49946515  1
  Fe  Fe83  1  0.12315655  0.12575522  0.12247421  1
  Fe  Fe84  1  0.37619759  0.62639517  0.87380125  1
  Fe  Fe85  1  0.00209993  0.25055998  0.74859902  1
  Fe  Fe86  1  0.49954440  0.49704044  -0.00004051  1
  Fe  Fe87  1  0.37440914  0.37367761  0.37654435  1
  Fe  Fe88  1  -0.00069170  -0.00131038  0.75261415  1
  Fe  Fe89  1  0.00133294  0.74944524  0.24820270  1
  Co  Co90  1  0.00152867  0.49808004  0.75140134  1
  Co  Co91  1  0.87685615  0.62901755  0.12208565  1
  Co  Co92  1  0.62239193  0.12538930  0.12024430  1
  Co  Co93  1  0.74934234  0.50271120  0.00139421  1
  Co  Co94  1  0.12202968  0.62547289  0.62551673  1
  Co  Co95  1  0.24841100  0.24914691  0.50154219  1
  Co  Co96  1  0.62976264  0.87570867  0.62549197  1
  Co  Co97  1  0.62562628  0.37384775  0.62494199  1
  Co  Co98  1  0.75001078  0.74707321  0.75215763  1
  Co  Co99  1  0.13070308  0.37363031  0.12530436  1
  Co  Co100  1  0.12305929  0.37613237  0.62274146  1
  Co  Co101  1  -0.00073368  -0.00457460  0.49840691  1
  Co  Co102  1  -0.00192489  -0.00114994  0.00075187  1
  Co  Co103  1  0.86897894  0.37054245  0.12484616  1
  Co  Co104  1  0.00221040  0.75252808  0.75304540  1
  Co  Co105  1  0.12313908  0.12091374  0.62503386  1
  Co  Co106  1  -0.00061083  0.50063157  0.49914536  1
  Co  Co107  1  0.37692868  0.12463875  0.37746230  1
  Co  Co108  1  0.87848834  0.12745552  0.87557024  1
  Co  Co109  1  0.25273011  0.50111991  -0.00073527  1
  Co  Co110  1  -0.00169711  0.49498778  0.00512867  1
  Co  Co111  1  0.49541545  -0.00482600  0.00155828  1
  Co  Co112  1  0.62145090  0.62496188  0.12543992  1
  Co  Co113  1  0.50183522  0.49963792  0.50002422  1
  Co  Co114  1  0.24855340  0.00846629  0.24927079  1
  Co  Co115  1  -0.00127557  0.25057047  0.50362573  1
  Co  Co116  1  0.37450977  0.87241345  0.87411504  1
  Co  Co117  1  0.62577920  0.12425834  0.37989841  1
  Co  Co118  1  0.12745858  0.87580240  0.12663624  1
  Co  Co119  1  0.36964526  0.87501142  0.62288852  1
  Co  Co120  1  0.49690736  -0.00246395  0.74782457  1
  Co  Co121  1  0.50061145  0.25635866  -0.00186274  1
  Co  Co122  1  0.37762089  0.12621386  0.87651710  1
  Co  Co123  1  0.87601128  0.62456313  0.37211269  1
  Co  Co124  1  0.00091188  0.25045379  0.24708698  1
  Co  Co125  1  0.74852754  0.74833965  0.24827236  1
  Co  Co126  1  0.50251590  0.24982631  0.25289213  1
  Co  Co127  1  0.24943622  0.74450929  0.24999844  1
