# generated using pymatgen
data_Fe45Co19
_symmetry_space_group_name_H-M   'P 1'
_cell_length_a   11.41431396
_cell_length_b   11.41529551
_cell_length_c   11.41593037
_cell_angle_alpha   89.99213473
_cell_angle_beta   89.99418192
_cell_angle_gamma   89.98994442
_symmetry_Int_Tables_number   1
_chemical_formula_structural   Fe45Co19
_chemical_formula_sum   'Fe90 Co38'
_cell_volume   1487.47019051
_cell_formula_units_Z   2
loop_
 _symmetry_equiv_pos_site_id
 _symmetry_equiv_pos_as_xyz
  1  'x, y, z'
loop_
 _atom_site_type_symbol
 _atom_site_label
 _atom_site_symmetry_multiplicity
 _atom_site_fract_x
 _atom_site_fract_y
 _atom_site_fract_z
 _atom_site_occupancy
  Fe  Fe0  1  0.37526742  0.62620546  0.37251845  1
  Fe  Fe1  1  -0.00000766  0.24716264  0.75419591  1
  Fe  Fe2  1  0.25350589  0.24924774  0.25000254  1
  Fe  Fe3  1  0.37489050  0.62759770  0.62486920  1
  Fe  Fe4  1  0.12899731  0.11981838  0.37288705  1
  Fe  Fe5  1  0.49798830  0.00258770  0.50299007  1
  Fe  Fe6  1  0.37269579  0.87449618  0.62511357  1
  Fe  Fe7  1  0.24904133  0.74955072  0.75152173  1
  Fe  Fe8  1  0.12585571  0.37285354  0.62550361  1
  Fe  Fe9  1  0.50076207  0.75252026  0.49638399  1
  Fe  Fe10  1  0.49984393  -0.00134703  0.24771069  1
  Fe  Fe11  1  0.87458506  0.12260137  0.12108460  1
  Fe  Fe12  1  0.74602844  0.75142733  0.49885889  1
  Fe  Fe13  1  0.25050798  0.49984897  0.74966364  1
  Fe  Fe14  1  0.74970573  0.50075238  0.24970590  1
  Fe  Fe15  1  0.87458764  0.62534256  0.37598931  1
  Fe  Fe16  1  0.62365742  0.62933311  0.12712039  1
  Fe  Fe17  1  0.00140122  0.75263840  0.25204203  1
  Fe  Fe18  1  0.00543885  0.74913730  0.49825266  1
  Fe  Fe19  1  0.49766548  0.50365854  0.00240484  1
  Fe  Fe20  1  0.50044788  -0.00259262  -0.00177662  1
  Fe  Fe21  1  0.74878335  0.24840682  0.50137583  1
  Fe  Fe22  1  0.25395290  0.24568688  0.49766561  1
  Fe  Fe23  1  0.87593932  0.87314179  0.62730582  1
  Fe  Fe24  1  0.37618913  0.87195514  0.12377750  1
  Fe  Fe25  1  0.62693314  0.87469471  0.12479457  1
  Fe  Fe26  1  0.12489823  0.62637353  0.12646518  1
  Fe  Fe27  1  0.75081153  0.50212026  0.00037373  1
  Fe  Fe28  1  0.87344540  0.87842123  0.37731554  1
  Fe  Fe29  1  0.62312933  0.37126740  0.62645159  1
  Fe  Fe30  1  0.12572066  0.12621741  0.62690045  1
  Fe  Fe31  1  0.12663973  0.37559304  0.37476339  1
  Fe  Fe32  1  0.87522017  0.37348531  0.12496240  1
  Fe  Fe33  1  0.62268548  0.37402755  0.37428425  1
  Fe  Fe34  1  0.87425761  0.62907752  0.12520104  1
  Fe  Fe35  1  0.50101835  0.24949267  -0.00137674  1
  Fe  Fe36  1  0.49705823  0.49865032  0.24658521  1
  Fe  Fe37  1  0.12483336  0.37410046  0.12480298  1
  Fe  Fe38  1  -0.00067663  0.50129428  0.00064632  1
  Fe  Fe39  1  -0.00375850  -0.00542808  -0.00430979  1
  Fe  Fe40  1  0.62493419  0.12157282  0.37425460  1
  Fe  Fe41  1  0.12309424  0.12402959  0.12201074  1
  Fe  Fe42  1  0.49670993  0.00078895  0.75219082  1
  Fe  Fe43  1  0.74737762  0.75320313  0.25436179  1
  Fe  Fe44  1  0.87521230  0.62789901  0.62541445  1
  Fe  Fe45  1  0.24763411  0.75369969  0.25247782  1
  Fe  Fe46  1  0.62585949  0.12350496  0.12413518  1
  Fe  Fe47  1  0.62522647  0.37550230  0.87478198  1
  Fe  Fe48  1  0.75055013  0.24706915  0.24917457  1
  Fe  Fe49  1  0.50047750  0.75050346  0.75132416  1
  Fe  Fe50  1  -0.00105216  0.49989468  0.24962292  1
  Fe  Fe51  1  0.49921623  0.75032428  -0.00328097  1
  Fe  Fe52  1  0.37562842  0.37567331  0.87732881  1
  Fe  Fe53  1  -0.00008270  0.24776758  0.24982614  1
  Fe  Fe54  1  0.24944016  0.50236961  0.50094639  1
  Fe  Fe55  1  0.62432789  0.62548126  0.62415425  1
  Fe  Fe56  1  0.24713809  0.24982640  -0.00239442  1
  Fe  Fe57  1  0.49949103  0.49957793  0.75017208  1
  Fe  Fe58  1  0.75282396  0.75431094  -0.00415016  1
  Fe  Fe59  1  0.12644190  0.87386094  0.62524460  1
  Fe  Fe60  1  0.25130948  0.24853758  0.75450509  1
  Fe  Fe61  1  0.25094609  -0.00186305  -0.00047726  1
  Fe  Fe62  1  0.62383900  0.12750700  0.62839591  1
  Fe  Fe63  1  0.62633768  0.12360784  0.87457239  1
  Fe  Fe64  1  0.75070978  0.24946474  -0.00126240  1
  Fe  Fe65  1  0.00230133  0.50088895  0.50078444  1
  Fe  Fe66  1  0.62492838  0.87651593  0.62673428  1
  Fe  Fe67  1  0.12272285  0.87426324  0.12269598  1
  Fe  Fe68  1  0.62577170  0.62581274  0.87426717  1
  Fe  Fe69  1  0.37614687  0.37125711  0.62375861  1
  Fe  Fe70  1  0.24936880  0.00133052  0.75222388  1
  Fe  Fe71  1  0.87618569  0.37146109  0.62472381  1
  Fe  Fe72  1  0.12318897  0.62497990  0.87438042  1
  Fe  Fe73  1  0.00119027  0.00074179  0.50363661  1
  Fe  Fe74  1  0.87586693  0.37453039  0.87568638  1
  Fe  Fe75  1  0.62426603  0.37357410  0.12557500  1
  Fe  Fe76  1  0.37599105  0.12594114  0.12356731  1
  Fe  Fe77  1  0.24975877  0.74941308  -0.00224414  1
  Fe  Fe78  1  0.74935741  0.49967380  0.50042418  1
  Fe  Fe79  1  0.75091738  0.50076192  0.74985919  1
  Fe  Fe80  1  0.49972268  0.50021404  0.50046729  1
  Fe  Fe81  1  0.87491887  0.37389591  0.37539660  1
  Fe  Fe82  1  -0.00009510  0.50151440  0.74886427  1
  Fe  Fe83  1  0.00204027  0.24790181  0.49779870  1
  Fe  Fe84  1  -0.00036759  -0.00117593  0.24914751  1
  Fe  Fe85  1  0.37032079  0.88072958  0.37662751  1
  Fe  Fe86  1  0.75377149  0.00163210  0.75024428  1
  Fe  Fe87  1  0.25133343  0.50225064  0.00078750  1
  Fe  Fe88  1  0.87308183  0.12213187  0.37740877  1
  Fe  Fe89  1  0.25347493  0.49800008  0.24785894  1
  Co  Co90  1  0.62483590  0.87625120  0.87166615  1
  Co  Co91  1  0.74687500  0.74876279  0.74901940  1
  Co  Co92  1  0.37531265  0.63095075  0.12804002  1
  Co  Co93  1  0.49779515  0.25064920  0.75325341  1
  Co  Co94  1  0.00399801  0.74923561  0.74983470  1
  Co  Co95  1  0.62657649  0.88291442  0.37737373  1
  Co  Co96  1  0.12332448  0.12186912  0.87766879  1
  Co  Co97  1  0.12687378  0.88131763  0.37683675  1
  Co  Co98  1  0.24789906  0.74872009  0.49727754  1
  Co  Co99  1  0.37544194  0.62564882  0.87299563  1
  Co  Co100  1  0.49747490  0.24880774  0.25119125  1
  Co  Co101  1  0.12635369  0.62502325  0.62634584  1
  Co  Co102  1  -0.00147495  0.75106497  -0.00063193  1
  Co  Co103  1  0.75057986  -0.00009044  0.24746867  1
  Co  Co104  1  0.12582031  0.62179608  0.37214161  1
  Co  Co105  1  0.87661511  0.87276681  0.86774911  1
  Co  Co106  1  0.37522407  0.12632722  0.62872862  1
  Co  Co107  1  0.87391517  0.87433431  0.12712213  1
  Co  Co108  1  0.37635152  0.37565617  0.37818113  1
  Co  Co109  1  0.50083002  0.75558794  0.25543415  1
  Co  Co110  1  0.49860491  0.24478771  0.49815547  1
  Co  Co111  1  0.75113740  -0.00432864  -0.00289494  1
  Co  Co112  1  0.37508745  0.37143729  0.12017924  1
  Co  Co113  1  0.37441835  0.87486922  0.87419293  1
  Co  Co114  1  0.24953573  0.00284697  0.50577065  1
  Co  Co115  1  0.75016275  0.00130497  0.50646989  1
  Co  Co116  1  0.62294639  0.62224076  0.37383623  1
  Co  Co117  1  0.12509169  0.87513607  0.87457145  1
  Co  Co118  1  0.87598431  0.12426423  0.87789883  1
  Co  Co119  1  0.00099386  0.00188460  0.74867414  1
  Co  Co120  1  0.37524196  0.12390291  0.87794877  1
  Co  Co121  1  0.24935640  -0.00204849  0.24222342  1
  Co  Co122  1  0.12434649  0.37708257  0.87464284  1
  Co  Co123  1  0.37309858  0.11797233  0.37188624  1
  Co  Co124  1  0.00042862  0.25211146  -0.00036889  1
  Co  Co125  1  0.87646633  0.12761961  0.62482906  1
  Co  Co126  1  0.87555856  0.62765885  0.87347268  1
  Co  Co127  1  0.75121619  0.24989069  0.75178403  1
