# generated using pymatgen
data_Fe45Co19
_symmetry_space_group_name_H-M   'P 1'
_cell_length_a   11.41737740
_cell_length_b   11.41492275
_cell_length_c   11.41532142
_cell_angle_alpha   89.99282278
_cell_angle_beta   89.99744724
_cell_angle_gamma   90.00398556
_symmetry_Int_Tables_number   1
_chemical_formula_structural   Fe45Co19
_chemical_formula_sum   'Fe90 Co38'
_cell_volume   1487.74148395
_cell_formula_units_Z   2
loop_
 _symmetry_equiv_pos_site_id
 _symmetry_equiv_pos_as_xyz
  1  'x, y, z'
loop_
 _atom_site_type_symbol
 _atom_site_label
 _atom_site_symmetry_multiplicity
 _atom_site_fract_x
 _atom_site_fract_y
 _atom_site_fract_z
 _atom_site_occupancy
  Fe  Fe0  1  0.50336859  0.24903436  0.25157137  1
  Fe  Fe1  1  0.62443476  0.37670048  0.12195047  1
  Fe  Fe2  1  0.74715423  0.50320592  0.75058434  1
  Fe  Fe3  1  0.87386326  0.12862195  0.37060498  1
  Fe  Fe4  1  0.50204704  0.74899172  0.75314948  1
  Fe  Fe5  1  0.49936005  -0.00146997  0.49840658  1
  Fe  Fe6  1  0.12415749  0.87615029  0.37363003  1
  Fe  Fe7  1  0.12476513  0.37580794  0.37523867  1
  Fe  Fe8  1  0.25304460  0.74704553  -0.00105104  1
  Fe  Fe9  1  0.50072245  -0.00178908  0.25097837  1
  Fe  Fe10  1  0.24736264  0.24988604  0.25022630  1
  Fe  Fe11  1  0.75125722  0.25119108  0.00023810  1
  Fe  Fe12  1  -0.00266675  -0.00014448  0.49961385  1
  Fe  Fe13  1  0.12610091  0.62335044  0.12424048  1
  Fe  Fe14  1  -0.00125440  0.00186986  0.24304541  1
  Fe  Fe15  1  0.00332854  -0.00107154  0.75214549  1
  Fe  Fe16  1  0.49971816  0.49910816  0.25067961  1
  Fe  Fe17  1  0.37699686  0.62601289  0.62610511  1
  Fe  Fe18  1  0.62330910  0.37524282  0.62564321  1
  Fe  Fe19  1  0.24893527  0.00053057  0.24779907  1
  Fe  Fe20  1  0.62401537  0.87862631  0.87682183  1
  Fe  Fe21  1  0.87616015  0.62318739  0.62527309  1
  Fe  Fe22  1  0.87462367  0.12276679  0.87722542  1
  Fe  Fe23  1  0.62529914  0.12537757  0.12281637  1
  Fe  Fe24  1  0.12559938  0.62267672  0.37509764  1
  Fe  Fe25  1  0.24841406  0.00144544  0.74920015  1
  Fe  Fe26  1  0.75380958  0.25080115  0.50303487  1
  Fe  Fe27  1  0.37767314  0.37341771  0.62657440  1
  Fe  Fe28  1  0.25284990  0.49820066  0.49923683  1
  Fe  Fe29  1  0.24930176  0.75007387  0.24976393  1
  Fe  Fe30  1  0.00082186  0.74906692  -0.00195412  1
  Fe  Fe31  1  0.62018925  0.62438139  0.12078255  1
  Fe  Fe32  1  -0.00036951  0.25051091  0.75229873  1
  Fe  Fe33  1  0.12687345  0.37503597  0.87660838  1
  Fe  Fe34  1  0.87470645  0.62082252  0.37635264  1
  Fe  Fe35  1  0.25168394  0.24680323  0.75077058  1
  Fe  Fe36  1  0.00000763  0.49785207  0.24962574  1
  Fe  Fe37  1  0.74786676  0.74858848  -0.00261492  1
  Fe  Fe38  1  0.62346652  0.12450776  0.87776514  1
  Fe  Fe39  1  0.12410786  0.87386961  0.12296401  1
  Fe  Fe40  1  0.74917300  0.24798175  0.74817876  1
  Fe  Fe41  1  0.62519367  0.62283440  0.37651361  1
  Fe  Fe42  1  0.12299290  0.12609955  0.62423409  1
  Fe  Fe43  1  -0.00025177  0.74928071  0.24952018  1
  Fe  Fe44  1  0.87585179  0.87539656  0.62675059  1
  Fe  Fe45  1  0.00120770  0.50086814  0.75139350  1
  Fe  Fe46  1  0.24929540  -0.00084730  0.50072022  1
  Fe  Fe47  1  0.74776620  0.74834586  0.75235164  1
  Fe  Fe48  1  0.12629546  0.12565445  0.88114921  1
  Fe  Fe49  1  0.62263305  0.62442682  0.62266085  1
  Fe  Fe50  1  0.12459187  0.62425827  0.62421332  1
  Fe  Fe51  1  0.49919534  0.24962036  0.50021479  1
  Fe  Fe52  1  0.25230130  0.00052283  0.00220087  1
  Fe  Fe53  1  0.74939366  0.00201663  0.74845829  1
  Fe  Fe54  1  0.12342529  0.12485535  0.37445133  1
  Fe  Fe55  1  0.74835208  0.74823132  0.24970724  1
  Fe  Fe56  1  0.87256591  0.37722799  0.87388299  1
  Fe  Fe57  1  0.62334599  0.37743406  0.87569343  1
  Fe  Fe58  1  0.62838687  0.12277121  0.37709863  1
  Fe  Fe59  1  0.49729817  0.25044865  -0.00129178  1
  Fe  Fe60  1  0.12425068  0.37210271  0.12229327  1
  Fe  Fe61  1  0.74970754  0.49851976  0.24769271  1
  Fe  Fe62  1  0.75044175  0.75044696  0.49960395  1
  Fe  Fe63  1  0.37563160  0.12728120  0.12556214  1
  Fe  Fe64  1  0.24715318  0.75096589  0.75201997  1
  Fe  Fe65  1  -0.00297383  0.49868856  -0.00047486  1
  Fe  Fe66  1  0.37560768  0.87683742  0.87456557  1
  Fe  Fe67  1  0.37580871  0.37398331  0.12930337  1
  Fe  Fe68  1  0.25463141  0.50073778  0.00155244  1
  Fe  Fe69  1  0.25093496  0.25082195  0.49958280  1
  Fe  Fe70  1  0.12472157  0.37475413  0.62646678  1
  Fe  Fe71  1  0.37422157  0.12546684  0.37451911  1
  Fe  Fe72  1  0.62573812  0.37599317  0.37743045  1
  Fe  Fe73  1  0.49947484  0.00510414  0.74879692  1
  Fe  Fe74  1  0.75162818  -0.00003511  0.24515876  1
  Fe  Fe75  1  0.87541929  0.87589008  0.87761832  1
  Fe  Fe76  1  -0.00382848  0.25387413  0.50094473  1
  Fe  Fe77  1  0.37847729  0.87161802  0.12636209  1
  Fe  Fe78  1  0.00358915  0.75062265  0.75247472  1
  Fe  Fe79  1  0.87447416  0.62528052  0.12323336  1
  Fe  Fe80  1  0.24940402  0.75161402  0.49916934  1
  Fe  Fe81  1  0.00024721  0.75005130  0.49926801  1
  Fe  Fe82  1  0.87311195  0.87486844  0.37210661  1
  Fe  Fe83  1  0.62351398  0.87277529  0.12418785  1
  Fe  Fe84  1  0.62614315  0.87719968  0.62300944  1
  Fe  Fe85  1  0.37460574  0.87524945  0.62536361  1
  Fe  Fe86  1  0.50016743  0.75233840  0.49531803  1
  Fe  Fe87  1  0.37398142  0.62420272  0.37141951  1
  Fe  Fe88  1  0.25093477  0.50158489  0.74997168  1
  Fe  Fe89  1  0.37695129  0.37479576  0.87154635  1
  Co  Co90  1  0.50256979  0.75120575  0.25427926  1
  Co  Co91  1  0.87531090  0.62544894  0.87451529  1
  Co  Co92  1  0.49896279  0.00022659  0.00198588  1
  Co  Co93  1  0.24861607  0.49747124  0.24880888  1
  Co  Co94  1  -0.00357542  0.25063554  -0.00218217  1
  Co  Co95  1  0.74472030  0.25228958  0.24939546  1
  Co  Co96  1  0.63022813  0.87807628  0.37478292  1
  Co  Co97  1  0.12590957  0.87636448  0.87984818  1
  Co  Co98  1  0.75527617  0.00117522  0.50162848  1
  Co  Co99  1  -0.00197662  0.00159824  0.00511484  1
  Co  Co100  1  0.75095840  -0.00014071  0.00327523  1
  Co  Co101  1  0.87290466  0.37513518  0.37139904  1
  Co  Co102  1  0.37589413  0.62426591  0.87266778  1
  Co  Co103  1  0.50084067  0.24641401  0.75069650  1
  Co  Co104  1  0.37586602  0.37275431  0.37197204  1
  Co  Co105  1  0.75049213  0.49857939  0.50214107  1
  Co  Co106  1  0.12433900  0.87536729  0.62329778  1
  Co  Co107  1  0.87805283  0.12478400  0.62820046  1
  Co  Co108  1  0.00335697  0.25060530  0.24933143  1
  Co  Co109  1  0.37494350  0.12438881  0.87654110  1
  Co  Co110  1  0.87435175  0.37179161  0.12776955  1
  Co  Co111  1  0.37747847  0.62660788  0.12907173  1
  Co  Co112  1  0.37449282  0.12549778  0.62290532  1
  Co  Co113  1  0.49390430  0.49871044  0.00012578  1
  Co  Co114  1  0.87301470  0.13204304  0.12572253  1
  Co  Co115  1  0.75301012  0.49985856  0.00128813  1
  Co  Co116  1  0.12650655  0.12917455  0.12051389  1
  Co  Co117  1  0.87398617  0.87004901  0.12277749  1
  Co  Co118  1  0.49689969  0.49961993  0.49938129  1
  Co  Co119  1  0.50185616  0.50121622  0.74957578  1
  Co  Co120  1  0.00010980  0.49693554  0.50003735  1
  Co  Co121  1  0.37237387  0.87554277  0.37350251  1
  Co  Co122  1  0.49884640  0.75010059  -0.00393349  1
  Co  Co123  1  0.62256473  0.62067293  0.87944237  1
  Co  Co124  1  0.25495665  0.25283003  -0.00065228  1
  Co  Co125  1  0.12618885  0.62286418  0.87659796  1
  Co  Co126  1  0.62492919  0.12453243  0.62187419  1
  Co  Co127  1  0.87455006  0.37795814  0.62968856  1
