# generated using pymatgen
data_Fe45Co19
_symmetry_space_group_name_H-M   'P 1'
_cell_length_a   11.41490372
_cell_length_b   11.41569894
_cell_length_c   11.41559390
_cell_angle_alpha   90.00668536
_cell_angle_beta   90.00223795
_cell_angle_gamma   89.99251429
_symmetry_Int_Tables_number   1
_chemical_formula_structural   Fe45Co19
_chemical_formula_sum   'Fe90 Co38'
_cell_volume   1487.55579196
_cell_formula_units_Z   2
loop_
 _symmetry_equiv_pos_site_id
 _symmetry_equiv_pos_as_xyz
  1  'x, y, z'
loop_
 _atom_site_type_symbol
 _atom_site_label
 _atom_site_symmetry_multiplicity
 _atom_site_fract_x
 _atom_site_fract_y
 _atom_site_fract_z
 _atom_site_occupancy
  Fe  Fe0  1  0.12376182  0.12400141  0.37519300  1
  Fe  Fe1  1  0.12515646  0.37203140  0.12389144  1
  Fe  Fe2  1  0.87288759  0.37582606  0.87654311  1
  Fe  Fe3  1  0.74912382  0.25143547  0.74881263  1
  Fe  Fe4  1  0.62290652  0.62460797  0.87591725  1
  Fe  Fe5  1  0.62678018  0.87572624  0.37513430  1
  Fe  Fe6  1  0.00096911  0.75380860  0.25206867  1
  Fe  Fe7  1  0.12476921  0.12936767  0.87318596  1
  Fe  Fe8  1  0.74605152  0.49821360  0.24922066  1
  Fe  Fe9  1  0.00177377  0.49779291  0.75195179  1
  Fe  Fe10  1  0.25572502  0.25179036  0.74784682  1
  Fe  Fe11  1  0.74536172  0.49972212  0.00353389  1
  Fe  Fe12  1  0.00031305  0.49837307  0.25050002  1
  Fe  Fe13  1  -0.00051756  0.25044675  -0.00058952  1
  Fe  Fe14  1  0.50036706  0.00090121  0.49963937  1
  Fe  Fe15  1  0.25098224  0.00394651  0.50200419  1
  Fe  Fe16  1  0.87421813  0.37538554  0.12369753  1
  Fe  Fe17  1  0.12384632  0.87752305  0.12315524  1
  Fe  Fe18  1  0.24860660  0.00248266  0.24840517  1
  Fe  Fe19  1  0.12456669  0.37459168  0.37613708  1
  Fe  Fe20  1  0.87615165  0.62549822  0.62477283  1
  Fe  Fe21  1  0.38002567  0.12309168  0.86875771  1
  Fe  Fe22  1  0.12336182  0.62614130  0.62483075  1
  Fe  Fe23  1  0.87735017  0.62409045  0.12366003  1
  Fe  Fe24  1  0.87732327  0.62281783  0.87814057  1
  Fe  Fe25  1  0.25088606  0.25003461  0.25207995  1
  Fe  Fe26  1  0.37630425  0.62197422  0.87505377  1
  Fe  Fe27  1  0.74970775  0.74944176  0.00027044  1
  Fe  Fe28  1  0.87107549  0.37723241  0.62227803  1
  Fe  Fe29  1  0.87451566  0.12334850  0.87483966  1
  Fe  Fe30  1  0.50042399  0.00158467  0.25155126  1
  Fe  Fe31  1  0.24720297  0.50176096  0.49913556  1
  Fe  Fe32  1  0.50384819  0.49578625  0.24917047  1
  Fe  Fe33  1  0.25138946  0.74807920  0.49945375  1
  Fe  Fe34  1  0.87340380  0.87773269  0.87618540  1
  Fe  Fe35  1  -0.00110065  0.75043029  0.75209189  1
  Fe  Fe36  1  0.37472960  0.87804860  0.87356752  1
  Fe  Fe37  1  0.87052894  0.37542853  0.37844314  1
  Fe  Fe38  1  0.87633444  0.12258324  0.62660089  1
  Fe  Fe39  1  0.37644391  0.62197687  0.62652797  1
  Fe  Fe40  1  0.12427921  0.12666910  0.62581472  1
  Fe  Fe41  1  0.87856708  0.12137815  0.12272129  1
  Fe  Fe42  1  0.87671573  0.87912512  0.12268703  1
  Fe  Fe43  1  0.25256566  0.24817466  -0.00100767  1
  Fe  Fe44  1  0.74812100  0.50042356  0.74905430  1
  Fe  Fe45  1  0.37269357  0.87623309  0.37374988  1
  Fe  Fe46  1  -0.00221877  0.24891675  0.25004159  1
  Fe  Fe47  1  0.75124690  0.75063946  0.24901721  1
  Fe  Fe48  1  0.37361146  0.37594319  0.37751038  1
  Fe  Fe49  1  0.12643700  0.87501848  0.62582899  1
  Fe  Fe50  1  0.12746599  0.87310545  0.87454307  1
  Fe  Fe51  1  0.62187744  0.12768653  0.62691444  1
  Fe  Fe52  1  0.37590205  0.87569351  0.12424826  1
  Fe  Fe53  1  0.87488035  0.12163229  0.37602827  1
  Fe  Fe54  1  0.62124007  0.12980827  0.12696157  1
  Fe  Fe55  1  0.49832207  0.75193175  0.75147516  1
  Fe  Fe56  1  0.62446503  0.87600934  0.87721792  1
  Fe  Fe57  1  0.12656654  0.37343355  0.62439065  1
  Fe  Fe58  1  0.50145337  0.49139032  0.75008886  1
  Fe  Fe59  1  -0.00303711  0.25274962  0.74957544  1
  Fe  Fe60  1  0.24993836  0.00361840  -0.00105760  1
  Fe  Fe61  1  0.00179715  -0.00063967  0.75104722  1
  Fe  Fe62  1  0.49759016  0.75100216  0.50019812  1
  Fe  Fe63  1  0.12185777  0.62504417  0.12302647  1
  Fe  Fe64  1  0.74812659  -0.00089714  0.74951103  1
  Fe  Fe65  1  0.24816498  0.49890837  0.75155243  1
  Fe  Fe66  1  0.24815556  0.74809034  0.25060078  1
  Fe  Fe67  1  0.62395357  0.62666026  0.62701217  1
  Fe  Fe68  1  0.37746854  0.12711852  0.12716633  1
  Fe  Fe69  1  0.37583407  0.62378642  0.37343799  1
  Fe  Fe70  1  -0.00149790  0.25070821  0.50076745  1
  Fe  Fe71  1  0.49907633  0.75056852  0.24958881  1
  Fe  Fe72  1  0.75041337  0.00038881  0.50258413  1
  Fe  Fe73  1  0.24594901  0.49973832  -0.00180945  1
  Fe  Fe74  1  0.37312412  0.87754194  0.62779629  1
  Fe  Fe75  1  0.62230342  0.12645753  0.87230052  1
  Fe  Fe76  1  0.62760993  0.87138855  0.62552738  1
  Fe  Fe77  1  -0.00059382  0.75519492  0.49706110  1
  Fe  Fe78  1  0.49775635  0.24857372  0.49887700  1
  Fe  Fe79  1  0.24859283  0.50058494  0.24979364  1
  Fe  Fe80  1  0.37828373  0.62328079  0.12352166  1
  Fe  Fe81  1  0.25144769  0.74858348  -0.00087712  1
  Fe  Fe82  1  0.87694870  0.62356790  0.37522951  1
  Fe  Fe83  1  0.62314305  0.87422708  0.12296547  1
  Fe  Fe84  1  0.74944562  0.24753594  0.00115150  1
  Fe  Fe85  1  0.37780683  0.37411142  0.12234091  1
  Fe  Fe86  1  0.50477597  0.49833663  0.49888690  1
  Fe  Fe87  1  0.62485226  0.62706631  0.37334434  1
  Fe  Fe88  1  0.74874065  0.00226746  0.24797495  1
  Fe  Fe89  1  0.75231135  0.74905520  0.49950226  1
  Co  Co90  1  0.49868259  0.25809406  0.74879115  1
  Co  Co91  1  0.49929355  0.00232887  0.00140515  1
  Co  Co92  1  0.50418473  0.49801223  0.00144350  1
  Co  Co93  1  0.25221245  0.74733415  0.74959504  1
  Co  Co94  1  0.37308443  0.37649078  0.62009548  1
  Co  Co95  1  0.12418060  0.12693417  0.12487903  1
  Co  Co96  1  0.63020742  0.36947841  0.37683106  1
  Co  Co97  1  0.87189138  0.87911157  0.37336743  1
  Co  Co98  1  0.74601638  0.00255025  0.00091186  1
  Co  Co99  1  0.12920969  0.87818413  0.37562225  1
  Co  Co100  1  0.62284446  0.62784495  0.12536435  1
  Co  Co101  1  0.00056362  0.49770070  0.50098697  1
  Co  Co102  1  0.00137829  -0.00001819  0.25046811  1
  Co  Co103  1  0.37390897  0.12323709  0.37394758  1
  Co  Co104  1  0.50348822  -0.00378671  0.74754920  1
  Co  Co105  1  0.12294059  0.62520568  0.37512112  1
  Co  Co106  1  0.75047078  0.74828323  0.75365774  1
  Co  Co107  1  0.62351107  0.36778521  0.12544207  1
  Co  Co108  1  0.37395570  0.37735220  0.87883254  1
  Co  Co109  1  0.37837079  0.12437836  0.62821406  1
  Co  Co110  1  0.62811302  0.37277398  0.87741519  1
  Co  Co111  1  0.75465178  0.24795296  0.24826547  1
  Co  Co112  1  -0.00074964  -0.00228691  0.50221835  1
  Co  Co113  1  0.49888845  0.24910194  -0.00409411  1
  Co  Co114  1  0.25055923  0.24692131  0.49927313  1
  Co  Co115  1  -0.00148516  0.75234281  -0.00013170  1
  Co  Co116  1  0.00393584  0.00172461  -0.00414402  1
  Co  Co117  1  0.74733251  0.50506451  0.49993734  1
  Co  Co118  1  0.12333756  0.62719239  0.87565141  1
  Co  Co119  1  0.49739810  0.25245278  0.25595122  1
  Co  Co120  1  0.62848052  0.37273829  0.62089123  1
  Co  Co121  1  0.24698864  0.00255971  0.75007195  1
  Co  Co122  1  0.00311971  0.49600216  -0.00142595  1
  Co  Co123  1  0.12591039  0.36968413  0.87421557  1
  Co  Co124  1  0.49808406  0.75066954  -0.00173051  1
  Co  Co125  1  0.62699252  0.12666434  0.37445282  1
  Co  Co126  1  0.87358085  0.87423237  0.62865692  1
  Co  Co127  1  0.75237931  0.24481971  0.50245633  1
