# generated using pymatgen
data_Fe45Co19
_symmetry_space_group_name_H-M   'P 1'
_cell_length_a   11.41555858
_cell_length_b   11.41506417
_cell_length_c   11.41644368
_cell_angle_alpha   90.00440602
_cell_angle_beta   89.99974132
_cell_angle_gamma   89.99458469
_symmetry_Int_Tables_number   1
_chemical_formula_structural   Fe45Co19
_chemical_formula_sum   'Fe90 Co38'
_cell_volume   1487.66915813
_cell_formula_units_Z   2
loop_
 _symmetry_equiv_pos_site_id
 _symmetry_equiv_pos_as_xyz
  1  'x, y, z'
loop_
 _atom_site_type_symbol
 _atom_site_label
 _atom_site_symmetry_multiplicity
 _atom_site_fract_x
 _atom_site_fract_y
 _atom_site_fract_z
 _atom_site_occupancy
  Fe  Fe0  1  -0.00085961  0.50193897  0.74918042  1
  Fe  Fe1  1  0.87373534  0.37296713  0.12442784  1
  Fe  Fe2  1  0.12503511  0.37375146  0.37714716  1
  Fe  Fe3  1  0.50113078  0.24963491  0.25110182  1
  Fe  Fe4  1  0.12481727  0.12351940  0.87444798  1
  Fe  Fe5  1  0.49708008  -0.00193487  0.00373797  1
  Fe  Fe6  1  0.37680477  0.37480562  0.87510872  1
  Fe  Fe7  1  -0.00204993  0.24802434  -0.00103313  1
  Fe  Fe8  1  0.62538990  0.37403193  0.12331249  1
  Fe  Fe9  1  0.50325128  -0.00378881  0.74081488  1
  Fe  Fe10  1  0.75292384  0.74820359  0.49684261  1
  Fe  Fe11  1  0.87373793  0.37234262  0.62675212  1
  Fe  Fe12  1  0.75071058  0.24697999  0.25339353  1
  Fe  Fe13  1  0.12540832  0.37471841  0.87488586  1
  Fe  Fe14  1  0.62611649  0.87593064  0.12749392  1
  Fe  Fe15  1  0.87267305  0.87635422  0.13012928  1
  Fe  Fe16  1  0.87227116  0.87610282  0.62535304  1
  Fe  Fe17  1  0.75166339  0.50101669  0.75191489  1
  Fe  Fe18  1  0.62407309  0.62341864  0.37712158  1
  Fe  Fe19  1  0.87627948  0.37433983  0.37596246  1
  Fe  Fe20  1  0.37473580  0.87608332  0.37526291  1
  Fe  Fe21  1  0.37071513  0.62859455  0.62498873  1
  Fe  Fe22  1  0.12500001  0.37491599  0.12326408  1
  Fe  Fe23  1  0.49933460  0.49767820  0.50176345  1
  Fe  Fe24  1  0.74927832  0.75063380  0.75094594  1
  Fe  Fe25  1  0.12874229  0.37251825  0.62514206  1
  Fe  Fe26  1  0.87424370  0.62729039  0.12791893  1
  Fe  Fe27  1  0.87537363  0.87697455  0.87213594  1
  Fe  Fe28  1  -0.00349914  0.49945742  -0.00176873  1
  Fe  Fe29  1  0.37451140  0.12487839  0.62216709  1
  Fe  Fe30  1  0.37943267  0.62954739  0.87338343  1
  Fe  Fe31  1  0.50048167  0.49913811  0.24944505  1
  Fe  Fe32  1  0.00143443  0.00019951  0.24961517  1
  Fe  Fe33  1  0.50011543  0.24819004  0.74863995  1
  Fe  Fe34  1  0.24951141  0.50007971  0.25042021  1
  Fe  Fe35  1  -0.00134836  0.74988168  0.49972168  1
  Fe  Fe36  1  0.37626609  0.37359212  0.12386703  1
  Fe  Fe37  1  0.37420148  0.37523808  0.37655289  1
  Fe  Fe38  1  0.74999032  0.75226043  -0.00026034  1
  Fe  Fe39  1  0.62333255  0.12665249  0.38159921  1
  Fe  Fe40  1  0.25296738  0.75508124  -0.00170735  1
  Fe  Fe41  1  0.25244806  0.24754267  -0.00200226  1
  Fe  Fe42  1  0.12373136  0.87638574  0.87599636  1
  Fe  Fe43  1  0.37506139  0.62565196  0.37645112  1
  Fe  Fe44  1  0.75145141  0.00366674  0.50128781  1
  Fe  Fe45  1  0.24619340  0.75246595  0.25147385  1
  Fe  Fe46  1  0.50238086  0.00096699  0.25172773  1
  Fe  Fe47  1  0.00045401  0.50059616  0.24977082  1
  Fe  Fe48  1  0.25245468  0.50090408  -0.00084802  1
  Fe  Fe49  1  0.12345965  0.62656993  0.87590580  1
  Fe  Fe50  1  0.12820240  0.87309116  0.62290177  1
  Fe  Fe51  1  -0.00174198  0.00068732  0.00208394  1
  Fe  Fe52  1  0.49877703  0.75405209  0.50356190  1
  Fe  Fe53  1  0.24868788  0.50186617  0.75026088  1
  Fe  Fe54  1  0.75106382  0.24503946  -0.00442064  1
  Fe  Fe55  1  0.50319789  0.75155278  0.25106282  1
  Fe  Fe56  1  0.62665108  0.37149203  0.62369450  1
  Fe  Fe57  1  0.25385043  -0.00196567  0.00136733  1
  Fe  Fe58  1  0.62161861  0.62780250  0.87516128  1
  Fe  Fe59  1  0.24998506  -0.00106265  0.75062467  1
  Fe  Fe60  1  -0.00118077  0.24739820  0.24982771  1
  Fe  Fe61  1  0.37904403  0.12194315  0.87397130  1
  Fe  Fe62  1  0.12476308  0.62654219  0.12346959  1
  Fe  Fe63  1  0.12431588  0.62495334  0.37735598  1
  Fe  Fe64  1  0.37674877  0.62834595  0.12484680  1
  Fe  Fe65  1  0.37140526  0.37333711  0.62437783  1
  Fe  Fe66  1  0.87551906  0.87799786  0.37265778  1
  Fe  Fe67  1  0.00055361  0.74896412  0.74784212  1
  Fe  Fe68  1  -0.00003008  0.50155125  0.50313210  1
  Fe  Fe69  1  0.50050402  0.50081303  0.74806506  1
  Fe  Fe70  1  0.62300750  0.37427881  0.87602907  1
  Fe  Fe71  1  0.62462488  0.12529482  0.12333640  1
  Fe  Fe72  1  0.62707762  0.62644104  0.62389982  1
  Fe  Fe73  1  0.24918089  0.25014757  0.25111333  1
  Fe  Fe74  1  0.24654038  0.00146420  0.49830121  1
  Fe  Fe75  1  0.62206452  0.87645457  0.87312137  1
  Fe  Fe76  1  0.37570906  0.12464975  0.37613058  1
  Fe  Fe77  1  0.12627191  0.12474973  0.12497773  1
  Fe  Fe78  1  0.75191184  0.50046346  -0.00310467  1
  Fe  Fe79  1  0.00032737  0.00020933  0.74572838  1
  Fe  Fe80  1  0.75128113  0.00149710  -0.00232343  1
  Fe  Fe81  1  0.62630249  0.87619548  0.37774470  1
  Fe  Fe82  1  0.74828528  0.24323013  0.75268746  1
  Fe  Fe83  1  0.00071755  0.24354020  0.50127032  1
  Fe  Fe84  1  0.62431212  0.62531941  0.12355770  1
  Fe  Fe85  1  0.24778973  -0.00150544  0.24951347  1
  Fe  Fe86  1  0.75113224  0.49813538  0.49896578  1
  Fe  Fe87  1  0.00151387  0.24787523  0.74992068  1
  Fe  Fe88  1  0.74986301  0.50052602  0.25218002  1
  Fe  Fe89  1  -0.00226999  0.75233887  0.00162477  1
  Co  Co90  1  0.75284366  0.24962288  0.49779111  1
  Co  Co91  1  0.87863561  0.12173215  0.87169812  1
  Co  Co92  1  0.50029213  0.75428649  0.00196289  1
  Co  Co93  1  0.12769262  0.62766329  0.62410280  1
  Co  Co94  1  0.87296671  0.12495659  0.62683753  1
  Co  Co95  1  0.87244644  0.62491446  0.62552287  1
  Co  Co96  1  0.62471502  0.12752292  0.62013116  1
  Co  Co97  1  0.87554510  0.62777721  0.87385967  1
  Co  Co98  1  0.63184878  0.87406894  0.62164069  1
  Co  Co99  1  0.49961171  0.49983399  -0.00024483  1
  Co  Co100  1  0.74580737  0.00378918  0.25240946  1
  Co  Co101  1  0.12827141  0.12518814  0.62735524  1
  Co  Co102  1  0.24925194  0.75115572  0.49615013  1
  Co  Co103  1  0.12478394  0.87558275  0.12344894  1
  Co  Co104  1  0.61877994  0.12020278  0.87519999  1
  Co  Co105  1  0.87686586  0.12133964  0.37503679  1
  Co  Co106  1  0.87617915  0.62393381  0.37374234  1
  Co  Co107  1  0.50152684  0.75386243  0.74294028  1
  Co  Co108  1  0.12415713  0.12394503  0.37269191  1
  Co  Co109  1  0.37593020  0.87438912  0.13085391  1
  Co  Co110  1  0.24845652  0.75158382  0.75438206  1
  Co  Co111  1  0.12176558  0.87650881  0.37735563  1
  Co  Co112  1  0.87370238  0.12358059  0.12632054  1
  Co  Co113  1  0.36796363  0.87451062  0.62350641  1
  Co  Co114  1  0.24950022  0.49917067  0.50004901  1
  Co  Co115  1  0.25202176  0.24831107  0.75243964  1
  Co  Co116  1  0.87479411  0.37234706  0.87262150  1
  Co  Co117  1  0.49787108  0.25330675  0.50069608  1
  Co  Co118  1  0.49966670  -0.00379549  0.50296245  1
  Co  Co119  1  0.62477508  0.37505943  0.37499980  1
  Co  Co120  1  0.00093091  0.00159059  0.50390093  1
  Co  Co121  1  0.74777998  0.74946150  0.25211680  1
  Co  Co122  1  0.00168352  0.75107844  0.25101375  1
  Co  Co123  1  0.74735526  0.00245771  0.74973480  1
  Co  Co124  1  0.49921895  0.24912159  -0.00014859  1
  Co  Co125  1  0.37513404  0.12496772  0.12790215  1
  Co  Co126  1  0.38014368  0.87597164  0.87114371  1
  Co  Co127  1  0.24885861  0.24729945  0.49839697  1
