# generated using pymatgen
data_Fe45Co19
_symmetry_space_group_name_H-M   'P 1'
_cell_length_a   11.41638175
_cell_length_b   11.41659340
_cell_length_c   11.41467099
_cell_angle_alpha   90.00664898
_cell_angle_beta   89.99931521
_cell_angle_gamma   89.99819674
_symmetry_Int_Tables_number   1
_chemical_formula_structural   Fe45Co19
_chemical_formula_sum   'Fe90 Co38'
_cell_volume   1487.74469972
_cell_formula_units_Z   2
loop_
 _symmetry_equiv_pos_site_id
 _symmetry_equiv_pos_as_xyz
  1  'x, y, z'
loop_
 _atom_site_type_symbol
 _atom_site_label
 _atom_site_symmetry_multiplicity
 _atom_site_fract_x
 _atom_site_fract_y
 _atom_site_fract_z
 _atom_site_occupancy
  Fe  Fe0  1  -0.00105761  -0.00021830  0.00141414  1
  Fe  Fe1  1  0.87633112  0.12412232  0.37482503  1
  Fe  Fe2  1  0.62744405  0.61895616  0.87138134  1
  Fe  Fe3  1  0.87232369  0.37521675  0.88143397  1
  Fe  Fe4  1  0.12395161  0.12360053  0.12478167  1
  Fe  Fe5  1  0.37400838  0.62666907  0.87633752  1
  Fe  Fe6  1  0.12431482  0.12457705  0.62687700  1
  Fe  Fe7  1  0.50027935  0.49866668  -0.00088090  1
  Fe  Fe8  1  0.74686914  0.74956049  -0.00126013  1
  Fe  Fe9  1  0.00191440  0.75131925  0.25028916  1
  Fe  Fe10  1  0.37510011  0.37345403  0.12459003  1
  Fe  Fe11  1  0.12538287  0.62365722  0.62211351  1
  Fe  Fe12  1  0.12754464  0.62552709  0.13017438  1
  Fe  Fe13  1  0.24776163  0.24832941  -0.00277747  1
  Fe  Fe14  1  0.00162639  0.25143279  0.75139283  1
  Fe  Fe15  1  0.37502224  0.12599710  0.62546944  1
  Fe  Fe16  1  0.25184199  0.00031234  0.75267486  1
  Fe  Fe17  1  0.49684106  0.49919926  0.25181900  1
  Fe  Fe18  1  0.12331913  0.37610832  0.12520029  1
  Fe  Fe19  1  0.62929662  0.11965479  0.12312467  1
  Fe  Fe20  1  -0.00371800  0.50001211  0.25137879  1
  Fe  Fe21  1  0.11955958  0.37741466  0.37748065  1
  Fe  Fe22  1  0.00095021  0.74920661  0.49765092  1
  Fe  Fe23  1  0.87046600  0.87678237  0.12490460  1
  Fe  Fe24  1  0.50141090  0.24889838  0.24913067  1
  Fe  Fe25  1  0.87468770  0.62607983  0.87542621  1
  Fe  Fe26  1  0.62454759  0.62454541  0.12731818  1
  Fe  Fe27  1  0.50071491  0.00040914  0.50173922  1
  Fe  Fe28  1  0.24661819  0.24986510  0.49860145  1
  Fe  Fe29  1  0.62636550  0.62396080  0.37463913  1
  Fe  Fe30  1  0.75443340  0.50075241  0.49902588  1
  Fe  Fe31  1  0.87414300  0.62650901  0.12582958  1
  Fe  Fe32  1  0.37209127  0.62734261  0.12965693  1
  Fe  Fe33  1  0.25101954  0.49837432  0.49641662  1
  Fe  Fe34  1  0.24922248  0.25080496  0.25147288  1
  Fe  Fe35  1  0.12884312  0.87545966  0.12718447  1
  Fe  Fe36  1  0.50162124  0.25079558  0.50080474  1
  Fe  Fe37  1  0.37625153  0.12504359  0.37557348  1
  Fe  Fe38  1  0.37505667  0.12718826  0.12317861  1
  Fe  Fe39  1  0.24935411  0.24897235  0.75312528  1
  Fe  Fe40  1  0.49975140  0.25394650  0.75264673  1
  Fe  Fe41  1  0.37433124  0.87322578  0.62450347  1
  Fe  Fe42  1  0.87513076  0.12867107  0.87982225  1
  Fe  Fe43  1  0.37302867  0.87094956  0.12839030  1
  Fe  Fe44  1  -0.00178292  -0.00168499  0.74853530  1
  Fe  Fe45  1  0.62530638  0.12494168  0.62709657  1
  Fe  Fe46  1  0.62575095  0.12405695  0.87501179  1
  Fe  Fe47  1  0.00023753  0.50244824  0.00133007  1
  Fe  Fe48  1  0.62660475  0.37473910  0.37312994  1
  Fe  Fe49  1  0.62571624  0.37811057  0.62716747  1
  Fe  Fe50  1  0.50517838  0.25400321  -0.00215394  1
  Fe  Fe51  1  0.75199629  0.25060462  0.24535064  1
  Fe  Fe52  1  0.87364640  0.63206195  0.62555491  1
  Fe  Fe53  1  0.24928574  0.75244844  0.49162616  1
  Fe  Fe54  1  0.74725637  0.75222991  0.25109840  1
  Fe  Fe55  1  -0.00200634  0.50079403  0.74815040  1
  Fe  Fe56  1  0.12384141  0.87484008  0.62364396  1
  Fe  Fe57  1  0.87611703  0.87070608  0.87356447  1
  Fe  Fe58  1  0.25226026  0.00073591  -0.00136750  1
  Fe  Fe59  1  0.12164850  0.11972886  0.37302586  1
  Fe  Fe60  1  0.50045693  0.74929586  0.49721750  1
  Fe  Fe61  1  0.87919781  0.37238475  0.62030069  1
  Fe  Fe62  1  0.12501084  0.37695915  0.87511219  1
  Fe  Fe63  1  0.74954329  0.24968840  0.49991789  1
  Fe  Fe64  1  0.49955495  0.00011460  0.24805448  1
  Fe  Fe65  1  0.37321166  0.37375125  0.62473731  1
  Fe  Fe66  1  0.87743041  0.87579664  0.37526046  1
  Fe  Fe67  1  0.49807943  -0.00183259  0.75059049  1
  Fe  Fe68  1  0.24799778  0.74970421  0.75098997  1
  Fe  Fe69  1  0.62559521  0.12510033  0.37475779  1
  Fe  Fe70  1  0.37386273  0.62660720  0.62242248  1
  Fe  Fe71  1  0.49897139  -0.00411008  -0.00039700  1
  Fe  Fe72  1  0.50233974  0.75080930  0.00057077  1
  Fe  Fe73  1  0.62779768  0.87357408  0.62632102  1
  Fe  Fe74  1  0.62722499  0.62348471  0.62566657  1
  Fe  Fe75  1  0.75233016  -0.00185478  0.75133836  1
  Fe  Fe76  1  0.50097177  0.74852177  0.75034853  1
  Fe  Fe77  1  0.75064569  0.25235727  0.75025985  1
  Fe  Fe78  1  -0.00294971  0.24877951  0.24730425  1
  Fe  Fe79  1  0.12554113  0.87492277  0.87605607  1
  Fe  Fe80  1  0.12424482  0.62572609  0.87560416  1
  Fe  Fe81  1  0.24981499  0.50160407  0.00251819  1
  Fe  Fe82  1  0.25019456  -0.00128980  0.49739588  1
  Fe  Fe83  1  0.00240768  0.75027855  0.00238663  1
  Fe  Fe84  1  0.62289131  0.87627429  0.37383981  1
  Fe  Fe85  1  0.75355458  0.49792420  0.24883476  1
  Fe  Fe86  1  0.87557119  0.12564848  0.62416759  1
  Fe  Fe87  1  0.75133739  -0.00149715  0.50045558  1
  Fe  Fe88  1  0.25147593  0.50070948  0.74962674  1
  Fe  Fe89  1  0.49852430  0.49924199  0.49901130  1
  Co  Co90  1  0.75198061  -0.00251416  -0.00546877  1
  Co  Co91  1  0.25108394  0.49627419  0.25199055  1
  Co  Co92  1  0.00302622  0.24562857  0.49930198  1
  Co  Co93  1  0.12394784  0.37657469  0.62407494  1
  Co  Co94  1  0.50257126  0.74999532  0.25067209  1
  Co  Co95  1  0.24800143  0.74845114  0.00041574  1
  Co  Co96  1  0.37407146  0.87197290  0.87499483  1
  Co  Co97  1  0.62999673  0.38067652  0.87129489  1
  Co  Co98  1  0.87411350  0.87001570  0.62571753  1
  Co  Co99  1  0.11997003  0.88020765  0.37376915  1
  Co  Co100  1  0.62311125  0.37860027  0.12856663  1
  Co  Co101  1  0.00276326  0.24952880  0.00133546  1
  Co  Co102  1  0.87620507  0.37234535  0.37668573  1
  Co  Co103  1  0.74841688  0.75165850  0.49679681  1
  Co  Co104  1  0.37251178  0.37534124  0.87775553  1
  Co  Co105  1  0.37913492  0.87690447  0.37242390  1
  Co  Co106  1  0.74696234  0.74990256  0.75291506  1
  Co  Co107  1  0.12401108  0.62119162  0.37346657  1
  Co  Co108  1  0.00412814  0.74878391  0.74960010  1
  Co  Co109  1  0.37877482  0.12519178  0.87636075  1
  Co  Co110  1  0.74887471  0.50148838  0.00445676  1
  Co  Co111  1  0.49493857  0.50009215  0.74934718  1
  Co  Co112  1  -0.00229359  0.00019700  0.50429470  1
  Co  Co113  1  0.87216323  0.12323171  0.12135052  1
  Co  Co114  1  -0.00222336  0.00035575  0.24491886  1
  Co  Co115  1  0.12202651  0.12211396  0.87477684  1
  Co  Co116  1  -0.00519577  0.50516172  0.50078119  1
  Co  Co117  1  0.62783398  0.87748156  0.12503711  1
  Co  Co118  1  0.25201899  0.00155397  0.25038782  1
  Co  Co119  1  0.24764826  0.75158874  0.25796783  1
  Co  Co120  1  0.74453151  0.25313025  0.00419192  1
  Co  Co121  1  0.62387584  0.87570189  0.87394565  1
  Co  Co122  1  0.87388870  0.62841916  0.37196029  1
  Co  Co123  1  0.75761641  0.49917497  0.74526818  1
  Co  Co124  1  0.75046330  -0.00007305  0.25371733  1
  Co  Co125  1  0.37492933  0.62543238  0.37284875  1
  Co  Co126  1  0.37685208  0.37180252  0.37512353  1
  Co  Co127  1  0.87738453  0.37562422  0.12063988  1
