# generated using pymatgen
data_Fe45Co19
_symmetry_space_group_name_H-M   'P 1'
_cell_length_a   11.41483661
_cell_length_b   11.41426612
_cell_length_c   11.41452063
_cell_angle_alpha   90.01293763
_cell_angle_beta   89.99266087
_cell_angle_gamma   90.01047085
_symmetry_Int_Tables_number   1
_chemical_formula_structural   Fe45Co19
_chemical_formula_sum   'Fe90 Co38'
_cell_volume   1487.22044970
_cell_formula_units_Z   2
loop_
 _symmetry_equiv_pos_site_id
 _symmetry_equiv_pos_as_xyz
  1  'x, y, z'
loop_
 _atom_site_type_symbol
 _atom_site_label
 _atom_site_symmetry_multiplicity
 _atom_site_fract_x
 _atom_site_fract_y
 _atom_site_fract_z
 _atom_site_occupancy
  Fe  Fe0  1  0.74921992  0.24885788  0.49817142  1
  Fe  Fe1  1  0.12797007  0.37654545  0.87421543  1
  Fe  Fe2  1  0.49747227  -0.00072323  0.75028261  1
  Fe  Fe3  1  0.24502028  0.74409670  0.24563724  1
  Fe  Fe4  1  0.12577666  0.37716190  0.12427837  1
  Fe  Fe5  1  0.50385004  0.74790747  0.24750435  1
  Fe  Fe6  1  0.24634298  0.24918942  0.50134354  1
  Fe  Fe7  1  0.62264380  0.12501368  0.62557319  1
  Fe  Fe8  1  0.12448429  0.87670454  0.62726356  1
  Fe  Fe9  1  -0.00332903  -0.00253324  0.75274720  1
  Fe  Fe10  1  0.87679118  0.87525397  0.37500614  1
  Fe  Fe11  1  0.25282641  0.24998341  0.75227542  1
  Fe  Fe12  1  0.12345934  0.62209326  0.62567022  1
  Fe  Fe13  1  0.87509619  0.37202131  0.12462570  1
  Fe  Fe14  1  0.37558624  0.86902816  0.12358468  1
  Fe  Fe15  1  0.49594212  0.50051558  0.74983946  1
  Fe  Fe16  1  0.75266151  -0.00064464  0.75185780  1
  Fe  Fe17  1  0.50133165  0.50150738  0.00057803  1
  Fe  Fe18  1  -0.00297215  0.49640541  -0.00289466  1
  Fe  Fe19  1  0.24904485  0.74837505  0.75011139  1
  Fe  Fe20  1  0.25070557  0.50376529  0.00185344  1
  Fe  Fe21  1  0.74782079  0.25024187  0.00006571  1
  Fe  Fe22  1  0.87545848  0.62490279  0.62605299  1
  Fe  Fe23  1  0.12584887  0.87528367  0.12499106  1
  Fe  Fe24  1  0.25126383  -0.00230815  -0.00009104  1
  Fe  Fe25  1  0.75123955  0.50035983  -0.00370211  1
  Fe  Fe26  1  0.87591485  0.37498486  0.62517847  1
  Fe  Fe27  1  -0.00216910  0.75350879  0.75228783  1
  Fe  Fe28  1  0.61966907  0.12738737  0.87320286  1
  Fe  Fe29  1  0.37145078  0.12721879  0.37188813  1
  Fe  Fe30  1  0.12563210  0.37792803  0.37471515  1
  Fe  Fe31  1  0.74530009  0.74680738  0.00054876  1
  Fe  Fe32  1  0.49695314  0.50084041  0.25013205  1
  Fe  Fe33  1  0.74883154  0.75014914  0.49980245  1
  Fe  Fe34  1  0.00066719  0.00085553  0.00043502  1
  Fe  Fe35  1  0.12653549  0.12343804  0.87523064  1
  Fe  Fe36  1  0.87737208  0.62610138  0.37421696  1
  Fe  Fe37  1  0.49966119  0.24995103  0.49913575  1
  Fe  Fe38  1  0.62421110  0.37635570  0.62623930  1
  Fe  Fe39  1  0.37560541  0.87044466  0.62163001  1
  Fe  Fe40  1  0.75313299  0.49952400  0.49920846  1
  Fe  Fe41  1  0.87573018  0.62391621  0.12347195  1
  Fe  Fe42  1  0.00541038  0.24822287  0.50212130  1
  Fe  Fe43  1  0.12534538  0.87368938  0.37197997  1
  Fe  Fe44  1  0.74970339  0.25067642  0.74939330  1
  Fe  Fe45  1  0.75200534  0.00375419  0.25107150  1
  Fe  Fe46  1  0.00053069  0.75296791  0.00037554  1
  Fe  Fe47  1  0.49985201  -0.00084818  0.00151689  1
  Fe  Fe48  1  0.62484190  0.87620829  0.37323058  1
  Fe  Fe49  1  0.25268725  -0.00139244  0.75115471  1
  Fe  Fe50  1  0.37322827  0.86884604  0.37513347  1
  Fe  Fe51  1  0.62543453  0.62358701  0.62718418  1
  Fe  Fe52  1  0.62335881  0.12504692  0.12700884  1
  Fe  Fe53  1  0.37234375  0.37440247  0.37304060  1
  Fe  Fe54  1  0.37256381  0.12775045  0.12661825  1
  Fe  Fe55  1  0.00215206  0.75012883  0.49975179  1
  Fe  Fe56  1  0.12295085  0.62591596  0.87701648  1
  Fe  Fe57  1  0.37190796  0.37690683  0.62588848  1
  Fe  Fe58  1  0.62519382  0.37737744  0.12742499  1
  Fe  Fe59  1  0.62521002  0.87539587  0.62467357  1
  Fe  Fe60  1  0.62536797  0.87518379  0.87639060  1
  Fe  Fe61  1  0.62245973  0.37496911  0.87276378  1
  Fe  Fe62  1  0.37268304  0.62776306  0.37634129  1
  Fe  Fe63  1  0.75074354  0.74953814  0.24755897  1
  Fe  Fe64  1  0.00261500  0.00156532  0.49991394  1
  Fe  Fe65  1  0.00030009  0.00310417  0.24721171  1
  Fe  Fe66  1  0.87611597  0.12785265  0.87859713  1
  Fe  Fe67  1  0.87096879  0.87765139  0.12184209  1
  Fe  Fe68  1  0.62467724  0.37625786  0.37378045  1
  Fe  Fe69  1  0.00477858  0.24566795  0.24689274  1
  Fe  Fe70  1  0.00019995  0.50146425  0.25048759  1
  Fe  Fe71  1  0.24931232  -0.00164322  0.49915809  1
  Fe  Fe72  1  0.87630037  0.12453039  0.62397437  1
  Fe  Fe73  1  0.75265955  0.75099367  0.75178222  1
  Fe  Fe74  1  0.37442025  0.37486725  0.12583622  1
  Fe  Fe75  1  0.25110610  0.25022647  -0.00139748  1
  Fe  Fe76  1  0.37476709  0.87105892  0.87828006  1
  Fe  Fe77  1  0.49818233  -0.00095930  0.49782571  1
  Fe  Fe78  1  0.24823268  0.50285140  0.50048391  1
  Fe  Fe79  1  0.49676771  -0.00030073  0.25008489  1
  Fe  Fe80  1  0.00215064  0.25153836  0.75068934  1
  Fe  Fe81  1  -0.00236487  0.49784611  0.75193268  1
  Fe  Fe82  1  0.49885689  0.50201114  0.50003641  1
  Fe  Fe83  1  0.75039569  0.00136786  0.49885455  1
  Fe  Fe84  1  0.87836356  0.37198008  0.37482435  1
  Fe  Fe85  1  0.37432475  0.12516956  0.62493153  1
  Fe  Fe86  1  0.49938401  0.74945589  0.74990240  1
  Fe  Fe87  1  0.74963323  0.24833350  0.25234040  1
  Fe  Fe88  1  0.37611147  0.62743783  0.87890463  1
  Fe  Fe89  1  0.62735884  0.62239843  0.37231405  1
  Co  Co90  1  0.49522661  0.25207151  0.74921849  1
  Co  Co91  1  0.25208458  0.50429989  0.75198954  1
  Co  Co92  1  0.13015351  0.12375253  0.12314365  1
  Co  Co93  1  0.75559376  0.49849500  0.25131206  1
  Co  Co94  1  0.11921168  0.62229599  0.12170266  1
  Co  Co95  1  0.12843573  0.12291137  0.37246529  1
  Co  Co96  1  0.74645676  0.00486464  -0.00256284  1
  Co  Co97  1  0.87425413  0.12685890  0.12217318  1
  Co  Co98  1  0.87396827  0.37124993  0.87493333  1
  Co  Co99  1  0.24611154  0.74885735  0.00195108  1
  Co  Co100  1  0.12621257  0.12273709  0.62955861  1
  Co  Co101  1  0.50711380  0.74913353  0.00207037  1
  Co  Co102  1  0.12740729  0.37786395  0.62771300  1
  Co  Co103  1  0.00375629  0.25064682  0.00050178  1
  Co  Co104  1  -0.00068666  0.75072995  0.24690766  1
  Co  Co105  1  0.87881541  0.12618305  0.37604967  1
  Co  Co106  1  0.50501167  0.74831639  0.49900415  1
  Co  Co107  1  0.37646502  0.12402601  0.87712103  1
  Co  Co108  1  0.87678538  0.62695604  0.87600416  1
  Co  Co109  1  0.50065225  0.25111192  0.25029812  1
  Co  Co110  1  -0.00127802  0.49950856  0.50022956  1
  Co  Co111  1  0.49959162  0.25089732  0.00176353  1
  Co  Co112  1  0.62250459  0.12395863  0.37467271  1
  Co  Co113  1  0.12654301  0.87541247  0.87497944  1
  Co  Co114  1  0.12387289  0.62391375  0.37461480  1
  Co  Co115  1  0.37738920  0.62774471  0.12260402  1
  Co  Co116  1  0.37523376  0.37810436  0.87711424  1
  Co  Co117  1  0.62680042  0.61941420  0.12802273  1
  Co  Co118  1  0.62706449  0.87845864  0.12598575  1
  Co  Co119  1  0.37546897  0.62724273  0.62278907  1
  Co  Co120  1  0.62399029  0.62351270  0.87137329  1
  Co  Co121  1  0.24422737  0.74960865  0.50220208  1
  Co  Co122  1  0.25155149  -0.00387362  0.24899528  1
  Co  Co123  1  0.87200578  0.87443845  0.88105838  1
  Co  Co124  1  0.25013120  0.50359892  0.24777931  1
  Co  Co125  1  0.75305527  0.49898107  0.75168940  1
  Co  Co126  1  0.24607493  0.25333872  0.24912744  1
  Co  Co127  1  0.87509660  0.87514422  0.62215604  1
