# generated using pymatgen
data_Fe45Co19
_symmetry_space_group_name_H-M   'P 1'
_cell_length_a   11.41654479
_cell_length_b   11.41436903
_cell_length_c   11.41446090
_cell_angle_alpha   89.99337544
_cell_angle_beta   90.00640370
_cell_angle_gamma   90.01118013
_symmetry_Int_Tables_number   1
_chemical_formula_structural   Fe45Co19
_chemical_formula_sum   'Fe90 Co38'
_cell_volume   1487.44866078
_cell_formula_units_Z   2
loop_
 _symmetry_equiv_pos_site_id
 _symmetry_equiv_pos_as_xyz
  1  'x, y, z'
loop_
 _atom_site_type_symbol
 _atom_site_label
 _atom_site_symmetry_multiplicity
 _atom_site_fract_x
 _atom_site_fract_y
 _atom_site_fract_z
 _atom_site_occupancy
  Fe  Fe0  1  0.62503460  0.62508722  0.37466227  1
  Fe  Fe1  1  0.00193471  0.49972454  0.00039512  1
  Fe  Fe2  1  0.12683112  0.62895517  0.87252511  1
  Fe  Fe3  1  0.37121802  0.12927368  0.62188761  1
  Fe  Fe4  1  -0.00267829  0.49885201  0.49885715  1
  Fe  Fe5  1  0.50233892  0.74652189  0.00079146  1
  Fe  Fe6  1  0.00265892  0.00095759  -0.00373410  1
  Fe  Fe7  1  0.37372785  0.62706984  0.37600095  1
  Fe  Fe8  1  0.37308079  0.12440238  0.12284619  1
  Fe  Fe9  1  0.87511471  0.62570181  0.37601613  1
  Fe  Fe10  1  0.12612877  0.87344687  0.37447978  1
  Fe  Fe11  1  0.25178344  0.00012458  0.25275797  1
  Fe  Fe12  1  0.49939775  0.49864228  0.49979390  1
  Fe  Fe13  1  0.75096673  0.00045939  -0.00360657  1
  Fe  Fe14  1  0.75071049  0.25100299  -0.00026435  1
  Fe  Fe15  1  0.00100588  0.25041998  0.24710792  1
  Fe  Fe16  1  0.62372968  0.37531722  0.62651214  1
  Fe  Fe17  1  0.24838708  0.25175814  0.00265457  1
  Fe  Fe18  1  0.24955108  0.75088621  0.50415875  1
  Fe  Fe19  1  0.87729868  0.13202174  0.87270363  1
  Fe  Fe20  1  0.25162794  -0.00228763  0.49836782  1
  Fe  Fe21  1  0.49860088  0.00318208  0.49677305  1
  Fe  Fe22  1  0.75062753  -0.00002571  0.25098732  1
  Fe  Fe23  1  0.87750259  0.37674274  0.12350906  1
  Fe  Fe24  1  0.87592705  0.87725854  0.62734362  1
  Fe  Fe25  1  0.74862437  0.75135304  0.74944748  1
  Fe  Fe26  1  0.12667210  0.12637059  0.37865832  1
  Fe  Fe27  1  0.37555693  0.37006330  0.37751544  1
  Fe  Fe28  1  0.62596817  0.62157004  0.62712548  1
  Fe  Fe29  1  0.50061969  0.74927159  0.50336457  1
  Fe  Fe30  1  0.24965595  0.49900765  -0.00263773  1
  Fe  Fe31  1  0.74753569  0.74891066  -0.00015091  1
  Fe  Fe32  1  0.87237708  0.62173713  0.62519616  1
  Fe  Fe33  1  0.62296542  0.87510116  0.37538258  1
  Fe  Fe34  1  0.37245963  0.62118103  0.62773590  1
  Fe  Fe35  1  0.62538303  0.12414085  0.12292692  1
  Fe  Fe36  1  0.49788245  0.00531509  -0.00510522  1
  Fe  Fe37  1  0.37580408  0.37580827  0.12428516  1
  Fe  Fe38  1  0.12665429  0.12254618  0.12273334  1
  Fe  Fe39  1  0.75117484  0.49676932  0.75370049  1
  Fe  Fe40  1  0.12518244  0.87783513  0.63032528  1
  Fe  Fe41  1  -0.00141175  0.49917282  0.75216895  1
  Fe  Fe42  1  0.87555405  0.12770945  0.37692299  1
  Fe  Fe43  1  0.62391614  0.87743233  0.12352220  1
  Fe  Fe44  1  0.37633324  0.36921586  0.87320492  1
  Fe  Fe45  1  0.75063329  0.25110737  0.50317368  1
  Fe  Fe46  1  0.49798122  0.50077412  0.25093720  1
  Fe  Fe47  1  0.49747334  0.49932852  0.75187719  1
  Fe  Fe48  1  0.75068938  -0.00141138  0.49920021  1
  Fe  Fe49  1  0.74772767  0.75173119  0.50358960  1
  Fe  Fe50  1  0.75075796  0.24963514  0.24896315  1
  Fe  Fe51  1  0.87642267  0.87599132  0.12353095  1
  Fe  Fe52  1  0.12787197  0.62035202  0.62786832  1
  Fe  Fe53  1  0.25189770  0.49616522  0.49958854  1
  Fe  Fe54  1  0.62640906  0.37396257  0.37548085  1
  Fe  Fe55  1  0.49782525  0.00299827  0.25327249  1
  Fe  Fe56  1  0.12542685  0.62426052  0.37478390  1
  Fe  Fe57  1  0.12060764  0.36971589  0.87425215  1
  Fe  Fe58  1  0.49787448  0.74893505  0.24773160  1
  Fe  Fe59  1  0.37458446  0.87586840  0.12167917  1
  Fe  Fe60  1  0.37339969  0.62933136  0.87476290  1
  Fe  Fe61  1  0.87520864  0.12335854  0.12390440  1
  Fe  Fe62  1  0.00436839  0.75145051  0.00187958  1
  Fe  Fe63  1  0.87827472  0.87295204  0.87304025  1
  Fe  Fe64  1  0.00040850  0.00098417  0.25130417  1
  Fe  Fe65  1  0.24835115  -0.00433452  -0.00878044  1
  Fe  Fe66  1  0.62279076  0.37593045  0.12466022  1
  Fe  Fe67  1  0.24574373  0.25199489  0.74467470  1
  Fe  Fe68  1  0.75327538  0.50016487  0.25067638  1
  Fe  Fe69  1  0.87467788  0.62571888  0.87661548  1
  Fe  Fe70  1  0.74847911  0.49986136  -0.00106761  1
  Fe  Fe71  1  0.25022498  0.75017464  0.24573743  1
  Fe  Fe72  1  0.24871531  0.24999029  0.24943194  1
  Fe  Fe73  1  0.62088579  0.87483806  0.87212568  1
  Fe  Fe74  1  0.62689656  0.12409174  0.62610984  1
  Fe  Fe75  1  0.00135411  0.74949416  0.50423445  1
  Fe  Fe76  1  0.37761771  0.87655762  0.62803804  1
  Fe  Fe77  1  0.49639662  0.00671732  0.75394687  1
  Fe  Fe78  1  0.74957573  0.00097025  0.75299027  1
  Fe  Fe79  1  0.62295799  0.37057783  0.87462756  1
  Fe  Fe80  1  0.49977478  0.50078245  -0.00179325  1
  Fe  Fe81  1  0.00108698  0.25051210  0.50773079  1
  Fe  Fe82  1  0.87597932  0.87313308  0.37553657  1
  Fe  Fe83  1  0.50029634  0.24686374  0.25058105  1
  Fe  Fe84  1  0.00168793  0.74829910  0.24680604  1
  Fe  Fe85  1  0.00227970  0.00528349  0.75118293  1
  Fe  Fe86  1  0.75040107  0.74938038  0.24717771  1
  Fe  Fe87  1  -0.00050359  -0.00023568  0.49984631  1
  Fe  Fe88  1  0.12228479  0.37466338  0.37500565  1
  Fe  Fe89  1  0.25007855  0.49881373  0.25042266  1
  Co  Co90  1  0.62182366  0.88044463  0.62752835  1
  Co  Co91  1  0.25144437  0.75189325  0.74779538  1
  Co  Co92  1  0.62540722  0.62443176  0.87226197  1
  Co  Co93  1  0.12605122  0.13073511  0.87438599  1
  Co  Co94  1  0.62814568  0.12521770  0.37601458  1
  Co  Co95  1  0.37109414  0.12977563  0.37852819  1
  Co  Co96  1  0.24615666  0.75335841  0.00051195  1
  Co  Co97  1  0.37524172  0.87186126  0.37564542  1
  Co  Co98  1  0.12723014  0.62083782  0.12502570  1
  Co  Co99  1  0.75136187  0.25204777  0.74892786  1
  Co  Co100  1  0.00044282  0.24812745  0.00463431  1
  Co  Co101  1  0.50053671  0.24637873  0.74878568  1
  Co  Co102  1  0.87607604  0.37174367  0.37675339  1
  Co  Co103  1  -0.00173344  0.49946275  0.25029666  1
  Co  Co104  1  0.37307680  0.62274871  0.12210044  1
  Co  Co105  1  0.74933488  0.49913341  0.49782498  1
  Co  Co106  1  0.36946143  0.13260287  0.87565864  1
  Co  Co107  1  0.87896943  0.37182435  0.87567319  1
  Co  Co108  1  0.37918596  0.86978595  0.87396966  1
  Co  Co109  1  0.87595230  0.62395388  0.12189847  1
  Co  Co110  1  0.87423266  0.37827231  0.62624373  1
  Co  Co111  1  0.37680400  0.37394673  0.62624221  1
  Co  Co112  1  0.49971415  0.24831994  0.00159474  1
  Co  Co113  1  0.24553768  0.25551578  0.50364866  1
  Co  Co114  1  0.12936650  0.11964019  0.62365443  1
  Co  Co115  1  0.12222142  0.87183554  0.86755898  1
  Co  Co116  1  0.50078982  0.74692073  0.74686546  1
  Co  Co117  1  -0.00183118  0.74583149  0.74565266  1
  Co  Co118  1  0.25050875  0.49626303  0.75536229  1
  Co  Co119  1  0.87238712  0.12238450  0.62613297  1
  Co  Co120  1  0.25393725  0.00036162  0.75458198  1
  Co  Co121  1  0.00166949  0.24988257  0.74168920  1
  Co  Co122  1  0.12444257  0.38285459  0.62577399  1
  Co  Co123  1  0.62745889  0.12916470  0.87531213  1
  Co  Co124  1  0.62463737  0.62181531  0.12681593  1
  Co  Co125  1  0.12578050  0.37737231  0.12486238  1
  Co  Co126  1  0.50313671  0.24988272  0.50025117  1
  Co  Co127  1  0.12538031  0.87962930  0.12634992  1
