# generated using pymatgen
data_Fe45Co19
_symmetry_space_group_name_H-M   'P 1'
_cell_length_a   11.41644463
_cell_length_b   11.41563742
_cell_length_c   11.41368181
_cell_angle_alpha   90.00245280
_cell_angle_beta   90.00301253
_cell_angle_gamma   89.99615819
_symmetry_Int_Tables_number   1
_chemical_formula_structural   Fe45Co19
_chemical_formula_sum   'Fe90 Co38'
_cell_volume   1487.49940315
_cell_formula_units_Z   2
loop_
 _symmetry_equiv_pos_site_id
 _symmetry_equiv_pos_as_xyz
  1  'x, y, z'
loop_
 _atom_site_type_symbol
 _atom_site_label
 _atom_site_symmetry_multiplicity
 _atom_site_fract_x
 _atom_site_fract_y
 _atom_site_fract_z
 _atom_site_occupancy
  Fe  Fe0  1  0.37342732  0.87390737  0.12343584  1
  Fe  Fe1  1  0.24874233  0.25263250  0.50090651  1
  Fe  Fe2  1  0.75226741  -0.00162660  0.74787192  1
  Fe  Fe3  1  0.50066961  0.49976326  0.24769272  1
  Fe  Fe4  1  0.37570586  0.62448544  0.12282511  1
  Fe  Fe5  1  0.87434297  0.37314477  0.12209482  1
  Fe  Fe6  1  0.49811909  0.00197314  0.24754434  1
  Fe  Fe7  1  0.12424675  0.62169418  0.12410045  1
  Fe  Fe8  1  0.37157073  0.86710278  0.62904144  1
  Fe  Fe9  1  0.75441691  0.49689009  0.75465824  1
  Fe  Fe10  1  0.37511404  0.87432413  0.37460590  1
  Fe  Fe11  1  0.12455827  0.37888020  0.37351816  1
  Fe  Fe12  1  0.62473361  0.12414594  0.87325754  1
  Fe  Fe13  1  0.12286172  0.37822048  0.87011261  1
  Fe  Fe14  1  0.50120873  0.25191629  0.50249143  1
  Fe  Fe15  1  0.25133312  0.49995943  -0.00312769  1
  Fe  Fe16  1  0.87715975  0.87369036  0.87462632  1
  Fe  Fe17  1  0.37329139  0.12738058  0.62592337  1
  Fe  Fe18  1  0.74912400  0.75407886  0.75002387  1
  Fe  Fe19  1  0.62439199  0.87545500  0.37642131  1
  Fe  Fe20  1  0.87832727  0.12804542  0.87696036  1
  Fe  Fe21  1  -0.00066222  0.49938001  0.50445647  1
  Fe  Fe22  1  0.75082547  0.75163263  0.50197493  1
  Fe  Fe23  1  0.37588760  0.37282420  0.12505435  1
  Fe  Fe24  1  0.37574611  0.37592682  0.37482798  1
  Fe  Fe25  1  0.24857601  -0.00199956  0.50150425  1
  Fe  Fe26  1  0.87359948  0.62284622  0.37691514  1
  Fe  Fe27  1  0.12481617  0.12525977  0.37456572  1
  Fe  Fe28  1  0.75309915  -0.00082464  0.00076187  1
  Fe  Fe29  1  0.74777461  0.25308888  -0.00323515  1
  Fe  Fe30  1  -0.00024690  0.75004851  -0.00026819  1
  Fe  Fe31  1  0.25049287  0.25115950  0.24958590  1
  Fe  Fe32  1  0.62794674  0.37543473  0.62710523  1
  Fe  Fe33  1  0.49961590  0.74916049  0.50165189  1
  Fe  Fe34  1  0.62588955  0.87441512  0.12483741  1
  Fe  Fe35  1  0.62606034  0.62548757  0.62667259  1
  Fe  Fe36  1  0.25141442  0.50056236  0.50268470  1
  Fe  Fe37  1  0.37697390  0.37636667  0.86973353  1
  Fe  Fe38  1  0.62633411  0.12339145  0.62366936  1
  Fe  Fe39  1  0.87329267  0.37752931  0.37904980  1
  Fe  Fe40  1  0.12447671  0.62148441  0.37586012  1
  Fe  Fe41  1  0.50166794  0.25058673  -0.00207948  1
  Fe  Fe42  1  0.62487837  0.12371552  0.37675165  1
  Fe  Fe43  1  0.37526067  0.12600309  0.37615631  1
  Fe  Fe44  1  0.12678753  0.12701308  0.62585896  1
  Fe  Fe45  1  0.87052689  0.62601862  0.12054868  1
  Fe  Fe46  1  0.50047174  0.50077186  0.50412195  1
  Fe  Fe47  1  0.75059111  0.25080986  0.25205389  1
  Fe  Fe48  1  0.24828539  0.00337815  -0.00094994  1
  Fe  Fe49  1  0.24863928  0.74683776  0.25095342  1
  Fe  Fe50  1  0.87407307  0.62473345  0.62727546  1
  Fe  Fe51  1  0.50255188  0.74962899  -0.00160464  1
  Fe  Fe52  1  0.12173560  0.87458501  0.37800939  1
  Fe  Fe53  1  0.75146622  0.75152617  0.24945359  1
  Fe  Fe54  1  0.24891620  0.74705540  -0.00330112  1
  Fe  Fe55  1  -0.00080571  0.25150240  0.24954573  1
  Fe  Fe56  1  0.50468136  0.49803211  0.00060056  1
  Fe  Fe57  1  0.12477964  0.87487841  0.12580346  1
  Fe  Fe58  1  0.87369523  0.12584770  0.62178099  1
  Fe  Fe59  1  -0.00033688  0.25279297  0.74707461  1
  Fe  Fe60  1  0.87454593  0.12390781  0.37850804  1
  Fe  Fe61  1  0.75275024  -0.00067290  0.24849568  1
  Fe  Fe62  1  0.12446366  0.87596325  0.87430852  1
  Fe  Fe63  1  0.00044256  -0.00091397  0.74582288  1
  Fe  Fe64  1  0.49845950  0.00133659  0.00074835  1
  Fe  Fe65  1  0.00074756  0.25244727  0.50116891  1
  Fe  Fe66  1  0.62536506  0.37674551  0.37568414  1
  Fe  Fe67  1  0.12375896  0.37859211  0.12634867  1
  Fe  Fe68  1  0.37440403  0.87208269  0.87339696  1
  Fe  Fe69  1  -0.00026193  0.00241283  0.00273219  1
  Fe  Fe70  1  0.37278557  0.37610397  0.63108716  1
  Fe  Fe71  1  0.37536296  0.12683381  0.87332440  1
  Fe  Fe72  1  -0.00570483  0.49959755  -0.00361307  1
  Fe  Fe73  1  0.62546629  0.12777110  0.12599304  1
  Fe  Fe74  1  0.62552882  0.62476958  0.37447380  1
  Fe  Fe75  1  0.75005547  0.49966375  0.24767186  1
  Fe  Fe76  1  -0.00089960  0.74670336  0.25023674  1
  Fe  Fe77  1  0.62439648  0.87745435  0.87400764  1
  Fe  Fe78  1  0.75039713  0.24982310  0.75007075  1
  Fe  Fe79  1  0.25104288  0.00068880  0.24910466  1
  Fe  Fe80  1  0.87782060  0.87586855  0.37958713  1
  Fe  Fe81  1  0.24575212  0.24886039  -0.00333786  1
  Fe  Fe82  1  0.24824212  -0.00006386  0.75021309  1
  Fe  Fe83  1  0.62791796  0.62329434  0.87669365  1
  Fe  Fe84  1  0.49858941  -0.00227794  0.50264690  1
  Fe  Fe85  1  -0.00244404  0.00160184  0.24736439  1
  Fe  Fe86  1  0.37555401  0.62337931  0.37556188  1
  Fe  Fe87  1  0.00412241  0.74681777  0.74853836  1
  Fe  Fe88  1  0.49878109  -0.00024670  0.74846079  1
  Fe  Fe89  1  0.49996385  0.74843078  0.24826965  1
  Co  Co90  1  0.87629316  0.87247749  0.12387906  1
  Co  Co91  1  -0.00176629  0.74534362  0.50075716  1
  Co  Co92  1  0.87852914  0.87352224  0.62340817  1
  Co  Co93  1  0.37380939  0.12828956  0.12314600  1
  Co  Co94  1  -0.00489521  0.50098703  0.24895789  1
  Co  Co95  1  0.25012962  0.74896325  0.49553003  1
  Co  Co96  1  0.12062927  0.12384861  0.87140076  1
  Co  Co97  1  0.62540564  0.37291622  0.12698516  1
  Co  Co98  1  0.74877538  0.50214517  0.50170735  1
  Co  Co99  1  0.24877952  0.50762886  0.75193830  1
  Co  Co100  1  0.37367146  0.62859536  0.62678250  1
  Co  Co101  1  0.00646943  0.25031242  0.00118272  1
  Co  Co102  1  0.75021298  -0.00328607  0.50219899  1
  Co  Co103  1  0.12536971  0.12517539  0.12763492  1
  Co  Co104  1  0.87412290  0.12988491  0.12260789  1
  Co  Co105  1  0.12736715  0.87030386  0.62408653  1
  Co  Co106  1  0.00261221  0.00265734  0.50369829  1
  Co  Co107  1  0.75038681  0.49528340  -0.00308326  1
  Co  Co108  1  0.50299896  0.74793517  0.75296780  1
  Co  Co109  1  0.87864194  0.37020704  0.87518560  1
  Co  Co110  1  0.62275139  0.87449417  0.62511397  1
  Co  Co111  1  0.24558851  0.74247896  0.75689360  1
  Co  Co112  1  0.24877167  0.24909607  0.75327149  1
  Co  Co113  1  0.12741101  0.62539505  0.62139580  1
  Co  Co114  1  0.12794883  0.37722960  0.62877584  1
  Co  Co115  1  0.49945319  0.24981602  0.25257314  1
  Co  Co116  1  0.87316745  0.62892064  0.87379232  1
  Co  Co117  1  0.87256092  0.37529062  0.62353998  1
  Co  Co118  1  0.74874978  0.75370459  -0.00202403  1
  Co  Co119  1  0.74822147  0.25039821  0.49935229  1
  Co  Co120  1  0.25256316  0.50105065  0.24898511  1
  Co  Co121  1  0.37967267  0.62302727  0.87598036  1
  Co  Co122  1  0.50108848  0.50267154  0.74826896  1
  Co  Co123  1  0.50223813  0.24824852  0.74797947  1
  Co  Co124  1  0.62836992  0.62537519  0.12372763  1
  Co  Co125  1  0.12034347  0.62097032  0.87910204  1
  Co  Co126  1  0.62268570  0.37545049  0.87005543  1
  Co  Co127  1  -0.00192621  0.50126085  0.74822952  1
