# generated using pymatgen
data_Fe45Co19
_symmetry_space_group_name_H-M   'P 1'
_cell_length_a   11.41546929
_cell_length_b   11.41559519
_cell_length_c   11.41449788
_cell_angle_alpha   89.99403096
_cell_angle_beta   89.99893928
_cell_angle_gamma   90.00387108
_symmetry_Int_Tables_number   1
_chemical_formula_structural   Fe45Co19
_chemical_formula_sum   'Fe90 Co38'
_cell_volume   1487.47316089
_cell_formula_units_Z   2
loop_
 _symmetry_equiv_pos_site_id
 _symmetry_equiv_pos_as_xyz
  1  'x, y, z'
loop_
 _atom_site_type_symbol
 _atom_site_label
 _atom_site_symmetry_multiplicity
 _atom_site_fract_x
 _atom_site_fract_y
 _atom_site_fract_z
 _atom_site_occupancy
  Fe  Fe0  1  0.75086242  -0.00060600  0.25191483  1
  Fe  Fe1  1  0.25295126  -0.00362813  0.25184401  1
  Fe  Fe2  1  0.87324741  0.37710915  0.62432230  1
  Fe  Fe3  1  0.25244058  -0.00046270  -0.00155427  1
  Fe  Fe4  1  0.87681162  0.37529196  0.37669831  1
  Fe  Fe5  1  0.87733828  0.12297109  0.87320914  1
  Fe  Fe6  1  0.87508103  0.37519295  0.12470078  1
  Fe  Fe7  1  0.00058797  0.50058652  0.25057224  1
  Fe  Fe8  1  0.50058557  0.50412564  0.49919198  1
  Fe  Fe9  1  0.25220638  0.50195379  0.25071508  1
  Fe  Fe10  1  0.12749732  0.62754786  0.37287850  1
  Fe  Fe11  1  0.50049659  0.74856308  0.25294521  1
  Fe  Fe12  1  0.12754630  0.12141633  0.62571781  1
  Fe  Fe13  1  0.37816468  0.62530759  0.87530879  1
  Fe  Fe14  1  0.37231541  0.37635918  0.38027233  1
  Fe  Fe15  1  0.74991873  0.50070523  -0.00246549  1
  Fe  Fe16  1  0.75051782  0.24812619  0.00008410  1
  Fe  Fe17  1  0.12862648  0.37686815  0.62340387  1
  Fe  Fe18  1  0.37755409  0.87287537  0.12237625  1
  Fe  Fe19  1  0.74885125  0.24931078  0.50160731  1
  Fe  Fe20  1  0.62355182  0.37578374  0.37773635  1
  Fe  Fe21  1  0.87360536  0.62730865  0.37648133  1
  Fe  Fe22  1  0.00062795  0.75157233  0.25007026  1
  Fe  Fe23  1  0.75002061  -0.00274508  0.74975979  1
  Fe  Fe24  1  0.12214748  0.62633308  0.87462513  1
  Fe  Fe25  1  0.49777969  -0.00333480  0.74983819  1
  Fe  Fe26  1  0.74973298  0.24955790  0.25199472  1
  Fe  Fe27  1  0.25135722  0.50075069  0.75047232  1
  Fe  Fe28  1  0.62280313  0.12263733  0.62572699  1
  Fe  Fe29  1  0.00104067  0.24919285  0.24937221  1
  Fe  Fe30  1  0.24795012  0.75091757  0.49942089  1
  Fe  Fe31  1  0.87494575  0.12388834  0.62561880  1
  Fe  Fe32  1  0.24960904  0.75331875  0.75243492  1
  Fe  Fe33  1  0.12725965  0.37549863  0.87736262  1
  Fe  Fe34  1  0.74648201  0.75275224  0.49917300  1
  Fe  Fe35  1  0.49799033  -0.00072796  0.25080997  1
  Fe  Fe36  1  0.62423672  0.12515711  0.12574268  1
  Fe  Fe37  1  0.37855747  0.62316652  0.12445667  1
  Fe  Fe38  1  0.25094095  0.25087068  0.25176255  1
  Fe  Fe39  1  0.12710986  0.37642746  0.12133117  1
  Fe  Fe40  1  0.50334332  0.74989950  0.49969220  1
  Fe  Fe41  1  0.74892740  0.75190457  0.25083022  1
  Fe  Fe42  1  0.25373244  -0.00194289  0.49847093  1
  Fe  Fe43  1  0.74881333  0.75010523  -0.00141109  1
  Fe  Fe44  1  0.87607894  0.87524165  0.12265151  1
  Fe  Fe45  1  0.62485813  0.62463832  0.87289833  1
  Fe  Fe46  1  0.74984858  0.00058038  0.00012708  1
  Fe  Fe47  1  0.87621899  0.37337765  0.87463476  1
  Fe  Fe48  1  0.62186743  0.87547822  0.87678320  1
  Fe  Fe49  1  0.12660047  0.37533936  0.37761972  1
  Fe  Fe50  1  0.00246650  0.24911006  0.50163515  1
  Fe  Fe51  1  0.74816900  0.25055143  0.74733486  1
  Fe  Fe52  1  0.87563218  0.62420080  0.12381689  1
  Fe  Fe53  1  0.87522856  0.62704360  0.87234954  1
  Fe  Fe54  1  0.12459524  0.12209251  0.87216484  1
  Fe  Fe55  1  0.25161164  -0.00604768  0.75110388  1
  Fe  Fe56  1  0.63091994  0.62293454  0.62717183  1
  Fe  Fe57  1  0.00216285  0.75011543  0.50184031  1
  Fe  Fe58  1  0.49580666  0.24800299  0.50466349  1
  Fe  Fe59  1  0.00020898  0.75487917  0.74919205  1
  Fe  Fe60  1  0.12434862  0.87436390  0.12237293  1
  Fe  Fe61  1  0.62246253  0.87545275  0.12433393  1
  Fe  Fe62  1  0.12302383  0.62472323  0.12330149  1
  Fe  Fe63  1  0.62236076  0.12517264  0.87295015  1
  Fe  Fe64  1  0.25362722  0.25178045  0.74735482  1
  Fe  Fe65  1  0.25072997  0.74856881  -0.00076627  1
  Fe  Fe66  1  0.62300324  0.62178947  0.12678547  1
  Fe  Fe67  1  0.12698407  0.12353548  0.37536424  1
  Fe  Fe68  1  0.49892533  0.49693008  0.74865591  1
  Fe  Fe69  1  0.37494835  0.12609665  0.12553708  1
  Fe  Fe70  1  0.37265842  0.62645566  0.62424521  1
  Fe  Fe71  1  0.74964307  0.49948356  0.25336680  1
  Fe  Fe72  1  0.62321065  0.12294291  0.37643254  1
  Fe  Fe73  1  0.00226022  0.24992255  0.74768266  1
  Fe  Fe74  1  0.00090883  0.50481204  0.50265664  1
  Fe  Fe75  1  0.62329892  0.37340332  0.87292593  1
  Fe  Fe76  1  0.87481348  0.12463660  0.37603429  1
  Fe  Fe77  1  0.00126088  0.24698837  0.00120741  1
  Fe  Fe78  1  0.62395250  0.37673914  0.12517655  1
  Fe  Fe79  1  0.37603523  0.12575376  0.87233240  1
  Fe  Fe80  1  0.50186439  0.75142486  0.74809792  1
  Fe  Fe81  1  -0.00075695  0.50100166  0.74792611  1
  Fe  Fe82  1  -0.00124373  -0.00102552  0.25072231  1
  Fe  Fe83  1  0.49824234  0.24936468  -0.00137998  1
  Fe  Fe84  1  0.49790841  0.25210220  0.25100392  1
  Fe  Fe85  1  0.37364618  0.37723399  0.11990039  1
  Fe  Fe86  1  0.49648172  -0.00254166  0.49982254  1
  Fe  Fe87  1  0.87268018  0.87376530  0.62462499  1
  Fe  Fe88  1  0.12656711  0.12390549  0.12593086  1
  Fe  Fe89  1  -0.00034392  -0.00236018  0.50067954  1
  Co  Co90  1  0.62397754  0.87728498  0.62531894  1
  Co  Co91  1  0.50178260  0.49959116  -0.00263698  1
  Co  Co92  1  0.37258644  0.62859437  0.37622323  1
  Co  Co93  1  -0.00089718  0.49971871  -0.00177408  1
  Co  Co94  1  0.49717728  0.25325555  0.74706043  1
  Co  Co95  1  0.37820270  0.87227593  0.87683180  1
  Co  Co96  1  0.37545824  0.87019340  0.37506084  1
  Co  Co97  1  0.62354268  0.87726981  0.37401445  1
  Co  Co98  1  0.25009338  0.50579104  -0.00179777  1
  Co  Co99  1  0.12342248  0.87627917  0.87831085  1
  Co  Co100  1  0.37270338  0.37912154  0.62110729  1
  Co  Co101  1  0.87374274  0.12518158  0.12644523  1
  Co  Co102  1  0.62686955  0.62513231  0.37310488  1
  Co  Co103  1  0.62479638  0.37688297  0.62379607  1
  Co  Co104  1  0.37507502  0.12555104  0.37346814  1
  Co  Co105  1  0.24659084  0.50502865  0.50016545  1
  Co  Co106  1  -0.00066341  -0.00390918  0.74706273  1
  Co  Co107  1  0.37342605  0.37521300  0.87744730  1
  Co  Co108  1  0.25083327  0.24598774  0.50203339  1
  Co  Co109  1  0.12760415  0.87584856  0.62417065  1
  Co  Co110  1  0.12699012  0.62745515  0.62908640  1
  Co  Co111  1  0.12581540  0.87488495  0.37380050  1
  Co  Co112  1  0.74811188  0.75506305  0.75265667  1
  Co  Co113  1  0.87510159  0.87315335  0.37611718  1
  Co  Co114  1  0.75070308  -0.00146595  0.50045261  1
  Co  Co115  1  0.87624315  0.87705400  0.87704080  1
  Co  Co116  1  -0.00107375  0.74951517  -0.00075698  1
  Co  Co117  1  0.00020212  0.00287500  0.00124786  1
  Co  Co118  1  0.25067225  0.74950287  0.24557230  1
  Co  Co119  1  0.49858364  0.00233089  -0.00027384  1
  Co  Co120  1  0.75079693  0.49773256  0.75159059  1
  Co  Co121  1  0.37419610  0.12136059  0.62851646  1
  Co  Co122  1  0.75095804  0.50029131  0.49879084  1
  Co  Co123  1  0.49692836  0.49873280  0.25419890  1
  Co  Co124  1  0.87073152  0.62817781  0.62689379  1
  Co  Co125  1  0.24978112  0.24576613  -0.00154658  1
  Co  Co126  1  0.50215639  0.74783999  -0.00016718  1
  Co  Co127  1  0.37483544  0.87157093  0.62458474  1
