# generated using pymatgen
data_Fe45Co19
_symmetry_space_group_name_H-M   'P 1'
_cell_length_a   11.41549348
_cell_length_b   11.41609244
_cell_length_c   11.41656401
_cell_angle_alpha   89.99412100
_cell_angle_beta   89.99474557
_cell_angle_gamma   90.00639977
_symmetry_Int_Tables_number   1
_chemical_formula_structural   Fe45Co19
_chemical_formula_sum   'Fe90 Co38'
_cell_volume   1487.81035351
_cell_formula_units_Z   2
loop_
 _symmetry_equiv_pos_site_id
 _symmetry_equiv_pos_as_xyz
  1  'x, y, z'
loop_
 _atom_site_type_symbol
 _atom_site_label
 _atom_site_symmetry_multiplicity
 _atom_site_fract_x
 _atom_site_fract_y
 _atom_site_fract_z
 _atom_site_occupancy
  Fe  Fe0  1  0.37498387  0.12575143  0.62335584  1
  Fe  Fe1  1  0.24796700  0.49814937  0.25332014  1
  Fe  Fe2  1  0.74646716  0.25349503  0.50482198  1
  Fe  Fe3  1  0.25112065  -0.00248820  0.49937273  1
  Fe  Fe4  1  0.87822363  0.87312880  0.12439900  1
  Fe  Fe5  1  0.37423635  0.87457435  0.12596045  1
  Fe  Fe6  1  0.74913583  -0.00169266  0.50322364  1
  Fe  Fe7  1  0.75024145  0.25218250  0.25056848  1
  Fe  Fe8  1  0.00127257  0.00096721  -0.00134625  1
  Fe  Fe9  1  0.49844307  0.50136933  0.49841501  1
  Fe  Fe10  1  0.12484533  0.87380485  0.62675055  1
  Fe  Fe11  1  0.62476509  0.37887312  0.87210472  1
  Fe  Fe12  1  0.87119790  0.12412109  0.87195270  1
  Fe  Fe13  1  0.49995215  0.74648154  0.25221113  1
  Fe  Fe14  1  0.37427320  0.87348151  0.37358320  1
  Fe  Fe15  1  0.49929285  0.74745084  -0.00002818  1
  Fe  Fe16  1  0.37592355  0.37694064  0.62510483  1
  Fe  Fe17  1  -0.00070289  -0.00008664  0.50175805  1
  Fe  Fe18  1  0.49974086  0.00250329  0.24938395  1
  Fe  Fe19  1  0.12375799  0.87573479  0.37457585  1
  Fe  Fe20  1  0.87251664  0.12578865  0.62733585  1
  Fe  Fe21  1  0.74848246  0.74877532  0.49866044  1
  Fe  Fe22  1  0.24674515  0.74795504  0.24906001  1
  Fe  Fe23  1  0.00126391  0.00218097  0.74988984  1
  Fe  Fe24  1  0.74928978  0.75078932  -0.00055908  1
  Fe  Fe25  1  0.87616811  0.62527399  0.62627047  1
  Fe  Fe26  1  0.37326076  0.12614602  0.87529960  1
  Fe  Fe27  1  0.74960200  0.25161716  -0.00286729  1
  Fe  Fe28  1  0.00398819  0.50164680  0.50360801  1
  Fe  Fe29  1  0.49820675  0.00045567  0.00091011  1
  Fe  Fe30  1  0.37563025  0.12852912  0.37591468  1
  Fe  Fe31  1  0.87564390  0.12687038  0.12377213  1
  Fe  Fe32  1  0.62255661  0.37543524  0.37420018  1
  Fe  Fe33  1  0.37221391  0.62317183  0.12381158  1
  Fe  Fe34  1  0.62499113  0.37649175  0.12609144  1
  Fe  Fe35  1  0.87679370  0.37455470  0.12551524  1
  Fe  Fe36  1  0.87555805  0.12649629  0.37753899  1
  Fe  Fe37  1  0.00179697  0.00415919  0.24945628  1
  Fe  Fe38  1  0.75031514  0.00054656  0.24917156  1
  Fe  Fe39  1  0.62380386  0.12698071  0.37753087  1
  Fe  Fe40  1  0.50022193  -0.00264266  0.74869739  1
  Fe  Fe41  1  0.00279783  0.50016159  -0.00388477  1
  Fe  Fe42  1  0.13090093  0.62535059  0.87397187  1
  Fe  Fe43  1  0.50229948  0.24987014  0.74713315  1
  Fe  Fe44  1  0.62417306  0.87454963  0.37525876  1
  Fe  Fe45  1  0.25167521  -0.00092065  0.74943492  1
  Fe  Fe46  1  0.00021563  0.50202627  0.24960181  1
  Fe  Fe47  1  0.87663006  0.37637058  0.63047027  1
  Fe  Fe48  1  0.62635360  0.12584418  0.12294161  1
  Fe  Fe49  1  0.75135263  0.49929125  -0.00043159  1
  Fe  Fe50  1  0.25040293  0.25552017  0.49766946  1
  Fe  Fe51  1  0.62344097  0.62494434  0.62454212  1
  Fe  Fe52  1  0.37099595  0.12818541  0.12407795  1
  Fe  Fe53  1  0.87589153  0.37578259  0.86961828  1
  Fe  Fe54  1  0.37677723  0.87032741  0.62233301  1
  Fe  Fe55  1  0.87656120  0.87513091  0.37466876  1
  Fe  Fe56  1  0.49786889  0.49983965  -0.00068348  1
  Fe  Fe57  1  0.37469534  0.37285466  0.12949716  1
  Fe  Fe58  1  0.62646192  0.62313928  0.12490744  1
  Fe  Fe59  1  0.87796882  0.37484677  0.37499444  1
  Fe  Fe60  1  0.00132924  0.74791842  0.75173653  1
  Fe  Fe61  1  0.37349134  0.37388417  0.87228621  1
  Fe  Fe62  1  0.87272648  0.62441320  0.87436875  1
  Fe  Fe63  1  0.87378456  0.87642064  0.87513160  1
  Fe  Fe64  1  0.37379432  0.87310618  0.87747230  1
  Fe  Fe65  1  0.87659405  0.62375861  0.37464356  1
  Fe  Fe66  1  0.87674048  0.62577452  0.12453817  1
  Fe  Fe67  1  0.49858955  0.74733727  0.75201867  1
  Fe  Fe68  1  0.49997827  0.50179755  0.25156595  1
  Fe  Fe69  1  0.12429275  0.37224153  0.12728825  1
  Fe  Fe70  1  0.12452313  0.37624718  0.63247532  1
  Fe  Fe71  1  0.00320740  0.74834776  0.49923853  1
  Fe  Fe72  1  0.24927485  0.49625958  -0.00123452  1
  Fe  Fe73  1  0.12974794  0.12792474  0.87656267  1
  Fe  Fe74  1  0.00115865  0.25142535  0.50242789  1
  Fe  Fe75  1  0.12767454  0.12530062  0.62295854  1
  Fe  Fe76  1  0.87588667  0.87295547  0.62562392  1
  Fe  Fe77  1  0.62726324  0.12127502  0.87267512  1
  Fe  Fe78  1  0.49983716  -0.00106708  0.50017232  1
  Fe  Fe79  1  0.49991023  0.25119559  -0.00044204  1
  Fe  Fe80  1  0.74639021  0.75066843  0.75095281  1
  Fe  Fe81  1  0.62380783  0.87487247  0.12433619  1
  Fe  Fe82  1  0.49586673  0.50541906  0.75101042  1
  Fe  Fe83  1  0.24650400  0.00395990  0.24905013  1
  Fe  Fe84  1  0.12305730  0.87296984  0.12266711  1
  Fe  Fe85  1  0.36928431  0.62504232  0.37966059  1
  Fe  Fe86  1  0.00136905  0.25193551  -0.00354527  1
  Fe  Fe87  1  0.75039346  0.74827743  0.25103488  1
  Fe  Fe88  1  0.12805883  0.87303602  0.87507313  1
  Fe  Fe89  1  0.75015473  0.49949225  0.50091607  1
  Co  Co90  1  0.25022335  0.74972942  0.00313002  1
  Co  Co91  1  0.25226506  0.24910105  0.74759680  1
  Co  Co92  1  0.00164451  0.74801138  0.25181285  1
  Co  Co93  1  0.62186607  0.38154457  0.62685121  1
  Co  Co94  1  0.12659773  0.12916576  0.12028849  1
  Co  Co95  1  0.50079095  0.25179821  0.50408407  1
  Co  Co96  1  0.62219879  0.87179871  0.62335393  1
  Co  Co97  1  0.00081930  0.74746093  -0.00390692  1
  Co  Co98  1  0.25412794  0.74997691  0.74862970  1
  Co  Co99  1  0.37236685  0.62628407  0.61888489  1
  Co  Co100  1  0.75043867  0.50145899  0.74839577  1
  Co  Co101  1  0.37893920  0.37407421  0.37344594  1
  Co  Co102  1  0.25153792  0.25546892  -0.00066004  1
  Co  Co103  1  0.12649033  0.37412586  0.86905072  1
  Co  Co104  1  0.12447958  0.62315479  0.12369298  1
  Co  Co105  1  0.00073077  0.24637526  0.25069718  1
  Co  Co106  1  0.74642773  0.25294501  0.74801429  1
  Co  Co107  1  0.24603989  0.75284661  0.50008510  1
  Co  Co108  1  0.25396774  0.50240303  0.74900925  1
  Co  Co109  1  0.00075846  0.24580184  0.75048364  1
  Co  Co110  1  0.12393486  0.12548467  0.38076374  1
  Co  Co111  1  0.37117616  0.62562578  0.87912684  1
  Co  Co112  1  0.74958339  -0.00440842  0.74604989  1
  Co  Co113  1  0.50115773  0.24862372  0.24779220  1
  Co  Co114  1  0.25065476  -0.00199158  0.00027214  1
  Co  Co115  1  0.50063910  0.74782964  0.49568520  1
  Co  Co116  1  0.62393447  0.87657519  0.87734072  1
  Co  Co117  1  0.24676244  0.49408350  0.50013526  1
  Co  Co118  1  0.75224597  0.49867868  0.25036064  1
  Co  Co119  1  0.12845145  0.62590618  0.62649203  1
  Co  Co120  1  0.62703826  0.62219455  0.37481784  1
  Co  Co121  1  0.12590454  0.62317993  0.37655345  1
  Co  Co122  1  0.11972059  0.37563436  0.37317090  1
  Co  Co123  1  0.00124724  0.50483786  0.75192237  1
  Co  Co124  1  0.62438012  0.12217537  0.62581511  1
  Co  Co125  1  0.62492024  0.62254974  0.87657761  1
  Co  Co126  1  0.75155618  -0.00094216  0.00226897  1
  Co  Co127  1  0.24764038  0.24916888  0.25433409  1
