# generated using pymatgen
data_Fe45Co19
_symmetry_space_group_name_H-M   'P 1'
_cell_length_a   11.41551502
_cell_length_b   11.41467048
_cell_length_c   11.41660274
_cell_angle_alpha   89.99856237
_cell_angle_beta   89.99421656
_cell_angle_gamma   89.99698122
_symmetry_Int_Tables_number   1
_chemical_formula_structural   Fe45Co19
_chemical_formula_sum   'Fe90 Co38'
_cell_volume   1487.63290217
_cell_formula_units_Z   2
loop_
 _symmetry_equiv_pos_site_id
 _symmetry_equiv_pos_as_xyz
  1  'x, y, z'
loop_
 _atom_site_type_symbol
 _atom_site_label
 _atom_site_symmetry_multiplicity
 _atom_site_fract_x
 _atom_site_fract_y
 _atom_site_fract_z
 _atom_site_occupancy
  Fe  Fe0  1  0.87768869  0.12707779  0.37620347  1
  Fe  Fe1  1  -0.00005057  0.00127469  0.25237161  1
  Fe  Fe2  1  0.62586851  0.87803219  0.62514514  1
  Fe  Fe3  1  0.37256998  0.37259624  0.12683095  1
  Fe  Fe4  1  0.87712508  0.62385216  0.12269618  1
  Fe  Fe5  1  0.37122635  0.87662024  0.12728726  1
  Fe  Fe6  1  0.24699570  0.00134725  -0.00043330  1
  Fe  Fe7  1  0.37718681  0.12522591  0.87665337  1
  Fe  Fe8  1  0.62555746  0.62245693  0.12475968  1
  Fe  Fe9  1  0.75052710  0.24828290  0.50212346  1
  Fe  Fe10  1  0.49956377  0.75219999  0.00055764  1
  Fe  Fe11  1  0.62743359  0.37359407  0.62455088  1
  Fe  Fe12  1  0.12090963  0.12886359  0.12463315  1
  Fe  Fe13  1  0.62381022  0.12769592  0.37440434  1
  Fe  Fe14  1  0.50116850  0.00170023  0.74923137  1
  Fe  Fe15  1  0.49925650  0.00176142  0.49889903  1
  Fe  Fe16  1  -0.00009231  0.49714845  -0.00223161  1
  Fe  Fe17  1  0.62058019  0.62503482  0.62623180  1
  Fe  Fe18  1  0.49891831  0.75195682  0.49993815  1
  Fe  Fe19  1  0.49915143  0.00248706  0.24879958  1
  Fe  Fe20  1  0.87827406  0.12534718  0.87381184  1
  Fe  Fe21  1  0.25304982  0.74555686  0.74698452  1
  Fe  Fe22  1  0.50007992  0.00102912  0.00252192  1
  Fe  Fe23  1  0.50000865  0.49762930  0.25176600  1
  Fe  Fe24  1  0.87619813  0.62247689  0.37776844  1
  Fe  Fe25  1  0.24759766  0.00456230  0.74951534  1
  Fe  Fe26  1  0.37699997  0.12984825  0.37361046  1
  Fe  Fe27  1  0.37151446  0.87475376  0.37419832  1
  Fe  Fe28  1  0.87596817  0.62400800  0.62468381  1
  Fe  Fe29  1  0.87491605  0.87513037  0.87359541  1
  Fe  Fe30  1  0.75040978  0.74824894  0.25061101  1
  Fe  Fe31  1  0.62583547  0.87755796  0.87288744  1
  Fe  Fe32  1  0.62547637  0.87666705  0.37439266  1
  Fe  Fe33  1  0.75175732  0.24845670  0.24743557  1
  Fe  Fe34  1  0.87567799  0.87384316  0.37452009  1
  Fe  Fe35  1  0.24860278  0.49953820  0.25068250  1
  Fe  Fe36  1  0.00073723  0.75176196  0.75031715  1
  Fe  Fe37  1  0.87042092  0.37676750  0.37734030  1
  Fe  Fe38  1  0.87538753  0.87691033  0.62519359  1
  Fe  Fe39  1  0.12034213  0.12995867  0.37984270  1
  Fe  Fe40  1  0.50065832  0.24867484  0.74775918  1
  Fe  Fe41  1  0.87699356  0.62476395  0.87449684  1
  Fe  Fe42  1  0.74992044  0.24486589  0.74912278  1
  Fe  Fe43  1  0.74938871  0.75070551  0.74914183  1
  Fe  Fe44  1  0.24803406  0.00278997  0.49924276  1
  Fe  Fe45  1  0.62728230  0.37614555  0.12566472  1
  Fe  Fe46  1  0.49948200  0.24903333  0.00309996  1
  Fe  Fe47  1  0.62194288  0.62550203  0.87481146  1
  Fe  Fe48  1  0.24759433  0.00532908  0.25070865  1
  Fe  Fe49  1  0.49985735  0.49393325  0.49969722  1
  Fe  Fe50  1  0.62637000  0.37208081  0.87516899  1
  Fe  Fe51  1  0.00501414  0.74703762  0.25069894  1
  Fe  Fe52  1  0.37293244  0.37502289  0.86984070  1
  Fe  Fe53  1  0.62724767  0.87717016  0.12764818  1
  Fe  Fe54  1  0.00349896  0.75257935  0.49773822  1
  Fe  Fe55  1  0.75177760  0.24687750  0.00114037  1
  Fe  Fe56  1  0.25234640  0.49666240  0.50343665  1
  Fe  Fe57  1  0.37406190  0.87541109  0.62449329  1
  Fe  Fe58  1  0.12531229  0.87752880  0.62518574  1
  Fe  Fe59  1  0.37256047  0.62563075  0.37836976  1
  Fe  Fe60  1  0.37546012  0.12800326  0.62329387  1
  Fe  Fe61  1  0.12517265  0.37340679  0.37681306  1
  Fe  Fe62  1  0.87627527  0.87636524  0.12628989  1
  Fe  Fe63  1  0.00178592  0.49604523  0.74720661  1
  Fe  Fe64  1  0.62579985  0.62228607  0.37507424  1
  Fe  Fe65  1  0.12718242  0.37364535  0.86975269  1
  Fe  Fe66  1  0.12129030  0.12842410  0.87185997  1
  Fe  Fe67  1  0.12432239  0.37336144  0.12515208  1
  Fe  Fe68  1  0.74796626  0.50208572  0.75090186  1
  Fe  Fe69  1  0.00046866  0.49902511  0.25071513  1
  Fe  Fe70  1  0.88020633  0.12252289  0.62555153  1
  Fe  Fe71  1  0.24955770  0.24965425  -0.00097545  1
  Fe  Fe72  1  0.12396711  0.62642055  0.87694441  1
  Fe  Fe73  1  0.74934359  0.74890762  0.50054921  1
  Fe  Fe74  1  0.87568011  0.37491774  0.12324657  1
  Fe  Fe75  1  0.24820535  0.74996613  0.00200419  1
  Fe  Fe76  1  0.12461660  0.62396620  0.62160361  1
  Fe  Fe77  1  0.75048637  0.00300097  -0.00010294  1
  Fe  Fe78  1  0.37518724  0.36936867  0.37345543  1
  Fe  Fe79  1  0.75152005  0.00039991  0.49878990  1
  Fe  Fe80  1  0.49920775  0.74917353  0.25022518  1
  Fe  Fe81  1  0.37369846  0.62339516  0.12438252  1
  Fe  Fe82  1  0.25038604  0.49938866  -0.00233437  1
  Fe  Fe83  1  -0.00098474  0.49321981  0.50438045  1
  Fe  Fe84  1  0.24495456  0.74661026  0.25145100  1
  Fe  Fe85  1  0.49897834  0.49800670  -0.00178361  1
  Fe  Fe86  1  0.87346437  0.37416679  0.87220584  1
  Fe  Fe87  1  0.00273574  -0.00305283  -0.00302505  1
  Fe  Fe88  1  0.37287699  0.87555120  0.87416613  1
  Fe  Fe89  1  0.75059198  0.74908399  -0.00048441  1
  Co  Co90  1  0.74809982  0.50300861  0.50233368  1
  Co  Co91  1  0.24862522  0.75148800  0.50132540  1
  Co  Co92  1  0.24667374  0.24890030  0.25067578  1
  Co  Co93  1  0.00051583  0.75304620  0.00034792  1
  Co  Co94  1  0.25117826  0.24918767  0.49934168  1
  Co  Co95  1  -0.00286603  0.25686958  0.50415147  1
  Co  Co96  1  0.75257082  0.00242684  0.25282300  1
  Co  Co97  1  0.37672041  0.62558024  0.87642936  1
  Co  Co98  1  0.75082694  0.00261756  0.75024344  1
  Co  Co99  1  0.37269101  0.12621203  0.12456019  1
  Co  Co100  1  -0.00207166  0.25330406  0.25214986  1
  Co  Co101  1  0.37965025  0.62331275  0.62255000  1
  Co  Co102  1  0.12422826  0.62129317  0.12215907  1
  Co  Co103  1  0.75173930  0.50066030  0.24899937  1
  Co  Co104  1  0.37190477  0.37385326  0.63028167  1
  Co  Co105  1  0.12714680  0.87673569  0.37365968  1
  Co  Co106  1  0.24948154  0.50658042  0.74882501  1
  Co  Co107  1  0.62338430  0.12548653  0.87611619  1
  Co  Co108  1  0.88004540  0.12344070  0.12371088  1
  Co  Co109  1  0.62939877  0.37253256  0.37480399  1
  Co  Co110  1  -0.00002957  0.25271757  -0.00283132  1
  Co  Co111  1  0.12500068  0.61975202  0.38001891  1
  Co  Co112  1  0.12913453  0.87127065  0.87182197  1
  Co  Co113  1  0.50048174  0.49699897  0.75104837  1
  Co  Co114  1  0.00036492  -0.00223787  0.49855384  1
  Co  Co115  1  0.75068686  0.50047313  -0.00241676  1
  Co  Co116  1  0.49951067  0.25305172  0.50236330  1
  Co  Co117  1  0.49839893  0.75335639  0.75034105  1
  Co  Co118  1  0.00254439  -0.00165098  0.75202206  1
  Co  Co119  1  0.12461006  0.87695999  0.12765330  1
  Co  Co120  1  0.50155745  0.25092955  0.24677281  1
  Co  Co121  1  0.12035506  0.12683779  0.62263492  1
  Co  Co122  1  0.62478768  0.12362303  0.62303556  1
  Co  Co123  1  0.86784272  0.37624904  0.62728718  1
  Co  Co124  1  0.25101668  0.24336789  0.75064400  1
  Co  Co125  1  -0.00181603  0.25355515  0.74615381  1
  Co  Co126  1  0.13190538  0.37027986  0.62811302  1
  Co  Co127  1  0.62637511  0.12360721  0.12618941  1
