# generated using pymatgen
data_Fe45Co19
_symmetry_space_group_name_H-M   'P 1'
_cell_length_a   11.41536111
_cell_length_b   11.41550610
_cell_length_c   11.41453007
_cell_angle_alpha   90.00220260
_cell_angle_beta   89.99519699
_cell_angle_gamma   90.00241079
_symmetry_Int_Tables_number   1
_chemical_formula_structural   Fe45Co19
_chemical_formula_sum   'Fe90 Co38'
_cell_volume   1487.45165495
_cell_formula_units_Z   2
loop_
 _symmetry_equiv_pos_site_id
 _symmetry_equiv_pos_as_xyz
  1  'x, y, z'
loop_
 _atom_site_type_symbol
 _atom_site_label
 _atom_site_symmetry_multiplicity
 _atom_site_fract_x
 _atom_site_fract_y
 _atom_site_fract_z
 _atom_site_occupancy
  Fe  Fe0  1  0.50072216  0.00467755  0.50077075  1
  Fe  Fe1  1  0.75039460  0.49925891  0.00224480  1
  Fe  Fe2  1  0.87527324  0.37207190  0.12441840  1
  Fe  Fe3  1  0.49970762  0.24852184  0.00048757  1
  Fe  Fe4  1  0.37449977  0.12808411  0.62418953  1
  Fe  Fe5  1  0.12382110  0.62460800  0.87478408  1
  Fe  Fe6  1  0.24935152  0.00261060  0.75073807  1
  Fe  Fe7  1  0.00059337  0.75058722  0.24972843  1
  Fe  Fe8  1  0.00547796  0.24631850  0.00444371  1
  Fe  Fe9  1  0.49935924  0.49988018  0.74730522  1
  Fe  Fe10  1  0.12486775  0.62297279  0.37379195  1
  Fe  Fe11  1  0.37789568  0.37230315  0.62171846  1
  Fe  Fe12  1  0.00538042  0.24930800  0.24872590  1
  Fe  Fe13  1  0.62341038  0.87378051  0.87691629  1
  Fe  Fe14  1  0.50094818  0.25127279  0.25019631  1
  Fe  Fe15  1  0.87433919  0.87608714  0.62293236  1
  Fe  Fe16  1  -0.00229781  0.49688561  0.74934644  1
  Fe  Fe17  1  0.74513125  0.24998269  0.50210883  1
  Fe  Fe18  1  0.00088485  0.50241219  0.00332649  1
  Fe  Fe19  1  0.87624547  0.87492182  0.37576021  1
  Fe  Fe20  1  0.24797091  0.25138695  0.49439169  1
  Fe  Fe21  1  0.62631437  0.87660749  0.62261420  1
  Fe  Fe22  1  0.25028492  0.75488095  0.25343480  1
  Fe  Fe23  1  -0.00129170  0.25110503  0.74948142  1
  Fe  Fe24  1  0.87517025  0.12747563  0.87599228  1
  Fe  Fe25  1  0.25060190  0.74997563  0.49715677  1
  Fe  Fe26  1  0.74655747  0.25262591  0.24768696  1
  Fe  Fe27  1  0.12446860  0.87873391  0.12771194  1
  Fe  Fe28  1  0.12311077  0.37459015  0.87740449  1
  Fe  Fe29  1  0.87318072  0.12679209  0.62384228  1
  Fe  Fe30  1  0.62525245  0.62495850  0.87464531  1
  Fe  Fe31  1  0.62258966  0.37773556  0.37394535  1
  Fe  Fe32  1  0.00364293  0.24847158  0.49780965  1
  Fe  Fe33  1  0.25185907  0.49882665  0.49803070  1
  Fe  Fe34  1  0.62817396  0.62201597  0.37163129  1
  Fe  Fe35  1  0.75039087  0.75054217  0.75064008  1
  Fe  Fe36  1  0.62597348  0.12265113  0.37239099  1
  Fe  Fe37  1  0.37554929  0.37409599  0.87686357  1
  Fe  Fe38  1  0.00077287  0.00249123  0.74801835  1
  Fe  Fe39  1  0.37626303  0.87340211  0.87630554  1
  Fe  Fe40  1  0.87391123  0.62325762  0.62464502  1
  Fe  Fe41  1  0.00000568  0.74720665  0.49992145  1
  Fe  Fe42  1  0.87604413  0.62555904  0.87668406  1
  Fe  Fe43  1  0.74768492  0.24879572  0.00163335  1
  Fe  Fe44  1  0.25083830  0.49782193  0.74974807  1
  Fe  Fe45  1  0.37295116  0.12711918  0.37256200  1
  Fe  Fe46  1  0.87348587  0.12820200  0.37241653  1
  Fe  Fe47  1  0.75296813  0.49377618  0.74967955  1
  Fe  Fe48  1  0.50087701  0.74779666  0.74677009  1
  Fe  Fe49  1  0.12252732  0.87636956  0.87582445  1
  Fe  Fe50  1  0.50006830  0.50190783  0.00295504  1
  Fe  Fe51  1  0.24929132  0.75049467  0.74994996  1
  Fe  Fe52  1  0.74982715  0.74990912  0.49798106  1
  Fe  Fe53  1  0.49762814  0.00011214  0.24878872  1
  Fe  Fe54  1  0.62519809  0.87416698  0.12370766  1
  Fe  Fe55  1  0.87399741  0.87276984  0.12358159  1
  Fe  Fe56  1  0.37514817  0.87457307  0.12358655  1
  Fe  Fe57  1  0.49827243  0.00113815  0.74875334  1
  Fe  Fe58  1  0.62427534  0.12679854  0.87181471  1
  Fe  Fe59  1  0.24959573  0.00340237  -0.00222673  1
  Fe  Fe60  1  0.25002659  0.24945500  0.75258857  1
  Fe  Fe61  1  0.87209017  0.62816450  0.12734832  1
  Fe  Fe62  1  0.50039358  0.74926202  0.25061126  1
  Fe  Fe63  1  0.24912356  -0.00019514  0.49610508  1
  Fe  Fe64  1  0.37276030  0.62543631  0.12814312  1
  Fe  Fe65  1  0.49916117  0.00218947  0.00105086  1
  Fe  Fe66  1  0.75468842  0.49720378  0.49698258  1
  Fe  Fe67  1  0.12543410  0.62211151  0.62424033  1
  Fe  Fe68  1  0.00040316  0.00405554  0.00454836  1
  Fe  Fe69  1  0.74974256  0.00217296  0.00163284  1
  Fe  Fe70  1  0.12358445  0.37538997  0.62258524  1
  Fe  Fe71  1  0.37486217  0.87406654  0.62247571  1
  Fe  Fe72  1  0.75079390  0.00082431  0.74942590  1
  Fe  Fe73  1  0.24862931  0.50002451  0.00138284  1
  Fe  Fe74  1  0.25163145  0.49438670  0.25232539  1
  Fe  Fe75  1  0.00022055  0.00353218  0.49766846  1
  Fe  Fe76  1  -0.00420734  0.49824712  0.25231042  1
  Fe  Fe77  1  -0.00006932  0.75043791  0.74901032  1
  Fe  Fe78  1  0.50062104  0.74465039  0.50047470  1
  Fe  Fe79  1  0.62328422  0.87747319  0.37587817  1
  Fe  Fe80  1  0.37475125  0.37294852  0.12507670  1
  Fe  Fe81  1  0.37498957  0.62581874  0.87502065  1
  Fe  Fe82  1  0.49831063  0.50306221  0.50014759  1
  Fe  Fe83  1  0.12482846  0.87654867  0.62280671  1
  Fe  Fe84  1  0.75215924  -0.00092663  0.24910828  1
  Fe  Fe85  1  0.62525368  0.37363286  0.87489006  1
  Fe  Fe86  1  0.62809402  0.62508596  0.12774593  1
  Fe  Fe87  1  0.24654835  0.74873442  0.00141624  1
  Fe  Fe88  1  0.87704194  0.87454824  0.87785908  1
  Fe  Fe89  1  0.36928812  0.12737074  0.12776676  1
  Co  Co90  1  0.87355749  0.62762879  0.37225944  1
  Co  Co91  1  0.38052156  0.37475500  0.37631363  1
  Co  Co92  1  0.75139637  0.00223123  0.49847837  1
  Co  Co93  1  0.87328773  0.12838849  0.12715860  1
  Co  Co94  1  0.87720187  0.37307550  0.61998364  1
  Co  Co95  1  0.12122827  0.37872921  0.37670570  1
  Co  Co96  1  0.62263823  0.37626332  0.62320099  1
  Co  Co97  1  0.24692592  0.25707952  0.25360971  1
  Co  Co98  1  0.37656323  0.12575069  0.87539411  1
  Co  Co99  1  0.74851324  0.75432225  0.25243460  1
  Co  Co100  1  0.87671664  0.37263579  0.88156118  1
  Co  Co101  1  0.00269016  0.74844920  0.00269580  1
  Co  Co102  1  0.50394780  0.24641910  0.49744011  1
  Co  Co103  1  -0.00411777  0.50141086  0.49692294  1
  Co  Co104  1  0.62374634  0.37542884  0.12427402  1
  Co  Co105  1  0.49905970  0.25111181  0.74934235  1
  Co  Co106  1  0.12673273  0.62329846  0.13162069  1
  Co  Co107  1  0.74943953  0.74942680  -0.00161015  1
  Co  Co108  1  0.13236870  0.12114876  0.13182627  1
  Co  Co109  1  0.62388478  0.12420811  0.12617402  1
  Co  Co110  1  0.12686850  0.12151634  0.36912846  1
  Co  Co111  1  0.25397544  -0.00608503  0.25505009  1
  Co  Co112  1  0.75377094  0.49528656  0.24954189  1
  Co  Co113  1  0.12479034  0.37729329  0.12482971  1
  Co  Co114  1  0.62570606  0.12504413  0.62904201  1
  Co  Co115  1  0.38106589  0.87406722  0.37880074  1
  Co  Co116  1  0.87571158  0.36806429  0.37438644  1
  Co  Co117  1  -0.00508074  0.00161026  0.24969412  1
  Co  Co118  1  0.37357818  0.62421714  0.37173087  1
  Co  Co119  1  0.75226093  0.25362688  0.74808070  1
  Co  Co120  1  0.50014440  0.74692284  0.00197619  1
  Co  Co121  1  0.12666314  0.12627641  0.62405029  1
  Co  Co122  1  0.12023947  0.87595230  0.37556600  1
  Co  Co123  1  0.63067592  0.62156670  0.62448695  1
  Co  Co124  1  0.24732422  0.24937656  -0.00108830  1
  Co  Co125  1  0.12237996  0.12549558  0.87449970  1
  Co  Co126  1  0.37212309  0.62537918  0.62565869  1
  Co  Co127  1  0.49962326  0.49982778  0.24744495  1
