# generated using pymatgen
data_Fe45Co19
_symmetry_space_group_name_H-M   'P 1'
_cell_length_a   11.41521733
_cell_length_b   11.41323687
_cell_length_c   11.41470678
_cell_angle_alpha   90.00443736
_cell_angle_beta   90.00294622
_cell_angle_gamma   89.99695718
_symmetry_Int_Tables_number   1
_chemical_formula_structural   Fe45Co19
_chemical_formula_sum   'Fe90 Co38'
_cell_volume   1487.16026287
_cell_formula_units_Z   2
loop_
 _symmetry_equiv_pos_site_id
 _symmetry_equiv_pos_as_xyz
  1  'x, y, z'
loop_
 _atom_site_type_symbol
 _atom_site_label
 _atom_site_symmetry_multiplicity
 _atom_site_fract_x
 _atom_site_fract_y
 _atom_site_fract_z
 _atom_site_occupancy
  Fe  Fe0  1  0.87306292  0.62577949  0.62554137  1
  Fe  Fe1  1  0.50137344  0.49772028  0.50112454  1
  Fe  Fe2  1  0.24939087  0.75036869  0.50059967  1
  Fe  Fe3  1  -0.00067453  0.50297476  0.24989180  1
  Fe  Fe4  1  0.50208406  0.75158670  0.50052845  1
  Fe  Fe5  1  0.11987843  0.12582621  0.11980888  1
  Fe  Fe6  1  0.24954926  0.25168625  0.50036291  1
  Fe  Fe7  1  0.37464981  0.62372663  0.37550409  1
  Fe  Fe8  1  0.62444823  0.88016884  0.87256357  1
  Fe  Fe9  1  0.62725223  0.37054910  0.87707064  1
  Fe  Fe10  1  0.75485796  0.24445072  0.75390038  1
  Fe  Fe11  1  0.12609350  0.37680023  0.37481618  1
  Fe  Fe12  1  0.37460270  0.12275977  0.12266236  1
  Fe  Fe13  1  0.62644830  0.62388619  0.37577858  1
  Fe  Fe14  1  0.24952455  0.49836500  0.74835093  1
  Fe  Fe15  1  0.75018132  0.75072385  -0.00169542  1
  Fe  Fe16  1  0.12108151  0.12787675  0.87797173  1
  Fe  Fe17  1  0.24894691  0.74639823  0.24911670  1
  Fe  Fe18  1  0.74721646  0.74898581  0.74889329  1
  Fe  Fe19  1  0.37466740  0.87665998  0.62677035  1
  Fe  Fe20  1  0.87362843  0.12540229  0.37650252  1
  Fe  Fe21  1  0.37563416  0.87649278  0.87331575  1
  Fe  Fe22  1  0.87367126  0.87711446  0.87156034  1
  Fe  Fe23  1  0.12620525  0.87444063  0.87292522  1
  Fe  Fe24  1  -0.00147578  0.74779554  0.24916683  1
  Fe  Fe25  1  0.37497738  0.37341931  0.62626977  1
  Fe  Fe26  1  0.12545408  0.37080796  0.87266201  1
  Fe  Fe27  1  0.12599156  0.87542864  0.12557766  1
  Fe  Fe28  1  0.62376600  0.62348153  0.87581365  1
  Fe  Fe29  1  -0.00074371  0.00127098  0.74803235  1
  Fe  Fe30  1  0.12481334  0.87473345  0.37390910  1
  Fe  Fe31  1  -0.00140177  -0.00277695  0.50125391  1
  Fe  Fe32  1  -0.00245897  0.75171534  -0.00034993  1
  Fe  Fe33  1  0.12471231  0.12504817  0.37692653  1
  Fe  Fe34  1  0.75168559  0.74861512  0.25058689  1
  Fe  Fe35  1  0.24844721  -0.00026081  0.50031112  1
  Fe  Fe36  1  0.37439999  0.12365818  0.37423778  1
  Fe  Fe37  1  0.87480216  0.62436996  0.37622985  1
  Fe  Fe38  1  0.75010848  0.00557648  0.74760496  1
  Fe  Fe39  1  0.75192488  0.00305971  0.00088781  1
  Fe  Fe40  1  0.50159648  0.49651989  0.00089445  1
  Fe  Fe41  1  0.50014585  0.75089692  0.24960094  1
  Fe  Fe42  1  0.37650455  0.12609807  0.62324955  1
  Fe  Fe43  1  -0.00093718  0.75306682  0.50174955  1
  Fe  Fe44  1  0.00020079  0.75004101  0.74859560  1
  Fe  Fe45  1  0.37289681  0.37532661  0.37338093  1
  Fe  Fe46  1  0.75030308  0.49777761  0.00294961  1
  Fe  Fe47  1  0.12673908  0.62488551  0.62419010  1
  Fe  Fe48  1  0.00014698  0.49771398  0.50118775  1
  Fe  Fe49  1  0.62453831  0.12692857  0.12151562  1
  Fe  Fe50  1  0.12329814  0.37279803  0.12537132  1
  Fe  Fe51  1  0.37488435  0.37438201  0.12613016  1
  Fe  Fe52  1  0.87475094  0.37281045  0.12855562  1
  Fe  Fe53  1  0.75040587  0.49668333  0.49955934  1
  Fe  Fe54  1  0.50264177  0.75004759  0.74818099  1
  Fe  Fe55  1  0.87507974  0.37193843  0.62657199  1
  Fe  Fe56  1  0.62547271  0.37035140  0.62732383  1
  Fe  Fe57  1  0.37690228  0.62316562  0.62631446  1
  Fe  Fe58  1  0.62691925  0.87768442  0.12705226  1
  Fe  Fe59  1  0.00085662  0.49865791  0.74905592  1
  Fe  Fe60  1  -0.00187375  0.49743250  -0.00017423  1
  Fe  Fe61  1  0.24979280  0.49942479  0.00116902  1
  Fe  Fe62  1  0.62684231  0.37412085  0.37185552  1
  Fe  Fe63  1  -0.00117522  0.00156069  0.25073383  1
  Fe  Fe64  1  0.25133194  0.74955770  0.00061441  1
  Fe  Fe65  1  0.75133244  0.24750700  0.25045955  1
  Fe  Fe66  1  0.37373808  0.37355943  0.87552794  1
  Fe  Fe67  1  0.74736224  0.50071995  0.74891677  1
  Fe  Fe68  1  0.87406084  0.87622479  0.12652054  1
  Fe  Fe69  1  0.50038872  0.24759146  0.24986343  1
  Fe  Fe70  1  0.50215588  0.24962796  0.49705392  1
  Fe  Fe71  1  0.24792650  0.50368182  0.24906149  1
  Fe  Fe72  1  0.24947827  0.00323608  0.75078047  1
  Fe  Fe73  1  0.62722524  0.87889719  0.37219342  1
  Fe  Fe74  1  0.74967370  0.00055902  0.50233946  1
  Fe  Fe75  1  0.50184883  0.50016831  0.24901865  1
  Fe  Fe76  1  0.12284597  0.12862255  0.62557411  1
  Fe  Fe77  1  0.12496302  0.62546600  0.87694373  1
  Fe  Fe78  1  0.50274615  0.00106872  0.49970731  1
  Fe  Fe79  1  0.37320854  0.87892460  0.12680402  1
  Fe  Fe80  1  0.87457033  0.62352277  0.87539087  1
  Fe  Fe81  1  0.62568860  0.62451984  0.12515206  1
  Fe  Fe82  1  0.37630271  0.12401660  0.87957207  1
  Fe  Fe83  1  0.24755919  0.24662979  0.24842303  1
  Fe  Fe84  1  0.37397479  0.87826510  0.37222696  1
  Fe  Fe85  1  -0.00145562  0.25307932  0.49839060  1
  Fe  Fe86  1  0.49940663  0.24732667  0.75301627  1
  Fe  Fe87  1  0.50051661  0.75241259  0.00140546  1
  Fe  Fe88  1  0.74960676  0.75297205  0.50169975  1
  Fe  Fe89  1  0.37683563  0.62417772  0.87449047  1
  Co  Co90  1  0.24775956  -0.00014858  -0.00191032  1
  Co  Co91  1  0.87652637  0.12732827  0.62090414  1
  Co  Co92  1  -0.00496367  0.24972422  0.75279804  1
  Co  Co93  1  0.62350696  0.12479472  0.87785800  1
  Co  Co94  1  0.24940948  0.24983667  0.00170548  1
  Co  Co95  1  -0.00011731  -0.00551945  -0.00012323  1
  Co  Co96  1  0.87939175  0.12058538  0.87855872  1
  Co  Co97  1  0.00176179  0.24767330  0.25331210  1
  Co  Co98  1  0.24617898  0.00365240  0.24939318  1
  Co  Co99  1  0.49880382  0.00346474  0.74901215  1
  Co  Co100  1  0.12369834  0.62517667  0.37745499  1
  Co  Co101  1  0.12356852  0.62544573  0.12117429  1
  Co  Co102  1  0.75082621  0.50061582  0.24984165  1
  Co  Co103  1  0.25174112  0.24687610  0.75066128  1
  Co  Co104  1  0.37688664  0.62371728  0.12390564  1
  Co  Co105  1  0.62483475  0.87826455  0.62656453  1
  Co  Co106  1  0.50145304  0.00243879  0.24947931  1
  Co  Co107  1  0.87253794  0.37902952  0.87254107  1
  Co  Co108  1  0.62669409  0.37170854  0.12589079  1
  Co  Co109  1  0.75541809  0.24839829  -0.00148265  1
  Co  Co110  1  -0.00550632  0.25551660  -0.00356011  1
  Co  Co111  1  0.62742500  0.12421003  0.37568981  1
  Co  Co112  1  0.25040835  0.74860099  0.74977610  1
  Co  Co113  1  0.62473064  0.62354872  0.62319397  1
  Co  Co114  1  0.50220070  0.49724333  0.75116860  1
  Co  Co115  1  0.74985489  0.25241443  0.49791431  1
  Co  Co116  1  0.12448849  0.37046466  0.62672934  1
  Co  Co117  1  0.87414426  0.87663401  0.37366135  1
  Co  Co118  1  0.49860937  0.25150477  0.00037746  1
  Co  Co119  1  0.75215768  0.00496344  0.24739384  1
  Co  Co120  1  0.87410265  0.62506007  0.12230097  1
  Co  Co121  1  0.12638816  0.87625704  0.62650723  1
  Co  Co122  1  0.50081622  -0.00211596  0.00166343  1
  Co  Co123  1  0.87357649  0.87538777  0.62815394  1
  Co  Co124  1  0.87594696  0.37450191  0.37193943  1
  Co  Co125  1  0.25028380  0.49844172  0.50228868  1
  Co  Co126  1  0.62481398  0.12826209  0.62490062  1
  Co  Co127  1  0.88064049  0.12670718  0.12321584  1
