# generated using pymatgen
data_Fe45Co19
_symmetry_space_group_name_H-M   'P 1'
_cell_length_a   11.41634948
_cell_length_b   11.41519819
_cell_length_c   11.41367298
_cell_angle_alpha   89.99016199
_cell_angle_beta   90.00206518
_cell_angle_gamma   89.99830946
_symmetry_Int_Tables_number   1
_chemical_formula_structural   Fe45Co19
_chemical_formula_sum   'Fe90 Co38'
_cell_volume   1487.42860619
_cell_formula_units_Z   2
loop_
 _symmetry_equiv_pos_site_id
 _symmetry_equiv_pos_as_xyz
  1  'x, y, z'
loop_
 _atom_site_type_symbol
 _atom_site_label
 _atom_site_symmetry_multiplicity
 _atom_site_fract_x
 _atom_site_fract_y
 _atom_site_fract_z
 _atom_site_occupancy
  Fe  Fe0  1  0.37837597  0.87473029  0.12412163  1
  Fe  Fe1  1  0.25098472  0.00025004  0.75144727  1
  Fe  Fe2  1  0.37603523  0.62483532  0.37498406  1
  Fe  Fe3  1  0.49857684  0.00249181  -0.00270960  1
  Fe  Fe4  1  0.49648697  0.25617374  0.74957929  1
  Fe  Fe5  1  0.12249483  0.87506454  0.12211485  1
  Fe  Fe6  1  0.50009310  0.74674617  -0.00335887  1
  Fe  Fe7  1  0.49914938  0.49875342  0.50400168  1
  Fe  Fe8  1  0.37506686  0.37461386  0.12212832  1
  Fe  Fe9  1  0.75499964  0.49883767  0.50726588  1
  Fe  Fe10  1  0.74817161  -0.00078049  0.25076946  1
  Fe  Fe11  1  0.24925718  0.24955599  -0.00270012  1
  Fe  Fe12  1  0.74870781  0.50138194  -0.00627578  1
  Fe  Fe13  1  0.75102792  0.24913033  0.50069536  1
  Fe  Fe14  1  0.49825327  0.25130668  0.50155974  1
  Fe  Fe15  1  0.00007129  0.75097338  0.50328585  1
  Fe  Fe16  1  0.00046192  0.50006733  0.24957991  1
  Fe  Fe17  1  0.62808989  0.62694651  0.12278380  1
  Fe  Fe18  1  0.00107241  0.50302177  -0.00394282  1
  Fe  Fe19  1  0.00179156  0.25012886  0.25011227  1
  Fe  Fe20  1  0.24834924  0.50086739  -0.00189459  1
  Fe  Fe21  1  0.62609832  0.37201814  0.11847539  1
  Fe  Fe22  1  0.49810004  0.00252240  0.50129811  1
  Fe  Fe23  1  0.62532324  0.87488766  0.12188904  1
  Fe  Fe24  1  0.74981102  0.49781089  0.24897766  1
  Fe  Fe25  1  0.24905747  0.49421403  0.75385728  1
  Fe  Fe26  1  0.25098369  -0.00437123  0.25124573  1
  Fe  Fe27  1  0.87886554  0.37307089  0.87361882  1
  Fe  Fe28  1  0.50180992  0.74894757  0.25017296  1
  Fe  Fe29  1  0.87475176  0.62560445  0.37668430  1
  Fe  Fe30  1  -0.00125162  0.74873281  -0.00343516  1
  Fe  Fe31  1  0.12227387  0.62715584  0.37468015  1
  Fe  Fe32  1  0.24920225  0.75270577  0.75244831  1
  Fe  Fe33  1  0.62501493  0.12470974  0.37509455  1
  Fe  Fe34  1  0.12419441  0.37306580  0.62656617  1
  Fe  Fe35  1  0.12385117  0.37401620  0.12224928  1
  Fe  Fe36  1  0.62528495  0.12901979  0.87460977  1
  Fe  Fe37  1  0.24740916  0.49809236  0.25013962  1
  Fe  Fe38  1  0.37332887  0.12480493  0.12666588  1
  Fe  Fe39  1  0.12679358  0.12230991  0.12265768  1
  Fe  Fe40  1  0.37280545  0.62199845  0.62824872  1
  Fe  Fe41  1  0.74934756  0.75138482  0.50488366  1
  Fe  Fe42  1  0.75137704  0.00101492  -0.00413427  1
  Fe  Fe43  1  0.12440002  0.88058195  0.87842471  1
  Fe  Fe44  1  0.49964264  0.74775510  0.50428046  1
  Fe  Fe45  1  0.50192210  0.49897796  0.24759913  1
  Fe  Fe46  1  0.12428369  0.62516590  0.62975565  1
  Fe  Fe47  1  0.24952684  0.25052304  0.49900352  1
  Fe  Fe48  1  0.87371270  0.62597632  0.12416126  1
  Fe  Fe49  1  0.87325519  0.12424895  0.37399012  1
  Fe  Fe50  1  0.62508545  0.12605864  0.62689453  1
  Fe  Fe51  1  0.24914415  0.75293938  0.25266851  1
  Fe  Fe52  1  0.37385418  0.62535680  0.12565348  1
  Fe  Fe53  1  0.37746449  0.62259080  0.87245948  1
  Fe  Fe54  1  0.62184539  0.87878549  0.62802953  1
  Fe  Fe55  1  0.37680196  0.87656256  0.62739423  1
  Fe  Fe56  1  0.12451668  0.62775738  0.12391604  1
  Fe  Fe57  1  0.25147369  0.75067066  -0.00325962  1
  Fe  Fe58  1  0.62673571  0.62186027  0.63178099  1
  Fe  Fe59  1  0.74862545  0.25436709  0.75219872  1
  Fe  Fe60  1  0.25085385  0.75228994  0.49946006  1
  Fe  Fe61  1  0.12546106  0.87941565  0.62293658  1
  Fe  Fe62  1  0.00014462  -0.00090295  0.24930525  1
  Fe  Fe63  1  -0.00102998  0.49992230  0.50420430  1
  Fe  Fe64  1  -0.00023654  0.24430708  -0.00216397  1
  Fe  Fe65  1  0.62220947  0.87264520  0.87265570  1
  Fe  Fe66  1  0.62815285  0.12636974  0.12284750  1
  Fe  Fe67  1  0.87473624  0.37400633  0.12283903  1
  Fe  Fe68  1  0.50174146  0.25059830  0.24803898  1
  Fe  Fe69  1  0.87601394  0.37412408  0.37610719  1
  Fe  Fe70  1  0.37314811  0.12649465  0.62698333  1
  Fe  Fe71  1  0.12693687  0.12188808  0.37537166  1
  Fe  Fe72  1  0.37472313  0.12435565  0.37254769  1
  Fe  Fe73  1  0.00516806  0.24465213  0.75288722  1
  Fe  Fe74  1  0.24679436  0.49993721  0.49878434  1
  Fe  Fe75  1  0.62227777  0.87624410  0.37656878  1
  Fe  Fe76  1  0.87631270  0.87747258  0.87173727  1
  Fe  Fe77  1  0.87380101  0.62740661  0.86648948  1
  Fe  Fe78  1  0.87420879  0.87359453  0.12365163  1
  Fe  Fe79  1  0.37197693  0.12582216  0.87386397  1
  Fe  Fe80  1  0.87615290  0.87551637  0.37635774  1
  Fe  Fe81  1  0.62667278  0.62326405  0.37732761  1
  Fe  Fe82  1  0.87573003  0.87918928  0.62770813  1
  Fe  Fe83  1  0.12865800  0.12278509  0.62451543  1
  Fe  Fe84  1  0.87141200  0.12624226  0.12570170  1
  Fe  Fe85  1  0.62641310  0.37557222  0.37792371  1
  Fe  Fe86  1  0.75033616  0.74990097  0.25087703  1
  Fe  Fe87  1  0.00070268  0.24651189  0.50003971  1
  Fe  Fe88  1  0.87246910  0.12320716  0.62858534  1
  Fe  Fe89  1  0.37366231  0.37533122  0.37492932  1
  Co  Co90  1  0.74692544  -0.00038018  0.75201529  1
  Co  Co91  1  0.12197044  0.37405468  0.87635018  1
  Co  Co92  1  -0.00068583  0.49916527  0.74907388  1
  Co  Co93  1  0.12831088  0.11963027  0.87845984  1
  Co  Co94  1  0.12276645  0.37465683  0.37676201  1
  Co  Co95  1  0.25424009  -0.00108569  0.49926822  1
  Co  Co96  1  0.25549126  -0.00153485  0.00079274  1
  Co  Co97  1  0.12541418  0.62512207  0.87220296  1
  Co  Co98  1  0.50139903  0.00160186  0.24789641  1
  Co  Co99  1  0.74886152  0.00062023  0.50106235  1
  Co  Co100  1  0.75093080  0.74973177  -0.00466755  1
  Co  Co101  1  0.87959095  0.36868563  0.62715527  1
  Co  Co102  1  0.75156362  0.49334078  0.74970660  1
  Co  Co103  1  0.50011415  0.49302952  0.74823494  1
  Co  Co104  1  0.49945439  0.00409737  0.75224309  1
  Co  Co105  1  0.62077348  0.37447002  0.87903147  1
  Co  Co106  1  -0.00142443  0.74965939  0.24892573  1
  Co  Co107  1  0.50241353  0.50493515  0.00110635  1
  Co  Co108  1  0.24812118  0.25135473  0.24966104  1
  Co  Co109  1  0.74838278  0.25227272  0.25087140  1
  Co  Co110  1  0.00297124  0.00251225  0.74976803  1
  Co  Co111  1  0.75411586  0.24972989  -0.00379889  1
  Co  Co112  1  0.12144602  0.87582961  0.37732854  1
  Co  Co113  1  0.49699575  0.24489354  0.00070521  1
  Co  Co114  1  0.87355684  0.12389950  0.87043631  1
  Co  Co115  1  0.37751052  0.87550277  0.87322294  1
  Co  Co116  1  0.62529204  0.62443359  0.86763850  1
  Co  Co117  1  0.38032550  0.87414536  0.37596270  1
  Co  Co118  1  0.49805357  0.74835846  0.74836007  1
  Co  Co119  1  0.37773604  0.37588073  0.88047518  1
  Co  Co120  1  0.00420274  0.75498201  0.75026141  1
  Co  Co121  1  -0.00558576  0.00314537  0.00064428  1
  Co  Co122  1  0.24929714  0.25201384  0.75351068  1
  Co  Co123  1  -0.00202460  0.00279413  0.50140015  1
  Co  Co124  1  0.74901455  0.75422768  0.74711433  1
  Co  Co125  1  0.87650271  0.62826608  0.63087353  1
  Co  Co126  1  0.62611639  0.37323990  0.62280090  1
  Co  Co127  1  0.37001526  0.37556287  0.62267025  1
