# generated using pymatgen
data_Fe45Co19
_symmetry_space_group_name_H-M   'P 1'
_cell_length_a   11.41388724
_cell_length_b   11.41516933
_cell_length_c   11.41529310
_cell_angle_alpha   89.99467008
_cell_angle_beta   90.00090677
_cell_angle_gamma   90.00021019
_symmetry_Int_Tables_number   1
_chemical_formula_structural   Fe45Co19
_chemical_formula_sum   'Fe90 Co38'
_cell_volume   1487.31514667
_cell_formula_units_Z   2
loop_
 _symmetry_equiv_pos_site_id
 _symmetry_equiv_pos_as_xyz
  1  'x, y, z'
loop_
 _atom_site_type_symbol
 _atom_site_label
 _atom_site_symmetry_multiplicity
 _atom_site_fract_x
 _atom_site_fract_y
 _atom_site_fract_z
 _atom_site_occupancy
  Fe  Fe0  1  0.12688721  0.87486683  0.62540621  1
  Fe  Fe1  1  0.87460916  0.37380082  0.62234545  1
  Fe  Fe2  1  0.12542616  0.87728213  0.87624646  1
  Fe  Fe3  1  0.62210163  0.87969939  0.87113530  1
  Fe  Fe4  1  0.87764650  0.87515556  0.12419210  1
  Fe  Fe5  1  0.62618996  0.12174871  0.62789398  1
  Fe  Fe6  1  -0.00122354  0.75145628  0.75182573  1
  Fe  Fe7  1  0.75083508  0.24808636  0.74984796  1
  Fe  Fe8  1  0.25068515  0.75092773  0.75255338  1
  Fe  Fe9  1  0.87642260  0.37428796  0.12410026  1
  Fe  Fe10  1  0.13042077  0.62560334  0.37378066  1
  Fe  Fe11  1  0.13466059  0.87533091  0.37488135  1
  Fe  Fe12  1  0.62197555  0.87586550  0.12911814  1
  Fe  Fe13  1  0.49836263  0.75236329  0.75075835  1
  Fe  Fe14  1  0.74698817  -0.00088760  0.49836084  1
  Fe  Fe15  1  0.00145821  0.50092660  0.49893707  1
  Fe  Fe16  1  0.00074019  0.49932049  0.75193782  1
  Fe  Fe17  1  0.62416656  0.62535152  0.62597201  1
  Fe  Fe18  1  0.62420056  0.12490843  0.36756137  1
  Fe  Fe19  1  0.00305808  0.75146744  0.25171954  1
  Fe  Fe20  1  0.87386571  0.12336768  0.37488599  1
  Fe  Fe21  1  0.62390531  0.37432545  0.87471260  1
  Fe  Fe22  1  0.87482893  0.62602157  0.12528932  1
  Fe  Fe23  1  0.00247480  0.74837325  -0.00192518  1
  Fe  Fe24  1  0.24697961  0.00344547  0.00350469  1
  Fe  Fe25  1  0.49879510  0.75037814  0.49726786  1
  Fe  Fe26  1  0.74899165  0.49975653  0.74943062  1
  Fe  Fe27  1  0.62328528  0.62183121  0.37197668  1
  Fe  Fe28  1  0.12727614  0.37462198  0.37380770  1
  Fe  Fe29  1  0.50041639  -0.00058564  0.49896022  1
  Fe  Fe30  1  0.74821700  0.75331754  -0.00046905  1
  Fe  Fe31  1  0.12323963  0.37146344  0.87812424  1
  Fe  Fe32  1  0.13161191  0.12413031  0.37201635  1
  Fe  Fe33  1  0.87472179  0.62325903  0.87688039  1
  Fe  Fe34  1  0.12629585  0.62409420  0.62791514  1
  Fe  Fe35  1  0.24751999  0.50072075  -0.00200519  1
  Fe  Fe36  1  0.37519282  0.12864601  0.62020038  1
  Fe  Fe37  1  0.12681880  0.37011669  0.12298695  1
  Fe  Fe38  1  0.37419837  0.62633402  0.12295805  1
  Fe  Fe39  1  0.87407084  0.12285079  0.87576621  1
  Fe  Fe40  1  0.50165436  0.50023410  0.00100173  1
  Fe  Fe41  1  0.37511557  0.62265896  0.87410756  1
  Fe  Fe42  1  0.37466139  0.87414715  0.62128171  1
  Fe  Fe43  1  0.00497124  -0.00095265  0.24872727  1
  Fe  Fe44  1  0.12459545  0.37429790  0.62533071  1
  Fe  Fe45  1  0.12838764  0.62752855  0.12504243  1
  Fe  Fe46  1  0.00379421  0.00059691  0.49902390  1
  Fe  Fe47  1  0.62125525  0.12116612  0.87311138  1
  Fe  Fe48  1  0.12441393  0.12656433  0.62686512  1
  Fe  Fe49  1  0.62260769  0.62631564  0.12810433  1
  Fe  Fe50  1  0.37563607  0.88045427  0.87843880  1
  Fe  Fe51  1  0.00331358  0.75072947  0.49879699  1
  Fe  Fe52  1  0.87413013  0.62322998  0.37466114  1
  Fe  Fe53  1  0.49939991  0.75242846  -0.00153622  1
  Fe  Fe54  1  0.00169272  0.50030736  0.24763237  1
  Fe  Fe55  1  0.61954176  0.37693972  0.37091249  1
  Fe  Fe56  1  0.25280161  0.49915201  0.49983773  1
  Fe  Fe57  1  0.62279750  0.37622579  0.62455694  1
  Fe  Fe58  1  0.00440299  0.00495950  0.00345107  1
  Fe  Fe59  1  0.37625572  0.37460435  0.87758678  1
  Fe  Fe60  1  0.50103358  0.24749870  0.00152364  1
  Fe  Fe61  1  0.25346853  0.00298571  0.74887802  1
  Fe  Fe62  1  0.75060679  0.75196031  0.25073525  1
  Fe  Fe63  1  0.62160835  0.37319390  0.12981832  1
  Fe  Fe64  1  0.37544787  0.12580780  0.12116779  1
  Fe  Fe65  1  0.87335993  0.87631612  0.62262066  1
  Fe  Fe66  1  0.87532980  0.37555800  0.87858245  1
  Fe  Fe67  1  0.74720050  0.25035176  0.49750649  1
  Fe  Fe68  1  0.62393315  0.62477892  0.87395344  1
  Fe  Fe69  1  0.37739074  0.37341801  0.62141642  1
  Fe  Fe70  1  0.87429129  0.62483899  0.62288290  1
  Fe  Fe71  1  0.25837343  0.25142037  0.25163442  1
  Fe  Fe72  1  0.74631396  -0.00019897  0.00242087  1
  Fe  Fe73  1  0.49284536  -0.00029370  0.25076835  1
  Fe  Fe74  1  0.87294970  0.12509513  0.12832026  1
  Fe  Fe75  1  0.74779563  0.24739624  0.00220299  1
  Fe  Fe76  1  0.87529423  0.87623173  0.37498500  1
  Fe  Fe77  1  -0.00140631  0.24966827  0.25144177  1
  Fe  Fe78  1  0.49862995  0.24874775  0.75035939  1
  Fe  Fe79  1  0.74717988  0.75133051  0.49757438  1
  Fe  Fe80  1  0.74785484  0.49993669  0.00373096  1
  Fe  Fe81  1  0.87440503  0.37740537  0.37536944  1
  Fe  Fe82  1  0.00208463  0.24796631  0.49780825  1
  Fe  Fe83  1  0.25646146  0.49668310  0.25065702  1
  Fe  Fe84  1  0.49377634  0.75276320  0.25268696  1
  Fe  Fe85  1  0.75121461  0.75388626  0.75176351  1
  Fe  Fe86  1  0.25256469  0.24952346  0.75232998  1
  Fe  Fe87  1  -0.00319955  0.00032028  0.74914604  1
  Fe  Fe88  1  -0.00301974  0.24838852  0.75084974  1
  Fe  Fe89  1  0.37479347  0.62282834  0.62814788  1
  Co  Co90  1  0.75143504  0.25250002  0.25121805  1
  Co  Co91  1  0.50294954  0.00042814  0.00445743  1
  Co  Co92  1  0.50626985  0.24588227  0.49939848  1
  Co  Co93  1  0.62257354  0.87635706  0.37193534  1
  Co  Co94  1  0.75133898  -0.00329119  0.24864046  1
  Co  Co95  1  0.37201591  0.62718075  0.37413945  1
  Co  Co96  1  -0.00126358  0.24516492  0.00088337  1
  Co  Co97  1  0.00266536  0.50134277  0.00238555  1
  Co  Co98  1  0.87739131  0.87767988  0.87921554  1
  Co  Co99  1  0.49244421  0.49933458  0.24925230  1
  Co  Co100  1  0.25341393  0.75263152  0.24756088  1
  Co  Co101  1  0.24592643  0.25116920  0.49994192  1
  Co  Co102  1  0.25156455  0.75030292  -0.00384019  1
  Co  Co103  1  0.25009949  0.49546110  0.75164204  1
  Co  Co104  1  0.12743010  0.13276494  0.12973264  1
  Co  Co105  1  0.62428116  0.12570487  0.13117698  1
  Co  Co106  1  0.12563640  0.87125023  0.12302899  1
  Co  Co107  1  0.49209953  0.24826095  0.24821589  1
  Co  Co108  1  0.12494947  0.12548661  0.87164823  1
  Co  Co109  1  0.74724474  0.49867870  0.49923627  1
  Co  Co110  1  0.49434038  0.00074793  0.74490128  1
  Co  Co111  1  0.62454587  0.87498554  0.62673575  1
  Co  Co112  1  0.25085107  0.24515452  -0.00336415  1
  Co  Co113  1  0.50029142  0.49789918  0.75011721  1
  Co  Co114  1  0.38064429  0.37122765  0.38176737  1
  Co  Co115  1  0.37204602  0.12427209  0.37968813  1
  Co  Co116  1  0.24858821  0.00272300  0.50473975  1
  Co  Co117  1  0.75036389  0.49942264  0.24791185  1
  Co  Co118  1  0.36802468  0.87684839  0.37857173  1
  Co  Co119  1  0.37426769  0.87399439  0.12150256  1
  Co  Co120  1  0.37843756  0.12210182  0.87816801  1
  Co  Co121  1  0.25276750  0.00054279  0.24375623  1
  Co  Co122  1  0.49875159  0.50398103  0.50010813  1
  Co  Co123  1  0.25018706  0.74643097  0.50370492  1
  Co  Co124  1  0.12570710  0.62562114  0.87306184  1
  Co  Co125  1  0.37415025  0.37487580  0.11844991  1
  Co  Co126  1  0.75300003  -0.00132042  0.75029774  1
  Co  Co127  1  0.87424144  0.12477631  0.62093738  1
