# generated using pymatgen
data_Fe45Co19
_symmetry_space_group_name_H-M   'P 1'
_cell_length_a   11.41557856
_cell_length_b   11.41533901
_cell_length_c   11.41508597
_cell_angle_alpha   89.98869376
_cell_angle_beta   89.99229810
_cell_angle_gamma   90.00117953
_symmetry_Int_Tables_number   1
_chemical_formula_structural   Fe45Co19
_chemical_formula_sum   'Fe90 Co38'
_cell_volume   1487.53062158
_cell_formula_units_Z   2
loop_
 _symmetry_equiv_pos_site_id
 _symmetry_equiv_pos_as_xyz
  1  'x, y, z'
loop_
 _atom_site_type_symbol
 _atom_site_label
 _atom_site_symmetry_multiplicity
 _atom_site_fract_x
 _atom_site_fract_y
 _atom_site_fract_z
 _atom_site_occupancy
  Fe  Fe0  1  0.37552976  0.37342778  0.87766129  1
  Fe  Fe1  1  0.75134539  0.74905328  0.24663781  1
  Fe  Fe2  1  0.50208927  0.00001926  -0.00440025  1
  Fe  Fe3  1  0.24658480  0.74822910  0.00392309  1
  Fe  Fe4  1  0.50763858  0.24853577  -0.00041960  1
  Fe  Fe5  1  0.24928409  0.74770136  0.50453604  1
  Fe  Fe6  1  0.37499053  0.87572439  0.12479900  1
  Fe  Fe7  1  0.62318226  0.12263776  0.62645398  1
  Fe  Fe8  1  0.12602599  0.12552502  0.87663067  1
  Fe  Fe9  1  0.37099318  0.62812607  0.87425152  1
  Fe  Fe10  1  0.50026242  0.75170382  0.25016899  1
  Fe  Fe11  1  0.50080583  0.50099010  0.75310215  1
  Fe  Fe12  1  0.00071700  0.75120914  0.49966144  1
  Fe  Fe13  1  0.62920953  0.62711631  0.87374106  1
  Fe  Fe14  1  0.87716243  0.62376224  0.62485938  1
  Fe  Fe15  1  0.49721428  -0.00151357  0.75655397  1
  Fe  Fe16  1  0.24907838  0.24849508  0.24759450  1
  Fe  Fe17  1  0.50167198  0.75016644  -0.00345077  1
  Fe  Fe18  1  0.37161727  0.87420299  0.37257464  1
  Fe  Fe19  1  0.12409173  0.37230876  0.37287729  1
  Fe  Fe20  1  0.12548010  0.62677470  0.37327417  1
  Fe  Fe21  1  0.12816107  0.37433476  0.87505568  1
  Fe  Fe22  1  0.50093379  0.49999307  0.49836442  1
  Fe  Fe23  1  0.62325435  0.62592687  0.62627105  1
  Fe  Fe24  1  0.25076593  0.24867293  0.50171975  1
  Fe  Fe25  1  0.25325581  0.00329705  0.75168779  1
  Fe  Fe26  1  -0.00151972  -0.00216626  -0.00094660  1
  Fe  Fe27  1  0.74944857  0.25132617  0.74614918  1
  Fe  Fe28  1  0.74949778  -0.00244680  0.25067009  1
  Fe  Fe29  1  0.37999775  0.37560789  0.12335972  1
  Fe  Fe30  1  0.24865935  0.25090916  0.00367829  1
  Fe  Fe31  1  0.50057170  0.49958300  0.25163363  1
  Fe  Fe32  1  0.24843551  0.50182660  0.50235143  1
  Fe  Fe33  1  0.12389198  0.87528177  0.62728386  1
  Fe  Fe34  1  0.37301178  0.37524588  0.37417630  1
  Fe  Fe35  1  0.62392769  0.62262589  0.12443130  1
  Fe  Fe36  1  -0.00131178  0.49835266  0.49634067  1
  Fe  Fe37  1  0.24928021  0.00181334  0.50075892  1
  Fe  Fe38  1  0.75135653  -0.00092551  0.74961043  1
  Fe  Fe39  1  0.49970854  0.25029466  0.49868493  1
  Fe  Fe40  1  0.12122196  0.12274609  0.12664692  1
  Fe  Fe41  1  0.74980557  0.25372502  0.24338358  1
  Fe  Fe42  1  0.12425414  0.87693724  0.12731300  1
  Fe  Fe43  1  0.62699372  0.62598888  0.37408594  1
  Fe  Fe44  1  0.87276177  0.12800065  0.87499457  1
  Fe  Fe45  1  0.74842673  0.00209005  -0.00109881  1
  Fe  Fe46  1  -0.00209996  0.24910942  0.50124085  1
  Fe  Fe47  1  0.37510279  0.12427628  0.37293083  1
  Fe  Fe48  1  0.37341097  0.62560994  0.37522293  1
  Fe  Fe49  1  0.87551503  0.12386400  0.12486537  1
  Fe  Fe50  1  0.87253161  0.87440691  0.37499875  1
  Fe  Fe51  1  0.12763062  0.87617999  0.37194922  1
  Fe  Fe52  1  0.87167388  0.37160647  0.87523433  1
  Fe  Fe53  1  0.87236300  0.87253385  0.87649750  1
  Fe  Fe54  1  0.74894057  0.75119479  0.50330355  1
  Fe  Fe55  1  0.37690563  0.37625162  0.62453308  1
  Fe  Fe56  1  -0.00066405  0.00203104  0.49763678  1
  Fe  Fe57  1  -0.00075175  0.25118011  -0.00060800  1
  Fe  Fe58  1  0.12191173  0.37542136  0.62679659  1
  Fe  Fe59  1  0.12848644  0.87430278  0.87415622  1
  Fe  Fe60  1  0.75122206  0.75047664  0.00156389  1
  Fe  Fe61  1  -0.00037594  0.74703371  0.75431145  1
  Fe  Fe62  1  -0.00081902  0.00191549  0.75234256  1
  Fe  Fe63  1  0.87400654  0.12640190  0.37362648  1
  Fe  Fe64  1  0.50010891  0.75029198  0.49956970  1
  Fe  Fe65  1  0.25185040  0.24784297  0.74878245  1
  Fe  Fe66  1  0.75083090  0.49768154  0.50203174  1
  Fe  Fe67  1  0.75120682  0.25040972  0.50495114  1
  Fe  Fe68  1  -0.00089549  0.75070147  0.24745166  1
  Fe  Fe69  1  0.25182089  0.00197354  0.00077305  1
  Fe  Fe70  1  0.62466566  0.87556353  0.62701476  1
  Fe  Fe71  1  0.62536511  0.87613842  0.12427526  1
  Fe  Fe72  1  0.50190692  -0.00179711  0.49668945  1
  Fe  Fe73  1  0.88126407  0.62220578  0.12011896  1
  Fe  Fe74  1  0.11882906  0.38019168  0.12545104  1
  Fe  Fe75  1  0.37496580  0.87400860  0.62801236  1
  Fe  Fe76  1  0.87325814  0.62655246  0.37640900  1
  Fe  Fe77  1  0.62765229  0.37500836  0.37431282  1
  Fe  Fe78  1  0.87655169  0.87676697  0.62407305  1
  Fe  Fe79  1  0.75353232  0.49875267  0.24816287  1
  Fe  Fe80  1  -0.00067028  0.50202737  0.75594999  1
  Fe  Fe81  1  0.24975220  0.50286478  0.74834744  1
  Fe  Fe82  1  0.62554636  0.12536722  0.37201117  1
  Fe  Fe83  1  0.37646151  0.62434939  0.12434149  1
  Fe  Fe84  1  0.38016054  0.12498315  0.12557723  1
  Fe  Fe85  1  0.74944388  0.49586973  0.00074002  1
  Fe  Fe86  1  0.74989901  0.49852806  0.74803251  1
  Fe  Fe87  1  0.12354355  0.12538343  0.62589333  1
  Fe  Fe88  1  0.24886901  0.50183424  0.24686940  1
  Fe  Fe89  1  0.49965625  0.24915500  0.75088889  1
  Co  Co90  1  0.00063717  0.24895735  0.75227214  1
  Co  Co91  1  0.11832125  0.62079632  0.12276108  1
  Co  Co92  1  0.12890767  0.62572249  0.87944138  1
  Co  Co93  1  0.74761111  0.25094816  0.00513630  1
  Co  Co94  1  0.50033537  -0.00429142  0.25181021  1
  Co  Co95  1  0.87307693  0.37146200  0.37472500  1
  Co  Co96  1  0.25106481  0.00398921  0.24828764  1
  Co  Co97  1  0.24697251  0.74641677  0.74529754  1
  Co  Co98  1  0.50044018  0.50360820  -0.00487741  1
  Co  Co99  1  0.88013826  0.37750071  0.12323669  1
  Co  Co100  1  0.87562848  0.12360149  0.62663737  1
  Co  Co101  1  0.62825885  0.12642649  0.87190825  1
  Co  Co102  1  0.37434886  0.12896085  0.87945427  1
  Co  Co103  1  0.36957714  0.87141110  0.87618557  1
  Co  Co104  1  0.50105819  0.25263246  0.25140512  1
  Co  Co105  1  0.25202695  0.49908920  0.00264248  1
  Co  Co106  1  -0.00175014  -0.00129027  0.25211814  1
  Co  Co107  1  0.37799660  0.12352803  0.62384356  1
  Co  Co108  1  0.37905263  0.62458016  0.62529001  1
  Co  Co109  1  0.87358494  0.87651515  0.12362759  1
  Co  Co110  1  0.62843352  0.87152152  0.37369860  1
  Co  Co111  1  -0.00048670  0.49797697  -0.00920905  1
  Co  Co112  1  0.62410782  0.12153762  0.12848558  1
  Co  Co113  1  0.62106443  0.37916928  0.12428927  1
  Co  Co114  1  0.75261229  0.75093051  0.74620394  1
  Co  Co115  1  0.50097386  0.75132601  0.75361446  1
  Co  Co116  1  0.62945863  0.87341867  0.87552138  1
  Co  Co117  1  0.11909583  0.62355508  0.62417552  1
  Co  Co118  1  0.87944582  0.37683754  0.62683579  1
  Co  Co119  1  0.86970078  0.62634530  0.87780595  1
  Co  Co120  1  -0.00044971  0.24913802  0.24839278  1
  Co  Co121  1  0.74921176  0.00101198  0.49951691  1
  Co  Co122  1  0.00123298  0.75333974  -0.00195093  1
  Co  Co123  1  0.12458313  0.12604348  0.37479692  1
  Co  Co124  1  0.62608681  0.37419980  0.87510539  1
  Co  Co125  1  0.24910735  0.74724559  0.24627694  1
  Co  Co126  1  0.62127577  0.37490341  0.62450764  1
  Co  Co127  1  -0.00307329  0.50124690  0.25576043  1
