# generated using pymatgen
data_Fe45Co19
_symmetry_space_group_name_H-M   'P 1'
_cell_length_a   11.41598943
_cell_length_b   11.41553930
_cell_length_c   11.41547315
_cell_angle_alpha   89.98883411
_cell_angle_beta   90.00051254
_cell_angle_gamma   89.99718095
_symmetry_Int_Tables_number   1
_chemical_formula_structural   Fe45Co19
_chemical_formula_sum   'Fe90 Co38'
_cell_volume   1487.66073034
_cell_formula_units_Z   2
loop_
 _symmetry_equiv_pos_site_id
 _symmetry_equiv_pos_as_xyz
  1  'x, y, z'
loop_
 _atom_site_type_symbol
 _atom_site_label
 _atom_site_symmetry_multiplicity
 _atom_site_fract_x
 _atom_site_fract_y
 _atom_site_fract_z
 _atom_site_occupancy
  Fe  Fe0  1  0.62584977  0.37468247  0.87360971  1
  Fe  Fe1  1  0.24988815  0.49864646  0.74834515  1
  Fe  Fe2  1  -0.00182615  0.00134737  0.00095003  1
  Fe  Fe3  1  0.74943027  0.50166607  -0.00077963  1
  Fe  Fe4  1  0.74920874  0.00168532  0.49968979  1
  Fe  Fe5  1  0.87484316  0.87532651  0.12527633  1
  Fe  Fe6  1  0.62538156  0.62637030  0.12663831  1
  Fe  Fe7  1  0.25054536  -0.00050627  0.00238333  1
  Fe  Fe8  1  0.25037087  0.24869201  0.25032547  1
  Fe  Fe9  1  0.24861347  0.74819819  0.00048145  1
  Fe  Fe10  1  0.87395874  0.37349912  0.87311251  1
  Fe  Fe11  1  0.62285216  0.87539206  0.62626379  1
  Fe  Fe12  1  0.50122877  0.50086208  0.00024002  1
  Fe  Fe13  1  0.49874786  0.24976296  0.74952994  1
  Fe  Fe14  1  0.12480021  0.87425465  0.12535234  1
  Fe  Fe15  1  0.62440090  0.37385740  0.37597179  1
  Fe  Fe16  1  0.00235236  0.00359485  0.49769544  1
  Fe  Fe17  1  0.37655390  0.37602720  0.12569473  1
  Fe  Fe18  1  0.50004768  0.75007896  -0.00034548  1
  Fe  Fe19  1  0.37254586  0.62566267  0.87347040  1
  Fe  Fe20  1  0.24983771  0.50109548  0.49759537  1
  Fe  Fe21  1  0.75054621  -0.00017201  -0.00163801  1
  Fe  Fe22  1  0.50090709  0.50288172  0.49837438  1
  Fe  Fe23  1  0.37647063  0.37747604  0.37312969  1
  Fe  Fe24  1  0.24799344  0.50237420  0.00202909  1
  Fe  Fe25  1  0.37580339  0.37312705  0.62327357  1
  Fe  Fe26  1  0.87745718  0.37371421  0.37599779  1
  Fe  Fe27  1  0.62439951  0.12355583  0.87323489  1
  Fe  Fe28  1  0.37679275  0.87581347  0.12612018  1
  Fe  Fe29  1  0.37465091  0.12029001  0.37619957  1
  Fe  Fe30  1  0.62463726  0.87650127  0.37612182  1
  Fe  Fe31  1  0.62429635  0.62735000  0.62626820  1
  Fe  Fe32  1  0.00128505  0.50329433  -0.00049364  1
  Fe  Fe33  1  0.12605958  0.62711124  0.62401975  1
  Fe  Fe34  1  0.75122613  0.24922918  0.24985568  1
  Fe  Fe35  1  0.12331150  0.12263943  0.12952093  1
  Fe  Fe36  1  0.12567046  0.37539141  0.87562374  1
  Fe  Fe37  1  0.87354730  0.37406990  0.62682858  1
  Fe  Fe38  1  0.24745199  0.75531099  0.74778886  1
  Fe  Fe39  1  0.12430646  0.37635590  0.12637413  1
  Fe  Fe40  1  0.37407875  0.87625190  0.87548586  1
  Fe  Fe41  1  0.00019978  0.49980518  0.49994124  1
  Fe  Fe42  1  0.37518412  0.62297853  0.12895497  1
  Fe  Fe43  1  0.75074305  0.24913387  0.50139996  1
  Fe  Fe44  1  0.50024417  0.24830014  0.25084583  1
  Fe  Fe45  1  0.37369412  0.12344440  0.87325261  1
  Fe  Fe46  1  0.00134587  0.75166366  0.75073924  1
  Fe  Fe47  1  0.87444775  0.12418837  0.62792312  1
  Fe  Fe48  1  0.49980636  0.24678310  0.49934194  1
  Fe  Fe49  1  0.12649781  0.37371427  0.62407229  1
  Fe  Fe50  1  -0.00140360  0.24715219  0.00150694  1
  Fe  Fe51  1  0.62404958  0.37288439  0.12414677  1
  Fe  Fe52  1  -0.00164022  0.74994721  0.25439632  1
  Fe  Fe53  1  0.25004507  0.24892505  0.00118500  1
  Fe  Fe54  1  0.87465317  0.62571065  0.62378582  1
  Fe  Fe55  1  0.12723267  0.87840247  0.37633585  1
  Fe  Fe56  1  0.00159579  -0.00203102  0.75094694  1
  Fe  Fe57  1  0.62343242  0.12361361  0.12482869  1
  Fe  Fe58  1  0.37558651  0.87742320  0.37796749  1
  Fe  Fe59  1  0.74927522  0.75067971  0.50006759  1
  Fe  Fe60  1  0.37729080  0.87698377  0.62108240  1
  Fe  Fe61  1  0.75200351  0.75037150  0.25287211  1
  Fe  Fe62  1  0.75174076  0.24651552  -0.00125260  1
  Fe  Fe63  1  0.62539706  0.87279444  0.87200301  1
  Fe  Fe64  1  0.87682244  0.87656941  0.62229957  1
  Fe  Fe65  1  0.24905314  0.24751352  0.49855919  1
  Fe  Fe66  1  0.87419942  0.87466330  0.87523030  1
  Fe  Fe67  1  0.00130568  0.25028834  0.74908078  1
  Fe  Fe68  1  0.37883385  0.12292612  0.12416701  1
  Fe  Fe69  1  0.75052645  0.49977077  0.25131708  1
  Fe  Fe70  1  0.87536551  0.62580409  0.12635583  1
  Fe  Fe71  1  0.37396839  0.62787566  0.62271731  1
  Fe  Fe72  1  0.75089555  0.00049579  0.25179985  1
  Fe  Fe73  1  0.24996818  0.74870503  0.25331901  1
  Fe  Fe74  1  0.62417612  0.87600848  0.12588175  1
  Fe  Fe75  1  0.12686424  0.12291318  0.87399617  1
  Fe  Fe76  1  0.12184000  0.37292374  0.37406386  1
  Fe  Fe77  1  0.00143708  0.74797142  -0.00127468  1
  Fe  Fe78  1  0.00034454  0.50103301  0.74981696  1
  Fe  Fe79  1  0.62412901  0.12459850  0.62617371  1
  Fe  Fe80  1  0.87520170  0.37538463  0.12391665  1
  Fe  Fe81  1  0.50011077  0.74965136  0.25402801  1
  Fe  Fe82  1  0.74829028  0.49928277  0.50179585  1
  Fe  Fe83  1  0.00076312  0.74954628  0.49675763  1
  Fe  Fe84  1  0.12895472  0.12483139  0.62683977  1
  Fe  Fe85  1  0.50002287  0.50083094  0.74891677  1
  Fe  Fe86  1  0.37405087  0.37492537  0.87627241  1
  Fe  Fe87  1  0.87814200  0.12625590  0.37289053  1
  Fe  Fe88  1  0.62699678  0.62877440  0.87212734  1
  Fe  Fe89  1  0.87193372  0.62642591  0.87313836  1
  Co  Co90  1  0.12547930  0.87656321  0.87870330  1
  Co  Co91  1  0.25044711  0.25219242  0.75033788  1
  Co  Co92  1  0.49974870  0.24978748  -0.00148766  1
  Co  Co93  1  0.87334654  0.87708898  0.37865727  1
  Co  Co94  1  0.24977596  0.75117442  0.49892625  1
  Co  Co95  1  0.87411572  0.12242449  0.12779210  1
  Co  Co96  1  0.12766938  0.62593921  0.87193301  1
  Co  Co97  1  0.62607819  0.12556724  0.37431936  1
  Co  Co98  1  0.50221827  0.00188810  0.50010676  1
  Co  Co99  1  0.50295450  0.49974396  0.25010009  1
  Co  Co100  1  0.49670400  0.75101882  0.74980285  1
  Co  Co101  1  0.75342666  0.75215906  0.74601925  1
  Co  Co102  1  0.37479640  0.62370734  0.37434893  1
  Co  Co103  1  0.50078767  -0.00244008  -0.00169706  1
  Co  Co104  1  0.24828398  0.00134322  0.50210298  1
  Co  Co105  1  0.12397262  0.62730720  0.12808086  1
  Co  Co106  1  0.49863158  0.00005904  0.74953854  1
  Co  Co107  1  0.75052812  -0.00230234  0.74987095  1
  Co  Co108  1  0.25145965  -0.00018306  0.24914993  1
  Co  Co109  1  -0.00093067  -0.00390753  0.25171108  1
  Co  Co110  1  0.12147249  0.87498326  0.62116332  1
  Co  Co111  1  0.87307662  0.62357936  0.37747132  1
  Co  Co112  1  0.24974273  -0.00469415  0.74732173  1
  Co  Co113  1  0.74831712  0.25008497  0.74856590  1
  Co  Co114  1  -0.00089586  0.25144127  0.24680698  1
  Co  Co115  1  -0.00125264  0.50083889  0.25103071  1
  Co  Co116  1  0.24730276  0.49923624  0.25143519  1
  Co  Co117  1  0.74904494  0.50011583  0.74832748  1
  Co  Co118  1  0.50036891  -0.00037250  0.25170810  1
  Co  Co119  1  0.74955274  0.75112181  0.00156304  1
  Co  Co120  1  0.00056713  0.24814729  0.50374458  1
  Co  Co121  1  0.12500024  0.62400259  0.37594415  1
  Co  Co122  1  0.62238881  0.37366938  0.62345980  1
  Co  Co123  1  0.87571984  0.12549017  0.87139370  1
  Co  Co124  1  0.50079472  0.74942690  0.49754538  1
  Co  Co125  1  0.37335211  0.12528738  0.62556111  1
  Co  Co126  1  0.12311127  0.12543021  0.37141743  1
  Co  Co127  1  0.62670092  0.62496444  0.37507706  1
