# generated using pymatgen
data_Fe45Co19
_symmetry_space_group_name_H-M   'P 1'
_cell_length_a   11.41348284
_cell_length_b   11.41514894
_cell_length_c   11.41364750
_cell_angle_alpha   89.99161342
_cell_angle_beta   89.99057149
_cell_angle_gamma   90.00044911
_symmetry_Int_Tables_number   1
_chemical_formula_structural   Fe45Co19
_chemical_formula_sum   'Fe90 Co38'
_cell_volume   1487.04536444
_cell_formula_units_Z   2
loop_
 _symmetry_equiv_pos_site_id
 _symmetry_equiv_pos_as_xyz
  1  'x, y, z'
loop_
 _atom_site_type_symbol
 _atom_site_label
 _atom_site_symmetry_multiplicity
 _atom_site_fract_x
 _atom_site_fract_y
 _atom_site_fract_z
 _atom_site_occupancy
  Fe  Fe0  1  0.25592876  0.75072488  -0.00300007  1
  Fe  Fe1  1  0.49820636  0.24583232  0.50426985  1
  Fe  Fe2  1  0.62288549  0.87584725  0.37440163  1
  Fe  Fe3  1  0.49919769  0.24849986  0.74806143  1
  Fe  Fe4  1  0.62437163  0.37419657  0.87372820  1
  Fe  Fe5  1  0.12499406  0.87534988  0.87663355  1
  Fe  Fe6  1  0.87345696  0.87689249  0.12510438  1
  Fe  Fe7  1  0.87439452  0.62328641  0.37487010  1
  Fe  Fe8  1  0.37555333  0.12517533  0.87439485  1
  Fe  Fe9  1  0.87291281  0.12701080  0.12338430  1
  Fe  Fe10  1  0.12715079  0.62696236  0.62393651  1
  Fe  Fe11  1  0.37553379  0.37582531  0.62656880  1
  Fe  Fe12  1  0.24814480  0.25092807  -0.00483071  1
  Fe  Fe13  1  0.49834064  0.50088241  0.50017757  1
  Fe  Fe14  1  -0.00058220  0.24945005  0.50165920  1
  Fe  Fe15  1  0.25317855  0.75022559  0.49907727  1
  Fe  Fe16  1  0.62477465  0.62743528  0.88026298  1
  Fe  Fe17  1  0.50023391  0.00240003  0.24956650  1
  Fe  Fe18  1  0.12621141  0.62450203  0.37523798  1
  Fe  Fe19  1  -0.00009911  0.75233307  0.74841930  1
  Fe  Fe20  1  0.74885990  0.25152232  0.74909084  1
  Fe  Fe21  1  0.50103044  0.50390493  0.74950091  1
  Fe  Fe22  1  0.62500152  0.62559392  0.62490871  1
  Fe  Fe23  1  0.87579544  0.87599694  0.87484257  1
  Fe  Fe24  1  0.00164284  0.00046244  0.24781450  1
  Fe  Fe25  1  0.24889668  0.24820871  0.25039947  1
  Fe  Fe26  1  0.50192181  0.25117309  0.24873611  1
  Fe  Fe27  1  0.62519123  0.62332597  0.37430797  1
  Fe  Fe28  1  0.12584697  0.37586149  0.37403944  1
  Fe  Fe29  1  0.62442605  0.37398504  0.37758048  1
  Fe  Fe30  1  0.50287044  0.00130510  0.75045995  1
  Fe  Fe31  1  -0.00085486  0.75360416  0.50268430  1
  Fe  Fe32  1  0.00378737  0.50145069  0.24534348  1
  Fe  Fe33  1  0.37777576  0.87727089  0.12513796  1
  Fe  Fe34  1  0.12529206  0.37383063  0.62720432  1
  Fe  Fe35  1  0.00057353  0.50000032  0.50197431  1
  Fe  Fe36  1  0.25452779  0.74792651  0.75343836  1
  Fe  Fe37  1  0.12662705  0.87627792  0.37402977  1
  Fe  Fe38  1  0.62864139  0.36912101  0.12243505  1
  Fe  Fe39  1  0.87530330  0.37613180  0.37442380  1
  Fe  Fe40  1  0.87617052  0.12182799  0.87467435  1
  Fe  Fe41  1  0.37328761  0.37505141  0.12629285  1
  Fe  Fe42  1  0.74837126  0.74998523  0.24795415  1
  Fe  Fe43  1  0.87413060  0.37338867  0.12385558  1
  Fe  Fe44  1  0.37491377  0.62196384  0.37251582  1
  Fe  Fe45  1  0.74854301  0.75077928  0.75306975  1
  Fe  Fe46  1  0.61877201  0.87074620  0.88081206  1
  Fe  Fe47  1  0.87035221  0.12073381  0.62733678  1
  Fe  Fe48  1  0.12415513  0.62441832  0.87728605  1
  Fe  Fe49  1  0.00137868  0.24855092  0.75135547  1
  Fe  Fe50  1  0.37507112  0.62057612  0.12581760  1
  Fe  Fe51  1  -0.00297318  0.74962056  -0.00107617  1
  Fe  Fe52  1  0.00199748  -0.00284549  0.74767610  1
  Fe  Fe53  1  0.25096586  0.75022091  0.24941689  1
  Fe  Fe54  1  0.87524298  0.87534740  0.37360786  1
  Fe  Fe55  1  0.25681209  -0.00064266  0.49743306  1
  Fe  Fe56  1  0.12585054  0.87392546  0.12335296  1
  Fe  Fe57  1  0.37450867  0.37781806  0.87458579  1
  Fe  Fe58  1  0.87226039  0.62319151  0.12124281  1
  Fe  Fe59  1  0.12874046  0.12419980  0.62595285  1
  Fe  Fe60  1  0.25133538  0.50201890  0.74786348  1
  Fe  Fe61  1  -0.00030767  0.74909437  0.24936344  1
  Fe  Fe62  1  0.74676768  0.49838410  0.24780987  1
  Fe  Fe63  1  0.62348941  0.12567007  0.37773642  1
  Fe  Fe64  1  0.50120065  0.74717947  0.24735921  1
  Fe  Fe65  1  0.75073792  0.75171457  0.49899243  1
  Fe  Fe66  1  0.74692176  0.00007009  -0.00017150  1
  Fe  Fe67  1  0.87490728  0.12465192  0.37587797  1
  Fe  Fe68  1  0.74659811  0.00255281  0.24897471  1
  Fe  Fe69  1  0.62292958  0.12885359  0.87846104  1
  Fe  Fe70  1  0.37656361  0.87494676  0.62853055  1
  Fe  Fe71  1  0.12460650  0.12558206  0.12218311  1
  Fe  Fe72  1  -0.00076217  0.50270235  0.74957589  1
  Fe  Fe73  1  0.49935103  0.75145876  0.50097935  1
  Fe  Fe74  1  0.25136099  0.00011515  -0.00074406  1
  Fe  Fe75  1  0.87282762  0.62664692  0.62680122  1
  Fe  Fe76  1  0.25018416  -0.00000030  0.75268285  1
  Fe  Fe77  1  -0.00089746  -0.00312707  0.50348855  1
  Fe  Fe78  1  -0.00055414  0.24843101  0.25146914  1
  Fe  Fe79  1  0.37430902  0.37641237  0.37242961  1
  Fe  Fe80  1  0.62649746  0.87893310  0.62403835  1
  Fe  Fe81  1  0.00132767  0.25127126  -0.00437409  1
  Fe  Fe82  1  0.24439999  0.49851393  0.00322437  1
  Fe  Fe83  1  0.37656806  0.12663968  0.12413040  1
  Fe  Fe84  1  0.87471591  0.38018993  0.87419423  1
  Fe  Fe85  1  0.50283100  0.49828031  0.00325639  1
  Fe  Fe86  1  0.75050639  0.25157905  0.50331172  1
  Fe  Fe87  1  0.75041349  0.49754923  0.50441327  1
  Fe  Fe88  1  0.12676767  0.12216081  0.37565321  1
  Fe  Fe89  1  0.25221655  0.25001434  0.50121330  1
  Co  Co90  1  0.62835583  0.12163422  0.62401650  1
  Co  Co91  1  0.12497727  0.37874440  0.87143169  1
  Co  Co92  1  0.37904804  0.87775615  0.87321701  1
  Co  Co93  1  0.50445867  0.49764175  0.24762323  1
  Co  Co94  1  0.75246867  0.24961813  -0.00497668  1
  Co  Co95  1  0.49603553  0.00042039  0.49976758  1
  Co  Co96  1  0.50003981  0.00295506  -0.00039392  1
  Co  Co97  1  0.37312841  0.12273827  0.62894693  1
  Co  Co98  1  0.25087339  0.49853737  0.50093589  1
  Co  Co99  1  0.37665660  0.61959271  0.87847425  1
  Co  Co100  1  0.49647455  0.25277325  -0.00060892  1
  Co  Co101  1  0.86865679  0.87698657  0.62732247  1
  Co  Co102  1  0.74502077  -0.00143648  0.75859249  1
  Co  Co103  1  0.49344549  0.74758882  0.00251590  1
  Co  Co104  1  -0.00034348  -0.00031950  0.00130665  1
  Co  Co105  1  0.75093904  -0.00089058  0.49541521  1
  Co  Co106  1  0.74713881  0.50093044  0.74940737  1
  Co  Co107  1  0.87432302  0.62325045  0.87534832  1
  Co  Co108  1  0.37564155  0.62597974  0.62344966  1
  Co  Co109  1  0.25103646  0.00055725  0.24826877  1
  Co  Co110  1  0.62621249  0.62807915  0.12150872  1
  Co  Co111  1  0.12602968  0.63144444  0.12199898  1
  Co  Co112  1  0.87684911  0.37463604  0.62804730  1
  Co  Co113  1  0.25051278  0.25081880  0.75278267  1
  Co  Co114  1  0.12421760  0.12175310  0.87436533  1
  Co  Co115  1  0.75242356  0.75320469  0.00043543  1
  Co  Co116  1  0.74924885  0.24916300  0.25320094  1
  Co  Co117  1  0.62133232  0.37516353  0.62590669  1
  Co  Co118  1  0.49945577  0.74772854  0.74991758  1
  Co  Co119  1  0.13184086  0.87475828  0.62511886  1
  Co  Co120  1  0.74719627  0.49820521  -0.00072595  1
  Co  Co121  1  0.62166840  0.87464448  0.12327674  1
  Co  Co122  1  0.62468567  0.12847630  0.12223438  1
  Co  Co123  1  0.00299146  0.49923938  0.00266582  1
  Co  Co124  1  0.12353098  0.36880537  0.12588062  1
  Co  Co125  1  0.37640118  0.12780211  0.37171403  1
  Co  Co126  1  0.24531504  0.50009460  0.24762339  1
  Co  Co127  1  0.37740254  0.87286383  0.37182512  1
