# generated using pymatgen
data_Fe45Co19
_symmetry_space_group_name_H-M   'P 1'
_cell_length_a   11.41614307
_cell_length_b   11.41379708
_cell_length_c   11.41525303
_cell_angle_alpha   90.00753768
_cell_angle_beta   90.00087281
_cell_angle_gamma   90.01408977
_symmetry_Int_Tables_number   1
_chemical_formula_structural   Fe45Co19
_chemical_formula_sum   'Fe90 Co38'
_cell_volume   1487.42499653
_cell_formula_units_Z   2
loop_
 _symmetry_equiv_pos_site_id
 _symmetry_equiv_pos_as_xyz
  1  'x, y, z'
loop_
 _atom_site_type_symbol
 _atom_site_label
 _atom_site_symmetry_multiplicity
 _atom_site_fract_x
 _atom_site_fract_y
 _atom_site_fract_z
 _atom_site_occupancy
  Fe  Fe0  1  0.62761409  0.62678573  0.12743363  1
  Fe  Fe1  1  0.50031918  0.49920364  0.00280770  1
  Fe  Fe2  1  0.87754858  0.62819838  0.62498135  1
  Fe  Fe3  1  0.12533340  0.12055427  0.37500681  1
  Fe  Fe4  1  0.37376387  0.62464613  0.87626738  1
  Fe  Fe5  1  0.49951905  0.75139179  0.75001165  1
  Fe  Fe6  1  0.87565194  0.87310639  0.87144595  1
  Fe  Fe7  1  0.75050411  0.00038329  0.74800568  1
  Fe  Fe8  1  0.12385285  0.87499461  0.12724626  1
  Fe  Fe9  1  0.49817542  0.24998213  0.75111818  1
  Fe  Fe10  1  0.62634931  0.37425958  0.37471100  1
  Fe  Fe11  1  0.12658967  0.62306228  0.87516318  1
  Fe  Fe12  1  0.87404098  0.37153321  0.12499129  1
  Fe  Fe13  1  0.75082160  0.75314791  0.49966268  1
  Fe  Fe14  1  0.75181646  0.49969126  0.49840433  1
  Fe  Fe15  1  0.24877142  0.74984497  0.00209337  1
  Fe  Fe16  1  0.00098565  0.24721199  0.49816449  1
  Fe  Fe17  1  0.74990347  -0.00131105  0.25111226  1
  Fe  Fe18  1  0.12301148  0.37646364  0.37280367  1
  Fe  Fe19  1  0.50105268  0.25115373  0.00267711  1
  Fe  Fe20  1  0.49783330  0.00017879  0.74990984  1
  Fe  Fe21  1  0.24865126  0.25220121  0.74894672  1
  Fe  Fe22  1  0.12283516  0.62535156  0.12863345  1
  Fe  Fe23  1  0.37466029  0.62307452  0.62172892  1
  Fe  Fe24  1  0.12198233  0.12254770  0.12390722  1
  Fe  Fe25  1  0.74886589  0.24741523  0.24908053  1
  Fe  Fe26  1  0.87657045  0.87569189  0.12644890  1
  Fe  Fe27  1  0.24765776  0.24985453  0.00311293  1
  Fe  Fe28  1  0.87543455  0.12443982  0.62434261  1
  Fe  Fe29  1  0.24954214  0.49981520  0.24791162  1
  Fe  Fe30  1  0.75471228  0.50005764  0.25199283  1
  Fe  Fe31  1  0.24995419  0.49709961  0.74593510  1
  Fe  Fe32  1  0.00087496  0.74944658  0.25452059  1
  Fe  Fe33  1  0.62793549  0.62788592  0.37376148  1
  Fe  Fe34  1  0.50153194  0.75394823  0.24961181  1
  Fe  Fe35  1  0.37342334  0.12540278  0.62422853  1
  Fe  Fe36  1  0.75091322  0.49978289  0.00023615  1
  Fe  Fe37  1  0.74873181  0.24676209  0.49987359  1
  Fe  Fe38  1  0.24689876  0.75075906  0.49556323  1
  Fe  Fe39  1  0.00077937  0.00044516  0.75024549  1
  Fe  Fe40  1  0.62391412  0.62420254  0.62358527  1
  Fe  Fe41  1  -0.00008699  0.49858773  0.75138057  1
  Fe  Fe42  1  0.25010082  0.24917748  0.24791241  1
  Fe  Fe43  1  0.49970738  0.75014911  0.49860093  1
  Fe  Fe44  1  0.00307417  0.75276285  0.49771307  1
  Fe  Fe45  1  0.00192419  0.25069161  0.75324617  1
  Fe  Fe46  1  0.37549476  0.62745328  0.12593183  1
  Fe  Fe47  1  0.87618981  0.62694047  0.87383266  1
  Fe  Fe48  1  0.24889655  0.74955214  0.74992493  1
  Fe  Fe49  1  0.62429818  0.62614115  0.87479416  1
  Fe  Fe50  1  0.37152238  0.12251328  0.87896638  1
  Fe  Fe51  1  0.62486379  0.87852106  0.62295421  1
  Fe  Fe52  1  0.87607294  0.12334197  0.37436120  1
  Fe  Fe53  1  0.87648878  0.87723282  0.37605619  1
  Fe  Fe54  1  0.12621825  0.12365784  0.62485013  1
  Fe  Fe55  1  0.37515140  0.37566382  0.37547280  1
  Fe  Fe56  1  0.62481888  0.12340665  0.87502113  1
  Fe  Fe57  1  0.87595205  0.62776081  0.12648088  1
  Fe  Fe58  1  0.75182757  -0.00095453  -0.00039192  1
  Fe  Fe59  1  0.37520753  0.12363250  0.37403757  1
  Fe  Fe60  1  0.75159145  0.49934971  0.75018661  1
  Fe  Fe61  1  0.50036319  0.24866793  0.50036692  1
  Fe  Fe62  1  0.37452086  0.87709347  0.37373862  1
  Fe  Fe63  1  0.12472544  0.62397025  0.62211735  1
  Fe  Fe64  1  0.37226263  0.87526315  0.62365919  1
  Fe  Fe65  1  0.50286042  0.75330702  0.00026987  1
  Fe  Fe66  1  0.74913198  0.75199882  0.00017128  1
  Fe  Fe67  1  0.49880969  0.49913312  0.74959504  1
  Fe  Fe68  1  -0.00217304  0.49983776  0.49553445  1
  Fe  Fe69  1  0.87699447  0.37278280  0.62350042  1
  Fe  Fe70  1  0.62336538  0.37410849  0.62423175  1
  Fe  Fe71  1  0.50017111  0.25005818  0.24740761  1
  Fe  Fe72  1  0.87552533  0.12581368  0.87666534  1
  Fe  Fe73  1  0.00109675  0.75156473  -0.00214514  1
  Fe  Fe74  1  0.24880020  0.25240315  0.50032383  1
  Fe  Fe75  1  0.37285878  0.87673108  0.87786632  1
  Fe  Fe76  1  -0.00046721  0.24822562  0.24921320  1
  Fe  Fe77  1  0.00077351  0.24955578  -0.00122411  1
  Fe  Fe78  1  0.25174711  -0.00008293  0.24641188  1
  Fe  Fe79  1  0.12665932  0.87848066  0.87528255  1
  Fe  Fe80  1  0.62428481  0.12152835  0.12403393  1
  Fe  Fe81  1  0.12600443  0.87783053  0.62450508  1
  Fe  Fe82  1  0.00105815  0.49795526  0.00063091  1
  Fe  Fe83  1  0.37273616  0.62382234  0.37541219  1
  Fe  Fe84  1  0.62654661  0.37463283  0.87675989  1
  Fe  Fe85  1  0.62221517  0.11976330  0.37662936  1
  Fe  Fe86  1  0.37108010  0.37683514  0.87893242  1
  Fe  Fe87  1  0.75037923  0.25086666  0.75058079  1
  Fe  Fe88  1  0.74853814  0.74968355  0.74892137  1
  Fe  Fe89  1  0.50103058  0.49901627  0.25006070  1
  Co  Co90  1  0.24743449  -0.00016795  0.00513098  1
  Co  Co91  1  0.12326948  0.37494236  0.12733332  1
  Co  Co92  1  0.12650543  0.12311812  0.87598221  1
  Co  Co93  1  0.37858567  0.37473341  0.62214496  1
  Co  Co94  1  0.62752847  0.37596823  0.12647006  1
  Co  Co95  1  0.24930542  0.75074800  0.25140999  1
  Co  Co96  1  0.62607379  0.87706608  0.12539251  1
  Co  Co97  1  0.62592919  0.87616921  0.87318883  1
  Co  Co98  1  0.12577559  0.88012885  0.37268293  1
  Co  Co99  1  0.12010591  0.37399444  0.62355505  1
  Co  Co100  1  0.12585730  0.62134897  0.37355979  1
  Co  Co101  1  0.25092813  0.00088415  0.74931489  1
  Co  Co102  1  0.24881175  0.49615631  0.50061391  1
  Co  Co103  1  -0.00171936  -0.00113776  -0.00086143  1
  Co  Co104  1  0.87461258  0.37391130  0.87711949  1
  Co  Co105  1  0.87443715  0.63001379  0.37593019  1
  Co  Co106  1  0.50241249  0.50101580  0.49687958  1
  Co  Co107  1  0.49815961  -0.00146856  0.24823584  1
  Co  Co108  1  0.50054081  -0.00142671  -0.00027692  1
  Co  Co109  1  0.25102771  0.00078701  0.49932640  1
  Co  Co110  1  0.87490639  0.36892081  0.37505550  1
  Co  Co111  1  0.74836229  0.24807643  0.00071312  1
  Co  Co112  1  0.75106799  0.75390782  0.24998810  1
  Co  Co113  1  0.49748131  0.00078936  0.50196444  1
  Co  Co114  1  0.24871350  0.50254286  0.00567081  1
  Co  Co115  1  0.37473475  0.87417127  0.12329926  1
  Co  Co116  1  0.00474957  0.75037896  0.75066287  1
  Co  Co117  1  -0.00057859  -0.00004687  0.50119609  1
  Co  Co118  1  0.12790837  0.37631791  0.87614723  1
  Co  Co119  1  0.75229729  0.00109559  0.50024949  1
  Co  Co120  1  0.37416123  0.37426526  0.12549717  1
  Co  Co121  1  -0.00538816  0.49965535  0.25138879  1
  Co  Co122  1  -0.00063489  0.00125873  0.24908330  1
  Co  Co123  1  0.62366448  0.87682638  0.37679889  1
  Co  Co124  1  0.87489837  0.12495090  0.12452335  1
  Co  Co125  1  0.87657910  0.87371536  0.62650288  1
  Co  Co126  1  0.62412966  0.12449708  0.62626761  1
  Co  Co127  1  0.37682485  0.12479618  0.12338882  1
