# generated using pymatgen
data_Fe45Co19
_symmetry_space_group_name_H-M   'P 1'
_cell_length_a   11.41405331
_cell_length_b   11.41533806
_cell_length_c   11.41479715
_cell_angle_alpha   89.99672913
_cell_angle_beta   90.00062416
_cell_angle_gamma   90.00879812
_symmetry_Int_Tables_number   1
_chemical_formula_structural   Fe45Co19
_chemical_formula_sum   'Fe90 Co38'
_cell_volume   1487.29413930
_cell_formula_units_Z   2
loop_
 _symmetry_equiv_pos_site_id
 _symmetry_equiv_pos_as_xyz
  1  'x, y, z'
loop_
 _atom_site_type_symbol
 _atom_site_label
 _atom_site_symmetry_multiplicity
 _atom_site_fract_x
 _atom_site_fract_y
 _atom_site_fract_z
 _atom_site_occupancy
  Fe  Fe0  1  0.49981636  0.50337485  0.74639238  1
  Fe  Fe1  1  0.49850011  0.50072147  0.50236026  1
  Fe  Fe2  1  0.12601877  0.12267463  0.87434984  1
  Fe  Fe3  1  -0.00026631  0.24901102  -0.00134959  1
  Fe  Fe4  1  0.74860988  -0.00200207  0.24714424  1
  Fe  Fe5  1  0.49930868  0.00569725  0.49801119  1
  Fe  Fe6  1  0.75248062  0.49784380  0.50082183  1
  Fe  Fe7  1  0.87502727  0.62585185  0.87397274  1
  Fe  Fe8  1  0.25256384  -0.00230431  0.75093787  1
  Fe  Fe9  1  0.62564174  0.62490877  0.37795061  1
  Fe  Fe10  1  0.00278991  0.50390206  -0.00012376  1
  Fe  Fe11  1  0.74851734  0.50109569  0.74871625  1
  Fe  Fe12  1  -0.00173845  0.24883839  0.50168955  1
  Fe  Fe13  1  0.87526824  0.12223767  0.37332736  1
  Fe  Fe14  1  0.12953247  0.62685636  0.62324542  1
  Fe  Fe15  1  0.74932490  0.25015306  0.49842362  1
  Fe  Fe16  1  0.74832854  0.75066831  0.25060359  1
  Fe  Fe17  1  0.50088413  0.74819573  -0.00028239  1
  Fe  Fe18  1  0.25023597  0.25099824  -0.00052873  1
  Fe  Fe19  1  0.12347135  0.12264801  0.37602743  1
  Fe  Fe20  1  0.50302595  0.24759854  0.25524373  1
  Fe  Fe21  1  0.75137459  0.25310913  0.25157891  1
  Fe  Fe22  1  0.49904084  0.50082708  0.25127930  1
  Fe  Fe23  1  0.12514082  0.37523680  0.87386340  1
  Fe  Fe24  1  -0.00415183  -0.00352878  0.50220727  1
  Fe  Fe25  1  0.62335626  0.87610295  0.37510094  1
  Fe  Fe26  1  0.25200678  0.25143624  0.74931425  1
  Fe  Fe27  1  0.62653381  0.62530001  0.12446657  1
  Fe  Fe28  1  -0.00112353  0.50113512  0.50308679  1
  Fe  Fe29  1  0.75114086  0.24829974  0.75265374  1
  Fe  Fe30  1  0.37395142  0.12617457  0.12698299  1
  Fe  Fe31  1  0.25315195  0.49632118  0.74857654  1
  Fe  Fe32  1  0.87378754  0.62827658  0.62554654  1
  Fe  Fe33  1  0.75154733  0.75461191  0.50182031  1
  Fe  Fe34  1  0.87427424  0.12676570  0.12438213  1
  Fe  Fe35  1  0.24872831  0.50095904  -0.00067546  1
  Fe  Fe36  1  0.37484275  0.62495815  0.87322648  1
  Fe  Fe37  1  0.37268280  0.12422716  0.87743136  1
  Fe  Fe38  1  0.24633315  0.74870827  -0.00318628  1
  Fe  Fe39  1  0.12735887  0.12239253  0.62365650  1
  Fe  Fe40  1  0.49782007  0.24745127  0.74788955  1
  Fe  Fe41  1  0.25048534  0.49891833  0.25253545  1
  Fe  Fe42  1  0.37294002  0.62673985  0.37830300  1
  Fe  Fe43  1  0.49976134  0.50053772  0.00061974  1
  Fe  Fe44  1  0.37229747  0.62580190  0.12555243  1
  Fe  Fe45  1  0.37617796  0.37082277  0.37996618  1
  Fe  Fe46  1  0.49707230  0.74927235  0.50402230  1
  Fe  Fe47  1  -0.00052364  0.75119551  0.25092822  1
  Fe  Fe48  1  -0.00137533  0.49947075  0.24886990  1
  Fe  Fe49  1  0.12441427  0.37536916  0.12514275  1
  Fe  Fe50  1  0.00299784  0.75051144  0.75026104  1
  Fe  Fe51  1  -0.00055378  0.24774811  0.75023091  1
  Fe  Fe52  1  0.87641857  0.87400915  0.12434434  1
  Fe  Fe53  1  0.37190305  0.12569815  0.61946502  1
  Fe  Fe54  1  0.37449714  0.87443099  0.12340459  1
  Fe  Fe55  1  0.25009513  0.75194256  0.25276453  1
  Fe  Fe56  1  0.12467641  0.87400362  0.12286546  1
  Fe  Fe57  1  0.50098749  0.74894087  0.24947657  1
  Fe  Fe58  1  0.12065309  0.37414881  0.37664910  1
  Fe  Fe59  1  0.62472060  0.37304384  0.12585691  1
  Fe  Fe60  1  0.12545566  0.12461004  0.12584578  1
  Fe  Fe61  1  0.75165577  -0.00328601  0.50336063  1
  Fe  Fe62  1  -0.00063502  0.50041271  0.74766912  1
  Fe  Fe63  1  0.25041955  -0.00164399  0.25178683  1
  Fe  Fe64  1  0.24744208  0.25033742  0.25281031  1
  Fe  Fe65  1  0.12559988  0.62681096  0.37805165  1
  Fe  Fe66  1  0.12543211  0.37420256  0.62474798  1
  Fe  Fe67  1  0.87621881  0.37552925  0.87509887  1
  Fe  Fe68  1  0.61938773  0.87879333  0.62845282  1
  Fe  Fe69  1  0.50060070  0.24967439  -0.00050107  1
  Fe  Fe70  1  0.74926875  0.75237959  -0.00253239  1
  Fe  Fe71  1  0.62283170  0.37538132  0.87326334  1
  Fe  Fe72  1  0.50002475  0.00198929  0.00241429  1
  Fe  Fe73  1  0.50054725  0.00162392  0.24968018  1
  Fe  Fe74  1  0.25410606  0.75479668  0.74963961  1
  Fe  Fe75  1  0.87303803  0.12309845  0.62848822  1
  Fe  Fe76  1  0.75134000  0.49823375  0.25052326  1
  Fe  Fe77  1  0.74792703  0.00027788  -0.00085297  1
  Fe  Fe78  1  0.74474301  0.75046475  0.74999264  1
  Fe  Fe79  1  0.62381551  0.37231525  0.62372382  1
  Fe  Fe80  1  0.62562977  0.12444541  0.87409554  1
  Fe  Fe81  1  0.61848491  0.87625692  0.87177753  1
  Fe  Fe82  1  0.74952725  0.49819611  0.00027698  1
  Fe  Fe83  1  0.12532606  0.87584564  0.62365037  1
  Fe  Fe84  1  0.12242675  0.87527804  0.37739815  1
  Fe  Fe85  1  0.87799679  0.87763228  0.87133990  1
  Fe  Fe86  1  0.87618567  0.62720505  0.12345772  1
  Fe  Fe87  1  0.00114451  0.00005519  -0.00041049  1
  Fe  Fe88  1  0.37515712  0.37346099  0.12527772  1
  Fe  Fe89  1  0.87516335  0.62683865  0.37664721  1
  Co  Co90  1  -0.00039251  0.24939779  0.24947456  1
  Co  Co91  1  0.25037086  0.00022425  0.00071482  1
  Co  Co92  1  0.37972120  0.87557959  0.37464834  1
  Co  Co93  1  0.37863171  0.87468209  0.87686563  1
  Co  Co94  1  0.62794810  0.62503191  0.62122141  1
  Co  Co95  1  0.87583055  0.12184374  0.87422578  1
  Co  Co96  1  0.62471644  0.37771089  0.37712265  1
  Co  Co97  1  0.25272447  0.75518275  0.50006668  1
  Co  Co98  1  0.87562485  0.87401485  0.63168671  1
  Co  Co99  1  0.12717758  0.62386081  0.86899240  1
  Co  Co100  1  0.36863277  0.62426261  0.62384341  1
  Co  Co101  1  0.87400052  0.87590598  0.37200198  1
  Co  Co102  1  0.37684380  0.37596615  0.87488999  1
  Co  Co103  1  0.37983599  0.87924914  0.62551064  1
  Co  Co104  1  0.00089710  -0.00086615  0.24839840  1
  Co  Co105  1  0.12550778  0.62606126  0.12872301  1
  Co  Co106  1  0.00241726  0.74898728  -0.00288780  1
  Co  Co107  1  0.62620019  0.12838788  0.12593572  1
  Co  Co108  1  0.62375058  0.87401410  0.12470376  1
  Co  Co109  1  0.87418721  0.37261234  0.62634419  1
  Co  Co110  1  0.37132604  0.12608352  0.37531420  1
  Co  Co111  1  0.12497357  0.87817272  0.87487928  1
  Co  Co112  1  0.62785216  0.12411935  0.62622337  1
  Co  Co113  1  0.74982624  0.25016490  -0.00287755  1
  Co  Co114  1  0.24604798  0.25106756  0.49898390  1
  Co  Co115  1  0.37722784  0.37136112  0.62112261  1
  Co  Co116  1  0.87811136  0.37474592  0.37613323  1
  Co  Co117  1  0.25143554  -0.00388808  0.49728623  1
  Co  Co118  1  0.00257509  0.00139836  0.74791385  1
  Co  Co119  1  0.87666728  0.37394586  0.12280914  1
  Co  Co120  1  0.49903774  0.74492887  0.74700413  1
  Co  Co121  1  0.63090147  0.12132257  0.37416384  1
  Co  Co122  1  0.24943868  0.49680329  0.49845193  1
  Co  Co123  1  0.50415605  0.24417339  0.49810180  1
  Co  Co124  1  -0.00200458  0.75186105  0.50122907  1
  Co  Co125  1  0.62484406  0.62442566  0.87678405  1
  Co  Co126  1  0.74839010  -0.00089728  0.75074517  1
  Co  Co127  1  0.49552180  0.00654627  0.75068231  1
