# generated using pymatgen
data_Fe45Co19
_symmetry_space_group_name_H-M   'P 1'
_cell_length_a   11.41392183
_cell_length_b   11.41634495
_cell_length_c   11.41474996
_cell_angle_alpha   90.00215081
_cell_angle_beta   90.00848451
_cell_angle_gamma   89.99733875
_symmetry_Int_Tables_number   1
_chemical_formula_structural   Fe45Co19
_chemical_formula_sum   'Fe90 Co38'
_cell_volume   1487.40204222
_cell_formula_units_Z   2
loop_
 _symmetry_equiv_pos_site_id
 _symmetry_equiv_pos_as_xyz
  1  'x, y, z'
loop_
 _atom_site_type_symbol
 _atom_site_label
 _atom_site_symmetry_multiplicity
 _atom_site_fract_x
 _atom_site_fract_y
 _atom_site_fract_z
 _atom_site_occupancy
  Fe  Fe0  1  0.49561037  0.75120643  -0.00114928  1
  Fe  Fe1  1  0.87470231  0.62252379  0.87321739  1
  Fe  Fe2  1  0.62737059  0.87450168  0.62363432  1
  Fe  Fe3  1  0.24785227  0.74814645  0.24734724  1
  Fe  Fe4  1  0.12559780  0.87533101  0.62539728  1
  Fe  Fe5  1  0.37609438  0.12526907  0.37266742  1
  Fe  Fe6  1  0.87682696  0.87534410  0.37430123  1
  Fe  Fe7  1  0.61959503  0.12401157  0.87584789  1
  Fe  Fe8  1  0.50064592  0.49980201  0.24780417  1
  Fe  Fe9  1  0.87745135  0.12561654  0.37564609  1
  Fe  Fe10  1  0.49693896  0.75293349  0.74989305  1
  Fe  Fe11  1  0.25291516  0.24863836  -0.00401616  1
  Fe  Fe12  1  0.74862705  0.74897385  0.75025853  1
  Fe  Fe13  1  0.12511719  0.37349332  0.37603159  1
  Fe  Fe14  1  0.37454911  0.87536292  0.37509313  1
  Fe  Fe15  1  -0.00596236  0.49534249  0.00145904  1
  Fe  Fe16  1  0.24792439  0.00227004  0.25054384  1
  Fe  Fe17  1  0.62528977  0.62528515  0.37745902  1
  Fe  Fe18  1  0.50108993  0.49831918  0.75136355  1
  Fe  Fe19  1  0.00196930  0.25009474  0.24536321  1
  Fe  Fe20  1  0.50033372  0.24935306  0.24760213  1
  Fe  Fe21  1  0.12565079  0.62434967  0.87921668  1
  Fe  Fe22  1  0.75010439  0.00219106  0.75419712  1
  Fe  Fe23  1  0.62627625  0.62430726  0.12063450  1
  Fe  Fe24  1  0.62565453  0.12502522  0.12216791  1
  Fe  Fe25  1  0.24398418  0.24901015  0.75516797  1
  Fe  Fe26  1  0.49529723  0.25018217  0.00045362  1
  Fe  Fe27  1  0.62718483  0.87519662  0.12270541  1
  Fe  Fe28  1  0.12601125  0.87602020  0.12148212  1
  Fe  Fe29  1  0.74992424  0.74946393  0.25049464  1
  Fe  Fe30  1  0.37313510  0.87759221  0.12336206  1
  Fe  Fe31  1  0.37415827  0.62400647  0.12369624  1
  Fe  Fe32  1  0.12711906  0.62498497  0.62536489  1
  Fe  Fe33  1  0.50119762  0.00064097  0.24792679  1
  Fe  Fe34  1  0.12859776  0.37695929  0.12367816  1
  Fe  Fe35  1  0.24968887  0.50202749  0.24978745  1
  Fe  Fe36  1  0.49592259  0.74818129  0.50141855  1
  Fe  Fe37  1  0.75062473  0.00116940  0.49815822  1
  Fe  Fe38  1  0.62330664  0.62367161  0.87762346  1
  Fe  Fe39  1  -0.00051199  0.25098889  0.50315178  1
  Fe  Fe40  1  0.87495495  0.62503685  0.37562658  1
  Fe  Fe41  1  0.24808104  0.24780363  0.24906821  1
  Fe  Fe42  1  0.12477972  0.87470931  0.87637330  1
  Fe  Fe43  1  0.75385614  0.75056469  -0.00064854  1
  Fe  Fe44  1  0.00255742  0.74854577  0.24669346  1
  Fe  Fe45  1  0.12456933  0.62433830  0.37547175  1
  Fe  Fe46  1  0.88204762  0.13069027  0.87895885  1
  Fe  Fe47  1  0.37561528  0.12420766  0.63343900  1
  Fe  Fe48  1  0.62452701  0.87603253  0.87673540  1
  Fe  Fe49  1  0.74813316  0.25009011  0.75325148  1
  Fe  Fe50  1  0.00090658  0.00163169  0.24760464  1
  Fe  Fe51  1  0.00155863  0.00036278  0.75266837  1
  Fe  Fe52  1  0.25359868  0.75202779  0.75281882  1
  Fe  Fe53  1  0.25180118  0.50049343  0.49958924  1
  Fe  Fe54  1  0.74989421  0.50129343  0.24874621  1
  Fe  Fe55  1  0.25321050  0.00355762  -0.00581079  1
  Fe  Fe56  1  0.62390021  0.87477217  0.37634304  1
  Fe  Fe57  1  0.49743368  0.50001831  0.49969811  1
  Fe  Fe58  1  0.24712817  0.49850859  0.75250285  1
  Fe  Fe59  1  0.37489972  0.37417714  0.37262555  1
  Fe  Fe60  1  0.00008579  0.49878864  0.50217015  1
  Fe  Fe61  1  0.00075289  0.74842213  0.75071161  1
  Fe  Fe62  1  0.24893155  0.00243007  0.50026595  1
  Fe  Fe63  1  0.75412837  0.00037839  -0.00068016  1
  Fe  Fe64  1  0.49958663  0.00220164  0.50190608  1
  Fe  Fe65  1  0.62611333  0.12543678  0.62536658  1
  Fe  Fe66  1  -0.00139691  0.75049605  0.50176730  1
  Fe  Fe67  1  0.25299201  0.74795676  0.50008266  1
  Fe  Fe68  1  0.62723436  0.37536775  0.12169537  1
  Fe  Fe69  1  0.87427562  0.87625784  0.62768167  1
  Fe  Fe70  1  0.62817310  0.37506794  0.62268875  1
  Fe  Fe71  1  0.62586311  0.62426351  0.62357992  1
  Fe  Fe72  1  -0.00235169  0.75173344  0.00146785  1
  Fe  Fe73  1  0.25495166  0.49759514  -0.00246347  1
  Fe  Fe74  1  0.87426810  0.37351382  0.37360005  1
  Fe  Fe75  1  0.12468079  0.87566453  0.37644375  1
  Fe  Fe76  1  0.87559124  0.12472887  0.62711039  1
  Fe  Fe77  1  0.49909289  0.74994363  0.24808401  1
  Fe  Fe78  1  0.74928368  0.24663618  0.24969923  1
  Fe  Fe79  1  0.12367145  0.12450111  0.62558996  1
  Fe  Fe80  1  0.12327370  0.12429499  0.11898269  1
  Fe  Fe81  1  0.37290479  0.37400506  0.62894871  1
  Fe  Fe82  1  0.74995359  0.00240881  0.24932677  1
  Fe  Fe83  1  -0.00072984  0.49932828  0.24625360  1
  Fe  Fe84  1  0.62626301  0.37253146  0.37678174  1
  Fe  Fe85  1  0.25012623  0.24819786  0.50019090  1
  Fe  Fe86  1  0.49903447  0.24895207  0.50203631  1
  Fe  Fe87  1  0.87416558  0.37669652  0.63095244  1
  Fe  Fe88  1  0.62530064  0.37615113  0.87904217  1
  Fe  Fe89  1  0.87258989  0.62242853  0.62667304  1
  Co  Co90  1  0.37525911  0.62342943  0.87330121  1
  Co  Co91  1  0.37606999  0.37295766  0.87053226  1
  Co  Co92  1  0.37523455  0.62470101  0.37174640  1
  Co  Co93  1  0.86880835  0.37157976  0.12701561  1
  Co  Co94  1  0.75283723  0.24989075  0.50143777  1
  Co  Co95  1  0.12196204  0.37587646  0.87735765  1
  Co  Co96  1  0.87351926  0.87453973  0.12812889  1
  Co  Co97  1  0.11805872  0.12584428  0.88028599  1
  Co  Co98  1  0.50534180  0.25424714  0.74952571  1
  Co  Co99  1  0.12482184  0.62235706  0.11945658  1
  Co  Co100  1  0.62380525  0.12697542  0.37621640  1
  Co  Co101  1  0.12680006  0.37535276  0.62340892  1
  Co  Co102  1  0.87410154  0.62656532  0.12496706  1
  Co  Co103  1  0.37699367  0.88032522  0.87432893  1
  Co  Co104  1  0.87648714  0.12624237  0.12137286  1
  Co  Co105  1  -0.00396871  -0.00552396  -0.00057035  1
  Co  Co106  1  0.75170673  0.49879906  0.49927716  1
  Co  Co107  1  0.37322611  0.37421647  0.12720971  1
  Co  Co108  1  0.37386354  0.12510520  0.12590080  1
  Co  Co109  1  0.49648506  0.49823369  0.00063895  1
  Co  Co110  1  0.38061933  0.12455911  0.86750857  1
  Co  Co111  1  0.00458327  0.50102006  0.75041770  1
  Co  Co112  1  0.50351061  -0.00519534  0.74747013  1
  Co  Co113  1  0.12203396  0.12698105  0.37603222  1
  Co  Co114  1  0.74943680  0.24942980  -0.00331075  1
  Co  Co115  1  0.49831841  0.00109062  0.00225811  1
  Co  Co116  1  0.75427690  0.49894034  -0.00097708  1
  Co  Co117  1  0.75182182  0.75059171  0.50006093  1
  Co  Co118  1  0.74576929  0.49924989  0.75247014  1
  Co  Co119  1  0.00101618  0.25823040  0.00490167  1
  Co  Co120  1  0.00062651  0.00004002  0.50154798  1
  Co  Co121  1  0.37243554  0.87800563  0.62432083  1
  Co  Co122  1  0.25310886  0.75121518  -0.00074177  1
  Co  Co123  1  0.24544775  0.00099932  0.75356185  1
  Co  Co124  1  0.87470799  0.87346072  0.87120580  1
  Co  Co125  1  0.37429577  0.62236882  0.62983305  1
  Co  Co126  1  0.00399408  0.25140311  0.74814757  1
  Co  Co127  1  0.87645482  0.37286565  0.86959072  1
