# generated using pymatgen
data_Fe45Co19
_symmetry_space_group_name_H-M   'P 1'
_cell_length_a   11.41530666
_cell_length_b   11.41432829
_cell_length_c   11.41663575
_cell_angle_alpha   90.00714109
_cell_angle_beta   89.99914883
_cell_angle_gamma   90.01217282
_symmetry_Int_Tables_number   1
_chemical_formula_structural   Fe45Co19
_chemical_formula_sum   'Fe90 Co38'
_cell_volume   1487.56541814
_cell_formula_units_Z   2
loop_
 _symmetry_equiv_pos_site_id
 _symmetry_equiv_pos_as_xyz
  1  'x, y, z'
loop_
 _atom_site_type_symbol
 _atom_site_label
 _atom_site_symmetry_multiplicity
 _atom_site_fract_x
 _atom_site_fract_y
 _atom_site_fract_z
 _atom_site_occupancy
  Fe  Fe0  1  0.49886440  0.00024673  0.75002199  1
  Fe  Fe1  1  0.87612754  0.61936558  0.87233197  1
  Fe  Fe2  1  0.87744956  0.62325393  0.37410612  1
  Fe  Fe3  1  0.00116181  0.00034374  0.74972080  1
  Fe  Fe4  1  0.00307572  0.74939706  0.24804016  1
  Fe  Fe5  1  0.37358153  0.87179450  0.62527448  1
  Fe  Fe6  1  0.75009982  0.74817794  0.75249996  1
  Fe  Fe7  1  0.24944550  0.00030545  0.50050251  1
  Fe  Fe8  1  0.37158976  0.37180537  0.12565680  1
  Fe  Fe9  1  0.49966169  0.24980090  0.25121805  1
  Fe  Fe10  1  0.49823551  0.50214000  0.00418794  1
  Fe  Fe11  1  0.62445902  0.12491512  0.87502396  1
  Fe  Fe12  1  0.62284725  0.37851171  0.37540943  1
  Fe  Fe13  1  0.12610491  0.37486649  0.62099415  1
  Fe  Fe14  1  0.49832859  0.00043343  0.50069963  1
  Fe  Fe15  1  0.00069905  0.25473848  0.00074214  1
  Fe  Fe16  1  0.12551868  0.12868450  0.62451725  1
  Fe  Fe17  1  0.61955677  0.37458397  0.62124061  1
  Fe  Fe18  1  0.50113298  0.74968899  0.24639494  1
  Fe  Fe19  1  0.74903884  0.25433997  0.75076759  1
  Fe  Fe20  1  0.87425165  0.87650268  0.37407722  1
  Fe  Fe21  1  0.62295551  0.37652257  0.87683989  1
  Fe  Fe22  1  0.75066898  0.25103981  0.49943549  1
  Fe  Fe23  1  0.87565989  0.87266355  0.62453942  1
  Fe  Fe24  1  0.12519795  0.87632756  0.87722537  1
  Fe  Fe25  1  0.12418056  0.37918072  0.37491367  1
  Fe  Fe26  1  0.00230213  0.25324828  0.25048707  1
  Fe  Fe27  1  0.62883570  0.62803240  0.12450329  1
  Fe  Fe28  1  0.74963498  -0.00082221  0.00198815  1
  Fe  Fe29  1  0.87476210  0.12367903  0.37529733  1
  Fe  Fe30  1  0.49694503  0.49677593  0.74741742  1
  Fe  Fe31  1  0.12829537  0.12847961  0.12539607  1
  Fe  Fe32  1  0.75005204  0.74839878  0.49823060  1
  Fe  Fe33  1  0.25264150  0.49378236  0.74996794  1
  Fe  Fe34  1  0.62163112  0.62292918  0.37456145  1
  Fe  Fe35  1  0.24880261  0.74991474  0.75272594  1
  Fe  Fe36  1  0.37504901  0.12816146  0.87341328  1
  Fe  Fe37  1  0.62628642  0.87693723  0.37453910  1
  Fe  Fe38  1  0.37584135  0.62477211  0.87475398  1
  Fe  Fe39  1  0.37169002  0.87113193  0.37613647  1
  Fe  Fe40  1  0.87566227  0.12599310  0.62541284  1
  Fe  Fe41  1  0.12759976  0.62341229  0.37155338  1
  Fe  Fe42  1  0.00055868  -0.00089195  0.50017124  1
  Fe  Fe43  1  0.37466775  0.13190504  0.62530564  1
  Fe  Fe44  1  0.74994525  0.50134936  0.50124391  1
  Fe  Fe45  1  0.62289973  0.12362892  0.12504003  1
  Fe  Fe46  1  0.37453353  0.87292590  0.12062779  1
  Fe  Fe47  1  0.00160322  0.74696173  0.75036477  1
  Fe  Fe48  1  0.25149766  0.00255465  0.00004779  1
  Fe  Fe49  1  0.00171069  0.74791759  0.00131133  1
  Fe  Fe50  1  0.75240321  0.50185640  0.24861156  1
  Fe  Fe51  1  0.12768269  0.62308477  0.62539215  1
  Fe  Fe52  1  0.00282665  0.74736869  0.49973645  1
  Fe  Fe53  1  0.62193135  0.87488905  0.87773396  1
  Fe  Fe54  1  0.49931217  -0.00308406  0.24656346  1
  Fe  Fe55  1  0.87593482  0.37762638  0.37413891  1
  Fe  Fe56  1  0.62407944  0.12636545  0.62499017  1
  Fe  Fe57  1  0.49601411  0.50234586  0.24750583  1
  Fe  Fe58  1  -0.00005651  0.00001434  0.00215169  1
  Fe  Fe59  1  0.37456723  0.12415968  0.37361038  1
  Fe  Fe60  1  0.87727130  0.37959830  0.62625569  1
  Fe  Fe61  1  0.24913289  -0.00149781  0.24858614  1
  Fe  Fe62  1  0.25165689  0.49931903  0.00185173  1
  Fe  Fe63  1  0.12501058  0.62070176  0.87725213  1
  Fe  Fe64  1  0.37530834  0.87269930  0.87720951  1
  Fe  Fe65  1  0.62285738  0.62270746  0.87412448  1
  Fe  Fe66  1  0.87493125  0.12823652  0.12516495  1
  Fe  Fe67  1  0.62560730  0.37528313  0.12660863  1
  Fe  Fe68  1  0.00101288  -0.00219609  0.24742515  1
  Fe  Fe69  1  0.12382729  0.12377829  0.37535396  1
  Fe  Fe70  1  0.49723796  0.74694551  0.50060160  1
  Fe  Fe71  1  0.87107123  0.87033633  0.12572472  1
  Fe  Fe72  1  0.74992203  -0.00121681  0.74951197  1
  Fe  Fe73  1  0.87714129  0.87546114  0.87454911  1
  Fe  Fe74  1  0.87496575  0.12659431  0.87475344  1
  Fe  Fe75  1  0.12529425  0.12679289  0.87493861  1
  Fe  Fe76  1  0.49820283  0.24902548  0.00085304  1
  Fe  Fe77  1  0.25599653  0.50259575  0.49894064  1
  Fe  Fe78  1  0.62421064  0.87410993  0.62418363  1
  Fe  Fe79  1  0.24999789  0.00103963  0.74951547  1
  Fe  Fe80  1  0.62650710  0.12103572  0.37467850  1
  Fe  Fe81  1  0.37789084  0.37512505  0.37733379  1
  Fe  Fe82  1  0.62358369  0.62526665  0.62636261  1
  Fe  Fe83  1  0.75040699  0.25292571  -0.00081586  1
  Fe  Fe84  1  0.74837140  0.24907347  0.25120682  1
  Fe  Fe85  1  -0.00234480  0.49704548  0.00701771  1
  Fe  Fe86  1  0.12576916  0.87416224  0.62433228  1
  Fe  Fe87  1  0.00220269  0.25439928  0.75161185  1
  Fe  Fe88  1  0.24727071  0.75015439  0.24612645  1
  Fe  Fe89  1  0.75240769  0.49927747  0.00161620  1
  Co  Co90  1  0.75037720  0.00082214  0.24645667  1
  Co  Co91  1  0.24857854  0.24970805  0.49534902  1
  Co  Co92  1  -0.00123617  0.25157189  0.49852341  1
  Co  Co93  1  0.49980901  0.75035964  0.75145371  1
  Co  Co94  1  0.37326826  0.12711694  0.12743902  1
  Co  Co95  1  0.37130129  0.62721089  0.12514277  1
  Co  Co96  1  0.00487469  0.49945598  0.74817369  1
  Co  Co97  1  0.75077849  0.00006111  0.50194515  1
  Co  Co98  1  0.12690194  0.62068835  0.12570780  1
  Co  Co99  1  0.75041247  0.74807087  -0.00630914  1
  Co  Co100  1  0.37424263  0.62934760  0.37125008  1
  Co  Co101  1  0.12413356  0.37767257  0.87924770  1
  Co  Co102  1  0.50239974  0.24654535  0.49468636  1
  Co  Co103  1  0.24880316  0.74667380  0.50103440  1
  Co  Co104  1  0.62809098  0.87195824  0.12345891  1
  Co  Co105  1  0.50029792  0.25247779  0.75300587  1
  Co  Co106  1  0.13019371  0.37467918  0.12684706  1
  Co  Co107  1  0.49508850  0.50550169  0.50154698  1
  Co  Co108  1  0.37711797  0.36930502  0.61991930  1
  Co  Co109  1  0.25039698  0.24996681  -0.00266792  1
  Co  Co110  1  0.74876173  0.74773660  0.25511914  1
  Co  Co111  1  0.37371355  0.62706226  0.62961852  1
  Co  Co112  1  0.12650729  0.87549562  0.12160459  1
  Co  Co113  1  0.24800780  0.74753124  -0.00133024  1
  Co  Co114  1  0.74578295  0.49835618  0.74824018  1
  Co  Co115  1  0.87213044  0.37255552  0.12800639  1
  Co  Co116  1  0.24884036  0.25561495  0.75228130  1
  Co  Co117  1  0.87424898  0.62438574  0.62673864  1
  Co  Co118  1  0.87570668  0.37853711  0.87264000  1
  Co  Co119  1  0.00082082  0.50325060  0.50025594  1
  Co  Co120  1  0.24973651  0.25117658  0.25565938  1
  Co  Co121  1  0.87308556  0.62864207  0.12565572  1
  Co  Co122  1  0.37730003  0.37577570  0.87885213  1
  Co  Co123  1  0.25426607  0.49865812  0.25165774  1
  Co  Co124  1  0.12692985  0.87459376  0.37554009  1
  Co  Co125  1  0.49826240  0.00110244  0.00065342  1
  Co  Co126  1  0.50055253  0.74668193  0.00120785  1
  Co  Co127  1  -0.00124291  0.49943542  0.24520050  1
