# generated using pymatgen
data_Fe45Co19
_symmetry_space_group_name_H-M   'P 1'
_cell_length_a   11.41477675
_cell_length_b   11.41670435
_cell_length_c   11.41449195
_cell_angle_alpha   90.00671649
_cell_angle_beta   90.00935909
_cell_angle_gamma   89.99429602
_symmetry_Int_Tables_number   1
_chemical_formula_structural   Fe45Co19
_chemical_formula_sum   'Fe90 Co38'
_cell_volume   1487.52663838
_cell_formula_units_Z   2
loop_
 _symmetry_equiv_pos_site_id
 _symmetry_equiv_pos_as_xyz
  1  'x, y, z'
loop_
 _atom_site_type_symbol
 _atom_site_label
 _atom_site_symmetry_multiplicity
 _atom_site_fract_x
 _atom_site_fract_y
 _atom_site_fract_z
 _atom_site_occupancy
  Fe  Fe0  1  0.37601212  0.62479737  0.62633088  1
  Fe  Fe1  1  0.12602992  0.87174153  0.87832736  1
  Fe  Fe2  1  0.49968618  0.24938091  -0.00036601  1
  Fe  Fe3  1  0.12699257  0.37679256  0.62355462  1
  Fe  Fe4  1  0.25092905  -0.00209290  0.75279445  1
  Fe  Fe5  1  0.12657707  0.37652304  0.87833864  1
  Fe  Fe6  1  0.00012777  0.50149217  0.50085744  1
  Fe  Fe7  1  0.00473464  -0.00107631  0.24882442  1
  Fe  Fe8  1  0.49941549  0.75209860  0.49801432  1
  Fe  Fe9  1  0.74875742  0.50009880  0.25215775  1
  Fe  Fe10  1  0.37443036  0.62646003  0.37234958  1
  Fe  Fe11  1  0.12346562  0.37588754  0.37480156  1
  Fe  Fe12  1  0.87468938  0.12606354  0.87448352  1
  Fe  Fe13  1  0.50168768  0.50122952  0.75192524  1
  Fe  Fe14  1  0.12339402  0.62692516  0.62923963  1
  Fe  Fe15  1  0.74931645  0.24923983  0.74972348  1
  Fe  Fe16  1  0.50278777  0.49779322  0.25349499  1
  Fe  Fe17  1  0.62777119  0.63020936  0.87684081  1
  Fe  Fe18  1  0.87577960  0.12376313  0.62565543  1
  Fe  Fe19  1  -0.00285561  -0.00255893  -0.00127415  1
  Fe  Fe20  1  0.74898166  -0.00206896  0.24801919  1
  Fe  Fe21  1  0.49955454  0.49974784  0.49677771  1
  Fe  Fe22  1  0.37403005  0.12455681  0.62525127  1
  Fe  Fe23  1  0.87766733  0.37514461  0.37162144  1
  Fe  Fe24  1  0.74996418  0.74956417  0.50081113  1
  Fe  Fe25  1  0.86738975  0.87351797  0.87170656  1
  Fe  Fe26  1  0.62608191  0.12443911  0.12237251  1
  Fe  Fe27  1  0.37352158  0.37660735  0.62559332  1
  Fe  Fe28  1  0.50133152  0.00045946  0.24999756  1
  Fe  Fe29  1  0.62826655  0.12287690  0.87867109  1
  Fe  Fe30  1  0.62684724  0.37598177  0.12221524  1
  Fe  Fe31  1  0.87582919  0.12353522  0.37463173  1
  Fe  Fe32  1  0.62320244  0.62492864  0.62166147  1
  Fe  Fe33  1  0.37452159  0.37834073  0.12295060  1
  Fe  Fe34  1  0.38042693  0.87096695  0.87722040  1
  Fe  Fe35  1  0.87466749  0.62711139  0.37402224  1
  Fe  Fe36  1  0.24925803  0.25073919  0.75013116  1
  Fe  Fe37  1  0.62461458  0.12612844  0.62244697  1
  Fe  Fe38  1  0.75029469  -0.00018974  0.49977582  1
  Fe  Fe39  1  0.00025841  0.25018406  0.50021772  1
  Fe  Fe40  1  0.74989995  0.25059297  0.24946900  1
  Fe  Fe41  1  0.50012261  0.25158604  0.25024043  1
  Fe  Fe42  1  0.00381972  0.74915730  0.24966758  1
  Fe  Fe43  1  0.24941638  0.50145003  0.75354531  1
  Fe  Fe44  1  0.12350035  0.62341604  0.11914257  1
  Fe  Fe45  1  0.12661415  0.12234999  0.62613531  1
  Fe  Fe46  1  -0.00028708  -0.00469302  0.75038666  1
  Fe  Fe47  1  0.37411021  0.12706935  0.87499884  1
  Fe  Fe48  1  0.75083164  0.50005859  0.49855383  1
  Fe  Fe49  1  -0.00602322  0.74774172  -0.00437106  1
  Fe  Fe50  1  0.25057180  0.25255261  0.00070537  1
  Fe  Fe51  1  0.12739376  0.12272926  0.37682037  1
  Fe  Fe52  1  0.12282587  0.12574877  0.12074273  1
  Fe  Fe53  1  0.62177766  0.87581996  0.11817425  1
  Fe  Fe54  1  0.00266828  -0.00475821  0.50205655  1
  Fe  Fe55  1  0.24724679  0.25034653  0.24819236  1
  Fe  Fe56  1  0.87578652  0.12551951  0.12511419  1
  Fe  Fe57  1  0.87687946  0.62389010  0.63101110  1
  Fe  Fe58  1  0.00137577  0.25239182  0.75048040  1
  Fe  Fe59  1  0.24637830  0.50199416  0.24887764  1
  Fe  Fe60  1  0.49746052  0.50350581  -0.00269062  1
  Fe  Fe61  1  0.87572042  0.87423965  0.37465216  1
  Fe  Fe62  1  0.37106152  0.37593579  0.37602363  1
  Fe  Fe63  1  0.50182455  0.75053472  0.24920986  1
  Fe  Fe64  1  0.87451823  0.37717442  0.62863921  1
  Fe  Fe65  1  0.36932289  0.87546684  0.36905917  1
  Fe  Fe66  1  0.74758617  0.75162966  0.24840460  1
  Fe  Fe67  1  0.37095073  0.12264353  0.37385408  1
  Fe  Fe68  1  0.50246093  -0.00158805  0.75356898  1
  Fe  Fe69  1  0.62668952  0.87595333  0.62586999  1
  Fe  Fe70  1  0.62775611  0.37467367  0.87754429  1
  Fe  Fe71  1  0.00087621  0.75303509  0.50335040  1
  Fe  Fe72  1  0.24957815  0.75088522  0.50049949  1
  Fe  Fe73  1  0.50070673  0.25026037  0.75149765  1
  Fe  Fe74  1  0.37483149  0.87465547  0.62685301  1
  Fe  Fe75  1  0.25652073  0.74622830  0.00429279  1
  Fe  Fe76  1  0.12441781  0.62675042  0.37615882  1
  Fe  Fe77  1  -0.00456027  0.25515524  0.00075280  1
  Fe  Fe78  1  0.25020349  0.74947226  0.75189591  1
  Fe  Fe79  1  0.62569778  0.37383870  0.62206769  1
  Fe  Fe80  1  0.62582143  0.12685287  0.37636942  1
  Fe  Fe81  1  0.12363853  0.12441201  0.87624665  1
  Fe  Fe82  1  0.87719015  0.87433566  0.12635368  1
  Fe  Fe83  1  0.37528646  0.12412166  0.12526453  1
  Fe  Fe84  1  0.49690143  0.25082635  0.49826252  1
  Fe  Fe85  1  -0.00579605  0.49867579  -0.00208029  1
  Fe  Fe86  1  0.62495552  0.62366146  0.12520575  1
  Fe  Fe87  1  0.87393850  0.62373296  0.12687313  1
  Fe  Fe88  1  0.25267668  -0.00227730  0.00198560  1
  Fe  Fe89  1  0.49835391  -0.00183095  0.49796276  1
  Co  Co90  1  0.37736832  0.62054948  0.13086747  1
  Co  Co91  1  0.12218157  0.87146062  0.11918985  1
  Co  Co92  1  0.37558390  0.37425527  0.87447833  1
  Co  Co93  1  0.49745272  0.00214740  -0.00229485  1
  Co  Co94  1  0.00441664  0.49872879  0.75309956  1
  Co  Co95  1  0.62693974  0.37283158  0.37752344  1
  Co  Co96  1  0.87096804  0.37720360  0.87054709  1
  Co  Co97  1  0.75459521  0.25069288  0.50004339  1
  Co  Co98  1  0.00261587  0.24711684  0.24975701  1
  Co  Co99  1  -0.00199357  0.75313218  0.75237907  1
  Co  Co100  1  0.24467222  -0.00035663  0.24321753  1
  Co  Co101  1  0.75332030  -0.00135133  0.00165487  1
  Co  Co102  1  0.12683773  0.87411700  0.37376620  1
  Co  Co103  1  0.24885310  0.50389584  0.49973998  1
  Co  Co104  1  0.74815291  0.00206497  0.75032108  1
  Co  Co105  1  0.25029365  -0.00316512  0.50205246  1
  Co  Co106  1  0.24970815  0.24951047  0.50054393  1
  Co  Co107  1  0.87471083  0.37652610  0.13004339  1
  Co  Co108  1  0.87186955  0.87521167  0.62517268  1
  Co  Co109  1  0.37642848  0.62733457  0.87095483  1
  Co  Co110  1  0.75389868  0.25080332  0.00143185  1
  Co  Co111  1  0.62588647  0.87199771  0.87900267  1
  Co  Co112  1  0.74823900  0.74840835  0.74735604  1
  Co  Co113  1  0.87265369  0.62197081  0.86865769  1
  Co  Co114  1  0.12698575  0.87399308  0.62883164  1
  Co  Co115  1  0.12443392  0.62731889  0.87758219  1
  Co  Co116  1  0.75294913  0.50224633  0.00045903  1
  Co  Co117  1  0.74389270  0.50141169  0.74907767  1
  Co  Co118  1  0.25399754  0.50288315  -0.00219850  1
  Co  Co119  1  0.37795089  0.87640291  0.12765291  1
  Co  Co120  1  0.00169622  0.50444463  0.24952531  1
  Co  Co121  1  0.24579734  0.74751574  0.24448902  1
  Co  Co122  1  0.12374328  0.37772574  0.12398889  1
  Co  Co123  1  0.75293337  0.74884470  0.00261635  1
  Co  Co124  1  0.49680845  0.74496289  0.00330709  1
  Co  Co125  1  0.50360847  0.75042559  0.74814744  1
  Co  Co126  1  0.62504165  0.62665641  0.37547369  1
  Co  Co127  1  0.62657057  0.87481734  0.37548152  1
