# generated using pymatgen
data_Fe45Co19
_symmetry_space_group_name_H-M   'P 1'
_cell_length_a   11.42263915
_cell_length_b   11.42232600
_cell_length_c   11.42277219
_cell_angle_alpha   90.00374671
_cell_angle_beta   89.99933018
_cell_angle_gamma   90.00471466
_symmetry_Int_Tables_number   1
_chemical_formula_structural   Fe45Co19
_chemical_formula_sum   'Fe90 Co38'
_cell_volume   1490.36458169
_cell_formula_units_Z   2
loop_
 _symmetry_equiv_pos_site_id
 _symmetry_equiv_pos_as_xyz
  1  'x, y, z'
loop_
 _atom_site_type_symbol
 _atom_site_label
 _atom_site_symmetry_multiplicity
 _atom_site_fract_x
 _atom_site_fract_y
 _atom_site_fract_z
 _atom_site_occupancy
  Fe  Fe0  1  0.00147739  0.24977862  -0.00198618  1
  Fe  Fe1  1  0.87601134  0.87760437  0.12613877  1
  Fe  Fe2  1  0.49931972  0.75039050  -0.00017955  1
  Fe  Fe3  1  0.25073377  0.49781045  0.49949416  1
  Fe  Fe4  1  0.12383619  0.62263754  0.37519278  1
  Fe  Fe5  1  0.25052289  0.75045834  0.74960177  1
  Fe  Fe6  1  0.87568033  0.87698136  0.37581740  1
  Fe  Fe7  1  0.12660420  0.37270408  0.12450723  1
  Fe  Fe8  1  0.37347221  0.62356404  0.12476051  1
  Fe  Fe9  1  0.62371377  0.37420275  0.62503439  1
  Fe  Fe10  1  0.37433908  0.36783302  0.37389787  1
  Fe  Fe11  1  0.12630950  0.62580330  0.12506522  1
  Fe  Fe12  1  0.87532694  0.37177026  0.62349539  1
  Fe  Fe13  1  0.49952517  0.49523487  0.24902019  1
  Fe  Fe14  1  0.87789799  0.62367649  0.87158273  1
  Fe  Fe15  1  -0.00240948  -0.00082027  0.74673201  1
  Fe  Fe16  1  0.62526327  0.87855758  0.62549423  1
  Fe  Fe17  1  0.37116083  0.62326664  0.87651754  1
  Fe  Fe18  1  0.62627499  0.12488265  0.12604114  1
  Fe  Fe19  1  0.00070777  0.75070578  0.25004060  1
  Fe  Fe20  1  0.12521980  0.62372710  0.62768852  1
  Fe  Fe21  1  0.12695371  0.12520362  0.37856898  1
  Fe  Fe22  1  0.12648656  0.12513990  0.87425966  1
  Fe  Fe23  1  0.12635737  0.87638367  0.62266139  1
  Fe  Fe24  1  0.49739816  0.00383152  -0.00107661  1
  Fe  Fe25  1  0.00016950  0.00141867  -0.00078815  1
  Fe  Fe26  1  0.12367225  0.12440671  0.62377345  1
  Fe  Fe27  1  0.49803049  0.24979997  0.00352311  1
  Fe  Fe28  1  0.12455111  0.37503489  0.62296374  1
  Fe  Fe29  1  0.24896503  0.49712622  0.25135910  1
  Fe  Fe30  1  0.75016051  0.74861871  0.49936024  1
  Fe  Fe31  1  0.62635373  0.87915484  0.37484626  1
  Fe  Fe32  1  0.74908305  0.24815618  0.74903596  1
  Fe  Fe33  1  0.00085051  0.74958273  0.50160256  1
  Fe  Fe34  1  0.75037831  0.74994079  -0.00047767  1
  Fe  Fe35  1  0.00009968  0.00270494  0.25231468  1
  Fe  Fe36  1  0.87594450  0.12552413  0.87321863  1
  Fe  Fe37  1  0.75036711  0.49889918  0.50096622  1
  Fe  Fe38  1  0.62477843  0.87914767  0.87395615  1
  Fe  Fe39  1  0.37242643  0.87739925  0.12448202  1
  Fe  Fe40  1  0.49783980  0.49869052  0.75080036  1
  Fe  Fe41  1  0.87849843  0.37323956  0.37741511  1
  Fe  Fe42  1  0.75198511  0.24773032  0.25102102  1
  Fe  Fe43  1  0.37474165  0.62456219  0.62330786  1
  Fe  Fe44  1  0.37103922  0.37279019  0.87652256  1
  Fe  Fe45  1  0.87678195  0.62372825  0.12468978  1
  Fe  Fe46  1  0.62417090  0.62381244  0.87316745  1
  Fe  Fe47  1  0.62212765  0.12343424  0.62681953  1
  Fe  Fe48  1  0.12509915  0.12429858  0.12374628  1
  Fe  Fe49  1  0.49982017  0.49642263  0.00190164  1
  Fe  Fe50  1  0.75204309  0.00276121  -0.00017084  1
  Fe  Fe51  1  0.37536106  0.62493969  0.37558051  1
  Fe  Fe52  1  0.74965349  0.49917349  -0.00132656  1
  Fe  Fe53  1  0.12509378  0.87636930  0.37815387  1
  Fe  Fe54  1  0.37251946  0.87805775  0.37729281  1
  Fe  Fe55  1  0.25272414  0.00317603  0.74904588  1
  Fe  Fe56  1  0.87471280  0.37405539  0.87331775  1
  Fe  Fe57  1  0.49855235  0.75298301  0.25060903  1
  Fe  Fe58  1  0.62510844  0.87790490  0.12571933  1
  Fe  Fe59  1  0.37075710  0.12585336  0.12914341  1
  Fe  Fe60  1  0.50020312  0.75246734  0.49949386  1
  Fe  Fe61  1  0.00441252  0.49828374  -0.00333301  1
  Fe  Fe62  1  0.87629872  0.37323887  0.12477215  1
  Fe  Fe63  1  0.00172800  0.25097553  0.75027830  1
  Fe  Fe64  1  0.62459943  0.37203703  0.37482797  1
  Fe  Fe65  1  0.49799762  0.24697272  0.75104621  1
  Fe  Fe66  1  0.24979446  0.75176683  0.25146225  1
  Fe  Fe67  1  0.00283406  0.24996819  0.25181457  1
  Fe  Fe68  1  0.62169671  0.12473089  0.37404707  1
  Fe  Fe69  1  0.75116887  0.24816784  -0.00010948  1
  Fe  Fe70  1  0.87499271  0.87640875  0.87348013  1
  Fe  Fe71  1  0.62289161  0.62425684  0.37416828  1
  Fe  Fe72  1  0.75049373  0.75087688  0.25000043  1
  Fe  Fe73  1  0.12573432  0.87708653  0.12460124  1
  Fe  Fe74  1  0.00203546  0.75046037  -0.00222246  1
  Fe  Fe75  1  0.12680016  0.87670823  0.87478040  1
  Fe  Fe76  1  0.87764790  0.62309495  0.37359289  1
  Fe  Fe77  1  0.74973458  0.75129485  0.74959051  1
  Fe  Fe78  1  0.25036919  0.24861768  0.74726638  1
  Fe  Fe79  1  0.37333235  0.87706944  0.87594729  1
  Fe  Fe80  1  0.37571209  0.37266271  0.62467295  1
  Fe  Fe81  1  0.49830310  0.75161287  0.74996697  1
  Fe  Fe82  1  0.62432012  0.37265832  0.87499507  1
  Fe  Fe83  1  0.62280099  0.62381832  0.62519168  1
  Fe  Fe84  1  0.37419299  0.87684322  0.62329004  1
  Fe  Fe85  1  0.75111727  0.49760512  0.25055677  1
  Fe  Fe86  1  0.75424072  0.00505680  0.50138451  1
  Fe  Fe87  1  0.87687378  0.62447294  0.62830094  1
  Fe  Fe88  1  0.62425983  0.62419550  0.12675884  1
  Fe  Fe89  1  0.49893465  0.49668677  0.49868813  1
  Co  Co90  1  0.24600320  0.49833628  0.00016796  1
  Co  Co91  1  0.24819486  0.00047466  0.25232010  1
  Co  Co92  1  0.12309806  0.37682806  0.37761635  1
  Co  Co93  1  0.87801637  0.12652208  0.12499927  1
  Co  Co94  1  0.62852929  0.37300937  0.12505690  1
  Co  Co95  1  0.74959399  0.49805420  0.74888074  1
  Co  Co96  1  0.50075521  0.24863886  0.50108336  1
  Co  Co97  1  0.75255010  0.00354398  0.25069516  1
  Co  Co98  1  0.49710643  0.00037749  0.25042034  1
  Co  Co99  1  -0.00140472  0.00119229  0.50097638  1
  Co  Co100  1  0.49817096  0.00118142  0.49961035  1
  Co  Co101  1  0.37597006  0.12592879  0.62191483  1
  Co  Co102  1  0.62485004  0.12598167  0.87548638  1
  Co  Co103  1  0.24872218  0.74826637  0.49955635  1
  Co  Co104  1  0.87770148  0.12826054  0.37695574  1
  Co  Co105  1  0.25096365  0.00394943  0.50072793  1
  Co  Co106  1  0.00154860  0.49770003  0.24714030  1
  Co  Co107  1  0.12938686  0.37114590  0.87386489  1
  Co  Co108  1  0.00191052  0.49507359  0.75100940  1
  Co  Co109  1  0.24878245  0.25013106  0.50170469  1
  Co  Co110  1  0.87365310  0.87426409  0.62278468  1
  Co  Co111  1  0.49635518  0.00168468  0.75164306  1
  Co  Co112  1  0.37219631  0.12781619  0.87531314  1
  Co  Co113  1  0.50057118  0.24930792  0.24684931  1
  Co  Co114  1  0.24978744  0.00225145  -0.00053208  1
  Co  Co115  1  0.87836700  0.13013289  0.62503273  1
  Co  Co116  1  0.74710274  0.24746385  0.50003956  1
  Co  Co117  1  0.37492906  0.12825988  0.37477180  1
  Co  Co118  1  0.24892623  0.75116433  0.00009969  1
  Co  Co119  1  -0.00048921  0.50066550  0.50288419  1
  Co  Co120  1  0.24537224  0.24941364  0.25174803  1
  Co  Co121  1  0.12646829  0.62603295  0.87128369  1
  Co  Co122  1  0.00170483  0.75423815  0.74940076  1
  Co  Co123  1  0.25016554  0.49763288  0.74853472  1
  Co  Co124  1  0.37052544  0.37394837  0.12593293  1
  Co  Co125  1  0.24965928  0.24765389  0.00133752  1
  Co  Co126  1  0.00342874  0.24857918  0.49939250  1
  Co  Co127  1  0.75266201  0.00257192  0.74872228  1
