# generated using pymatgen
data_Fe45Co19
_symmetry_space_group_name_H-M   'P 1'
_cell_length_a   11.41830144
_cell_length_b   11.41514473
_cell_length_c   11.41668463
_cell_angle_alpha   90.00106272
_cell_angle_beta   90.00899410
_cell_angle_gamma   90.00257811
_symmetry_Int_Tables_number   1
_chemical_formula_structural   Fe45Co19
_chemical_formula_sum   'Fe90 Co38'
_cell_volume   1488.06850406
_cell_formula_units_Z   2
loop_
 _symmetry_equiv_pos_site_id
 _symmetry_equiv_pos_as_xyz
  1  'x, y, z'
loop_
 _atom_site_type_symbol
 _atom_site_label
 _atom_site_symmetry_multiplicity
 _atom_site_fract_x
 _atom_site_fract_y
 _atom_site_fract_z
 _atom_site_occupancy
  Fe  Fe0  1  0.62594610  0.12527483  0.12514327  1
  Fe  Fe1  1  0.25451328  0.74761548  -0.00296362  1
  Fe  Fe2  1  0.24674906  0.50279039  0.74893075  1
  Fe  Fe3  1  0.37353026  0.87176984  0.62952365  1
  Fe  Fe4  1  0.74985428  0.75116762  0.25208312  1
  Fe  Fe5  1  0.12615016  0.87644795  0.87911255  1
  Fe  Fe6  1  0.87854840  0.37327299  0.62631402  1
  Fe  Fe7  1  0.87712197  0.38000084  0.87146198  1
  Fe  Fe8  1  0.12320450  0.37884882  0.87709430  1
  Fe  Fe9  1  0.12411697  0.37211617  0.62631102  1
  Fe  Fe10  1  0.24950537  0.24867116  -0.00039782  1
  Fe  Fe11  1  0.49534226  0.50117508  0.50207994  1
  Fe  Fe12  1  0.37201246  0.37223388  0.62464135  1
  Fe  Fe13  1  0.49853143  0.24958053  0.75040167  1
  Fe  Fe14  1  -0.00085014  0.25078321  -0.00087511  1
  Fe  Fe15  1  0.62441865  0.37332529  0.62419355  1
  Fe  Fe16  1  0.24860821  0.24904595  0.75315321  1
  Fe  Fe17  1  0.12390358  0.12272209  0.87626342  1
  Fe  Fe18  1  0.25234485  0.49957174  0.24694030  1
  Fe  Fe19  1  0.62403530  0.62517502  0.12583930  1
  Fe  Fe20  1  0.75162251  -0.00070716  0.49998355  1
  Fe  Fe21  1  0.00240996  0.25224137  0.25086563  1
  Fe  Fe22  1  0.49833884  0.75109792  0.49945689  1
  Fe  Fe23  1  0.87609648  0.87287330  0.62563794  1
  Fe  Fe24  1  0.75070488  0.24949473  0.74997170  1
  Fe  Fe25  1  0.87691612  0.12673229  0.37629693  1
  Fe  Fe26  1  0.75012194  0.74973938  0.49805255  1
  Fe  Fe27  1  0.00507240  0.74600599  0.75221143  1
  Fe  Fe28  1  0.12914563  0.62808824  0.37596020  1
  Fe  Fe29  1  0.24677853  0.24664102  0.49608706  1
  Fe  Fe30  1  0.87506752  0.12454905  0.12420673  1
  Fe  Fe31  1  0.49817697  0.24966573  0.49755906  1
  Fe  Fe32  1  0.25680221  0.50265427  0.00233032  1
  Fe  Fe33  1  0.24995163  -0.00139078  0.75095350  1
  Fe  Fe34  1  0.75192476  0.25100231  -0.00054767  1
  Fe  Fe35  1  0.25163825  0.50257932  0.50167680  1
  Fe  Fe36  1  0.00136969  0.50029011  0.49990215  1
  Fe  Fe37  1  0.49965683  0.75225805  0.25170319  1
  Fe  Fe38  1  0.37401265  0.62928966  0.63175838  1
  Fe  Fe39  1  0.12427573  0.12511733  0.12501290  1
  Fe  Fe40  1  0.87498601  0.87559635  0.87454518  1
  Fe  Fe41  1  0.00167245  0.74976114  0.25055185  1
  Fe  Fe42  1  0.50017884  0.24910657  -0.00050559  1
  Fe  Fe43  1  0.87413011  0.62290622  0.37179346  1
  Fe  Fe44  1  0.37296006  0.62812049  0.37210837  1
  Fe  Fe45  1  0.62346942  0.62437297  0.37461248  1
  Fe  Fe46  1  0.62421308  0.12403611  0.37525148  1
  Fe  Fe47  1  0.87426195  0.87360105  0.12372144  1
  Fe  Fe48  1  0.62535839  0.87452619  0.12370242  1
  Fe  Fe49  1  0.49824180  0.74889633  -0.00411954  1
  Fe  Fe50  1  0.37487111  0.87375204  0.12336403  1
  Fe  Fe51  1  0.62280353  0.88185296  0.87486611  1
  Fe  Fe52  1  0.62229662  0.61994895  0.87229238  1
  Fe  Fe53  1  0.49912116  -0.00201690  0.25070939  1
  Fe  Fe54  1  0.12787697  0.37603905  0.37512247  1
  Fe  Fe55  1  0.37619865  0.12114096  0.87584132  1
  Fe  Fe56  1  0.74845218  0.25163160  0.25143278  1
  Fe  Fe57  1  0.37226673  0.12597754  0.62430202  1
  Fe  Fe58  1  0.87754395  0.12865897  0.62350575  1
  Fe  Fe59  1  0.12432442  0.62404684  0.12293118  1
  Fe  Fe60  1  0.00273585  0.00036780  0.49909484  1
  Fe  Fe61  1  0.75062350  0.74782985  -0.00199238  1
  Fe  Fe62  1  0.62366886  0.37555388  0.12310355  1
  Fe  Fe63  1  0.62516902  0.12132913  0.87502524  1
  Fe  Fe64  1  0.37475375  0.12938803  0.12877565  1
  Fe  Fe65  1  0.62495331  0.87638253  0.62451182  1
  Fe  Fe66  1  0.87519652  0.37575020  0.37453480  1
  Fe  Fe67  1  0.62350704  0.37688477  0.37710941  1
  Fe  Fe68  1  0.87560036  0.62452391  0.62811854  1
  Fe  Fe69  1  0.87481950  0.12229532  0.87611033  1
  Fe  Fe70  1  0.12621851  0.87265285  0.62332888  1
  Fe  Fe71  1  0.00051458  -0.00337144  0.25049516  1
  Fe  Fe72  1  0.75235639  0.50286471  0.00172191  1
  Fe  Fe73  1  0.12522975  0.87438193  0.12151915  1
  Fe  Fe74  1  0.74725508  0.75074550  0.75092539  1
  Fe  Fe75  1  0.75064958  0.49962941  0.50133312  1
  Fe  Fe76  1  -0.00039217  0.74876389  0.49776479  1
  Fe  Fe77  1  0.87611838  0.37931207  0.12827698  1
  Fe  Fe78  1  0.62361282  0.62514321  0.62608629  1
  Fe  Fe79  1  0.75107477  -0.00223894  0.25073439  1
  Fe  Fe80  1  0.62486878  0.12503455  0.62494846  1
  Fe  Fe81  1  0.24994333  -0.00070573  0.49687486  1
  Fe  Fe82  1  0.49674186  0.49692208  0.24812147  1
  Fe  Fe83  1  -0.00351983  0.74546235  -0.00078670  1
  Fe  Fe84  1  0.12505813  0.37657221  0.12241255  1
  Fe  Fe85  1  0.49633781  -0.00227062  0.49851807  1
  Fe  Fe86  1  0.62359539  0.37763198  0.87518346  1
  Fe  Fe87  1  0.37635538  0.37813238  0.87537996  1
  Fe  Fe88  1  0.00075569  0.00060577  0.74932812  1
  Fe  Fe89  1  0.24901899  -0.00215136  0.25075377  1
  Co  Co90  1  0.37779512  0.62257357  0.86893863  1
  Co  Co91  1  0.49790010  0.00121912  0.74652207  1
  Co  Co92  1  0.00550150  0.50374835  0.74735017  1
  Co  Co93  1  0.74912476  0.25122893  0.49893753  1
  Co  Co94  1  0.12583268  0.62099252  0.88079893  1
  Co  Co95  1  0.00466961  0.25109484  0.49806907  1
  Co  Co96  1  0.49854621  0.00127032  0.00435826  1
  Co  Co97  1  0.25194202  0.00165882  0.00260206  1
  Co  Co98  1  0.37281767  0.37378661  0.37618911  1
  Co  Co99  1  0.37782226  0.62823279  0.12736672  1
  Co  Co100  1  0.24493846  0.74921264  0.75527495  1
  Co  Co101  1  0.12667593  0.87169164  0.37674687  1
  Co  Co102  1  0.37564031  0.87704438  0.87467878  1
  Co  Co103  1  0.49702069  0.50155778  0.00316492  1
  Co  Co104  1  0.25374690  0.75093412  0.50191892  1
  Co  Co105  1  0.74809372  0.49864514  0.74633934  1
  Co  Co106  1  -0.00555340  0.50280645  0.00136394  1
  Co  Co107  1  0.62542441  0.87556044  0.37666300  1
  Co  Co108  1  0.24775995  0.75101494  0.24538617  1
  Co  Co109  1  0.12655672  0.12551374  0.62661571  1
  Co  Co110  1  0.75049701  -0.00126111  0.00161952  1
  Co  Co111  1  0.50321927  0.75311687  0.75293195  1
  Co  Co112  1  0.49923348  0.49625180  0.74484206  1
  Co  Co113  1  0.12385589  0.12340868  0.37221235  1
  Co  Co114  1  0.37511081  0.36947698  0.12374976  1
  Co  Co115  1  0.37512938  0.12613018  0.37226926  1
  Co  Co116  1  0.50255147  0.25348447  0.25160099  1
  Co  Co117  1  0.00513115  0.50134584  0.25198317  1
  Co  Co118  1  0.87407785  0.62465399  0.13033875  1
  Co  Co119  1  0.87390206  0.62297530  0.86963366  1
  Co  Co120  1  0.00145359  0.24838288  0.75311308  1
  Co  Co121  1  0.87559716  0.87497972  0.37601549  1
  Co  Co122  1  0.37215001  0.87199068  0.37287042  1
  Co  Co123  1  0.12562872  0.62841023  0.62081985  1
  Co  Co124  1  -0.00099859  -0.00003759  0.00112276  1
  Co  Co125  1  0.24703646  0.25194010  0.25049438  1
  Co  Co126  1  0.74613070  0.49911096  0.25018122  1
  Co  Co127  1  0.75231912  0.00066423  0.74724521  1
