# generated using pymatgen
data_Fe45Co19
_symmetry_space_group_name_H-M   'P 1'
_cell_length_a   11.41542941
_cell_length_b   11.41523220
_cell_length_c   11.41634828
_cell_angle_alpha   89.98951261
_cell_angle_beta   90.00324377
_cell_angle_gamma   90.00386343
_symmetry_Int_Tables_number   1
_chemical_formula_structural   Fe45Co19
_chemical_formula_sum   'Fe90 Co38'
_cell_volume   1487.66177264
_cell_formula_units_Z   2
loop_
 _symmetry_equiv_pos_site_id
 _symmetry_equiv_pos_as_xyz
  1  'x, y, z'
loop_
 _atom_site_type_symbol
 _atom_site_label
 _atom_site_symmetry_multiplicity
 _atom_site_fract_x
 _atom_site_fract_y
 _atom_site_fract_z
 _atom_site_occupancy
  Fe  Fe0  1  0.49927696  0.74997510  0.25124680  1
  Fe  Fe1  1  0.74479375  0.74424512  0.50104217  1
  Fe  Fe2  1  0.62526006  0.87528963  0.12455055  1
  Fe  Fe3  1  0.00044129  0.25090419  0.24942285  1
  Fe  Fe4  1  0.87582171  0.12629760  0.62357736  1
  Fe  Fe5  1  0.62491146  0.37785494  0.37457173  1
  Fe  Fe6  1  0.24717890  0.00161238  0.24414543  1
  Fe  Fe7  1  0.74996483  0.75211827  -0.00044890  1
  Fe  Fe8  1  0.24923938  0.74882193  0.25269538  1
  Fe  Fe9  1  0.87561478  0.37492354  0.12385794  1
  Fe  Fe10  1  0.74827682  0.00053800  0.50004295  1
  Fe  Fe11  1  0.87550568  0.12560841  0.37489779  1
  Fe  Fe12  1  0.74953309  0.25248192  0.24862736  1
  Fe  Fe13  1  0.62096778  0.87581670  0.62269806  1
  Fe  Fe14  1  0.62430745  0.87385474  0.37766303  1
  Fe  Fe15  1  0.12500144  0.62662408  0.12732996  1
  Fe  Fe16  1  0.75004583  0.75036293  0.25027524  1
  Fe  Fe17  1  0.87187976  0.12434197  0.87813374  1
  Fe  Fe18  1  0.12781454  0.62309491  0.87274684  1
  Fe  Fe19  1  0.12478247  0.62327214  0.62577998  1
  Fe  Fe20  1  0.00071284  0.74935740  0.75016096  1
  Fe  Fe21  1  0.25048495  0.74932161  -0.00054290  1
  Fe  Fe22  1  0.49674830  0.50305324  0.00050705  1
  Fe  Fe23  1  0.87556313  0.62495767  0.87547037  1
  Fe  Fe24  1  -0.00020898  0.49934967  0.25014407  1
  Fe  Fe25  1  0.49659731  0.24854859  0.75087832  1
  Fe  Fe26  1  0.37331697  0.12856201  0.37176740  1
  Fe  Fe27  1  0.75188758  -0.00251947  0.25027867  1
  Fe  Fe28  1  0.24951547  0.50029566  0.49929387  1
  Fe  Fe29  1  0.37586341  0.62566523  0.62498204  1
  Fe  Fe30  1  0.12649915  0.87725783  0.62508541  1
  Fe  Fe31  1  -0.00162393  0.25258664  -0.00249294  1
  Fe  Fe32  1  0.49995368  0.24846409  0.49796326  1
  Fe  Fe33  1  0.75133790  0.50185177  0.74845756  1
  Fe  Fe34  1  -0.00052195  -0.00486771  0.24965289  1
  Fe  Fe35  1  0.62432351  0.87587057  0.87471224  1
  Fe  Fe36  1  0.24922607  0.24492394  0.00408371  1
  Fe  Fe37  1  0.00017635  -0.00523542  0.00185005  1
  Fe  Fe38  1  -0.00124406  0.00070568  0.74984169  1
  Fe  Fe39  1  0.62285512  0.37564976  0.12506720  1
  Fe  Fe40  1  0.37321586  0.37238317  0.62206666  1
  Fe  Fe41  1  -0.00067210  0.49791822  0.49944078  1
  Fe  Fe42  1  0.62428465  0.37669108  0.62565218  1
  Fe  Fe43  1  0.49840068  0.00367887  0.74998600  1
  Fe  Fe44  1  0.00375962  0.75194546  0.49747387  1
  Fe  Fe45  1  0.49290483  0.49832374  0.24925623  1
  Fe  Fe46  1  0.87339559  0.12417883  0.12352599  1
  Fe  Fe47  1  0.12526028  0.12498721  0.37211159  1
  Fe  Fe48  1  0.87446172  0.62391413  0.37704154  1
  Fe  Fe49  1  0.50375949  0.24554189  0.00255466  1
  Fe  Fe50  1  0.37751910  0.87618070  0.62132111  1
  Fe  Fe51  1  0.12591030  0.12395951  0.87623419  1
  Fe  Fe52  1  0.00122967  0.75342687  0.25430428  1
  Fe  Fe53  1  0.49846561  0.75030585  0.75084721  1
  Fe  Fe54  1  0.62610585  0.12652983  0.37291443  1
  Fe  Fe55  1  0.87718310  0.62749756  0.12442950  1
  Fe  Fe56  1  0.12879163  0.37536217  0.37170175  1
  Fe  Fe57  1  0.00046632  0.50017609  -0.00163994  1
  Fe  Fe58  1  0.12591338  0.87555226  0.87548978  1
  Fe  Fe59  1  0.00065076  -0.00115644  0.49889231  1
  Fe  Fe60  1  0.62265740  0.62525462  0.12556541  1
  Fe  Fe61  1  0.87688218  0.37523013  0.62742646  1
  Fe  Fe62  1  0.37465093  0.87502788  0.12312576  1
  Fe  Fe63  1  0.37301372  0.37217888  0.87888180  1
  Fe  Fe64  1  0.25244308  0.50273996  0.00275725  1
  Fe  Fe65  1  0.74991737  0.74970145  0.74879859  1
  Fe  Fe66  1  0.12532397  0.37363829  0.63015044  1
  Fe  Fe67  1  0.12755536  0.37545904  0.87241088  1
  Fe  Fe68  1  0.87512038  0.87311904  0.62309015  1
  Fe  Fe69  1  0.50131802  0.00028374  0.25151302  1
  Fe  Fe70  1  0.12577460  0.12649353  0.62710353  1
  Fe  Fe71  1  0.50099834  0.50302093  0.49846309  1
  Fe  Fe72  1  0.75055084  -0.00095910  0.74982745  1
  Fe  Fe73  1  0.12656012  0.37569170  0.12567711  1
  Fe  Fe74  1  0.25138559  0.75026542  0.74945964  1
  Fe  Fe75  1  0.25109733  0.00356464  0.50045404  1
  Fe  Fe76  1  0.50304098  0.00295946  0.00085671  1
  Fe  Fe77  1  0.37430147  0.87529482  0.37691776  1
  Fe  Fe78  1  0.37497028  0.87691237  0.87800797  1
  Fe  Fe79  1  0.49512286  0.49901157  0.75236994  1
  Fe  Fe80  1  0.00159839  0.25139262  0.49909304  1
  Fe  Fe81  1  0.62284180  0.62501290  0.87465561  1
  Fe  Fe82  1  0.24880752  0.74891180  0.49842284  1
  Fe  Fe83  1  0.75152961  0.49976772  0.24960852  1
  Fe  Fe84  1  0.62405229  0.12583752  0.62558045  1
  Fe  Fe85  1  0.62526850  0.37442623  0.87531144  1
  Fe  Fe86  1  0.75020927  0.49911526  0.00054979  1
  Fe  Fe87  1  0.75056013  0.25340177  0.49907637  1
  Fe  Fe88  1  0.25280748  0.00220278  0.75085494  1
  Fe  Fe89  1  0.75114811  0.25003489  0.75142725  1
  Co  Co90  1  0.00123945  0.74903378  -0.00284211  1
  Co  Co91  1  0.62770135  0.12598354  0.87345375  1
  Co  Co92  1  0.24654063  0.24888759  0.49983677  1
  Co  Co93  1  0.24845988  0.00107451  0.00398506  1
  Co  Co94  1  0.62780253  0.12364467  0.12828226  1
  Co  Co95  1  0.11947349  0.12547368  0.12408565  1
  Co  Co96  1  0.25233530  0.24815948  0.75057226  1
  Co  Co97  1  0.50195088  0.74638311  0.49811782  1
  Co  Co98  1  0.50019320  0.25230412  0.24973429  1
  Co  Co99  1  0.62085770  0.62243641  0.62983773  1
  Co  Co100  1  0.87830896  0.62617687  0.62258380  1
  Co  Co101  1  0.37413650  0.62456652  0.37510543  1
  Co  Co102  1  0.49983022  0.00420079  0.49732169  1
  Co  Co103  1  0.74858461  -0.00322933  0.00002819  1
  Co  Co104  1  0.87480278  0.37527631  0.37366886  1
  Co  Co105  1  0.37268144  0.37304211  0.37741391  1
  Co  Co106  1  0.87624669  0.87459492  0.87351222  1
  Co  Co107  1  0.24972689  0.25069942  0.24600537  1
  Co  Co108  1  0.25457639  0.49882034  0.24737508  1
  Co  Co109  1  0.37508638  0.12654937  0.62359478  1
  Co  Co110  1  0.37493740  0.37139515  0.12158249  1
  Co  Co111  1  0.12532713  0.87007862  0.12454526  1
  Co  Co112  1  0.37434706  0.12446433  0.87873022  1
  Co  Co113  1  0.25410845  0.49915871  0.74943864  1
  Co  Co114  1  -0.00042866  0.24828007  0.75334224  1
  Co  Co115  1  0.87589116  0.87255272  0.12418654  1
  Co  Co116  1  0.50092824  0.74991268  0.00026329  1
  Co  Co117  1  0.62426010  0.62178417  0.36993929  1
  Co  Co118  1  0.12918975  0.87898526  0.37562978  1
  Co  Co119  1  0.87179699  0.87330210  0.37913076  1
  Co  Co120  1  -0.00040138  0.50116070  0.75164575  1
  Co  Co121  1  0.37838552  0.12432190  0.12685723  1
  Co  Co122  1  0.75012246  0.50074319  0.50175212  1
  Co  Co123  1  0.74831907  0.25249193  0.00205870  1
  Co  Co124  1  0.37498334  0.62658230  0.87483719  1
  Co  Co125  1  0.87308503  0.37649806  0.87386915  1
  Co  Co126  1  0.37494313  0.62895849  0.12571331  1
  Co  Co127  1  0.12507494  0.62102525  0.37374668  1
