# generated using pymatgen
data_Fe45Co19
_symmetry_space_group_name_H-M   'P 1'
_cell_length_a   11.41610522
_cell_length_b   11.41555641
_cell_length_c   11.41523493
_cell_angle_alpha   89.99035856
_cell_angle_beta   89.99865340
_cell_angle_gamma   90.00477893
_symmetry_Int_Tables_number   1
_chemical_formula_structural   Fe45Co19
_chemical_formula_sum   'Fe90 Co38'
_cell_volume   1487.64701017
_cell_formula_units_Z   2
loop_
 _symmetry_equiv_pos_site_id
 _symmetry_equiv_pos_as_xyz
  1  'x, y, z'
loop_
 _atom_site_type_symbol
 _atom_site_label
 _atom_site_symmetry_multiplicity
 _atom_site_fract_x
 _atom_site_fract_y
 _atom_site_fract_z
 _atom_site_occupancy
  Fe  Fe0  1  0.62636730  0.37444080  0.37729684  1
  Fe  Fe1  1  0.12461060  0.87644409  0.62401060  1
  Fe  Fe2  1  0.62404245  0.62461918  0.87288257  1
  Fe  Fe3  1  -0.00081155  0.00250122  0.49944018  1
  Fe  Fe4  1  0.25083688  0.49979253  0.24798722  1
  Fe  Fe5  1  0.12457105  0.37446328  0.12360412  1
  Fe  Fe6  1  0.37302902  0.62329177  0.62509399  1
  Fe  Fe7  1  0.62676534  0.12447638  0.38021136  1
  Fe  Fe8  1  0.50078071  0.49889451  -0.00182824  1
  Fe  Fe9  1  0.50105817  0.74914488  0.00160461  1
  Fe  Fe10  1  0.87556536  0.37304291  0.87487856  1
  Fe  Fe11  1  0.50205070  0.00099742  0.00019611  1
  Fe  Fe12  1  0.87081058  0.88029703  0.12213981  1
  Fe  Fe13  1  0.74523783  0.75288146  -0.00115686  1
  Fe  Fe14  1  0.37529029  0.62765741  0.36994836  1
  Fe  Fe15  1  -0.00126008  0.00014384  0.75419210  1
  Fe  Fe16  1  -0.00115604  0.24793111  0.24705725  1
  Fe  Fe17  1  -0.00176663  0.49799622  0.24731248  1
  Fe  Fe18  1  0.12746286  0.37504711  0.62280035  1
  Fe  Fe19  1  0.75209248  -0.00147125  0.75357407  1
  Fe  Fe20  1  0.62431650  0.12663565  0.87186097  1
  Fe  Fe21  1  0.49690520  0.00241081  0.74911504  1
  Fe  Fe22  1  0.12645748  0.12806088  0.37256492  1
  Fe  Fe23  1  0.75085294  0.75046296  0.50133105  1
  Fe  Fe24  1  0.49913595  0.75136436  0.49981043  1
  Fe  Fe25  1  0.25022956  0.00183008  0.49829551  1
  Fe  Fe26  1  0.12273730  0.62595354  0.37214826  1
  Fe  Fe27  1  0.24863794  0.74919681  0.49900166  1
  Fe  Fe28  1  0.49674457  0.49826509  0.75101068  1
  Fe  Fe29  1  0.37354065  0.87682124  0.62410485  1
  Fe  Fe30  1  0.87049319  0.37118296  0.12428456  1
  Fe  Fe31  1  0.37693884  0.87498118  0.87635770  1
  Fe  Fe32  1  0.37446783  0.87436772  0.37234944  1
  Fe  Fe33  1  0.50315855  0.25049880  0.25038917  1
  Fe  Fe34  1  0.00052310  0.49891250  0.50003293  1
  Fe  Fe35  1  0.49883194  0.74947607  0.74893036  1
  Fe  Fe36  1  0.74774000  0.75200025  0.24824050  1
  Fe  Fe37  1  -0.00179944  0.00408427  0.24592248  1
  Fe  Fe38  1  0.87662098  0.87460825  0.37522387  1
  Fe  Fe39  1  0.62581685  0.87693708  0.37693716  1
  Fe  Fe40  1  0.74716393  0.49604547  -0.00146065  1
  Fe  Fe41  1  0.37279529  0.37095263  0.37804566  1
  Fe  Fe42  1  0.25267972  0.50062667  0.00069446  1
  Fe  Fe43  1  -0.00001093  0.75018706  0.00162802  1
  Fe  Fe44  1  0.62451009  0.87856918  0.62489674  1
  Fe  Fe45  1  0.12420129  0.87773290  0.87877573  1
  Fe  Fe46  1  0.87264133  0.12719388  0.37520526  1
  Fe  Fe47  1  0.50512537  0.25142751  0.00075018  1
  Fe  Fe48  1  0.62542194  0.62434573  0.37434415  1
  Fe  Fe49  1  0.50286228  0.00108167  0.25074094  1
  Fe  Fe50  1  0.12332440  0.87501887  0.37403971  1
  Fe  Fe51  1  0.74945417  0.25168397  0.74757194  1
  Fe  Fe52  1  0.87495132  0.12674212  0.62523585  1
  Fe  Fe53  1  0.12699536  0.37226459  0.37508560  1
  Fe  Fe54  1  0.25303021  0.00177359  0.75306991  1
  Fe  Fe55  1  0.37559391  0.12624277  0.12477545  1
  Fe  Fe56  1  0.12526695  0.87986806  0.12337092  1
  Fe  Fe57  1  0.37509553  0.12774975  0.37674589  1
  Fe  Fe58  1  0.00180688  0.74888825  0.75088730  1
  Fe  Fe59  1  0.00206787  0.25150160  0.74951835  1
  Fe  Fe60  1  0.63359910  0.12398767  0.12537104  1
  Fe  Fe61  1  0.12572105  0.62360836  0.62436143  1
  Fe  Fe62  1  0.49776815  0.49980569  0.49839401  1
  Fe  Fe63  1  0.87754204  0.87421821  0.62527017  1
  Fe  Fe64  1  0.62428240  0.37663306  0.62361137  1
  Fe  Fe65  1  0.62205228  0.62174725  0.12870837  1
  Fe  Fe66  1  0.37823048  0.37492379  0.12506206  1
  Fe  Fe67  1  0.25132412  0.24897468  0.00066338  1
  Fe  Fe68  1  0.00011687  0.75064910  0.24599500  1
  Fe  Fe69  1  -0.00256441  0.24607878  0.00204410  1
  Fe  Fe70  1  0.87436170  0.62515647  0.87696298  1
  Fe  Fe71  1  0.74958726  0.75163405  0.75099794  1
  Fe  Fe72  1  0.25345574  0.24927020  0.75031277  1
  Fe  Fe73  1  0.87401079  0.37294686  0.37867562  1
  Fe  Fe74  1  0.87374155  0.62378267  0.12341925  1
  Fe  Fe75  1  0.12603542  0.12397712  0.62553106  1
  Fe  Fe76  1  0.74986630  0.49772978  0.25082663  1
  Fe  Fe77  1  0.87607502  0.62404242  0.62381852  1
  Fe  Fe78  1  0.25212197  0.74758258  0.00330249  1
  Fe  Fe79  1  0.87514573  0.62577746  0.37496530  1
  Fe  Fe80  1  0.00055818  0.49810878  0.75214255  1
  Fe  Fe81  1  0.12383253  0.62274113  0.87908369  1
  Fe  Fe82  1  0.25064235  0.49730467  0.75422025  1
  Fe  Fe83  1  0.25084427  0.00226430  0.24828530  1
  Fe  Fe84  1  0.62450123  0.62371714  0.62405987  1
  Fe  Fe85  1  0.75143868  0.49874936  0.74930477  1
  Fe  Fe86  1  0.37681893  0.87421344  0.12763851  1
  Fe  Fe87  1  0.12634183  0.12442900  0.87804936  1
  Fe  Fe88  1  0.49638074  0.24992936  0.74508820  1
  Fe  Fe89  1  0.24900447  0.74986130  0.75210399  1
  Co  Co90  1  0.38017545  0.62419978  0.12930698  1
  Co  Co91  1  0.24989323  0.50294647  0.49627238  1
  Co  Co92  1  0.49851481  -0.00058758  0.49919147  1
  Co  Co93  1  0.75060219  0.49987336  0.50081973  1
  Co  Co94  1  0.25397318  0.00028027  0.00039405  1
  Co  Co95  1  0.12738524  0.12448977  0.12361550  1
  Co  Co96  1  -0.00425671  0.00555905  0.00031248  1
  Co  Co97  1  0.24859591  0.24701762  0.50293145  1
  Co  Co98  1  0.00080329  0.74901748  0.50082470  1
  Co  Co99  1  0.37499030  0.12369358  0.62127989  1
  Co  Co100  1  0.74777060  0.25162920  0.25389745  1
  Co  Co101  1  0.62022165  0.87562607  0.87229504  1
  Co  Co102  1  0.37673449  0.37232579  0.87722899  1
  Co  Co103  1  0.12541715  0.37257600  0.87849476  1
  Co  Co104  1  0.75360079  -0.00056773  0.50139557  1
  Co  Co105  1  0.25134550  0.25068036  0.24616069  1
  Co  Co106  1  0.74673290  0.25197834  -0.00372486  1
  Co  Co107  1  0.37573372  0.62519424  0.87425200  1
  Co  Co108  1  0.87686980  0.37444144  0.62365422  1
  Co  Co109  1  0.50486799  0.75367909  0.25006676  1
  Co  Co110  1  0.50162978  0.25012376  0.50311233  1
  Co  Co111  1  0.37183943  0.37695953  0.62198629  1
  Co  Co112  1  0.49879226  0.49465850  0.25421319  1
  Co  Co113  1  0.62639129  0.12164586  0.62541720  1
  Co  Co114  1  0.74895883  0.24997012  0.50318444  1
  Co  Co115  1  0.75019692  -0.00003106  -0.00908308  1
  Co  Co116  1  0.62314225  0.37408752  0.87023101  1
  Co  Co117  1  0.24615994  0.74917279  0.24671716  1
  Co  Co118  1  0.62687760  0.88003740  0.12453846  1
  Co  Co119  1  0.87432703  0.12963760  0.87300975  1
  Co  Co120  1  0.00158140  0.24891100  0.50051007  1
  Co  Co121  1  0.12235207  0.62169177  0.12379738  1
  Co  Co122  1  0.37715154  0.12719867  0.87844866  1
  Co  Co123  1  0.87799047  0.87147380  0.87663679  1
  Co  Co124  1  0.86541489  0.12480567  0.12517013  1
  Co  Co125  1  0.62537238  0.37579430  0.12754371  1
  Co  Co126  1  0.74928880  -0.00107492  0.25423602  1
  Co  Co127  1  -0.00317929  0.49650174  0.00031286  1
