# generated using pymatgen
data_Fe45Co19
_symmetry_space_group_name_H-M   'P 1'
_cell_length_a   11.41574039
_cell_length_b   11.41554778
_cell_length_c   11.41422524
_cell_angle_alpha   89.99582426
_cell_angle_beta   90.00027091
_cell_angle_gamma   89.99907615
_symmetry_Int_Tables_number   1
_chemical_formula_structural   Fe45Co19
_chemical_formula_sum   'Fe90 Co38'
_cell_volume   1487.46678555
_cell_formula_units_Z   2
loop_
 _symmetry_equiv_pos_site_id
 _symmetry_equiv_pos_as_xyz
  1  'x, y, z'
loop_
 _atom_site_type_symbol
 _atom_site_label
 _atom_site_symmetry_multiplicity
 _atom_site_fract_x
 _atom_site_fract_y
 _atom_site_fract_z
 _atom_site_occupancy
  Fe  Fe0  1  0.62443487  0.87405918  0.12919283  1
  Fe  Fe1  1  0.49989833  0.49836815  0.25224943  1
  Fe  Fe2  1  0.37462826  0.62334338  0.37523479  1
  Fe  Fe3  1  0.62706551  0.37421235  0.12614943  1
  Fe  Fe4  1  0.87816090  0.62439699  0.62531604  1
  Fe  Fe5  1  0.24852309  0.75099565  0.49943344  1
  Fe  Fe6  1  0.00167223  0.49953985  -0.00180717  1
  Fe  Fe7  1  0.24760976  0.49921773  0.50047069  1
  Fe  Fe8  1  0.87418688  0.12277463  0.62139350  1
  Fe  Fe9  1  0.62605335  0.87706690  0.62521234  1
  Fe  Fe10  1  0.12091858  0.87429567  0.12902252  1
  Fe  Fe11  1  0.87545929  0.62390478  0.12502191  1
  Fe  Fe12  1  0.50168337  0.25061738  0.49902021  1
  Fe  Fe13  1  0.49633894  0.49925225  0.75156176  1
  Fe  Fe14  1  0.24957197  0.49607398  0.25089001  1
  Fe  Fe15  1  0.12653326  0.87668215  0.62344429  1
  Fe  Fe16  1  0.12128339  0.37392176  0.37454592  1
  Fe  Fe17  1  0.12506867  0.12175626  0.37425670  1
  Fe  Fe18  1  0.75284047  0.00097557  0.25158576  1
  Fe  Fe19  1  0.37295161  0.12422425  0.37249040  1
  Fe  Fe20  1  0.87816481  0.37591501  0.61693247  1
  Fe  Fe21  1  0.12619292  0.62624575  0.37376137  1
  Fe  Fe22  1  0.37260843  0.87741801  0.37360191  1
  Fe  Fe23  1  0.87793228  0.87429232  0.12913301  1
  Fe  Fe24  1  0.00183696  0.75246848  0.49814529  1
  Fe  Fe25  1  0.74996285  0.74950032  0.00145798  1
  Fe  Fe26  1  0.62545474  0.62331009  0.62491662  1
  Fe  Fe27  1  0.00151997  0.74667588  -0.00200886  1
  Fe  Fe28  1  0.37487855  0.62415961  0.12657235  1
  Fe  Fe29  1  0.24830510  0.25015889  0.49729860  1
  Fe  Fe30  1  0.37498716  0.37346337  0.62228250  1
  Fe  Fe31  1  0.12334689  0.12811783  0.12787688  1
  Fe  Fe32  1  0.50027830  0.74950808  0.00094789  1
  Fe  Fe33  1  0.87570281  0.12618597  0.87621943  1
  Fe  Fe34  1  0.24895057  0.74823360  0.75134839  1
  Fe  Fe35  1  0.62617517  0.12294255  0.62482187  1
  Fe  Fe36  1  0.50257415  0.49962131  0.49841065  1
  Fe  Fe37  1  0.74839836  0.50179666  -0.00039552  1
  Fe  Fe38  1  0.75056221  -0.00096226  0.00102581  1
  Fe  Fe39  1  0.62547717  0.62481473  0.87393456  1
  Fe  Fe40  1  0.87269820  0.87692814  0.62234650  1
  Fe  Fe41  1  0.49802239  0.24919792  0.75099910  1
  Fe  Fe42  1  0.24939339  0.24981801  0.00141153  1
  Fe  Fe43  1  0.49787296  0.49922107  -0.00087082  1
  Fe  Fe44  1  0.49909903  0.00279568  0.00197412  1
  Fe  Fe45  1  0.37451597  0.87558686  0.87519792  1
  Fe  Fe46  1  0.62678035  0.12478571  0.87404862  1
  Fe  Fe47  1  0.37557759  0.62635564  0.62318110  1
  Fe  Fe48  1  0.50070301  0.75007461  0.49768280  1
  Fe  Fe49  1  0.12576789  0.62249671  0.12604938  1
  Fe  Fe50  1  0.12359494  0.37682918  0.62436965  1
  Fe  Fe51  1  0.00002154  0.25126749  0.74914374  1
  Fe  Fe52  1  0.49983057  0.74981637  0.75040809  1
  Fe  Fe53  1  0.62373772  0.62602025  0.12922693  1
  Fe  Fe54  1  0.75224649  0.49832907  0.25241551  1
  Fe  Fe55  1  0.62510707  0.87660287  0.87423692  1
  Fe  Fe56  1  0.00050077  0.00195900  0.00120704  1
  Fe  Fe57  1  0.75055234  0.24951758  0.00300311  1
  Fe  Fe58  1  0.24801874  0.74794682  -0.00090909  1
  Fe  Fe59  1  0.74869660  0.74945325  0.49779007  1
  Fe  Fe60  1  0.25440676  0.00116088  0.74663810  1
  Fe  Fe61  1  0.75142570  0.75027019  0.75062666  1
  Fe  Fe62  1  0.49830140  -0.00075771  0.50024050  1
  Fe  Fe63  1  0.12856739  0.37822900  0.87461516  1
  Fe  Fe64  1  0.49638221  0.00169611  0.74854959  1
  Fe  Fe65  1  0.62719297  0.12682917  0.37420678  1
  Fe  Fe66  1  0.75283708  0.49831703  0.74822531  1
  Fe  Fe67  1  -0.00529754  0.25169120  0.24811591  1
  Fe  Fe68  1  0.75131062  0.25100136  0.74568393  1
  Fe  Fe69  1  0.62509658  0.87274749  0.37125826  1
  Fe  Fe70  1  0.37643575  0.87650324  0.12715979  1
  Fe  Fe71  1  0.49865854  0.24860905  -0.00024367  1
  Fe  Fe72  1  0.49989729  0.25113873  0.25126578  1
  Fe  Fe73  1  0.25148983  0.24984966  0.74946280  1
  Fe  Fe74  1  0.37292934  0.37283704  0.12604214  1
  Fe  Fe75  1  -0.00156037  -0.00086849  0.74835052  1
  Fe  Fe76  1  -0.00178286  0.49887446  0.25227616  1
  Fe  Fe77  1  0.12497684  0.87689763  0.87418560  1
  Fe  Fe78  1  0.87576857  0.87459006  0.87575175  1
  Fe  Fe79  1  0.87429106  0.12713064  0.37900591  1
  Fe  Fe80  1  0.12550645  0.12313674  0.62353708  1
  Fe  Fe81  1  0.24967878  0.75158013  0.24951164  1
  Fe  Fe82  1  0.24994835  0.00167620  0.00419803  1
  Fe  Fe83  1  0.62992133  0.37442577  0.37632746  1
  Fe  Fe84  1  0.62656712  0.12571549  0.12786593  1
  Fe  Fe85  1  0.12117357  0.62293365  0.62952505  1
  Fe  Fe86  1  0.12523918  0.12413544  0.87370593  1
  Fe  Fe87  1  0.87401244  0.37350874  0.87824716  1
  Fe  Fe88  1  0.87430842  0.62602001  0.37642902  1
  Fe  Fe89  1  0.62540873  0.37413961  0.87386529  1
  Co  Co90  1  0.37495682  0.12924580  0.62144521  1
  Co  Co91  1  0.12507807  0.87712449  0.37310148  1
  Co  Co92  1  0.74723227  0.25034657  0.50427223  1
  Co  Co93  1  0.37283547  0.12406103  0.87684640  1
  Co  Co94  1  0.75195056  0.74844265  0.24948687  1
  Co  Co95  1  0.62247867  0.37646849  0.62561652  1
  Co  Co96  1  0.00116223  0.74588140  0.25147917  1
  Co  Co97  1  -0.00343464  0.49493070  0.75189256  1
  Co  Co98  1  0.00017573  -0.00212332  0.49954372  1
  Co  Co99  1  -0.00009983  0.75457008  0.74989948  1
  Co  Co100  1  0.24915546  0.25224115  0.25273281  1
  Co  Co101  1  0.49639177  0.74913977  0.25116158  1
  Co  Co102  1  0.24786545  -0.00040141  0.24637924  1
  Co  Co103  1  -0.00216678  0.00340756  0.25146112  1
  Co  Co104  1  0.25408864  0.50126854  0.74732475  1
  Co  Co105  1  0.00265685  0.50300604  0.49678835  1
  Co  Co106  1  0.75156160  0.00066162  0.75153164  1
  Co  Co107  1  0.87520170  0.37713469  0.12193286  1
  Co  Co108  1  0.87476109  0.37299078  0.38086342  1
  Co  Co109  1  0.87551161  0.12462880  0.12209230  1
  Co  Co110  1  0.12373426  0.37505821  0.12601477  1
  Co  Co111  1  0.50082544  0.00198660  0.25040170  1
  Co  Co112  1  0.00368888  0.24711589  0.50070351  1
  Co  Co113  1  0.62472038  0.62532841  0.37260268  1
  Co  Co114  1  0.37508270  0.37538376  0.37724733  1
  Co  Co115  1  0.74827898  -0.00127891  0.49515406  1
  Co  Co116  1  0.00249334  0.25103558  -0.00066832  1
  Co  Co117  1  0.75483212  0.25137951  0.24889768  1
  Co  Co118  1  0.87773467  0.87290657  0.37274289  1
  Co  Co119  1  0.37485869  0.87141331  0.62477062  1
  Co  Co120  1  0.87570606  0.62578757  0.87365361  1
  Co  Co121  1  0.37416889  0.12777187  0.12875642  1
  Co  Co122  1  0.74876407  0.50164131  0.49997224  1
  Co  Co123  1  0.37432341  0.62669611  0.87607081  1
  Co  Co124  1  0.25119133  0.50092046  0.00140720  1
  Co  Co125  1  0.37262326  0.37344333  0.87585156  1
  Co  Co126  1  0.25188722  0.00026389  0.50091938  1
  Co  Co127  1  0.12370236  0.62155521  0.87114039  1
