# generated using pymatgen
data_Fe45Co19
_symmetry_space_group_name_H-M   'P 1'
_cell_length_a   11.41394045
_cell_length_b   11.41517047
_cell_length_c   11.41434073
_cell_angle_alpha   90.00471576
_cell_angle_beta   90.00722665
_cell_angle_gamma   89.98329106
_symmetry_Int_Tables_number   1
_chemical_formula_structural   Fe45Co19
_chemical_formula_sum   'Fe90 Co38'
_cell_volume   1487.19806867
_cell_formula_units_Z   2
loop_
 _symmetry_equiv_pos_site_id
 _symmetry_equiv_pos_as_xyz
  1  'x, y, z'
loop_
 _atom_site_type_symbol
 _atom_site_label
 _atom_site_symmetry_multiplicity
 _atom_site_fract_x
 _atom_site_fract_y
 _atom_site_fract_z
 _atom_site_occupancy
  Fe  Fe0  1  0.74970625  0.25083452  -0.00029849  1
  Fe  Fe1  1  0.74974759  0.49855453  0.49931198  1
  Fe  Fe2  1  0.00074447  -0.00004489  0.75324725  1
  Fe  Fe3  1  0.37349058  0.12543387  0.62389020  1
  Fe  Fe4  1  0.50267106  0.25110199  0.50147366  1
  Fe  Fe5  1  0.25099142  -0.00130852  -0.00254981  1
  Fe  Fe6  1  0.12526867  0.62602606  0.87700281  1
  Fe  Fe7  1  0.87466780  0.37668210  0.62711791  1
  Fe  Fe8  1  0.25085421  0.49803096  -0.00077044  1
  Fe  Fe9  1  0.37344585  0.37462994  0.37455100  1
  Fe  Fe10  1  0.87407427  0.12451349  0.62629760  1
  Fe  Fe11  1  0.00104776  0.74598656  0.50177208  1
  Fe  Fe12  1  0.50284380  0.24797700  0.74892639  1
  Fe  Fe13  1  0.12538097  0.62366433  0.12271587  1
  Fe  Fe14  1  0.37241256  0.12786186  0.37625513  1
  Fe  Fe15  1  0.37057073  0.12758543  0.12532204  1
  Fe  Fe16  1  0.87376453  0.62514336  0.37453642  1
  Fe  Fe17  1  0.74861987  0.75213505  0.00018041  1
  Fe  Fe18  1  0.75272855  0.49636203  0.24543591  1
  Fe  Fe19  1  0.38306235  0.87214427  0.87638315  1
  Fe  Fe20  1  0.62683002  0.62591917  0.37049579  1
  Fe  Fe21  1  0.87377781  0.12565366  0.37488913  1
  Fe  Fe22  1  0.50026627  0.50283171  0.74983540  1
  Fe  Fe23  1  0.87763155  0.37379606  0.87441048  1
  Fe  Fe24  1  0.75037775  -0.00205723  0.24947633  1
  Fe  Fe25  1  0.62198023  0.62736929  0.87800162  1
  Fe  Fe26  1  0.49886864  0.74895875  0.24523163  1
  Fe  Fe27  1  0.74760980  0.75233662  0.49879496  1
  Fe  Fe28  1  0.25212545  -0.00337032  0.75144072  1
  Fe  Fe29  1  0.37487630  0.37323505  0.12674472  1
  Fe  Fe30  1  -0.00004313  0.25075801  0.50279672  1
  Fe  Fe31  1  0.12545319  0.87428766  0.37697042  1
  Fe  Fe32  1  0.74947916  0.25233109  0.24698129  1
  Fe  Fe33  1  0.24854879  0.00151897  0.25141748  1
  Fe  Fe34  1  0.75036506  0.50173918  0.75300211  1
  Fe  Fe35  1  0.62605183  0.62282819  0.62398242  1
  Fe  Fe36  1  0.00087381  0.00015549  0.50059176  1
  Fe  Fe37  1  0.00278123  0.24877590  0.24969294  1
  Fe  Fe38  1  0.12358478  0.37599780  0.12528016  1
  Fe  Fe39  1  0.24888047  0.25323900  0.75007625  1
  Fe  Fe40  1  0.00195153  0.00054177  -0.00371054  1
  Fe  Fe41  1  0.62236340  0.37610876  0.87567884  1
  Fe  Fe42  1  0.12283258  0.37856511  0.62655731  1
  Fe  Fe43  1  0.24880976  0.74899011  0.25030766  1
  Fe  Fe44  1  0.62411373  0.12113826  0.87667391  1
  Fe  Fe45  1  0.37440315  0.87492849  0.37439758  1
  Fe  Fe46  1  0.12658890  0.87226794  0.62528191  1
  Fe  Fe47  1  -0.00254806  0.50523652  0.75084177  1
  Fe  Fe48  1  0.50017436  0.50001617  0.24769706  1
  Fe  Fe49  1  0.12673063  0.12411061  0.62713097  1
  Fe  Fe50  1  0.75141877  0.49729108  0.00089665  1
  Fe  Fe51  1  0.37578103  0.87358720  0.62359867  1
  Fe  Fe52  1  0.87568637  0.87367976  0.62503869  1
  Fe  Fe53  1  0.00518789  0.24893350  -0.00505188  1
  Fe  Fe54  1  0.87783555  0.37510431  0.37414295  1
  Fe  Fe55  1  0.62553036  0.12490570  0.37459851  1
  Fe  Fe56  1  0.00176077  0.00137310  0.25040321  1
  Fe  Fe57  1  0.50016665  0.00049818  0.49996136  1
  Fe  Fe58  1  0.50076156  0.74859207  0.49914906  1
  Fe  Fe59  1  0.00042566  0.74781702  0.24867473  1
  Fe  Fe60  1  0.62183287  0.87689029  0.62787478  1
  Fe  Fe61  1  0.87731088  0.87600368  0.12438960  1
  Fe  Fe62  1  0.37412533  0.62453296  0.62291813  1
  Fe  Fe63  1  0.62386965  0.37494228  0.37311658  1
  Fe  Fe64  1  0.37598211  0.37541916  0.87470344  1
  Fe  Fe65  1  0.74797815  0.74992310  0.75230199  1
  Fe  Fe66  1  0.62496854  0.12579477  0.12446444  1
  Fe  Fe67  1  0.12646559  0.87537682  0.12373118  1
  Fe  Fe68  1  0.74817810  0.25155913  0.50223235  1
  Fe  Fe69  1  0.49834237  0.50340979  0.00301027  1
  Fe  Fe70  1  0.25140302  0.50155928  0.75079976  1
  Fe  Fe71  1  0.37336714  0.62310499  0.37415628  1
  Fe  Fe72  1  0.12628169  0.62073534  0.37643216  1
  Fe  Fe73  1  0.37831966  0.37673980  0.62419430  1
  Fe  Fe74  1  -0.00173785  0.74702842  0.75134918  1
  Fe  Fe75  1  0.74772479  0.24944664  0.75025275  1
  Fe  Fe76  1  0.87516040  0.87383221  0.87626358  1
  Fe  Fe77  1  0.12715300  0.12653387  0.37820405  1
  Fe  Fe78  1  0.12465843  0.37779972  0.37615060  1
  Fe  Fe79  1  0.49924261  0.24890717  0.00059010  1
  Fe  Fe80  1  0.74910353  -0.00089481  0.75332702  1
  Fe  Fe81  1  0.25286889  0.74929941  0.75163183  1
  Fe  Fe82  1  0.25363721  0.75005246  -0.00010493  1
  Fe  Fe83  1  0.87658542  0.87364288  0.37485148  1
  Fe  Fe84  1  0.49864053  0.00133767  0.24812935  1
  Fe  Fe85  1  0.37256038  0.12713977  0.87505224  1
  Fe  Fe86  1  0.87681041  0.12608868  0.12298213  1
  Fe  Fe87  1  0.62309983  0.87554825  0.12330477  1
  Fe  Fe88  1  0.87570144  0.62487026  0.12230798  1
  Fe  Fe89  1  0.74888697  -0.00275428  0.49858365  1
  Co  Co90  1  0.50036616  0.74652152  0.74804944  1
  Co  Co91  1  0.75087761  -0.00111415  -0.00032365  1
  Co  Co92  1  0.25084067  0.74871938  0.49830844  1
  Co  Co93  1  0.62169714  0.37501134  0.12338979  1
  Co  Co94  1  0.62872089  0.62402164  0.12597145  1
  Co  Co95  1  0.62202381  0.87416869  0.37159740  1
  Co  Co96  1  0.87962594  0.37121212  0.12253470  1
  Co  Co97  1  0.12444139  0.37821809  0.87140555  1
  Co  Co98  1  0.12795189  0.62620608  0.62681582  1
  Co  Co99  1  0.87056452  0.62585286  0.62355590  1
  Co  Co100  1  0.24960812  -0.00127846  0.50027932  1
  Co  Co101  1  0.50070635  0.50096846  0.49775117  1
  Co  Co102  1  0.24920190  0.49796490  0.24902638  1
  Co  Co103  1  0.37087300  0.62341322  0.12718606  1
  Co  Co104  1  -0.00024635  0.49896695  -0.00104673  1
  Co  Co105  1  0.12550402  0.87189160  0.87495346  1
  Co  Co106  1  0.37206746  0.87584716  0.12667551  1
  Co  Co107  1  0.37583688  0.62484209  0.87572473  1
  Co  Co108  1  0.87484697  0.62634467  0.87922351  1
  Co  Co109  1  0.24877347  0.25357963  0.50241444  1
  Co  Co110  1  -0.00033457  0.75171909  0.00059705  1
  Co  Co111  1  0.25062096  0.49881467  0.50148082  1
  Co  Co112  1  0.49806089  0.00287927  0.75040806  1
  Co  Co113  1  0.62462119  0.37845320  0.62693719  1
  Co  Co114  1  0.00089530  0.24850396  0.75035579  1
  Co  Co115  1  0.12977995  0.12486813  0.87209733  1
  Co  Co116  1  -0.00125938  0.50225248  0.50223808  1
  Co  Co117  1  0.49833485  0.74662073  0.00553702  1
  Co  Co118  1  -0.00177954  0.50123370  0.24849322  1
  Co  Co119  1  0.24769243  0.25407304  -0.00081392  1
  Co  Co120  1  0.62702599  0.12239962  0.62473392  1
  Co  Co121  1  0.49994897  0.24979515  0.25002219  1
  Co  Co122  1  0.61931365  0.87468919  0.87671251  1
  Co  Co123  1  0.12675756  0.12311202  0.12187240  1
  Co  Co124  1  0.75241153  0.75284255  0.24765360  1
  Co  Co125  1  0.49706576  0.00194609  0.00240190  1
  Co  Co126  1  0.24676910  0.25090575  0.25014398  1
  Co  Co127  1  0.87488554  0.12636025  0.87525324  1
