# generated using pymatgen
data_Fe45Co19
_symmetry_space_group_name_H-M   'P 1'
_cell_length_a   11.41527641
_cell_length_b   11.41510218
_cell_length_c   11.41548709
_cell_angle_alpha   90.00830232
_cell_angle_beta   89.99671116
_cell_angle_gamma   89.99496395
_symmetry_Int_Tables_number   1
_chemical_formula_structural   Fe45Co19
_chemical_formula_sum   'Fe90 Co38'
_cell_volume   1487.51267707
_cell_formula_units_Z   2
loop_
 _symmetry_equiv_pos_site_id
 _symmetry_equiv_pos_as_xyz
  1  'x, y, z'
loop_
 _atom_site_type_symbol
 _atom_site_label
 _atom_site_symmetry_multiplicity
 _atom_site_fract_x
 _atom_site_fract_y
 _atom_site_fract_z
 _atom_site_occupancy
  Fe  Fe0  1  -0.00009963  0.75099444  -0.00087671  1
  Fe  Fe1  1  0.62372250  0.62333954  0.37460258  1
  Fe  Fe2  1  0.25040758  0.74863430  0.75189271  1
  Fe  Fe3  1  0.87686701  0.37495020  0.12892236  1
  Fe  Fe4  1  0.37262502  0.62403850  0.37508118  1
  Fe  Fe5  1  0.75235108  0.49900853  0.49772984  1
  Fe  Fe6  1  0.37835407  0.62338175  0.87279025  1
  Fe  Fe7  1  0.12559457  0.87569175  0.87490795  1
  Fe  Fe8  1  0.12483633  0.62396596  0.62278771  1
  Fe  Fe9  1  0.62263068  0.11939620  0.87538923  1
  Fe  Fe10  1  0.00028625  0.49584788  -0.00409874  1
  Fe  Fe11  1  0.75162909  0.74796785  0.49698149  1
  Fe  Fe12  1  0.25189211  0.24936396  -0.00099941  1
  Fe  Fe13  1  0.25205603  0.49900508  -0.00069870  1
  Fe  Fe14  1  0.87635144  0.37710184  0.62824417  1
  Fe  Fe15  1  0.74978141  0.74877763  0.25085905  1
  Fe  Fe16  1  0.62509710  0.37350691  0.62326948  1
  Fe  Fe17  1  0.87759431  0.62351316  0.12510253  1
  Fe  Fe18  1  0.49815822  0.00063554  0.50617241  1
  Fe  Fe19  1  0.12576328  0.62412676  0.87756656  1
  Fe  Fe20  1  0.37623976  0.37372033  0.87375580  1
  Fe  Fe21  1  0.12306176  0.37586186  0.62640434  1
  Fe  Fe22  1  0.37534741  0.37408760  0.37031110  1
  Fe  Fe23  1  0.87664052  0.62413926  0.62683648  1
  Fe  Fe24  1  0.74612968  0.75169728  0.75446739  1
  Fe  Fe25  1  0.25081691  0.50058428  0.74980016  1
  Fe  Fe26  1  0.87545480  0.12467429  0.62596624  1
  Fe  Fe27  1  0.00033143  0.25273502  0.75337533  1
  Fe  Fe28  1  0.12421946  0.12740357  0.62106038  1
  Fe  Fe29  1  0.37542295  0.37234493  0.12895298  1
  Fe  Fe30  1  0.87250317  0.87383299  0.62616992  1
  Fe  Fe31  1  0.74867999  0.24804704  0.75148056  1
  Fe  Fe32  1  0.74911806  0.25051345  -0.00056686  1
  Fe  Fe33  1  0.75078149  0.24899111  0.25279320  1
  Fe  Fe34  1  0.49903362  0.49970540  0.00204542  1
  Fe  Fe35  1  0.12317436  0.12650897  0.87899719  1
  Fe  Fe36  1  0.62315478  0.37582369  0.87526168  1
  Fe  Fe37  1  0.00114315  -0.00057687  0.74853665  1
  Fe  Fe38  1  0.00089054  -0.00139769  0.00310082  1
  Fe  Fe39  1  0.62281610  0.37304517  0.12897545  1
  Fe  Fe40  1  0.00518949  0.74696981  0.24971982  1
  Fe  Fe41  1  0.37484792  0.37353352  0.62615189  1
  Fe  Fe42  1  0.50104771  0.24752480  0.74731861  1
  Fe  Fe43  1  0.12965609  0.87217523  0.12501737  1
  Fe  Fe44  1  0.37769435  0.12128773  0.87112529  1
  Fe  Fe45  1  0.62324501  0.37621607  0.37216420  1
  Fe  Fe46  1  0.37147311  0.87310952  0.12821069  1
  Fe  Fe47  1  0.49768291  0.24915499  0.49968004  1
  Fe  Fe48  1  0.75246634  -0.00015106  0.50117054  1
  Fe  Fe49  1  0.25166854  -0.00045172  -0.00035651  1
  Fe  Fe50  1  -0.00033173  0.75124424  0.50003487  1
  Fe  Fe51  1  0.49904203  0.00271197  0.24793420  1
  Fe  Fe52  1  0.62348028  0.62487367  0.62481687  1
  Fe  Fe53  1  0.88231905  0.12285601  0.37576288  1
  Fe  Fe54  1  0.49806976  0.49967563  0.50082895  1
  Fe  Fe55  1  0.37056577  0.62815120  0.12572156  1
  Fe  Fe56  1  0.62312326  0.87636144  0.37675315  1
  Fe  Fe57  1  0.25229564  0.75273277  0.49777995  1
  Fe  Fe58  1  0.37751147  0.88128864  0.86958784  1
  Fe  Fe59  1  0.24924209  0.24797574  0.74986980  1
  Fe  Fe60  1  0.87385538  0.87568447  0.87485572  1
  Fe  Fe61  1  0.12413859  0.37195842  0.12201954  1
  Fe  Fe62  1  0.50043947  0.24672668  0.00207205  1
  Fe  Fe63  1  0.62554369  0.87520230  0.12429313  1
  Fe  Fe64  1  0.87483931  0.87309898  0.12664949  1
  Fe  Fe65  1  0.87854656  0.62134160  0.37216736  1
  Fe  Fe66  1  0.49645842  0.75188571  0.50223640  1
  Fe  Fe67  1  0.49847593  0.74954347  0.25221425  1
  Fe  Fe68  1  0.12014230  0.37218063  0.37678587  1
  Fe  Fe69  1  0.25031965  0.49735190  0.50057467  1
  Fe  Fe70  1  0.87824608  0.87618165  0.37279460  1
  Fe  Fe71  1  0.37144607  0.12737334  0.12802974  1
  Fe  Fe72  1  0.24505649  0.50192402  0.24937431  1
  Fe  Fe73  1  0.12715272  0.87398234  0.62644676  1
  Fe  Fe74  1  0.00076663  0.74918689  0.75065974  1
  Fe  Fe75  1  0.12411543  0.87895894  0.37292568  1
  Fe  Fe76  1  0.37131705  0.12594643  0.37477889  1
  Fe  Fe77  1  0.87644049  0.12700460  0.12399724  1
  Fe  Fe78  1  0.62471814  0.12397040  0.37679148  1
  Fe  Fe79  1  0.74717354  0.50081317  0.75090954  1
  Fe  Fe80  1  0.62438113  0.62679106  0.12467841  1
  Fe  Fe81  1  0.25038361  -0.00015122  0.50078111  1
  Fe  Fe82  1  0.74804152  0.50006354  0.00146455  1
  Fe  Fe83  1  0.87644038  0.12437071  0.87581050  1
  Fe  Fe84  1  0.75490039  0.25265357  0.49681443  1
  Fe  Fe85  1  0.49947673  0.75239976  -0.00244347  1
  Fe  Fe86  1  0.75064672  -0.00088631  0.00087150  1
  Fe  Fe87  1  0.75096741  0.00019799  0.25067061  1
  Fe  Fe88  1  0.87366427  0.62420721  0.87604638  1
  Fe  Fe89  1  0.50211768  0.75304994  0.74815334  1
  Co  Co90  1  -0.00223833  0.25386208  -0.00238714  1
  Co  Co91  1  0.87970863  0.37788531  0.36887636  1
  Co  Co92  1  0.74926711  -0.00016486  0.74939008  1
  Co  Co93  1  0.37373840  0.62557252  0.62455931  1
  Co  Co94  1  0.62971487  0.87287612  0.62055931  1
  Co  Co95  1  0.50112059  0.24567028  0.25062422  1
  Co  Co96  1  0.37656516  0.87772335  0.37365722  1
  Co  Co97  1  0.74806664  0.50097186  0.24933575  1
  Co  Co98  1  0.24728742  0.74801583  0.25476838  1
  Co  Co99  1  0.49840762  0.50332723  0.24829759  1
  Co  Co100  1  0.00293774  0.24504743  0.24958591  1
  Co  Co101  1  0.24836530  0.00286073  0.24963118  1
  Co  Co102  1  0.49631843  0.00114815  0.00648831  1
  Co  Co103  1  0.62263989  0.88073881  0.87817314  1
  Co  Co104  1  0.24392278  0.24973074  0.25216080  1
  Co  Co105  1  0.37124820  0.12514205  0.62558756  1
  Co  Co106  1  0.49984200  0.49777753  0.74788322  1
  Co  Co107  1  0.24459649  0.00391601  0.75024638  1
  Co  Co108  1  0.12319389  0.12384694  0.38057502  1
  Co  Co109  1  0.62845117  0.12460986  0.12583180  1
  Co  Co110  1  0.00158273  0.50002051  0.75412836  1
  Co  Co111  1  0.12966126  0.37404012  0.87510154  1
  Co  Co112  1  0.25407251  0.75260446  -0.00657567  1
  Co  Co113  1  0.25062180  0.25251097  0.49910800  1
  Co  Co114  1  0.00328683  0.00221022  0.24516628  1
  Co  Co115  1  0.62911130  0.12856259  0.62137049  1
  Co  Co116  1  0.62239862  0.62345039  0.87510480  1
  Co  Co117  1  0.12704715  0.62720330  0.11790763  1
  Co  Co118  1  -0.00371018  0.25244562  0.50144750  1
  Co  Co119  1  -0.00012595  -0.00349781  0.50440626  1
  Co  Co120  1  -0.00249861  0.49878420  0.50104128  1
  Co  Co121  1  0.12507449  0.62459612  0.38127842  1
  Co  Co122  1  0.74902942  0.74945912  -0.00064691  1
  Co  Co123  1  0.37037758  0.87651063  0.62874130  1
  Co  Co124  1  0.50523750  0.00027624  0.74030726  1
  Co  Co125  1  0.12618239  0.12716100  0.11989521  1
  Co  Co126  1  0.00762527  0.50244977  0.24880668  1
  Co  Co127  1  0.87051263  0.37541274  0.87350115  1
