# generated using pymatgen
data_Fe45Co19
_symmetry_space_group_name_H-M   'P 1'
_cell_length_a   11.41534946
_cell_length_b   11.41489580
_cell_length_c   11.41474330
_cell_angle_alpha   90.00016298
_cell_angle_beta   89.99769133
_cell_angle_gamma   89.99501708
_symmetry_Int_Tables_number   1
_chemical_formula_structural   Fe45Co19
_chemical_formula_sum   'Fe90 Co38'
_cell_volume   1487.39839921
_cell_formula_units_Z   2
loop_
 _symmetry_equiv_pos_site_id
 _symmetry_equiv_pos_as_xyz
  1  'x, y, z'
loop_
 _atom_site_type_symbol
 _atom_site_label
 _atom_site_symmetry_multiplicity
 _atom_site_fract_x
 _atom_site_fract_y
 _atom_site_fract_z
 _atom_site_occupancy
  Fe  Fe0  1  -0.00154668  0.25054051  0.75199083  1
  Fe  Fe1  1  0.37546846  0.12721851  0.12284029  1
  Fe  Fe2  1  0.62473161  0.87487931  0.37497760  1
  Fe  Fe3  1  0.25147620  -0.00299243  0.74972397  1
  Fe  Fe4  1  0.50000005  0.50358722  0.25107591  1
  Fe  Fe5  1  0.37625937  0.37786643  0.87325090  1
  Fe  Fe6  1  0.62586471  0.12816635  0.12244705  1
  Fe  Fe7  1  0.74756326  -0.00073740  0.50437263  1
  Fe  Fe8  1  -0.00064879  0.00141734  0.24895952  1
  Fe  Fe9  1  0.25050171  0.25222989  0.75067065  1
  Fe  Fe10  1  -0.00138713  0.74898071  0.24891884  1
  Fe  Fe11  1  0.24959722  -0.00010900  0.24849855  1
  Fe  Fe12  1  0.25117902  0.74930979  -0.00133233  1
  Fe  Fe13  1  0.62484041  0.37625837  0.87534715  1
  Fe  Fe14  1  0.37741438  0.12337458  0.37566220  1
  Fe  Fe15  1  0.74980514  0.25020639  0.25150714  1
  Fe  Fe16  1  0.25114087  0.50093724  0.24937020  1
  Fe  Fe17  1  0.87372374  0.37682702  0.62881741  1
  Fe  Fe18  1  0.00120575  0.75173412  0.50069016  1
  Fe  Fe19  1  0.37855776  0.37697701  0.62681783  1
  Fe  Fe20  1  0.25114371  0.74896114  0.24967627  1
  Fe  Fe21  1  0.87422032  0.87685611  0.87415241  1
  Fe  Fe22  1  0.49854595  0.74746139  0.25084469  1
  Fe  Fe23  1  0.75167823  0.75140450  0.24821474  1
  Fe  Fe24  1  0.12236891  0.38017533  0.87516188  1
  Fe  Fe25  1  0.75052744  0.25060056  0.75408373  1
  Fe  Fe26  1  0.49840162  0.75175930  0.75160197  1
  Fe  Fe27  1  0.12416992  0.37368778  0.12416818  1
  Fe  Fe28  1  0.37815806  0.87318999  0.12292114  1
  Fe  Fe29  1  0.75066219  0.75249900  0.75153275  1
  Fe  Fe30  1  0.50331035  0.24789706  0.50137948  1
  Fe  Fe31  1  0.87515354  0.87582075  0.37499517  1
  Fe  Fe32  1  0.25102583  0.25139539  -0.00244068  1
  Fe  Fe33  1  0.74798947  -0.00212686  0.24614749  1
  Fe  Fe34  1  0.12324541  0.87410016  0.12415907  1
  Fe  Fe35  1  0.74821342  0.49984594  0.50168778  1
  Fe  Fe36  1  0.75100537  0.75068234  0.49991843  1
  Fe  Fe37  1  0.24802247  0.75426719  0.50010068  1
  Fe  Fe38  1  0.87351418  0.37669915  0.37491878  1
  Fe  Fe39  1  -0.00506213  0.25027041  -0.00325631  1
  Fe  Fe40  1  0.62684822  0.62795572  0.12267021  1
  Fe  Fe41  1  0.37030648  0.62157801  0.87327700  1
  Fe  Fe42  1  0.62442749  0.37485341  0.62741572  1
  Fe  Fe43  1  0.37784802  0.37673092  0.37644530  1
  Fe  Fe44  1  0.12342853  0.12834439  0.12417111  1
  Fe  Fe45  1  0.37704274  0.12449786  0.62743074  1
  Fe  Fe46  1  0.12513097  0.12599328  0.62687056  1
  Fe  Fe47  1  -0.00119587  -0.00082758  0.74908920  1
  Fe  Fe48  1  0.87287210  0.37374177  0.12493246  1
  Fe  Fe49  1  -0.00319660  0.24989553  0.49997409  1
  Fe  Fe50  1  0.25067765  0.25012605  0.25152761  1
  Fe  Fe51  1  0.87165839  0.12468523  0.37509584  1
  Fe  Fe52  1  0.87416167  0.62261639  0.37406372  1
  Fe  Fe53  1  0.87715129  0.61945738  0.87244598  1
  Fe  Fe54  1  0.24995910  0.00051421  0.00028859  1
  Fe  Fe55  1  0.87179908  0.12468620  0.62757108  1
  Fe  Fe56  1  0.00105898  -0.00222655  0.50124194  1
  Fe  Fe57  1  0.00144513  0.50071926  0.50429778  1
  Fe  Fe58  1  0.24759486  -0.00192618  0.50100439  1
  Fe  Fe59  1  0.49989840  0.74868688  0.49874568  1
  Fe  Fe60  1  0.50074368  0.24913781  0.25035349  1
  Fe  Fe61  1  0.37672138  0.37566731  0.12417843  1
  Fe  Fe62  1  0.12435738  0.87381657  0.87481491  1
  Fe  Fe63  1  0.37873173  0.12377568  0.87423987  1
  Fe  Fe64  1  0.00228571  0.74769271  0.74990865  1
  Fe  Fe65  1  -0.00098551  0.00159741  0.00029797  1
  Fe  Fe66  1  0.12607813  0.62488130  0.37618121  1
  Fe  Fe67  1  0.62459610  0.62665177  0.62621530  1
  Fe  Fe68  1  0.24893925  0.49837751  0.50314345  1
  Fe  Fe69  1  0.50447532  0.00089576  0.50409379  1
  Fe  Fe70  1  0.12461023  0.12472788  0.87425924  1
  Fe  Fe71  1  0.74885052  -0.00165488  0.00055877  1
  Fe  Fe72  1  0.62682923  0.62738823  0.87620477  1
  Fe  Fe73  1  0.50245374  -0.00051828  0.24715716  1
  Fe  Fe74  1  0.12559476  0.62296139  0.12115805  1
  Fe  Fe75  1  0.62324864  0.12261881  0.87290801  1
  Fe  Fe76  1  0.12415728  0.37433364  0.37637709  1
  Fe  Fe77  1  0.25129312  0.24955332  0.50046186  1
  Fe  Fe78  1  0.49926614  0.50264228  -0.00067705  1
  Fe  Fe79  1  0.75244366  0.50091860  -0.00055046  1
  Fe  Fe80  1  0.87387942  0.62494601  0.62611105  1
  Fe  Fe81  1  0.12435428  0.12613043  0.37489540  1
  Fe  Fe82  1  0.37591419  0.87609635  0.37576317  1
  Fe  Fe83  1  0.62462831  0.37534493  0.37621857  1
  Fe  Fe84  1  -0.00366348  0.74733269  0.00017748  1
  Fe  Fe85  1  -0.00035175  0.49972612  0.24814337  1
  Fe  Fe86  1  0.62703316  0.62440389  0.37482837  1
  Fe  Fe87  1  0.62528860  0.37467391  0.12225017  1
  Fe  Fe88  1  0.37862735  0.87744264  0.87696526  1
  Fe  Fe89  1  0.37345094  0.62493039  0.62557727  1
  Co  Co90  1  0.50267978  0.50199112  0.50051183  1
  Co  Co91  1  0.87383698  0.12664535  0.12395818  1
  Co  Co92  1  0.62716122  0.12803659  0.62984523  1
  Co  Co93  1  -0.00227195  0.25008606  0.25175717  1
  Co  Co94  1  0.74663058  0.50205515  0.74947788  1
  Co  Co95  1  0.62400889  0.87363643  0.87851004  1
  Co  Co96  1  0.37217419  0.62453070  0.37879803  1
  Co  Co97  1  0.87531633  0.87340805  0.62555959  1
  Co  Co98  1  0.74671250  -0.00408446  0.74854861  1
  Co  Co99  1  0.12916408  0.62961958  0.62482445  1
  Co  Co100  1  0.37523391  0.62471473  0.12349505  1
  Co  Co101  1  0.49936489  0.25035101  -0.00209673  1
  Co  Co102  1  0.37603033  0.87436419  0.62285452  1
  Co  Co103  1  0.75638581  0.74981445  -0.00176725  1
  Co  Co104  1  -0.00443259  0.49951341  0.00267129  1
  Co  Co105  1  0.62684982  0.12463096  0.37436579  1
  Co  Co106  1  0.87585353  0.38105676  0.87109143  1
  Co  Co107  1  0.50251317  -0.00382559  0.74683852  1
  Co  Co108  1  0.50059901  0.25132788  0.75121491  1
  Co  Co109  1  0.49689295  0.74615378  -0.00362579  1
  Co  Co110  1  0.50205382  0.00155092  0.00260885  1
  Co  Co111  1  0.74757319  0.49910967  0.24968162  1
  Co  Co112  1  0.00560111  0.50230781  0.74447030  1
  Co  Co113  1  0.87594322  0.87603550  0.12410541  1
  Co  Co114  1  0.12566603  0.62238115  0.87810319  1
  Co  Co115  1  0.24523136  0.49819062  0.74672022  1
  Co  Co116  1  0.25111024  0.75269621  0.75253953  1
  Co  Co117  1  0.50208690  0.50293183  0.75109648  1
  Co  Co118  1  0.87314555  0.12083636  0.87370828  1
  Co  Co119  1  0.74950323  0.25165992  0.50057632  1
  Co  Co120  1  0.12363650  0.36967244  0.62410432  1
  Co  Co121  1  0.62534462  0.86975908  0.62527908  1
  Co  Co122  1  0.12425314  0.87525590  0.62886156  1
  Co  Co123  1  0.12440117  0.87489859  0.37208414  1
  Co  Co124  1  0.87201336  0.62347773  0.12740815  1
  Co  Co125  1  0.75180895  0.24991785  -0.00508596  1
  Co  Co126  1  0.62328041  0.86832172  0.12075437  1
  Co  Co127  1  0.25183423  0.49825751  0.00080362  1
