# generated using pymatgen
data_Fe45Co19
_symmetry_space_group_name_H-M   'P 1'
_cell_length_a   11.41566261
_cell_length_b   11.41511864
_cell_length_c   11.41539462
_cell_angle_alpha   90.00040504
_cell_angle_beta   90.00382913
_cell_angle_gamma   90.00602232
_symmetry_Int_Tables_number   1
_chemical_formula_structural   Fe45Co19
_chemical_formula_sum   'Fe90 Co38'
_cell_volume   1487.55310900
_cell_formula_units_Z   2
loop_
 _symmetry_equiv_pos_site_id
 _symmetry_equiv_pos_as_xyz
  1  'x, y, z'
loop_
 _atom_site_type_symbol
 _atom_site_label
 _atom_site_symmetry_multiplicity
 _atom_site_fract_x
 _atom_site_fract_y
 _atom_site_fract_z
 _atom_site_occupancy
  Fe  Fe0  1  0.74831277  0.00322217  0.24826939  1
  Fe  Fe1  1  0.37538576  0.62174917  0.37506001  1
  Fe  Fe2  1  -0.00044612  0.00093505  0.75129366  1
  Fe  Fe3  1  0.37098966  0.37818110  0.86795804  1
  Fe  Fe4  1  0.37853298  0.12605397  0.12316889  1
  Fe  Fe5  1  0.49969494  0.75107087  0.50079325  1
  Fe  Fe6  1  0.49660430  0.25148897  0.50050162  1
  Fe  Fe7  1  0.75126265  0.25119724  0.50239781  1
  Fe  Fe8  1  0.25240608  0.25203622  -0.00066135  1
  Fe  Fe9  1  0.49838454  0.74854959  0.24993574  1
  Fe  Fe10  1  0.62609859  0.87392939  0.37583582  1
  Fe  Fe11  1  0.24994260  0.50126060  0.24759156  1
  Fe  Fe12  1  0.62736548  0.12805135  0.87641238  1
  Fe  Fe13  1  0.49995335  0.49614207  0.49866399  1
  Fe  Fe14  1  0.37309143  0.12460738  0.87359568  1
  Fe  Fe15  1  -0.00329495  0.74713958  0.75065484  1
  Fe  Fe16  1  -0.00011130  0.49861983  0.00012138  1
  Fe  Fe17  1  0.24917135  -0.00013629  0.00123700  1
  Fe  Fe18  1  0.62941440  0.37270040  0.87436725  1
  Fe  Fe19  1  0.25175741  0.74906387  0.00240039  1
  Fe  Fe20  1  0.74959735  0.00067018  0.50238296  1
  Fe  Fe21  1  0.87555374  0.12624270  0.37634242  1
  Fe  Fe22  1  0.62678527  0.87305069  0.87423862  1
  Fe  Fe23  1  0.37592618  0.62359172  0.87478240  1
  Fe  Fe24  1  0.12620252  0.87315419  0.37523676  1
  Fe  Fe25  1  0.00258406  0.49931053  0.75171444  1
  Fe  Fe26  1  0.49772921  0.24809578  0.75032182  1
  Fe  Fe27  1  0.25087897  0.49951343  0.00176681  1
  Fe  Fe28  1  0.37638676  0.87580412  0.12568289  1
  Fe  Fe29  1  0.75470280  0.24995476  0.74906546  1
  Fe  Fe30  1  0.24985777  0.49663434  0.50224915  1
  Fe  Fe31  1  0.87349426  0.87556043  0.37401298  1
  Fe  Fe32  1  0.37713789  0.62012472  0.62686434  1
  Fe  Fe33  1  0.75125323  0.00097534  0.00024010  1
  Fe  Fe34  1  0.38045107  0.37504570  0.12945473  1
  Fe  Fe35  1  0.62358686  0.37262598  0.37285326  1
  Fe  Fe36  1  0.62057371  0.36906314  0.12539002  1
  Fe  Fe37  1  0.75235539  0.74923328  0.24825246  1
  Fe  Fe38  1  0.87359237  0.37615337  0.37330352  1
  Fe  Fe39  1  0.37490840  0.87365857  0.87253994  1
  Fe  Fe40  1  0.24606449  0.00326557  0.24920040  1
  Fe  Fe41  1  0.00367092  0.00404185  0.25126783  1
  Fe  Fe42  1  0.50137165  0.74785391  0.75058562  1
  Fe  Fe43  1  0.12594868  0.37314715  0.37418136  1
  Fe  Fe44  1  0.75073683  0.00358463  0.74930043  1
  Fe  Fe45  1  0.87024808  0.62052468  0.87540495  1
  Fe  Fe46  1  0.62663442  0.62209607  0.62271429  1
  Fe  Fe47  1  0.74653951  0.50062536  0.24863973  1
  Fe  Fe48  1  0.50211331  0.49811196  -0.00343094  1
  Fe  Fe49  1  0.25174294  0.74737560  0.24726254  1
  Fe  Fe50  1  0.87655860  0.37963075  0.62514706  1
  Fe  Fe51  1  0.12262900  0.62401728  0.62258566  1
  Fe  Fe52  1  -0.00015080  0.50147158  0.25121089  1
  Fe  Fe53  1  0.50096918  -0.00053149  -0.00317845  1
  Fe  Fe54  1  0.62594122  0.12663113  0.37810620  1
  Fe  Fe55  1  0.25026986  -0.00024550  0.74632012  1
  Fe  Fe56  1  0.12408647  0.12740570  0.62379407  1
  Fe  Fe57  1  -0.00526052  0.74732756  0.49911085  1
  Fe  Fe58  1  0.75320242  0.75123306  0.00184882  1
  Fe  Fe59  1  0.75109807  0.74738925  0.74634763  1
  Fe  Fe60  1  0.24967467  0.24796905  0.24872079  1
  Fe  Fe61  1  0.00157236  0.00045343  0.49900370  1
  Fe  Fe62  1  0.87566933  0.87666293  0.62635182  1
  Fe  Fe63  1  0.25336715  0.25356136  0.50459833  1
  Fe  Fe64  1  0.74945692  0.24755393  0.24726369  1
  Fe  Fe65  1  -0.00080586  0.25274163  0.49917767  1
  Fe  Fe66  1  0.37205413  0.12353409  0.37901036  1
  Fe  Fe67  1  -0.00085453  -0.00217011  -0.00192578  1
  Fe  Fe68  1  0.62209997  0.87805360  0.62582152  1
  Fe  Fe69  1  0.50181507  0.00323502  0.25138033  1
  Fe  Fe70  1  0.25264333  0.75109482  0.50255014  1
  Fe  Fe71  1  -0.00362331  0.75068118  0.00017253  1
  Fe  Fe72  1  -0.00054431  0.25252042  0.75304217  1
  Fe  Fe73  1  0.87721612  0.12492849  0.12367832  1
  Fe  Fe74  1  0.12546789  0.12669064  0.87610746  1
  Fe  Fe75  1  0.62355867  0.37374970  0.62659517  1
  Fe  Fe76  1  -0.00303817  0.74665001  0.24977842  1
  Fe  Fe77  1  0.62197740  0.62660784  0.12169919  1
  Fe  Fe78  1  0.12355140  0.87204878  0.62525508  1
  Fe  Fe79  1  0.12601195  0.62489650  0.37540289  1
  Fe  Fe80  1  0.12601111  0.62473922  0.87829065  1
  Fe  Fe81  1  -0.00250498  0.25261781  -0.00241585  1
  Fe  Fe82  1  0.12564894  0.87319219  0.87402100  1
  Fe  Fe83  1  0.25096498  0.74815142  0.74806621  1
  Fe  Fe84  1  0.87345417  0.37614466  0.12499732  1
  Fe  Fe85  1  0.37412546  0.87719869  0.37661252  1
  Fe  Fe86  1  0.62426815  0.87548496  0.12485039  1
  Fe  Fe87  1  0.12461322  0.37318340  0.12495649  1
  Fe  Fe88  1  0.12346733  0.87319507  0.12510606  1
  Fe  Fe89  1  0.62799723  0.62643355  0.37803587  1
  Co  Co90  1  0.50407500  0.50313259  0.25158395  1
  Co  Co91  1  0.86998920  0.62324906  0.37652174  1
  Co  Co92  1  0.87184005  0.37908223  0.87583252  1
  Co  Co93  1  0.87293196  0.87464962  0.87209149  1
  Co  Co94  1  0.12344878  0.62537950  0.12365706  1
  Co  Co95  1  0.62862177  0.62785542  0.87754694  1
  Co  Co96  1  0.24676301  -0.00264732  0.50339249  1
  Co  Co97  1  0.75298301  0.24999182  0.00151979  1
  Co  Co98  1  0.74471005  0.49773484  0.00257572  1
  Co  Co99  1  0.12371586  0.37466518  0.62623965  1
  Co  Co100  1  0.87682271  0.12587951  0.62436450  1
  Co  Co101  1  0.49645416  0.25293777  -0.00594607  1
  Co  Co102  1  0.12822685  0.37428018  0.87576584  1
  Co  Co103  1  0.74802147  0.49581327  0.49945153  1
  Co  Co104  1  0.87611553  0.87797387  0.12774394  1
  Co  Co105  1  0.62142770  0.12796335  0.12038656  1
  Co  Co106  1  0.37954454  0.87751679  0.62605172  1
  Co  Co107  1  0.62365074  0.12742084  0.62549033  1
  Co  Co108  1  0.74719742  0.49941457  0.74850062  1
  Co  Co109  1  0.24405797  0.50329169  0.74842872  1
  Co  Co110  1  0.87420667  0.61888937  0.62364969  1
  Co  Co111  1  0.50241810  0.00072401  0.49808303  1
  Co  Co112  1  0.37479531  0.37616181  0.37072629  1
  Co  Co113  1  0.50136891  0.00211365  0.75438248  1
  Co  Co114  1  0.24948542  0.24780002  0.74778150  1
  Co  Co115  1  0.50622231  0.50128485  0.75345561  1
  Co  Co116  1  0.49944012  0.24414813  0.25433676  1
  Co  Co117  1  0.12649608  0.12951587  0.37924873  1
  Co  Co118  1  0.37626297  0.37855105  0.63188164  1
  Co  Co119  1  0.00115383  0.49940022  0.49653991  1
  Co  Co120  1  0.87564071  0.12522337  0.87558341  1
  Co  Co121  1  -0.00076432  0.24977313  0.24991425  1
  Co  Co122  1  0.87421711  0.62175208  0.12390842  1
  Co  Co123  1  0.12310041  0.12817754  0.12006017  1
  Co  Co124  1  0.37769307  0.12260520  0.62417592  1
  Co  Co125  1  0.49898692  0.75194797  -0.00134304  1
  Co  Co126  1  0.37897142  0.62250082  0.12334727  1
  Co  Co127  1  0.75190333  0.75276024  0.50415298  1
