# generated using pymatgen
data_Fe45Co19
_symmetry_space_group_name_H-M   'P 1'
_cell_length_a   11.41545798
_cell_length_b   11.41507763
_cell_length_c   11.41420057
_cell_angle_alpha   90.00671373
_cell_angle_beta   89.98894958
_cell_angle_gamma   90.00270944
_symmetry_Int_Tables_number   1
_chemical_formula_structural   Fe45Co19
_chemical_formula_sum   'Fe90 Co38'
_cell_volume   1487.36547793
_cell_formula_units_Z   2
loop_
 _symmetry_equiv_pos_site_id
 _symmetry_equiv_pos_as_xyz
  1  'x, y, z'
loop_
 _atom_site_type_symbol
 _atom_site_label
 _atom_site_symmetry_multiplicity
 _atom_site_fract_x
 _atom_site_fract_y
 _atom_site_fract_z
 _atom_site_occupancy
  Fe  Fe0  1  0.50071335  0.50072444  0.75093848  1
  Fe  Fe1  1  0.49996295  0.50254056  0.24923763  1
  Fe  Fe2  1  0.12510681  0.87451125  0.37596792  1
  Fe  Fe3  1  0.74934999  0.00079879  0.74227030  1
  Fe  Fe4  1  0.37258332  0.62640047  0.37344223  1
  Fe  Fe5  1  0.74673180  0.75073648  0.50840996  1
  Fe  Fe6  1  0.62743860  0.37608836  0.87590289  1
  Fe  Fe7  1  0.25183099  -0.00219381  0.50046371  1
  Fe  Fe8  1  0.12161738  0.61966480  0.12612745  1
  Fe  Fe9  1  -0.00298816  -0.00278371  0.24996680  1
  Fe  Fe10  1  0.25235823  -0.00170061  0.74862175  1
  Fe  Fe11  1  0.87375027  0.87217776  0.37834375  1
  Fe  Fe12  1  -0.00196730  0.50010217  0.49731811  1
  Fe  Fe13  1  0.12392677  0.62516567  0.87392291  1
  Fe  Fe14  1  0.37418155  0.62646891  0.87676759  1
  Fe  Fe15  1  0.87502785  0.12521275  0.37749511  1
  Fe  Fe16  1  0.12443425  0.12306494  0.37550006  1
  Fe  Fe17  1  0.12371170  0.12276054  0.62551978  1
  Fe  Fe18  1  0.62979830  0.62537262  0.87141762  1
  Fe  Fe19  1  0.25108041  0.50119904  0.75008999  1
  Fe  Fe20  1  0.12277924  0.87661017  0.12508219  1
  Fe  Fe21  1  0.24964781  0.25068667  0.74945013  1
  Fe  Fe22  1  0.75436599  0.50241030  -0.00282849  1
  Fe  Fe23  1  0.12448289  0.37727573  0.62734911  1
  Fe  Fe24  1  0.38189705  0.87279399  0.62402492  1
  Fe  Fe25  1  0.37265601  0.12503879  0.37349835  1
  Fe  Fe26  1  0.74894221  0.75179939  -0.00019817  1
  Fe  Fe27  1  0.75438723  0.49972330  0.25110932  1
  Fe  Fe28  1  0.12427186  0.87586029  0.87320569  1
  Fe  Fe29  1  0.50315033  0.74953060  0.00019664  1
  Fe  Fe30  1  0.62592581  0.11997917  0.12503026  1
  Fe  Fe31  1  0.87688571  0.37373641  0.12175065  1
  Fe  Fe32  1  0.24776737  0.74827060  0.00109744  1
  Fe  Fe33  1  0.37624906  0.87403482  0.87587976  1
  Fe  Fe34  1  0.62479715  0.12160707  0.87634445  1
  Fe  Fe35  1  0.50341358  0.75026183  0.25203547  1
  Fe  Fe36  1  -0.00572545  0.49925898  0.75533346  1
  Fe  Fe37  1  0.62689751  0.87684151  0.12523735  1
  Fe  Fe38  1  -0.00445076  0.00064145  -0.00006294  1
  Fe  Fe39  1  0.49912178  0.25147531  0.49839419  1
  Fe  Fe40  1  0.50083875  0.24882922  0.75063561  1
  Fe  Fe41  1  0.12227530  0.12389721  0.12582288  1
  Fe  Fe42  1  0.37476285  0.12416018  0.87763218  1
  Fe  Fe43  1  0.62540813  0.87748286  0.87110063  1
  Fe  Fe44  1  0.12250716  0.62376730  0.62449706  1
  Fe  Fe45  1  0.62777099  0.62508568  0.37466799  1
  Fe  Fe46  1  0.75383179  -0.00083293  0.24967843  1
  Fe  Fe47  1  0.24741984  0.25166365  0.00034548  1
  Fe  Fe48  1  0.75063821  0.75013555  0.24885711  1
  Fe  Fe49  1  0.37510619  0.37707861  0.12516215  1
  Fe  Fe50  1  0.74941951  0.24630517  0.00180052  1
  Fe  Fe51  1  0.49941357  -0.00326440  0.25405642  1
  Fe  Fe52  1  0.75041210  0.50154320  0.50254395  1
  Fe  Fe53  1  0.37450861  0.87271106  0.12663774  1
  Fe  Fe54  1  0.87497318  0.37451320  0.62490474  1
  Fe  Fe55  1  0.00163186  0.25184744  0.49938224  1
  Fe  Fe56  1  0.37498248  0.12303501  0.12598512  1
  Fe  Fe57  1  -0.00010828  0.74968122  0.00037069  1
  Fe  Fe58  1  0.62761433  0.12239736  0.37709518  1
  Fe  Fe59  1  0.87688922  0.62939474  0.37775885  1
  Fe  Fe60  1  -0.00150209  0.25223732  0.25125341  1
  Fe  Fe61  1  0.24472899  0.74798990  0.24950949  1
  Fe  Fe62  1  0.12533490  0.12226533  0.87407740  1
  Fe  Fe63  1  0.25072463  -0.00128237  0.00163156  1
  Fe  Fe64  1  0.37898579  0.62672002  0.62428701  1
  Fe  Fe65  1  0.12132852  0.37975845  0.12257019  1
  Fe  Fe66  1  0.50261778  0.25026816  0.24946003  1
  Fe  Fe67  1  0.62587360  0.37613605  0.37501846  1
  Fe  Fe68  1  0.49923776  0.50048250  0.49861634  1
  Fe  Fe69  1  0.87415269  0.12539330  0.87302677  1
  Fe  Fe70  1  0.24750413  0.74974906  0.50155197  1
  Fe  Fe71  1  -0.00001735  0.75122542  0.74579991  1
  Fe  Fe72  1  0.74788245  0.24904628  0.74664928  1
  Fe  Fe73  1  0.87682626  0.62744291  0.12442227  1
  Fe  Fe74  1  0.50047009  0.50368872  0.00099253  1
  Fe  Fe75  1  0.62728808  0.37808928  0.12417955  1
  Fe  Fe76  1  0.37380915  0.37583781  0.87528598  1
  Fe  Fe77  1  0.75075226  0.25060811  0.24991980  1
  Fe  Fe78  1  0.50166733  0.24892429  0.00126253  1
  Fe  Fe79  1  0.74967314  0.24817229  0.50214946  1
  Fe  Fe80  1  0.24847675  0.25158271  0.24956236  1
  Fe  Fe81  1  0.62394978  0.37661408  0.62507842  1
  Fe  Fe82  1  0.25063214  0.75027284  0.74846126  1
  Fe  Fe83  1  0.37768911  0.12484131  0.62292730  1
  Fe  Fe84  1  -0.00166536  -0.00268260  0.50293323  1
  Fe  Fe85  1  0.00134175  0.25070780  0.75241055  1
  Fe  Fe86  1  0.25224611  0.49850661  0.49968835  1
  Fe  Fe87  1  0.25017591  0.25300802  0.50065455  1
  Fe  Fe88  1  0.12596135  0.37828495  0.37349220  1
  Fe  Fe89  1  0.87367682  0.87339729  0.87167034  1
  Co  Co90  1  0.87797539  0.62428154  0.62480977  1
  Co  Co91  1  0.50267761  0.74993666  0.49370411  1
  Co  Co92  1  -0.00411611  0.50185218  -0.00616121  1
  Co  Co93  1  0.00185321  0.75020192  0.25090415  1
  Co  Co94  1  0.61967634  0.12317602  0.62104129  1
  Co  Co95  1  0.25101082  0.50015685  0.25010965  1
  Co  Co96  1  0.50103581  0.74750098  0.75365323  1
  Co  Co97  1  0.87459256  0.87156281  0.12412871  1
  Co  Co98  1  0.00197357  0.24819783  -0.00233309  1
  Co  Co99  1  -0.00484166  0.49986989  0.25389023  1
  Co  Co100  1  0.87685446  0.87433164  0.62594392  1
  Co  Co101  1  0.62125253  0.62445015  0.62645390  1
  Co  Co102  1  0.37633357  0.37437382  0.37266770  1
  Co  Co103  1  0.87153473  0.36924495  0.87668487  1
  Co  Co104  1  0.00251930  0.75173525  0.50232418  1
  Co  Co105  1  0.87944090  0.12769056  0.62454982  1
  Co  Co106  1  0.12590566  0.87622938  0.62663757  1
  Co  Co107  1  0.62882817  0.62483672  0.12554572  1
  Co  Co108  1  0.12411741  0.62375278  0.37653649  1
  Co  Co109  1  0.75317155  0.49981047  0.74940195  1
  Co  Co110  1  0.12655731  0.37735904  0.87539001  1
  Co  Co111  1  0.87231073  0.37280556  0.37790334  1
  Co  Co112  1  0.74770231  0.75159497  0.74225659  1
  Co  Co113  1  0.24853533  -0.00020434  0.24949872  1
  Co  Co114  1  0.49930741  -0.00189950  0.00087508  1
  Co  Co115  1  0.36999919  0.87142270  0.37288207  1
  Co  Co116  1  0.37439042  0.62853855  0.12584122  1
  Co  Co117  1  0.87263821  0.63307366  0.87221208  1
  Co  Co118  1  0.37627322  0.37501014  0.62716791  1
  Co  Co119  1  0.63177773  0.87525145  0.37677932  1
  Co  Co120  1  -0.00103757  -0.00045216  0.74988735  1
  Co  Co121  1  0.75344990  -0.00052194  -0.00035280  1
  Co  Co122  1  0.61619745  0.87597385  0.62548666  1
  Co  Co123  1  0.75105029  -0.00073803  0.50608732  1
  Co  Co124  1  0.49870502  -0.00291187  0.49284452  1
  Co  Co125  1  0.49824961  0.00312642  0.75163704  1
  Co  Co126  1  0.87574363  0.12674308  0.12644103  1
  Co  Co127  1  0.25012426  0.50177113  -0.00046174  1
