# generated using pymatgen
data_Fe45Co19
_symmetry_space_group_name_H-M   'P 1'
_cell_length_a   11.41581942
_cell_length_b   11.41475968
_cell_length_c   11.41561146
_cell_angle_alpha   90.00074260
_cell_angle_beta   90.00219286
_cell_angle_gamma   90.00227402
_symmetry_Int_Tables_number   1
_chemical_formula_structural   Fe45Co19
_chemical_formula_sum   'Fe90 Co38'
_cell_volume   1487.55502993
_cell_formula_units_Z   2
loop_
 _symmetry_equiv_pos_site_id
 _symmetry_equiv_pos_as_xyz
  1  'x, y, z'
loop_
 _atom_site_type_symbol
 _atom_site_label
 _atom_site_symmetry_multiplicity
 _atom_site_fract_x
 _atom_site_fract_y
 _atom_site_fract_z
 _atom_site_occupancy
  Fe  Fe0  1  0.24990961  0.24847418  0.74950603  1
  Fe  Fe1  1  0.62357015  0.37589972  0.37454469  1
  Fe  Fe2  1  0.49920274  0.00018894  0.74960980  1
  Fe  Fe3  1  0.87880467  0.12727971  0.37328622  1
  Fe  Fe4  1  0.00015364  0.24768969  0.74709313  1
  Fe  Fe5  1  0.49811818  0.24979450  0.24908132  1
  Fe  Fe6  1  0.37617658  0.62756015  0.87210208  1
  Fe  Fe7  1  0.87776368  0.87290759  0.37582259  1
  Fe  Fe8  1  0.00174038  0.75227016  0.00068982  1
  Fe  Fe9  1  0.49838953  0.50126090  0.49933633  1
  Fe  Fe10  1  0.62743361  0.62751811  0.12570866  1
  Fe  Fe11  1  0.62578209  0.62447348  0.62511956  1
  Fe  Fe12  1  0.50027560  0.00116769  0.00041633  1
  Fe  Fe13  1  0.12623045  0.62394254  0.12609668  1
  Fe  Fe14  1  0.75007018  0.24924433  0.49731321  1
  Fe  Fe15  1  0.74967160  -0.00093430  0.75067362  1
  Fe  Fe16  1  0.74845615  0.24876545  0.75094477  1
  Fe  Fe17  1  0.75095777  0.50096735  0.25270196  1
  Fe  Fe18  1  0.37731657  0.37149931  0.87423376  1
  Fe  Fe19  1  0.87752354  0.87807374  0.87586386  1
  Fe  Fe20  1  0.62731874  0.87417003  0.12447070  1
  Fe  Fe21  1  0.49868072  0.75043245  0.50384303  1
  Fe  Fe22  1  0.12500367  0.37516264  0.62437404  1
  Fe  Fe23  1  -0.00097448  0.50005105  0.49994001  1
  Fe  Fe24  1  0.00099893  0.49950402  0.75134631  1
  Fe  Fe25  1  0.87485616  0.62623534  0.62493305  1
  Fe  Fe26  1  0.87763324  0.62924543  0.37624562  1
  Fe  Fe27  1  0.62494466  0.12330949  0.12727162  1
  Fe  Fe28  1  0.62335108  0.87525721  0.37641196  1
  Fe  Fe29  1  0.87347053  0.62705789  0.12424627  1
  Fe  Fe30  1  0.24728419  0.74994113  -0.00279928  1
  Fe  Fe31  1  0.49903194  0.25006602  0.50173785  1
  Fe  Fe32  1  0.74934161  0.50059552  0.75249070  1
  Fe  Fe33  1  0.37461573  0.87220230  0.87280958  1
  Fe  Fe34  1  0.00225782  0.00148444  0.24820612  1
  Fe  Fe35  1  0.12353949  0.87328809  0.37472842  1
  Fe  Fe36  1  0.12798777  0.87675024  0.12449194  1
  Fe  Fe37  1  0.00156290  0.49854864  -0.00104935  1
  Fe  Fe38  1  0.62371449  0.12284093  0.37508863  1
  Fe  Fe39  1  0.37318326  0.62681465  0.12776707  1
  Fe  Fe40  1  0.49540680  -0.00452024  0.24981811  1
  Fe  Fe41  1  0.00274077  0.75126282  0.74944052  1
  Fe  Fe42  1  0.25044328  0.49835255  0.49623138  1
  Fe  Fe43  1  0.49656812  -0.00117791  0.50014670  1
  Fe  Fe44  1  0.74941988  0.50027478  -0.00227337  1
  Fe  Fe45  1  0.12205824  0.12276707  0.87536841  1
  Fe  Fe46  1  0.00007848  0.49989548  0.25011317  1
  Fe  Fe47  1  0.87429185  0.37267445  0.12622718  1
  Fe  Fe48  1  0.24809940  0.25078966  0.00111304  1
  Fe  Fe49  1  0.62561642  0.37498492  0.12679417  1
  Fe  Fe50  1  0.87639208  0.12287588  0.87703176  1
  Fe  Fe51  1  0.12591221  0.62341580  0.62491614  1
  Fe  Fe52  1  0.24973461  0.49687166  0.25464253  1
  Fe  Fe53  1  0.62644091  0.12177004  0.62350323  1
  Fe  Fe54  1  0.00401878  0.24894929  0.00477377  1
  Fe  Fe55  1  0.12370296  0.62828964  0.37366524  1
  Fe  Fe56  1  0.24939530  0.75036032  0.50125017  1
  Fe  Fe57  1  0.62465419  0.87507801  0.87600298  1
  Fe  Fe58  1  0.12888318  0.12334213  0.62111032  1
  Fe  Fe59  1  0.24962385  0.49949089  -0.00373369  1
  Fe  Fe60  1  0.37233622  0.12380676  0.62276387  1
  Fe  Fe61  1  0.87320038  0.37596437  0.62412228  1
  Fe  Fe62  1  0.49929257  0.50055449  0.00153180  1
  Fe  Fe63  1  0.25157687  -0.00366610  0.25440814  1
  Fe  Fe64  1  0.62314064  0.62699634  0.37353281  1
  Fe  Fe65  1  0.74786389  0.75112694  0.75082855  1
  Fe  Fe66  1  0.37257327  0.87405183  0.62792291  1
  Fe  Fe67  1  0.37978695  0.12896699  0.87515968  1
  Fe  Fe68  1  0.49994587  0.50117710  0.74946040  1
  Fe  Fe69  1  0.00008338  -0.00030371  0.50165852  1
  Fe  Fe70  1  0.87327635  0.12520434  0.12605981  1
  Fe  Fe71  1  0.37381442  0.37667432  0.62463552  1
  Fe  Fe72  1  0.37657152  0.62857208  0.37278892  1
  Fe  Fe73  1  0.12742107  0.87833688  0.62918106  1
  Fe  Fe74  1  0.87201393  0.12238833  0.62331417  1
  Fe  Fe75  1  0.37173667  0.12404044  0.12648752  1
  Fe  Fe76  1  0.74645347  0.24713322  -0.00054623  1
  Fe  Fe77  1  0.62138717  0.37216867  0.87491426  1
  Fe  Fe78  1  0.87221256  0.87435848  0.12451450  1
  Fe  Fe79  1  0.87669441  0.62572831  0.87529972  1
  Fe  Fe80  1  0.62686886  0.37666388  0.62311131  1
  Fe  Fe81  1  0.24877088  0.50124247  0.75267162  1
  Fe  Fe82  1  0.75076548  -0.00069573  0.25211095  1
  Fe  Fe83  1  0.37071700  0.12669473  0.37606689  1
  Fe  Fe84  1  0.37322673  0.37482802  0.12716994  1
  Fe  Fe85  1  0.87702134  0.37244622  0.87528002  1
  Fe  Fe86  1  0.75035772  0.75173252  0.50075846  1
  Fe  Fe87  1  0.25058492  -0.00001209  -0.00467216  1
  Fe  Fe88  1  0.87857277  0.37113311  0.37410692  1
  Fe  Fe89  1  0.50018778  0.74941972  0.00094548  1
  Co  Co90  1  0.37635268  0.87108181  0.37771588  1
  Co  Co91  1  0.37905481  0.37393678  0.37392680  1
  Co  Co92  1  0.87419722  0.87436399  0.62522707  1
  Co  Co93  1  0.75123471  0.74984355  -0.00324648  1
  Co  Co94  1  0.12327898  0.87885750  0.87297297  1
  Co  Co95  1  0.11911484  0.37144101  0.37696346  1
  Co  Co96  1  0.12660905  0.12596200  0.37814696  1
  Co  Co97  1  0.25244055  0.00385689  0.75357175  1
  Co  Co98  1  -0.00123976  0.24797439  0.50469328  1
  Co  Co99  1  0.62519683  0.87798204  0.62270549  1
  Co  Co100  1  0.00083550  0.75056586  0.24566726  1
  Co  Co101  1  0.12265075  0.62471409  0.87608860  1
  Co  Co102  1  0.50063735  0.24943921  0.00519612  1
  Co  Co103  1  0.75323802  -0.00060324  0.49643433  1
  Co  Co104  1  0.75045204  0.75063344  0.25289699  1
  Co  Co105  1  0.37260764  0.87526058  0.12068708  1
  Co  Co106  1  0.62289221  0.62494280  0.87551380  1
  Co  Co107  1  0.50012535  0.24952807  0.74371943  1
  Co  Co108  1  0.50236271  0.75062741  0.74780703  1
  Co  Co109  1  0.37347678  0.62468444  0.62590287  1
  Co  Co110  1  0.74818021  0.24959657  0.25197637  1
  Co  Co111  1  0.24992650  -0.00471998  0.49768050  1
  Co  Co112  1  0.24688781  0.25272732  0.25144802  1
  Co  Co113  1  0.00310091  0.75163552  0.50380320  1
  Co  Co114  1  0.49885610  0.75353902  0.24675662  1
  Co  Co115  1  0.13177019  0.12021007  0.12614569  1
  Co  Co116  1  0.75204240  0.50139513  0.49674688  1
  Co  Co117  1  0.12368340  0.37231818  0.87396707  1
  Co  Co118  1  0.50041452  0.50143855  0.24819417  1
  Co  Co119  1  0.25109617  0.25478706  0.49872764  1
  Co  Co120  1  -0.00077899  0.00244048  0.74598731  1
  Co  Co121  1  0.74858917  0.00225457  -0.00017467  1
  Co  Co122  1  0.25078143  0.75283245  0.24995269  1
  Co  Co123  1  0.12688378  0.37981140  0.12488105  1
  Co  Co124  1  0.62191403  0.12569349  0.87308586  1
  Co  Co125  1  0.00684826  0.24789860  0.24439098  1
  Co  Co126  1  0.24670864  0.74801079  0.75065108  1
  Co  Co127  1  0.00029159  -0.00044284  0.00476076  1
