# generated using pymatgen
data_Fe45Co19
_symmetry_space_group_name_H-M   'P 1'
_cell_length_a   11.41587864
_cell_length_b   11.41462065
_cell_length_c   11.41525447
_cell_angle_alpha   90.00540032
_cell_angle_beta   89.99522296
_cell_angle_gamma   89.99946622
_symmetry_Int_Tables_number   1
_chemical_formula_structural   Fe45Co19
_chemical_formula_sum   'Fe90 Co38'
_cell_volume   1487.49810091
_cell_formula_units_Z   2
loop_
 _symmetry_equiv_pos_site_id
 _symmetry_equiv_pos_as_xyz
  1  'x, y, z'
loop_
 _atom_site_type_symbol
 _atom_site_label
 _atom_site_symmetry_multiplicity
 _atom_site_fract_x
 _atom_site_fract_y
 _atom_site_fract_z
 _atom_site_occupancy
  Fe  Fe0  1  0.87527440  0.12464012  0.62631711  1
  Fe  Fe1  1  0.87301377  0.87473685  0.12689839  1
  Fe  Fe2  1  0.74614734  0.00102541  0.25029945  1
  Fe  Fe3  1  0.25139620  0.74917204  -0.00160336  1
  Fe  Fe4  1  0.74942446  0.25081762  0.75113258  1
  Fe  Fe5  1  0.12493829  0.12575931  0.12414840  1
  Fe  Fe6  1  -0.00089806  0.74926543  0.00092117  1
  Fe  Fe7  1  0.87370033  0.37278652  0.12669075  1
  Fe  Fe8  1  0.37570730  0.87647271  0.87362177  1
  Fe  Fe9  1  0.74994734  0.25234794  -0.00314427  1
  Fe  Fe10  1  0.24885925  0.49993679  0.75000490  1
  Fe  Fe11  1  0.62350037  0.62451247  0.87686138  1
  Fe  Fe12  1  0.74775198  0.50066977  0.25149141  1
  Fe  Fe13  1  0.12425213  0.62475399  0.37537882  1
  Fe  Fe14  1  0.87605256  0.37551129  0.37616722  1
  Fe  Fe15  1  0.00132193  0.24958094  0.49986485  1
  Fe  Fe16  1  0.75177145  0.49992663  0.50035177  1
  Fe  Fe17  1  0.24778133  0.49811241  0.24788747  1
  Fe  Fe18  1  0.50078633  0.25025203  0.25024074  1
  Fe  Fe19  1  0.87370555  0.62678525  0.12604827  1
  Fe  Fe20  1  0.50007974  0.00341598  0.75015421  1
  Fe  Fe21  1  0.12751601  0.12274018  0.62360653  1
  Fe  Fe22  1  0.00272469  0.75036630  0.75036312  1
  Fe  Fe23  1  0.37595472  0.37400155  0.87132813  1
  Fe  Fe24  1  0.62067719  0.12354748  0.37831496  1
  Fe  Fe25  1  0.00245700  0.25035892  0.25222489  1
  Fe  Fe26  1  0.25773508  -0.00340485  0.49612642  1
  Fe  Fe27  1  0.87501710  0.87521960  0.62482931  1
  Fe  Fe28  1  0.12257198  0.61997784  0.87788972  1
  Fe  Fe29  1  0.12486487  0.87707043  0.87605445  1
  Fe  Fe30  1  0.62494111  0.62682606  0.62316175  1
  Fe  Fe31  1  0.24830751  0.24947670  0.25289111  1
  Fe  Fe32  1  0.50153817  0.74822350  0.24892049  1
  Fe  Fe33  1  0.12824226  0.37331746  0.62545231  1
  Fe  Fe34  1  0.37159279  0.62898617  0.62540096  1
  Fe  Fe35  1  0.37629493  0.62276854  0.87619886  1
  Fe  Fe36  1  0.74935940  0.75100951  0.75143630  1
  Fe  Fe37  1  0.87517813  0.12280868  0.37592840  1
  Fe  Fe38  1  0.49659826  0.24964784  0.50233413  1
  Fe  Fe39  1  0.87567574  0.12160492  0.87200042  1
  Fe  Fe40  1  0.87912512  0.37931209  0.87217223  1
  Fe  Fe41  1  0.87506429  0.12566539  0.12566669  1
  Fe  Fe42  1  0.37403062  0.37281224  0.12342752  1
  Fe  Fe43  1  0.37545909  0.12609989  0.12452478  1
  Fe  Fe44  1  0.87737000  0.62238916  0.87497439  1
  Fe  Fe45  1  0.24980441  0.75194703  0.25378715  1
  Fe  Fe46  1  0.62452790  0.37517096  0.37702290  1
  Fe  Fe47  1  0.62394360  0.62476234  0.12125530  1
  Fe  Fe48  1  0.87552150  0.62839433  0.62401191  1
  Fe  Fe49  1  0.87590654  0.87603426  0.87298822  1
  Fe  Fe50  1  0.62454587  0.87346732  0.12142558  1
  Fe  Fe51  1  0.00102411  -0.00055924  0.25112779  1
  Fe  Fe52  1  0.37152716  0.12986779  0.62898291  1
  Fe  Fe53  1  0.74865163  0.49802114  0.00045417  1
  Fe  Fe54  1  0.00408952  0.24941905  0.75064651  1
  Fe  Fe55  1  0.25058630  0.49923771  0.50007497  1
  Fe  Fe56  1  0.12957333  0.87428928  0.62375827  1
  Fe  Fe57  1  -0.00063862  0.75160319  0.25282358  1
  Fe  Fe58  1  -0.00011728  0.75337989  0.49627882  1
  Fe  Fe59  1  -0.00071825  -0.00026176  0.00102334  1
  Fe  Fe60  1  0.62543154  0.37368511  0.62476623  1
  Fe  Fe61  1  0.12650478  0.87454623  0.12614509  1
  Fe  Fe62  1  0.49930357  0.49925993  0.74715368  1
  Fe  Fe63  1  0.49910870  0.74885500  0.75019906  1
  Fe  Fe64  1  0.37553323  0.87706316  0.12729115  1
  Fe  Fe65  1  0.50032353  0.49828921  0.24823651  1
  Fe  Fe66  1  0.12739645  0.12169764  0.37709074  1
  Fe  Fe67  1  0.62302732  0.87541453  0.87663360  1
  Fe  Fe68  1  0.61900551  0.87632244  0.37832511  1
  Fe  Fe69  1  0.25130925  0.00191958  0.00039589  1
  Fe  Fe70  1  0.62614545  0.12611314  0.62561074  1
  Fe  Fe71  1  0.75014749  -0.00071490  -0.00105775  1
  Fe  Fe72  1  0.62192253  0.87490542  0.62334740  1
  Fe  Fe73  1  0.62517445  0.12681986  0.12115908  1
  Fe  Fe74  1  -0.00031434  0.49843236  0.50322275  1
  Fe  Fe75  1  0.37361353  0.37380250  0.37667382  1
  Fe  Fe76  1  0.24927904  0.00206614  0.75295089  1
  Fe  Fe77  1  0.50329769  0.25175858  -0.00409282  1
  Fe  Fe78  1  0.75177156  0.50057945  0.74714074  1
  Fe  Fe79  1  0.75003095  0.74868090  0.49601064  1
  Fe  Fe80  1  0.37658403  0.62552092  0.37494605  1
  Fe  Fe81  1  0.00074106  0.25132066  -0.00240361  1
  Fe  Fe82  1  0.12795805  0.62944321  0.62286771  1
  Fe  Fe83  1  0.49778751  0.50018660  0.50236207  1
  Fe  Fe84  1  0.37407347  0.62385633  0.12352888  1
  Fe  Fe85  1  0.00348484  0.49856565  0.24595823  1
  Fe  Fe86  1  0.24679649  0.25041857  -0.00616151  1
  Fe  Fe87  1  0.75048606  0.00094706  0.50119365  1
  Fe  Fe88  1  0.74834811  0.24838244  0.25264944  1
  Fe  Fe89  1  0.74889283  0.74876481  0.25428639  1
  Co  Co90  1  0.62591041  0.37361050  0.12644276  1
  Co  Co91  1  0.62169485  0.62404576  0.37717269  1
  Co  Co92  1  0.24778851  0.74783790  0.75571566  1
  Co  Co93  1  0.50262694  0.00270899  0.24600783  1
  Co  Co94  1  0.12734950  0.37055547  0.12289979  1
  Co  Co95  1  0.62687375  0.12367560  0.87502408  1
  Co  Co96  1  0.75197646  0.74948825  -0.00228206  1
  Co  Co97  1  0.87475388  0.37102024  0.62521012  1
  Co  Co98  1  0.00075982  0.50188195  0.74268323  1
  Co  Co99  1  0.12577410  0.87754929  0.37563183  1
  Co  Co100  1  0.00181343  -0.00179028  0.74720967  1
  Co  Co101  1  -0.00076478  -0.00096736  0.50100824  1
  Co  Co102  1  0.75074158  0.24904731  0.49865332  1
  Co  Co103  1  0.25468768  0.75402376  0.49466484  1
  Co  Co104  1  0.62465430  0.37751989  0.87047603  1
  Co  Co105  1  0.87227937  0.87861922  0.37449179  1
  Co  Co106  1  0.38301801  0.87599474  0.37025225  1
  Co  Co107  1  0.37239241  0.37245560  0.62693117  1
  Co  Co108  1  0.50194388  0.24838799  0.74930909  1
  Co  Co109  1  0.49321982  0.00190297  0.50545724  1
  Co  Co110  1  0.49511201  0.74937038  0.50226294  1
  Co  Co111  1  0.37281583  0.87227290  0.63135343  1
  Co  Co112  1  0.87817962  0.62153571  0.37482920  1
  Co  Co113  1  0.12746919  0.62893245  0.12536873  1
  Co  Co114  1  0.12170387  0.38135604  0.87464996  1
  Co  Co115  1  0.49860604  0.00108102  0.00013691  1
  Co  Co116  1  0.25105119  0.49882909  0.00103391  1
  Co  Co117  1  0.49617894  0.75028671  0.00008769  1
  Co  Co118  1  0.74879676  -0.00221826  0.74880702  1
  Co  Co119  1  0.24465451  0.25044906  0.75458669  1
  Co  Co120  1  0.37695845  0.12524203  0.37205615  1
  Co  Co121  1  0.25041180  0.24960958  0.49786797  1
  Co  Co122  1  0.12511101  0.37666130  0.37663617  1
  Co  Co123  1  0.25052162  0.00125159  0.25059720  1
  Co  Co124  1  0.12280818  0.12129058  0.87580808  1
  Co  Co125  1  0.37600515  0.12749148  0.87486655  1
  Co  Co126  1  -0.00001788  0.49963706  0.00794941  1
  Co  Co127  1  0.49993733  0.49637059  0.00109033  1
