# generated using pymatgen
data_Fe45Co19
_symmetry_space_group_name_H-M   'P 1'
_cell_length_a   11.41636296
_cell_length_b   11.41580084
_cell_length_c   11.41565539
_cell_angle_alpha   89.99856611
_cell_angle_beta   90.00671603
_cell_angle_gamma   89.99345087
_symmetry_Int_Tables_number   1
_chemical_formula_structural   Fe45Co19
_chemical_formula_sum   'Fe90 Co38'
_cell_volume   1487.76725453
_cell_formula_units_Z   2
loop_
 _symmetry_equiv_pos_site_id
 _symmetry_equiv_pos_as_xyz
  1  'x, y, z'
loop_
 _atom_site_type_symbol
 _atom_site_label
 _atom_site_symmetry_multiplicity
 _atom_site_fract_x
 _atom_site_fract_y
 _atom_site_fract_z
 _atom_site_occupancy
  Fe  Fe0  1  0.50001708  0.49873933  0.50094041  1
  Fe  Fe1  1  0.50206093  0.24821661  0.75181597  1
  Fe  Fe2  1  0.24989889  0.74659798  0.75013118  1
  Fe  Fe3  1  0.12509816  0.37592374  0.62632875  1
  Fe  Fe4  1  0.00078726  0.24927265  0.25040964  1
  Fe  Fe5  1  0.37421323  0.62419070  0.37785544  1
  Fe  Fe6  1  0.49851554  -0.00369932  0.25296522  1
  Fe  Fe7  1  0.37391944  0.87133436  0.62418563  1
  Fe  Fe8  1  0.37988409  0.12392274  0.87682714  1
  Fe  Fe9  1  0.50119969  0.75273297  0.25493286  1
  Fe  Fe10  1  0.12296500  0.12329372  0.87605509  1
  Fe  Fe11  1  0.37605967  0.37521789  0.87468810  1
  Fe  Fe12  1  0.87277665  0.62903501  0.12119871  1
  Fe  Fe13  1  0.50111339  0.75086597  0.75255814  1
  Fe  Fe14  1  0.37873909  0.62540724  0.12278316  1
  Fe  Fe15  1  0.62682979  0.37510253  0.37352525  1
  Fe  Fe16  1  0.75060382  0.74998052  0.75322333  1
  Fe  Fe17  1  0.62777434  0.37491691  0.62761455  1
  Fe  Fe18  1  0.74806195  0.75211476  0.24986214  1
  Fe  Fe19  1  -0.00060679  0.50025381  0.50049575  1
  Fe  Fe20  1  0.62401744  0.62940122  0.62260094  1
  Fe  Fe21  1  -0.00271861  0.24905902  0.75129386  1
  Fe  Fe22  1  0.74968616  0.25004938  0.49943223  1
  Fe  Fe23  1  0.24996439  0.00001566  0.00135504  1
  Fe  Fe24  1  0.50456075  0.49406148  0.00203368  1
  Fe  Fe25  1  0.37422313  0.37541521  0.37530343  1
  Fe  Fe26  1  0.50001272  0.49932455  0.24907108  1
  Fe  Fe27  1  0.25229356  0.00234909  0.74900634  1
  Fe  Fe28  1  0.37396829  0.87264766  0.12709604  1
  Fe  Fe29  1  0.87396738  0.37564151  0.37410222  1
  Fe  Fe30  1  -0.00331301  0.49788679  0.00180048  1
  Fe  Fe31  1  0.24776026  0.74360204  0.24801063  1
  Fe  Fe32  1  0.12151758  0.12450417  0.62323638  1
  Fe  Fe33  1  0.00038469  0.75117337  0.49851217  1
  Fe  Fe34  1  0.50121619  0.50120044  0.74957166  1
  Fe  Fe35  1  0.24917588  0.25134537  0.00040208  1
  Fe  Fe36  1  0.37671391  0.12792039  0.12434570  1
  Fe  Fe37  1  0.00079413  0.25245708  0.49796341  1
  Fe  Fe38  1  0.12586574  0.37629632  0.87389729  1
  Fe  Fe39  1  0.37620188  0.62352194  0.87626769  1
  Fe  Fe40  1  0.86871333  0.37623340  0.87308902  1
  Fe  Fe41  1  0.25014279  0.49867799  0.00365810  1
  Fe  Fe42  1  0.87227667  0.37203872  0.12603945  1
  Fe  Fe43  1  0.62556655  0.62717226  0.12426301  1
  Fe  Fe44  1  0.75119325  0.50114309  0.24814679  1
  Fe  Fe45  1  -0.00477820  0.00195630  0.74902020  1
  Fe  Fe46  1  0.87793594  0.12448116  0.12117994  1
  Fe  Fe47  1  0.49683247  -0.00416030  0.49731209  1
  Fe  Fe48  1  0.24769434  0.25031477  0.49724164  1
  Fe  Fe49  1  0.62720402  0.87334475  0.62324549  1
  Fe  Fe50  1  0.24925462  0.00415435  0.25083161  1
  Fe  Fe51  1  0.12374472  0.87596089  0.62641726  1
  Fe  Fe52  1  0.50236252  0.75319535  -0.00207904  1
  Fe  Fe53  1  0.62413916  0.12213899  0.62427028  1
  Fe  Fe54  1  0.00131332  0.25195635  -0.00159057  1
  Fe  Fe55  1  0.37664262  0.12693608  0.62167320  1
  Fe  Fe56  1  0.12544010  0.38185711  0.37014073  1
  Fe  Fe57  1  0.00215662  0.74858483  0.24840720  1
  Fe  Fe58  1  0.87746375  0.12322836  0.37700810  1
  Fe  Fe59  1  -0.00125975  0.75066894  0.75421657  1
  Fe  Fe60  1  0.75132441  0.50107222  0.50199017  1
  Fe  Fe61  1  0.87505305  0.62571338  0.37436427  1
  Fe  Fe62  1  0.75480401  -0.00217768  0.50227035  1
  Fe  Fe63  1  0.24980759  0.24750212  0.75096185  1
  Fe  Fe64  1  0.74434835  0.24811492  -0.00239004  1
  Fe  Fe65  1  0.37473328  0.37394557  0.62507873  1
  Fe  Fe66  1  0.12650795  0.87775986  0.87371124  1
  Fe  Fe67  1  0.62929590  0.62130102  0.87761668  1
  Fe  Fe68  1  0.25051276  0.50284525  0.74795393  1
  Fe  Fe69  1  0.62605544  0.88332383  0.87557042  1
  Fe  Fe70  1  0.75090660  0.24372418  0.75049521  1
  Fe  Fe71  1  0.62051716  0.12493938  0.12344924  1
  Fe  Fe72  1  0.50044204  0.25155744  0.25112600  1
  Fe  Fe73  1  0.62605115  0.62634399  0.37726880  1
  Fe  Fe74  1  0.24791368  0.24944681  0.24998924  1
  Fe  Fe75  1  0.12366724  0.62359156  0.87641851  1
  Fe  Fe76  1  0.24860761  0.74977080  -0.00022836  1
  Fe  Fe77  1  0.87435300  0.87571778  0.37178195  1
  Fe  Fe78  1  0.74903740  0.00002349  0.24617620  1
  Fe  Fe79  1  0.00120537  0.75375741  0.00037003  1
  Fe  Fe80  1  0.87610811  0.62809921  0.62637641  1
  Fe  Fe81  1  0.24988499  0.00235274  0.49760369  1
  Fe  Fe82  1  0.24692431  0.74448429  0.50259748  1
  Fe  Fe83  1  0.75059629  0.24612957  0.25148324  1
  Fe  Fe84  1  -0.00315118  0.49979988  0.75101788  1
  Fe  Fe85  1  0.87168322  0.87982524  0.87852170  1
  Fe  Fe86  1  0.37484180  0.87633000  0.87418928  1
  Fe  Fe87  1  0.12722084  0.87445558  0.37386403  1
  Fe  Fe88  1  0.00280235  -0.00002723  0.24702951  1
  Fe  Fe89  1  0.62369403  0.12285053  0.37689958  1
  Co  Co90  1  0.75441752  0.00256248  0.74635436  1
  Co  Co91  1  0.12150257  0.12427077  0.37584839  1
  Co  Co92  1  0.00254433  -0.00338235  0.00198027  1
  Co  Co93  1  0.87520793  0.87058636  0.62697654  1
  Co  Co94  1  0.11996973  0.62467572  0.62808316  1
  Co  Co95  1  0.37953714  0.62719957  0.62542516  1
  Co  Co96  1  0.62789936  0.37259611  0.12987510  1
  Co  Co97  1  0.62989554  0.87633106  0.37711266  1
  Co  Co98  1  0.62249980  0.11768298  0.87451125  1
  Co  Co99  1  0.12264674  0.62263791  0.12232534  1
  Co  Co100  1  0.25008654  0.50157545  0.50301749  1
  Co  Co101  1  0.12435840  0.62096503  0.37367290  1
  Co  Co102  1  0.87350412  0.62442719  0.87852583  1
  Co  Co103  1  0.74792160  0.75432787  -0.00154856  1
  Co  Co104  1  0.87399200  0.37362189  0.62542991  1
  Co  Co105  1  0.25328072  0.50295211  0.24611879  1
  Co  Co106  1  0.12843739  0.87480530  0.12692982  1
  Co  Co107  1  0.49724038  -0.00263584  0.00368206  1
  Co  Co108  1  0.50419913  0.25407732  -0.00323124  1
  Co  Co109  1  0.37805830  0.12852659  0.37531388  1
  Co  Co110  1  0.62319162  0.87345545  0.12558095  1
  Co  Co111  1  0.75196892  0.50490158  0.74574311  1
  Co  Co112  1  0.36768656  0.87190288  0.37396716  1
  Co  Co113  1  0.87794883  0.12789881  0.62052892  1
  Co  Co114  1  0.87449394  0.12251407  0.88016431  1
  Co  Co115  1  0.49885344  0.75338567  0.49559719  1
  Co  Co116  1  -0.00143081  -0.00456871  0.49965682  1
  Co  Co117  1  0.74792420  0.00109389  0.00601296  1
  Co  Co118  1  0.87474200  0.87443282  0.12576761  1
  Co  Co119  1  0.12381991  0.37621264  0.12800901  1
  Co  Co120  1  0.12406675  0.12664503  0.12268980  1
  Co  Co121  1  0.75424807  0.74992206  0.49822386  1
  Co  Co122  1  0.62954621  0.37748257  0.87007329  1
  Co  Co123  1  0.49707242  -0.00179173  0.74526023  1
  Co  Co124  1  0.50300430  0.25209103  0.50042263  1
  Co  Co125  1  -0.00535916  0.50257224  0.24621912  1
  Co  Co126  1  0.37554152  0.37274030  0.12539350  1
  Co  Co127  1  0.74949068  0.49755653  0.00453934  1
