# generated using pymatgen
data_Fe45Co19
_symmetry_space_group_name_H-M   'P 1'
_cell_length_a   11.41423751
_cell_length_b   11.41453020
_cell_length_c   11.41496125
_cell_angle_alpha   89.99916964
_cell_angle_beta   89.99920453
_cell_angle_gamma   90.00427544
_symmetry_Int_Tables_number   1
_chemical_formula_structural   Fe45Co19
_chemical_formula_sum   'Fe90 Co38'
_cell_volume   1487.23427914
_cell_formula_units_Z   2
loop_
 _symmetry_equiv_pos_site_id
 _symmetry_equiv_pos_as_xyz
  1  'x, y, z'
loop_
 _atom_site_type_symbol
 _atom_site_label
 _atom_site_symmetry_multiplicity
 _atom_site_fract_x
 _atom_site_fract_y
 _atom_site_fract_z
 _atom_site_occupancy
  Fe  Fe0  1  0.75070816  0.25209855  -0.00296625  1
  Fe  Fe1  1  0.87524790  0.87553574  0.12435754  1
  Fe  Fe2  1  0.00155329  0.75245706  0.50102902  1
  Fe  Fe3  1  0.25181737  0.49992600  0.74895434  1
  Fe  Fe4  1  0.75531394  -0.00251216  0.74842992  1
  Fe  Fe5  1  -0.00555141  -0.00336900  0.75024545  1
  Fe  Fe6  1  0.00014901  0.24759410  -0.00145288  1
  Fe  Fe7  1  0.12233678  0.12106759  0.12612882  1
  Fe  Fe8  1  0.62624073  0.12365577  0.87177562  1
  Fe  Fe9  1  0.25013996  0.49995892  0.00132082  1
  Fe  Fe10  1  0.12641996  0.62523083  0.62418448  1
  Fe  Fe11  1  0.12472614  0.12370310  0.87388012  1
  Fe  Fe12  1  0.75392784  -0.00091468  -0.00374617  1
  Fe  Fe13  1  -0.00103866  0.50049978  0.50089311  1
  Fe  Fe14  1  0.62720826  0.61866161  0.87311207  1
  Fe  Fe15  1  -0.00020348  0.24711249  0.25227956  1
  Fe  Fe16  1  0.24923562  0.75335899  0.50057532  1
  Fe  Fe17  1  0.50451563  0.25395892  0.74979365  1
  Fe  Fe18  1  0.37588726  0.12378182  0.37398935  1
  Fe  Fe19  1  0.24943847  0.75234326  0.24922438  1
  Fe  Fe20  1  0.87219624  0.37304042  0.37495925  1
  Fe  Fe21  1  0.37573520  0.12477001  0.12354681  1
  Fe  Fe22  1  0.37494526  0.37423376  0.62502834  1
  Fe  Fe23  1  0.62360291  0.87599348  0.12542410  1
  Fe  Fe24  1  0.62556110  0.62090258  0.62756736  1
  Fe  Fe25  1  0.37385233  0.37234992  0.87658290  1
  Fe  Fe26  1  -0.00534630  -0.00065289  0.50049676  1
  Fe  Fe27  1  0.49928735  0.50014940  -0.00010595  1
  Fe  Fe28  1  0.12369570  0.12058610  0.62457502  1
  Fe  Fe29  1  0.75194248  0.50244411  0.49910221  1
  Fe  Fe30  1  0.50210817  0.74956910  0.50079518  1
  Fe  Fe31  1  0.62549393  0.87691860  0.87404451  1
  Fe  Fe32  1  0.12653682  0.88150492  0.37514127  1
  Fe  Fe33  1  0.24906792  0.24687752  0.50150744  1
  Fe  Fe34  1  0.12419169  0.62519988  0.37483827  1
  Fe  Fe35  1  0.87253285  0.63121419  0.62556524  1
  Fe  Fe36  1  0.12566208  0.37431121  0.37664989  1
  Fe  Fe37  1  0.37610061  0.62705021  0.12606140  1
  Fe  Fe38  1  0.50241256  0.00230282  0.50109614  1
  Fe  Fe39  1  -0.00228283  0.50270160  0.00091185  1
  Fe  Fe40  1  0.24845105  0.25048533  0.74946209  1
  Fe  Fe41  1  0.87366618  0.62664946  0.12695767  1
  Fe  Fe42  1  0.62718156  0.37575761  0.12256753  1
  Fe  Fe43  1  0.00007174  0.24995563  0.74935905  1
  Fe  Fe44  1  0.12042229  0.87956895  0.12425650  1
  Fe  Fe45  1  0.50265653  0.74895695  -0.00139424  1
  Fe  Fe46  1  0.37436714  0.62779954  0.87374515  1
  Fe  Fe47  1  0.24981542  0.49965940  0.25033182  1
  Fe  Fe48  1  0.00181721  0.24861882  0.49972508  1
  Fe  Fe49  1  0.50212570  0.24895942  -0.00214509  1
  Fe  Fe50  1  0.62431675  0.87689254  0.37468304  1
  Fe  Fe51  1  0.74590973  0.74698447  0.25261504  1
  Fe  Fe52  1  0.50240737  0.75004028  0.75010849  1
  Fe  Fe53  1  0.37811082  0.12359403  0.62942728  1
  Fe  Fe54  1  0.37591846  0.87456502  0.62613768  1
  Fe  Fe55  1  0.87431064  0.62813550  0.87269150  1
  Fe  Fe56  1  0.87443594  0.37374651  0.12552073  1
  Fe  Fe57  1  0.25198633  0.00083653  -0.00276812  1
  Fe  Fe58  1  -0.00163890  0.50095916  0.74844830  1
  Fe  Fe59  1  0.74866944  0.25462352  0.74790751  1
  Fe  Fe60  1  0.12043500  0.87379566  0.87704715  1
  Fe  Fe61  1  0.86927312  0.12820337  0.37782767  1
  Fe  Fe62  1  0.62802532  0.87642912  0.62483887  1
  Fe  Fe63  1  0.87060837  0.87279622  0.37726740  1
  Fe  Fe64  1  0.24774114  0.24671716  0.25017466  1
  Fe  Fe65  1  0.12360937  0.62608508  0.87521916  1
  Fe  Fe66  1  0.49719170  0.50032680  0.50138833  1
  Fe  Fe67  1  0.24744632  0.75059946  0.00240513  1
  Fe  Fe68  1  0.24778892  0.75204194  0.74838260  1
  Fe  Fe69  1  0.37665321  0.37172986  0.37378268  1
  Fe  Fe70  1  0.87584830  0.37318891  0.62387057  1
  Fe  Fe71  1  0.25309921  -0.00263298  0.75230285  1
  Fe  Fe72  1  0.49794503  0.00116008  -0.00432542  1
  Fe  Fe73  1  0.50433616  0.24841030  0.50323546  1
  Fe  Fe74  1  0.74932224  0.74938083  -0.00152077  1
  Fe  Fe75  1  0.37469166  0.37171853  0.12516590  1
  Fe  Fe76  1  0.25148373  0.49922526  0.50034627  1
  Fe  Fe77  1  0.50637995  0.24564219  0.24823709  1
  Fe  Fe78  1  0.37852022  0.87574683  0.12593870  1
  Fe  Fe79  1  0.74764255  0.00326260  0.25034688  1
  Fe  Fe80  1  0.74861532  0.50231883  0.25099998  1
  Fe  Fe81  1  0.62668323  0.37355738  0.37655235  1
  Fe  Fe82  1  0.00021110  0.50056968  0.25039585  1
  Fe  Fe83  1  0.37598355  0.62698735  0.37518499  1
  Fe  Fe84  1  0.12430962  0.37446303  0.12434509  1
  Fe  Fe85  1  0.00086159  0.75185618  0.24991927  1
  Fe  Fe86  1  0.12366648  0.37576592  0.87529586  1
  Fe  Fe87  1  0.37748636  0.87805640  0.37289803  1
  Fe  Fe88  1  0.50177099  0.50091301  0.24873905  1
  Fe  Fe89  1  0.87387731  0.12422056  0.12390258  1
  Co  Co90  1  0.87499824  0.12719631  0.62484861  1
  Co  Co91  1  0.75385978  0.50010131  -0.00010687  1
  Co  Co92  1  0.37646358  0.12849870  0.87248283  1
  Co  Co93  1  0.87829981  0.37405123  0.87509872  1
  Co  Co94  1  0.87789189  0.86953884  0.87575283  1
  Co  Co95  1  0.62747386  0.12263434  0.11802608  1
  Co  Co96  1  -0.00522248  0.00098302  0.25423556  1
  Co  Co97  1  0.37519551  0.86980730  0.87571949  1
  Co  Co98  1  0.62567695  0.62496302  0.12264195  1
  Co  Co99  1  0.75474185  0.49600322  0.74954540  1
  Co  Co100  1  0.12507485  0.37551460  0.62471940  1
  Co  Co101  1  -0.00128178  0.74731886  0.00261816  1
  Co  Co102  1  0.74601725  0.25107999  0.50633801  1
  Co  Co103  1  0.87269678  0.12786175  0.87238887  1
  Co  Co104  1  0.75065826  0.00043979  0.50222084  1
  Co  Co105  1  0.12461730  0.87997529  0.62494489  1
  Co  Co106  1  0.50189401  0.74889324  0.25048600  1
  Co  Co107  1  0.50381641  0.00468801  0.24964037  1
  Co  Co108  1  0.49848786  -0.00349602  0.75191520  1
  Co  Co109  1  0.37462462  0.62778091  0.62512046  1
  Co  Co110  1  -0.00399958  0.00242373  -0.00393937  1
  Co  Co111  1  0.74655937  0.75201195  0.75216702  1
  Co  Co112  1  0.74739083  0.24797429  0.24703605  1
  Co  Co113  1  0.87142665  0.86914363  0.62277383  1
  Co  Co114  1  0.62573053  0.37927755  0.87610165  1
  Co  Co115  1  0.62111735  0.62245136  0.37648802  1
  Co  Co116  1  0.87836892  0.62700576  0.37459506  1
  Co  Co117  1  0.12550063  0.12096501  0.37740159  1
  Co  Co118  1  0.25431679  0.00124623  0.50228930  1
  Co  Co119  1  0.00154718  0.75178287  0.74703516  1
  Co  Co120  1  0.74533159  0.74650811  0.49748214  1
  Co  Co121  1  0.62494247  0.38180885  0.62348999  1
  Co  Co122  1  0.24744707  0.24751915  0.00058623  1
  Co  Co123  1  0.62609818  0.12141620  0.62988618  1
  Co  Co124  1  0.62874832  0.12615172  0.37859163  1
  Co  Co125  1  0.25156622  0.00035994  0.24798165  1
  Co  Co126  1  0.12491734  0.62458708  0.12679658  1
  Co  Co127  1  0.49512823  0.49859298  0.75100300  1
