# generated using pymatgen
data_Fe45Co19
_symmetry_space_group_name_H-M   'P 1'
_cell_length_a   11.41592333
_cell_length_b   11.41533319
_cell_length_c   11.41382228
_cell_angle_alpha   89.99499578
_cell_angle_beta   89.99890812
_cell_angle_gamma   89.99663933
_symmetry_Int_Tables_number   1
_chemical_formula_structural   Fe45Co19
_chemical_formula_sum   'Fe90 Co38'
_cell_volume   1487.41014413
_cell_formula_units_Z   2
loop_
 _symmetry_equiv_pos_site_id
 _symmetry_equiv_pos_as_xyz
  1  'x, y, z'
loop_
 _atom_site_type_symbol
 _atom_site_label
 _atom_site_symmetry_multiplicity
 _atom_site_fract_x
 _atom_site_fract_y
 _atom_site_fract_z
 _atom_site_occupancy
  Fe  Fe0  1  0.37496774  0.62508365  0.62575603  1
  Fe  Fe1  1  0.37797225  0.37619373  0.87936474  1
  Fe  Fe2  1  0.62422704  0.87439305  0.62699294  1
  Fe  Fe3  1  0.62028665  0.37255492  0.12999203  1
  Fe  Fe4  1  -0.00022351  0.24822441  0.49984144  1
  Fe  Fe5  1  0.50102199  0.74789826  0.49892904  1
  Fe  Fe6  1  0.37214554  0.12292451  0.87214042  1
  Fe  Fe7  1  0.75080890  0.75411970  0.49715009  1
  Fe  Fe8  1  0.37975546  0.37429422  0.37155546  1
  Fe  Fe9  1  0.62622742  0.62479963  0.62718031  1
  Fe  Fe10  1  0.75447958  0.75051844  0.24925739  1
  Fe  Fe11  1  0.87105895  0.12481735  0.12504425  1
  Fe  Fe12  1  0.37641271  0.87429818  0.12417715  1
  Fe  Fe13  1  0.74837123  -0.00119635  -0.00125677  1
  Fe  Fe14  1  0.74880454  0.25094220  0.49971608  1
  Fe  Fe15  1  0.37732043  0.87346005  0.37391952  1
  Fe  Fe16  1  0.37119993  0.62572568  0.37010829  1
  Fe  Fe17  1  -0.00267347  0.24959988  0.24886937  1
  Fe  Fe18  1  0.12539003  0.62456880  0.62673650  1
  Fe  Fe19  1  0.75235502  0.50109222  0.24525952  1
  Fe  Fe20  1  0.88011224  0.37871297  0.12119118  1
  Fe  Fe21  1  0.87228147  0.12277263  0.37615494  1
  Fe  Fe22  1  0.50138060  0.00264326  0.24932245  1
  Fe  Fe23  1  0.62256825  0.37380822  0.37087774  1
  Fe  Fe24  1  0.87390249  0.62605575  0.62415669  1
  Fe  Fe25  1  0.62695356  0.12812924  0.37122973  1
  Fe  Fe26  1  0.62805931  0.62572954  0.37239899  1
  Fe  Fe27  1  0.87664469  0.87690085  0.62118719  1
  Fe  Fe28  1  0.24945776  0.75176899  0.00193452  1
  Fe  Fe29  1  0.87474781  0.37651237  0.37571863  1
  Fe  Fe30  1  0.12287612  0.37636158  0.37197725  1
  Fe  Fe31  1  0.87088835  0.12847360  0.87513380  1
  Fe  Fe32  1  0.62598171  0.12558492  0.62614163  1
  Fe  Fe33  1  0.87671361  0.87424086  0.87857024  1
  Fe  Fe34  1  0.25126300  0.49930487  0.49853838  1
  Fe  Fe35  1  0.24913980  0.75056543  0.49929611  1
  Fe  Fe36  1  0.12213628  0.87902256  0.12215610  1
  Fe  Fe37  1  0.12643464  0.12644003  0.37175234  1
  Fe  Fe38  1  0.12839102  0.12705718  0.62880850  1
  Fe  Fe39  1  0.37713864  0.37544282  0.62384101  1
  Fe  Fe40  1  0.62315953  0.37564884  0.87371845  1
  Fe  Fe41  1  0.37334061  0.12474797  0.12557016  1
  Fe  Fe42  1  0.74980327  -0.00380103  0.25191324  1
  Fe  Fe43  1  0.62357364  0.37577251  0.62653363  1
  Fe  Fe44  1  0.74810906  -0.00023513  0.75220247  1
  Fe  Fe45  1  0.37792275  0.62241953  0.87943987  1
  Fe  Fe46  1  0.50296262  0.00092591  0.49846995  1
  Fe  Fe47  1  0.75139441  0.49878503  0.75377181  1
  Fe  Fe48  1  0.00308131  0.24519273  -0.00000557  1
  Fe  Fe49  1  0.12477314  0.37370715  0.87556378  1
  Fe  Fe50  1  -0.00331807  0.74626148  0.24933598  1
  Fe  Fe51  1  -0.00123001  0.74859367  0.75357873  1
  Fe  Fe52  1  0.50135382  0.74778409  0.75416497  1
  Fe  Fe53  1  0.37760726  0.87517403  0.62552777  1
  Fe  Fe54  1  0.12163747  0.87236282  0.62414892  1
  Fe  Fe55  1  0.87699944  0.87319123  0.12089514  1
  Fe  Fe56  1  -0.00064893  0.24989140  0.75188221  1
  Fe  Fe57  1  0.25008221  -0.00268323  0.24946292  1
  Fe  Fe58  1  0.12400599  0.87961529  0.87834750  1
  Fe  Fe59  1  0.25100663  0.75169172  0.75189842  1
  Fe  Fe60  1  0.12060445  0.87426745  0.37574221  1
  Fe  Fe61  1  0.12538218  0.62172649  0.12714395  1
  Fe  Fe62  1  0.50090398  0.50183893  0.49783572  1
  Fe  Fe63  1  0.37330404  0.12464027  0.62617391  1
  Fe  Fe64  1  0.37421271  0.12550000  0.37546086  1
  Fe  Fe65  1  0.74841567  0.49879134  0.50006478  1
  Fe  Fe66  1  0.49924439  0.24919118  0.74981421  1
  Fe  Fe67  1  -0.00078910  0.50274575  0.49906082  1
  Fe  Fe68  1  0.50191401  0.24608453  0.00192807  1
  Fe  Fe69  1  0.50223945  0.00229404  -0.00062056  1
  Fe  Fe70  1  0.25331843  0.49771285  0.75115582  1
  Fe  Fe71  1  0.25041552  0.25235194  0.49965461  1
  Fe  Fe72  1  -0.00182124  0.00162569  0.24873206  1
  Fe  Fe73  1  0.24979750  0.49660756  0.00499875  1
  Fe  Fe74  1  0.74750793  0.25290710  0.00224267  1
  Fe  Fe75  1  0.12789193  0.62409550  0.87486979  1
  Fe  Fe76  1  0.74991590  0.75004022  0.75439683  1
  Fe  Fe77  1  0.24753056  0.24857759  0.00191717  1
  Fe  Fe78  1  0.87549576  0.37496750  0.62593444  1
  Fe  Fe79  1  0.87213607  0.12368657  0.62360616  1
  Fe  Fe80  1  0.25083365  0.25349786  0.24672963  1
  Fe  Fe81  1  0.62381249  0.87419511  0.12463929  1
  Fe  Fe82  1  0.37666393  0.87722997  0.87560171  1
  Fe  Fe83  1  0.87147150  0.62444129  0.88394129  1
  Fe  Fe84  1  0.24813187  -0.00167910  0.50007733  1
  Fe  Fe85  1  0.12694850  0.62345059  0.37172261  1
  Fe  Fe86  1  -0.00301179  0.50057447  0.75446120  1
  Fe  Fe87  1  0.49975954  0.74575965  0.24602128  1
  Fe  Fe88  1  -0.00024214  0.00160273  0.75126354  1
  Fe  Fe89  1  0.12437204  0.37676527  0.62629524  1
  Co  Co90  1  0.87393113  0.62431353  0.11699526  1
  Co  Co91  1  -0.00295095  0.00631350  -0.00073132  1
  Co  Co92  1  0.00420824  0.74768073  0.00032814  1
  Co  Co93  1  0.74925409  0.25209504  0.74881881  1
  Co  Co94  1  0.50323752  0.50178652  0.00729497  1
  Co  Co95  1  0.74466011  -0.00201597  0.49707314  1
  Co  Co96  1  0.74567772  0.75350462  -0.00148623  1
  Co  Co97  1  0.75398642  0.25354587  0.24847090  1
  Co  Co98  1  0.25259724  0.49382596  0.24687550  1
  Co  Co99  1  0.50064595  0.74952063  -0.00047070  1
  Co  Co100  1  0.24726053  0.75471707  0.24720466  1
  Co  Co101  1  0.62943915  0.12370916  0.12633142  1
  Co  Co102  1  0.37055524  0.62633563  0.12436374  1
  Co  Co103  1  0.87111363  0.62364952  0.37696537  1
  Co  Co104  1  0.62731541  0.12706229  0.87571441  1
  Co  Co105  1  0.74484423  0.49407676  0.00168151  1
  Co  Co106  1  0.87971449  0.87786676  0.37839934  1
  Co  Co107  1  0.62313242  0.87602029  0.87488361  1
  Co  Co108  1  0.62515261  0.62195812  0.87682220  1
  Co  Co109  1  -0.00101756  0.74520590  0.49784619  1
  Co  Co110  1  0.49899864  0.50025013  0.74958271  1
  Co  Co111  1  -0.00431354  0.50264515  0.25038029  1
  Co  Co112  1  0.50149806  0.24912163  0.50057379  1
  Co  Co113  1  0.62129248  0.87163702  0.37135512  1
  Co  Co114  1  0.25245090  0.25495615  0.75137781  1
  Co  Co115  1  0.87536679  0.37269865  0.87892551  1
  Co  Co116  1  0.49874241  0.24466034  0.24788751  1
  Co  Co117  1  0.62982640  0.62824661  0.12311491  1
  Co  Co118  1  0.12037888  0.37471708  0.12587927  1
  Co  Co119  1  0.37931997  0.37303455  0.12395120  1
  Co  Co120  1  0.49960644  0.50517788  0.24696258  1
  Co  Co121  1  0.00314439  0.50142744  -0.00360814  1
  Co  Co122  1  0.50226169  0.00202777  0.75050753  1
  Co  Co123  1  0.00395858  0.00550714  0.50120156  1
  Co  Co124  1  0.12632011  0.12349197  0.12748855  1
  Co  Co125  1  0.24904794  -0.00477372  0.74785879  1
  Co  Co126  1  0.12871404  0.12276960  0.87291772  1
  Co  Co127  1  0.25167260  0.00085605  0.00185536  1
