# generated using pymatgen
data_Fe45Co19
_symmetry_space_group_name_H-M   'P 1'
_cell_length_a   11.41426799
_cell_length_b   11.41460273
_cell_length_c   11.41516859
_cell_angle_alpha   90.00294847
_cell_angle_beta   89.99965930
_cell_angle_gamma   90.00966565
_symmetry_Int_Tables_number   1
_chemical_formula_structural   Fe45Co19
_chemical_formula_sum   'Fe90 Co38'
_cell_volume   1487.27469574
_cell_formula_units_Z   2
loop_
 _symmetry_equiv_pos_site_id
 _symmetry_equiv_pos_as_xyz
  1  'x, y, z'
loop_
 _atom_site_type_symbol
 _atom_site_label
 _atom_site_symmetry_multiplicity
 _atom_site_fract_x
 _atom_site_fract_y
 _atom_site_fract_z
 _atom_site_occupancy
  Fe  Fe0  1  0.49790935  0.00047536  0.49693438  1
  Fe  Fe1  1  0.74955350  -0.00023960  0.50039178  1
  Fe  Fe2  1  0.49836142  -0.00020071  0.75254196  1
  Fe  Fe3  1  0.12650811  0.12769830  0.37311315  1
  Fe  Fe4  1  0.74914951  0.75008724  0.49996715  1
  Fe  Fe5  1  0.50081850  -0.00107483  0.00103228  1
  Fe  Fe6  1  0.25074939  -0.00042044  0.75178334  1
  Fe  Fe7  1  0.87425721  0.37386626  0.37449600  1
  Fe  Fe8  1  0.12408403  0.12573294  0.87834228  1
  Fe  Fe9  1  0.87580314  0.87426424  0.62623835  1
  Fe  Fe10  1  0.87326242  0.12556013  0.12211611  1
  Fe  Fe11  1  0.74558341  0.00370603  0.24801315  1
  Fe  Fe12  1  0.62451532  0.62277832  0.12320514  1
  Fe  Fe13  1  -0.00513016  -0.00436839  -0.00057451  1
  Fe  Fe14  1  0.12445558  0.37531086  0.87338187  1
  Fe  Fe15  1  0.25047994  0.74877824  0.24623885  1
  Fe  Fe16  1  0.50098832  0.25287752  0.50359403  1
  Fe  Fe17  1  0.75185920  0.00245048  0.75207792  1
  Fe  Fe18  1  0.37511350  0.62275914  0.12016695  1
  Fe  Fe19  1  0.24979970  0.50312646  0.75329377  1
  Fe  Fe20  1  0.24767682  0.74921975  0.00269969  1
  Fe  Fe21  1  0.75024244  0.75099369  0.00190950  1
  Fe  Fe22  1  0.25506369  0.00036555  0.24871266  1
  Fe  Fe23  1  0.63047556  0.37862489  0.87187570  1
  Fe  Fe24  1  0.49973532  0.75176663  0.50000376  1
  Fe  Fe25  1  0.25198524  -0.00138929  0.00088180  1
  Fe  Fe26  1  -0.00263010  0.25471103  0.00032676  1
  Fe  Fe27  1  0.37303550  0.37128418  0.37058504  1
  Fe  Fe28  1  0.00194557  0.25228163  0.49956940  1
  Fe  Fe29  1  0.25295481  -0.00215809  0.49896931  1
  Fe  Fe30  1  0.62126716  0.87563479  0.37147048  1
  Fe  Fe31  1  -0.00044658  0.75207216  0.00346664  1
  Fe  Fe32  1  0.37316738  0.37572296  0.87305054  1
  Fe  Fe33  1  0.00091563  0.74725439  0.75068205  1
  Fe  Fe34  1  0.62701705  0.87408127  0.87469918  1
  Fe  Fe35  1  0.25028080  0.25369540  0.00316568  1
  Fe  Fe36  1  0.75301303  0.25534964  -0.00106104  1
  Fe  Fe37  1  0.87514295  0.37478851  0.63150132  1
  Fe  Fe38  1  0.24931831  0.25158219  0.50081956  1
  Fe  Fe39  1  0.25090490  0.49735281  0.49667531  1
  Fe  Fe40  1  0.12426277  0.87527857  0.62593333  1
  Fe  Fe41  1  0.74863096  0.74596071  0.74712603  1
  Fe  Fe42  1  -0.00077164  0.75110092  0.49689340  1
  Fe  Fe43  1  0.37530498  0.62698204  0.37616358  1
  Fe  Fe44  1  -0.00079714  0.49901760  0.25417126  1
  Fe  Fe45  1  0.87795805  0.62463002  0.62192462  1
  Fe  Fe46  1  -0.00078208  0.00115760  0.24968034  1
  Fe  Fe47  1  0.37892800  0.62063515  0.62502078  1
  Fe  Fe48  1  0.87628347  0.12663740  0.62705708  1
  Fe  Fe49  1  0.12407012  0.62283766  0.62240666  1
  Fe  Fe50  1  0.12440812  0.87303894  0.87521421  1
  Fe  Fe51  1  0.37493482  0.87163553  0.87773343  1
  Fe  Fe52  1  0.12708408  0.87478946  0.37337465  1
  Fe  Fe53  1  0.37593173  0.12555533  0.62571755  1
  Fe  Fe54  1  0.24805261  0.24892284  0.74938365  1
  Fe  Fe55  1  0.62630618  0.37425966  0.37592414  1
  Fe  Fe56  1  0.62417311  0.37561973  0.12514235  1
  Fe  Fe57  1  0.50363158  0.25296265  0.74759261  1
  Fe  Fe58  1  0.49971571  0.49865461  -0.00272301  1
  Fe  Fe59  1  0.50020663  0.25370979  -0.00125793  1
  Fe  Fe60  1  0.62447425  0.62336461  0.37863873  1
  Fe  Fe61  1  -0.00043755  -0.00017018  0.49808375  1
  Fe  Fe62  1  0.74980962  0.25001804  0.24766193  1
  Fe  Fe63  1  0.12476453  0.62331460  0.37553766  1
  Fe  Fe64  1  0.87288136  0.87475131  0.37167227  1
  Fe  Fe65  1  0.12482272  0.12338945  0.62498331  1
  Fe  Fe66  1  0.25188552  0.75238651  0.50192828  1
  Fe  Fe67  1  0.37515452  0.12817268  0.87521857  1
  Fe  Fe68  1  0.49926356  0.74793085  0.75120774  1
  Fe  Fe69  1  0.37712989  0.12721226  0.12272875  1
  Fe  Fe70  1  0.62164444  0.87456561  0.12695723  1
  Fe  Fe71  1  0.00138599  0.74946429  0.24940406  1
  Fe  Fe72  1  0.49925254  0.50155640  0.25167204  1
  Fe  Fe73  1  0.12448511  0.37771891  0.62609133  1
  Fe  Fe74  1  0.74788717  0.74732153  0.25052979  1
  Fe  Fe75  1  0.87539664  0.62297344  0.87721056  1
  Fe  Fe76  1  0.50205895  0.24646553  0.24905108  1
  Fe  Fe77  1  0.87299567  0.12698570  0.37525512  1
  Fe  Fe78  1  -0.00071046  0.00139780  0.75314662  1
  Fe  Fe79  1  0.12350000  0.12437695  0.12384491  1
  Fe  Fe80  1  0.74719004  0.24950659  0.50489801  1
  Fe  Fe81  1  0.62718539  0.12517573  0.87813760  1
  Fe  Fe82  1  0.12687241  0.37735377  0.13097360  1
  Fe  Fe83  1  0.74918761  0.50016569  0.24985909  1
  Fe  Fe84  1  0.87550728  0.62286287  0.12611098  1
  Fe  Fe85  1  0.62364235  0.87634410  0.62646327  1
  Fe  Fe86  1  0.00052807  0.49786106  -0.00130242  1
  Fe  Fe87  1  0.62566431  0.62284525  0.87548888  1
  Fe  Fe88  1  0.75251481  0.50093078  0.50187531  1
  Fe  Fe89  1  0.25154628  0.74823224  0.74931577  1
  Co  Co90  1  0.50360416  0.74889274  -0.00124478  1
  Co  Co91  1  0.87271823  0.37761233  0.86873791  1
  Co  Co92  1  0.75058515  0.49900812  0.00167696  1
  Co  Co93  1  0.37719767  0.37668915  0.12707803  1
  Co  Co94  1  0.37687530  0.87559505  0.62615958  1
  Co  Co95  1  0.87488600  0.12811936  0.87787357  1
  Co  Co96  1  0.62231693  0.12157954  0.62487532  1
  Co  Co97  1  0.87501717  0.37843630  0.12722298  1
  Co  Co98  1  0.62572082  0.12726408  0.37816166  1
  Co  Co99  1  -0.00091826  0.49649044  0.49849290  1
  Co  Co100  1  0.62617023  0.38143729  0.62519333  1
  Co  Co101  1  0.75028039  0.50651054  0.74616684  1
  Co  Co102  1  0.62665383  0.12816234  0.11914356  1
  Co  Co103  1  0.87469365  0.62492172  0.37403073  1
  Co  Co104  1  0.75101295  -0.00426379  0.00018772  1
  Co  Co105  1  0.00141945  0.50223406  0.75082048  1
  Co  Co106  1  0.12669669  0.37358403  0.37073976  1
  Co  Co107  1  -0.00216858  0.24918437  0.24890260  1
  Co  Co108  1  0.74608490  0.24677790  0.74889015  1
  Co  Co109  1  0.49952358  0.74423089  0.24885021  1
  Co  Co110  1  0.25337654  0.50288262  0.25116982  1
  Co  Co111  1  0.12339423  0.62034584  0.12517410  1
  Co  Co112  1  0.00209972  0.24908557  0.75140666  1
  Co  Co113  1  0.61896562  0.62174980  0.62074302  1
  Co  Co114  1  0.49965056  0.00578291  0.24886271  1
  Co  Co115  1  0.37438745  0.62504801  0.87822720  1
  Co  Co116  1  0.25034840  0.24713070  0.24582233  1
  Co  Co117  1  0.12518027  0.87773390  0.12577339  1
  Co  Co118  1  0.37281587  0.37716762  0.62784149  1
  Co  Co119  1  0.37876682  0.87276279  0.12505428  1
  Co  Co120  1  0.37479840  0.12882829  0.37707866  1
  Co  Co121  1  0.50021152  0.49908190  0.75345805  1
  Co  Co122  1  0.37696047  0.87263411  0.37099995  1
  Co  Co123  1  0.12452448  0.62663171  0.87799247  1
  Co  Co124  1  0.24912061  0.49683250  -0.00091468  1
  Co  Co125  1  0.87368586  0.87089153  0.87222267  1
  Co  Co126  1  0.87246256  0.87381555  0.12987591  1
  Co  Co127  1  0.49667840  0.49486603  0.49577267  1
