# generated using pymatgen
data_Fe45Co19
_symmetry_space_group_name_H-M   'P 1'
_cell_length_a   11.41480415
_cell_length_b   11.41497874
_cell_length_c   11.41450681
_cell_angle_alpha   90.00397007
_cell_angle_beta   90.00316718
_cell_angle_gamma   89.99029959
_symmetry_Int_Tables_number   1
_chemical_formula_structural   Fe45Co19
_chemical_formula_sum   'Fe90 Co38'
_cell_volume   1487.30731923
_cell_formula_units_Z   2
loop_
 _symmetry_equiv_pos_site_id
 _symmetry_equiv_pos_as_xyz
  1  'x, y, z'
loop_
 _atom_site_type_symbol
 _atom_site_label
 _atom_site_symmetry_multiplicity
 _atom_site_fract_x
 _atom_site_fract_y
 _atom_site_fract_z
 _atom_site_occupancy
  Fe  Fe0  1  0.37372243  0.87460401  0.12525908  1
  Fe  Fe1  1  0.50132012  0.74738130  -0.00148422  1
  Fe  Fe2  1  0.25037459  0.50071299  0.24941399  1
  Fe  Fe3  1  0.37544241  0.62440693  0.37701051  1
  Fe  Fe4  1  0.12583284  0.87142549  0.37360675  1
  Fe  Fe5  1  0.37396526  0.37567295  0.12249814  1
  Fe  Fe6  1  0.49954584  0.75107643  0.74858294  1
  Fe  Fe7  1  0.74931831  0.49983745  0.50055956  1
  Fe  Fe8  1  0.12446222  0.62452153  0.12445281  1
  Fe  Fe9  1  0.37494809  0.12469729  0.37741172  1
  Fe  Fe10  1  0.87884911  0.62374226  0.87633081  1
  Fe  Fe11  1  0.37665483  0.37607178  0.62423328  1
  Fe  Fe12  1  0.25002181  0.50015391  0.50207429  1
  Fe  Fe13  1  0.12536067  0.37336544  0.62583907  1
  Fe  Fe14  1  0.87460769  0.87521758  0.62534817  1
  Fe  Fe15  1  0.62349988  0.37494088  0.37650609  1
  Fe  Fe16  1  0.62501496  0.87415136  0.12689091  1
  Fe  Fe17  1  -0.00052515  0.74947004  0.49827111  1
  Fe  Fe18  1  0.49968994  0.74891686  0.50268666  1
  Fe  Fe19  1  0.37358783  0.12519255  0.12516014  1
  Fe  Fe20  1  0.24719541  0.25108685  -0.00170754  1
  Fe  Fe21  1  0.00232467  0.25350382  0.25119835  1
  Fe  Fe22  1  0.24963203  0.00073684  0.25191692  1
  Fe  Fe23  1  0.12459660  0.88087829  0.87695968  1
  Fe  Fe24  1  0.62435990  0.62340648  0.37448878  1
  Fe  Fe25  1  0.37526823  0.12547256  0.87444458  1
  Fe  Fe26  1  0.12633144  0.87512102  0.12646189  1
  Fe  Fe27  1  0.00243807  0.75074078  -0.00060867  1
  Fe  Fe28  1  0.37489847  0.37674158  0.37648130  1
  Fe  Fe29  1  0.75222103  0.00174174  0.49735760  1
  Fe  Fe30  1  0.75013919  0.74916324  0.49946406  1
  Fe  Fe31  1  0.00269355  0.24755111  0.75013684  1
  Fe  Fe32  1  0.75313812  0.74535670  0.25097289  1
  Fe  Fe33  1  0.49850280  0.25027640  0.50138946  1
  Fe  Fe34  1  0.87463220  0.37495349  0.62699043  1
  Fe  Fe35  1  0.37450569  0.62414814  0.12257411  1
  Fe  Fe36  1  0.75191728  0.50104676  0.24768478  1
  Fe  Fe37  1  0.24568976  0.00372982  0.74787073  1
  Fe  Fe38  1  0.87457096  0.87364782  0.12729522  1
  Fe  Fe39  1  0.75097360  0.00346286  0.25308668  1
  Fe  Fe40  1  0.36976874  0.62488715  0.87085421  1
  Fe  Fe41  1  0.49939434  -0.00003677  0.00078414  1
  Fe  Fe42  1  0.50057775  0.49909453  0.75131383  1
  Fe  Fe43  1  -0.00239117  0.49934185  0.24553949  1
  Fe  Fe44  1  0.75040381  0.50026281  0.75235646  1
  Fe  Fe45  1  0.62527104  0.37381636  0.62644068  1
  Fe  Fe46  1  0.87495096  0.62572486  0.62511642  1
  Fe  Fe47  1  0.24806152  0.25081625  0.25374928  1
  Fe  Fe48  1  0.87554223  0.37647647  0.37412127  1
  Fe  Fe49  1  0.12338781  0.62365648  0.37343789  1
  Fe  Fe50  1  0.12324640  0.12723292  0.38334285  1
  Fe  Fe51  1  0.37345175  0.87411547  0.37434259  1
  Fe  Fe52  1  0.87983585  0.12425016  0.62218478  1
  Fe  Fe53  1  0.12509345  0.12389113  0.12277869  1
  Fe  Fe54  1  0.87730219  0.37641930  0.87609667  1
  Fe  Fe55  1  0.24836293  0.24666835  0.74805984  1
  Fe  Fe56  1  0.75200521  0.24896125  0.49846021  1
  Fe  Fe57  1  0.62340619  0.12345027  0.12547025  1
  Fe  Fe58  1  0.74813998  0.24933613  0.25122188  1
  Fe  Fe59  1  0.87946837  0.12298410  0.87663688  1
  Fe  Fe60  1  0.62346503  0.37675552  0.12107170  1
  Fe  Fe61  1  0.00059372  0.49891483  0.50275300  1
  Fe  Fe62  1  0.74839828  0.74782799  -0.00093742  1
  Fe  Fe63  1  0.62544912  0.62585115  0.62765774  1
  Fe  Fe64  1  0.37308220  0.87635743  0.62582514  1
  Fe  Fe65  1  0.87543054  0.87644154  0.87396163  1
  Fe  Fe66  1  0.49975293  0.49982180  0.24884623  1
  Fe  Fe67  1  0.37689865  0.37387473  0.87706396  1
  Fe  Fe68  1  0.74875078  0.24932835  -0.00102640  1
  Fe  Fe69  1  0.49860252  0.74917319  0.24994537  1
  Fe  Fe70  1  0.24770489  0.74953417  -0.00205548  1
  Fe  Fe71  1  0.62663557  0.87363436  0.87230617  1
  Fe  Fe72  1  0.75121419  0.00093150  0.74947271  1
  Fe  Fe73  1  0.75085884  0.00051238  0.00024985  1
  Fe  Fe74  1  0.12401945  0.87703181  0.62328683  1
  Fe  Fe75  1  0.74784458  0.50181469  -0.00102356  1
  Fe  Fe76  1  0.62308931  0.12662606  0.87447828  1
  Fe  Fe77  1  0.50007440  0.24975770  0.24924825  1
  Fe  Fe78  1  0.12816240  0.62487279  0.63035492  1
  Fe  Fe79  1  0.87664592  0.12756509  0.12601491  1
  Fe  Fe80  1  0.00166839  0.75069950  0.75166796  1
  Fe  Fe81  1  0.37329292  0.87625293  0.87452783  1
  Fe  Fe82  1  0.00307487  0.25400921  0.00031789  1
  Fe  Fe83  1  0.62406926  0.12562800  0.62466325  1
  Fe  Fe84  1  0.75039804  0.24916740  0.75177410  1
  Fe  Fe85  1  0.62528467  0.87602055  0.37405712  1
  Fe  Fe86  1  0.50098307  0.00034794  0.74894495  1
  Fe  Fe87  1  0.25081322  0.74852974  0.50139636  1
  Fe  Fe88  1  0.00012686  -0.00044376  0.25244131  1
  Fe  Fe89  1  0.50006931  -0.00110590  0.50029930  1
  Co  Co90  1  -0.00125838  0.50002120  0.74768849  1
  Co  Co91  1  0.24797552  0.49935135  -0.00092447  1
  Co  Co92  1  0.62749665  0.87537868  0.62528857  1
  Co  Co93  1  -0.00238702  -0.00471529  0.49609351  1
  Co  Co94  1  0.00226324  0.00105663  0.74832514  1
  Co  Co95  1  0.50081057  0.50173580  0.50216351  1
  Co  Co96  1  0.12908146  0.37515449  0.12686886  1
  Co  Co97  1  0.00361523  0.49663944  0.00223740  1
  Co  Co98  1  0.25255982  0.00024132  0.00100988  1
  Co  Co99  1  0.62150476  0.12504660  0.37646421  1
  Co  Co100  1  0.87685971  0.62201271  0.37717828  1
  Co  Co101  1  0.25145735  0.74751519  0.24941966  1
  Co  Co102  1  0.75347880  0.74907514  0.74982565  1
  Co  Co103  1  -0.00218706  0.74801420  0.25006244  1
  Co  Co104  1  0.62541993  0.62692392  0.87079816  1
  Co  Co105  1  0.12329312  0.12275843  0.87892814  1
  Co  Co106  1  0.49869708  0.25033332  0.74834438  1
  Co  Co107  1  0.12437170  0.37764825  0.87114439  1
  Co  Co108  1  0.25206533  0.49458124  0.74926088  1
  Co  Co109  1  0.12261624  0.12580788  0.61705422  1
  Co  Co110  1  0.25241592  0.25376325  0.50109439  1
  Co  Co111  1  0.62438845  0.62483402  0.12680065  1
  Co  Co112  1  0.87253408  0.37285417  0.12333610  1
  Co  Co113  1  0.24670326  0.75572530  0.75078799  1
  Co  Co114  1  0.87324253  0.87296926  0.37298478  1
  Co  Co115  1  0.62313533  0.37317374  0.87618093  1
  Co  Co116  1  0.49992370  0.50405445  -0.00274212  1
  Co  Co117  1  0.37272930  0.62562332  0.62885051  1
  Co  Co118  1  -0.00283831  -0.00186370  0.00383665  1
  Co  Co119  1  0.12591354  0.62106438  0.87158817  1
  Co  Co120  1  0.12516012  0.37881601  0.37543386  1
  Co  Co121  1  0.37426732  0.12266759  0.62377448  1
  Co  Co122  1  0.49767765  -0.00011144  0.24952236  1
  Co  Co123  1  0.87635993  0.62580846  0.12022237  1
  Co  Co124  1  0.50010703  0.24785666  0.00231258  1
  Co  Co125  1  -0.00223619  0.25659197  0.49996717  1
  Co  Co126  1  0.24993762  -0.00245847  0.49907854  1
  Co  Co127  1  0.87938878  0.12864336  0.37473716  1
