# generated using pymatgen
data_Fe45Co19
_symmetry_space_group_name_H-M   'P 1'
_cell_length_a   11.41463795
_cell_length_b   11.41534150
_cell_length_c   11.41617137
_cell_angle_alpha   89.99838268
_cell_angle_beta   90.00734070
_cell_angle_gamma   89.99186939
_symmetry_Int_Tables_number   1
_chemical_formula_structural   Fe45Co19
_chemical_formula_sum   'Fe90 Co38'
_cell_volume   1487.54982317
_cell_formula_units_Z   2
loop_
 _symmetry_equiv_pos_site_id
 _symmetry_equiv_pos_as_xyz
  1  'x, y, z'
loop_
 _atom_site_type_symbol
 _atom_site_label
 _atom_site_symmetry_multiplicity
 _atom_site_fract_x
 _atom_site_fract_y
 _atom_site_fract_z
 _atom_site_occupancy
  Fe  Fe0  1  0.62789153  0.12592295  0.12357596  1
  Fe  Fe1  1  0.12739056  0.87694017  0.37160230  1
  Fe  Fe2  1  0.12651914  0.37666201  0.87451758  1
  Fe  Fe3  1  0.62429880  0.62461506  0.87583374  1
  Fe  Fe4  1  0.00016392  0.24781820  0.75235014  1
  Fe  Fe5  1  0.12441462  0.37306733  0.12455842  1
  Fe  Fe6  1  0.87566120  0.62621227  0.62634892  1
  Fe  Fe7  1  0.24741318  0.00021204  0.74875705  1
  Fe  Fe8  1  0.25086762  0.24783664  0.74821887  1
  Fe  Fe9  1  0.50144982  0.25132365  -0.00056371  1
  Fe  Fe10  1  0.37612760  0.87477113  0.87428647  1
  Fe  Fe11  1  0.49770001  0.49716883  0.49731892  1
  Fe  Fe12  1  0.75433301  0.25234499  0.49791115  1
  Fe  Fe13  1  0.62496279  0.87484035  0.87412567  1
  Fe  Fe14  1  0.37674387  0.12703358  0.12478241  1
  Fe  Fe15  1  0.49791660  0.49850879  0.00162000  1
  Fe  Fe16  1  0.37322496  0.87287438  0.12637342  1
  Fe  Fe17  1  0.75022949  -0.00039173  0.50005057  1
  Fe  Fe18  1  -0.00025084  0.49941488  0.50211370  1
  Fe  Fe19  1  0.49766283  0.25230677  0.50022293  1
  Fe  Fe20  1  0.12510291  0.87613643  0.12470472  1
  Fe  Fe21  1  0.37252196  0.62629429  0.37368191  1
  Fe  Fe22  1  0.37203656  0.87497805  0.37300060  1
  Fe  Fe23  1  0.24935449  0.24792136  0.25031090  1
  Fe  Fe24  1  0.12520372  0.37363654  0.62654644  1
  Fe  Fe25  1  0.12423779  0.87537365  0.62499347  1
  Fe  Fe26  1  0.24866069  0.00124171  0.50104059  1
  Fe  Fe27  1  0.00110187  0.74974429  -0.00146613  1
  Fe  Fe28  1  -0.00022999  0.49882592  -0.00084695  1
  Fe  Fe29  1  0.62605826  0.62478228  0.62385505  1
  Fe  Fe30  1  0.37196260  0.62773252  0.62750156  1
  Fe  Fe31  1  0.75367907  0.24910727  0.25334206  1
  Fe  Fe32  1  0.24724039  0.74860620  -0.00136457  1
  Fe  Fe33  1  0.50371465  0.00092068  0.74660628  1
  Fe  Fe34  1  0.87791971  0.12421013  0.62384713  1
  Fe  Fe35  1  0.12141319  0.12212352  0.37496469  1
  Fe  Fe36  1  -0.00142200  0.25233234  0.49710439  1
  Fe  Fe37  1  0.49894461  0.50081276  0.74989942  1
  Fe  Fe38  1  -0.00671586  0.00172803  0.00284764  1
  Fe  Fe39  1  0.25188936  0.00203553  0.00248137  1
  Fe  Fe40  1  0.87505863  0.87585551  0.87471742  1
  Fe  Fe41  1  0.37466594  0.37393672  0.87478666  1
  Fe  Fe42  1  0.37679006  0.12335857  0.87453184  1
  Fe  Fe43  1  0.62704189  0.87520503  0.37331330  1
  Fe  Fe44  1  0.75271494  0.49784197  0.50123697  1
  Fe  Fe45  1  0.12627498  0.62657842  0.62735457  1
  Fe  Fe46  1  0.62313883  0.62424761  0.12502147  1
  Fe  Fe47  1  0.49834208  0.25260650  0.25236150  1
  Fe  Fe48  1  0.87545272  0.87383938  0.62550935  1
  Fe  Fe49  1  0.74971888  0.49645011  -0.00099389  1
  Fe  Fe50  1  0.50163143  -0.00160809  0.00188035  1
  Fe  Fe51  1  0.25096888  0.50147003  0.00134091  1
  Fe  Fe52  1  0.50196412  -0.00042674  0.50195320  1
  Fe  Fe53  1  0.00130993  0.49996783  0.24905681  1
  Fe  Fe54  1  0.62572791  0.12607741  0.37662738  1
  Fe  Fe55  1  0.75067103  0.00099065  0.74845099  1
  Fe  Fe56  1  0.74926695  0.25155940  0.75082527  1
  Fe  Fe57  1  0.75061932  0.74953556  0.49807640  1
  Fe  Fe58  1  0.12063997  0.12620137  0.12582463  1
  Fe  Fe59  1  0.62499326  0.37552801  0.62491014  1
  Fe  Fe60  1  0.87683366  0.62338176  0.37479047  1
  Fe  Fe61  1  0.25186479  0.50277106  0.24609379  1
  Fe  Fe62  1  0.87365686  0.87651796  0.37084959  1
  Fe  Fe63  1  0.37428230  0.87446119  0.62632969  1
  Fe  Fe64  1  -0.00046940  0.49965485  0.74964098  1
  Fe  Fe65  1  0.37483060  0.62861846  0.87408632  1
  Fe  Fe66  1  0.50046045  0.74934937  0.24984892  1
  Fe  Fe67  1  0.24890476  0.24852058  -0.00094666  1
  Fe  Fe68  1  0.12659139  0.37736890  0.37399983  1
  Fe  Fe69  1  0.25017350  0.50017767  0.50276083  1
  Fe  Fe70  1  0.49975550  0.24842297  0.74798393  1
  Fe  Fe71  1  0.25067096  0.24857593  0.50196022  1
  Fe  Fe72  1  0.50020960  0.00083729  0.24962549  1
  Fe  Fe73  1  0.74922931  0.75073514  0.00012702  1
  Fe  Fe74  1  0.87493412  0.62455371  0.87474838  1
  Fe  Fe75  1  0.62898763  0.87477082  0.12761095  1
  Fe  Fe76  1  0.75035234  0.50011105  0.24969357  1
  Fe  Fe77  1  0.00234111  0.75021015  0.49715163  1
  Fe  Fe78  1  0.87561691  0.62675470  0.12438775  1
  Fe  Fe79  1  0.87459469  0.37416911  0.87431978  1
  Fe  Fe80  1  0.37528235  0.12406575  0.37613721  1
  Fe  Fe81  1  0.62340333  0.37500565  0.12762950  1
  Fe  Fe82  1  0.00256018  0.74868922  0.25076224  1
  Fe  Fe83  1  0.87765387  0.37074816  0.12500827  1
  Fe  Fe84  1  0.00421821  0.75166799  0.75376010  1
  Fe  Fe85  1  0.49927650  0.75126729  0.50123133  1
  Fe  Fe86  1  0.12317273  0.12106271  0.87524833  1
  Fe  Fe87  1  0.62449317  0.62272523  0.37491164  1
  Fe  Fe88  1  0.74794369  0.74854576  0.75002043  1
  Fe  Fe89  1  0.62823624  0.12447689  0.87762549  1
  Co  Co90  1  0.12497275  0.62127570  0.87449101  1
  Co  Co91  1  0.25133615  0.49899894  0.74982103  1
  Co  Co92  1  -0.00309713  0.00014667  0.24610748  1
  Co  Co93  1  0.62228148  0.37559791  0.87292780  1
  Co  Co94  1  0.12379011  0.88115468  0.88049140  1
  Co  Co95  1  0.75254570  -0.00242635  0.00263702  1
  Co  Co96  1  0.12608414  0.62171997  0.37569045  1
  Co  Co97  1  0.00023621  -0.00380177  0.49972325  1
  Co  Co98  1  0.75008042  0.49975916  0.75058310  1
  Co  Co99  1  0.24551899  0.75349246  0.75380292  1
  Co  Co100  1  0.12203633  0.62460916  0.12291118  1
  Co  Co101  1  0.87618831  0.37962286  0.37346661  1
  Co  Co102  1  0.87303528  0.87008482  0.12828408  1
  Co  Co103  1  0.49704619  0.49869116  0.25120541  1
  Co  Co104  1  0.24873276  0.75053913  0.50003620  1
  Co  Co105  1  -0.00090630  0.24993732  0.25463270  1
  Co  Co106  1  0.37533617  0.12234553  0.62465750  1
  Co  Co107  1  0.87590829  0.37392060  0.62768859  1
  Co  Co108  1  0.50199835  0.75285992  0.00085489  1
  Co  Co109  1  0.62675627  0.37506983  0.37524526  1
  Co  Co110  1  0.50168203  0.74958626  0.74773147  1
  Co  Co111  1  0.37353041  0.37199146  0.12441327  1
  Co  Co112  1  0.25066527  0.00378891  0.24835204  1
  Co  Co113  1  0.00168919  0.24986026  -0.00420227  1
  Co  Co114  1  0.37042741  0.37482423  0.37394771  1
  Co  Co115  1  0.87155142  0.12585965  0.87640710  1
  Co  Co116  1  0.62720443  0.87334335  0.62384098  1
  Co  Co117  1  0.74884032  0.74535516  0.25141355  1
  Co  Co118  1  0.62732104  0.12792962  0.62213407  1
  Co  Co119  1  0.87437081  0.13172134  0.12228372  1
  Co  Co120  1  0.24720764  0.74731014  0.24835383  1
  Co  Co121  1  -0.00110143  0.00003968  0.75033954  1
  Co  Co122  1  0.74834040  0.25495687  -0.00113155  1
  Co  Co123  1  0.75231242  0.00475557  0.24847776  1
  Co  Co124  1  0.12081046  0.12521712  0.62406943  1
  Co  Co125  1  0.87804627  0.12095930  0.37712407  1
  Co  Co126  1  0.37521328  0.37505857  0.62577966  1
  Co  Co127  1  0.37756038  0.62838648  0.12417036  1
