# generated using pymatgen
data_Fe45Co19
_symmetry_space_group_name_H-M   'P 1'
_cell_length_a   11.41509265
_cell_length_b   11.41446855
_cell_length_c   11.41441966
_cell_angle_alpha   90.00113141
_cell_angle_beta   89.99728281
_cell_angle_gamma   90.00307324
_symmetry_Int_Tables_number   1
_chemical_formula_structural   Fe45Co19
_chemical_formula_sum   'Fe90 Co38'
_cell_volume   1487.26710071
_cell_formula_units_Z   2
loop_
 _symmetry_equiv_pos_site_id
 _symmetry_equiv_pos_as_xyz
  1  'x, y, z'
loop_
 _atom_site_type_symbol
 _atom_site_label
 _atom_site_symmetry_multiplicity
 _atom_site_fract_x
 _atom_site_fract_y
 _atom_site_fract_z
 _atom_site_occupancy
  Fe  Fe0  1  0.37536374  0.62715057  0.12705950  1
  Fe  Fe1  1  0.49724723  0.25058020  0.49864811  1
  Fe  Fe2  1  0.87246253  0.62309757  0.62540954  1
  Fe  Fe3  1  0.12169620  0.87721796  0.12269485  1
  Fe  Fe4  1  0.74958976  0.49904488  0.50192591  1
  Fe  Fe5  1  0.75048756  0.25157056  0.00178435  1
  Fe  Fe6  1  0.62322027  0.37493139  0.87483188  1
  Fe  Fe7  1  0.87434230  0.12637493  0.62680591  1
  Fe  Fe8  1  0.12507702  0.37676374  0.62453480  1
  Fe  Fe9  1  0.74917453  0.49942622  0.24890230  1
  Fe  Fe10  1  0.74918850  0.49949279  0.00021596  1
  Fe  Fe11  1  0.12344961  0.12127474  0.11884884  1
  Fe  Fe12  1  -0.00003046  0.50234141  0.25328795  1
  Fe  Fe13  1  0.75113408  -0.00078440  0.25068330  1
  Fe  Fe14  1  0.25022571  0.25241228  0.74824932  1
  Fe  Fe15  1  0.74938373  -0.00162188  0.74966822  1
  Fe  Fe16  1  0.12756219  0.62518232  0.87429122  1
  Fe  Fe17  1  0.25090347  0.49888129  0.00101511  1
  Fe  Fe18  1  0.62660519  0.62540209  0.87354807  1
  Fe  Fe19  1  0.87257585  0.62467012  0.87245031  1
  Fe  Fe20  1  0.87809843  0.87593691  0.37512657  1
  Fe  Fe21  1  0.62868718  0.12609589  0.37616828  1
  Fe  Fe22  1  0.49732622  0.49847390  0.49633411  1
  Fe  Fe23  1  0.74946919  0.25261960  0.74739051  1
  Fe  Fe24  1  0.62446588  0.87377209  0.12555531  1
  Fe  Fe25  1  0.62458202  0.12682376  0.12460263  1
  Fe  Fe26  1  0.62654323  0.62564659  0.37420405  1
  Fe  Fe27  1  0.00131555  0.00390116  0.75533196  1
  Fe  Fe28  1  0.12373150  0.37336340  0.87551662  1
  Fe  Fe29  1  0.24884134  -0.00453739  0.75500119  1
  Fe  Fe30  1  0.62190902  0.87439946  0.87423665  1
  Fe  Fe31  1  0.25273237  0.49914878  0.25043010  1
  Fe  Fe32  1  0.87593119  0.87295438  0.87388800  1
  Fe  Fe33  1  0.12330827  0.87478798  0.62390011  1
  Fe  Fe34  1  0.24985844  0.25331548  0.00365141  1
  Fe  Fe35  1  0.12719919  0.37479344  0.37469458  1
  Fe  Fe36  1  0.75068679  0.75099482  0.49975058  1
  Fe  Fe37  1  0.12430794  0.12385840  0.37700332  1
  Fe  Fe38  1  0.49924400  0.00059478  0.49836254  1
  Fe  Fe39  1  0.37211109  0.62512527  0.62416747  1
  Fe  Fe40  1  0.37314035  0.62610876  0.87367499  1
  Fe  Fe41  1  0.12637577  0.62376022  0.12642497  1
  Fe  Fe42  1  0.00250564  0.24946562  0.24776703  1
  Fe  Fe43  1  0.00022059  0.49987233  0.74834405  1
  Fe  Fe44  1  0.37342571  0.12390913  0.62498674  1
  Fe  Fe45  1  0.37072411  0.12741977  0.37490818  1
  Fe  Fe46  1  0.75159749  -0.00050397  -0.00125580  1
  Fe  Fe47  1  0.74899623  0.74960630  0.00036056  1
  Fe  Fe48  1  0.62566298  0.37219174  0.37314805  1
  Fe  Fe49  1  0.37510229  0.12573474  0.12519980  1
  Fe  Fe50  1  0.50199845  0.74915376  0.25220134  1
  Fe  Fe51  1  0.24728523  0.75291417  0.25488690  1
  Fe  Fe52  1  0.49826782  0.24832410  0.74963967  1
  Fe  Fe53  1  0.00172292  0.74750456  0.74941183  1
  Fe  Fe54  1  0.87758956  0.87483810  0.62577568  1
  Fe  Fe55  1  0.87746212  0.87498026  0.12506487  1
  Fe  Fe56  1  0.49799349  0.75045632  0.49794331  1
  Fe  Fe57  1  0.87285542  0.62543528  0.12698894  1
  Fe  Fe58  1  0.25105526  0.75338670  -0.00172642  1
  Fe  Fe59  1  0.87461742  0.37392549  0.37710229  1
  Fe  Fe60  1  0.62296340  0.37510755  0.62431845  1
  Fe  Fe61  1  0.25428621  0.49691920  0.49865848  1
  Fe  Fe62  1  0.37482673  0.87535990  0.62536482  1
  Fe  Fe63  1  0.24749661  -0.00048004  0.25001589  1
  Fe  Fe64  1  0.62576186  0.12542944  0.87484808  1
  Fe  Fe65  1  0.49836703  0.00053405  -0.00093492  1
  Fe  Fe66  1  0.62146192  0.37308007  0.12693081  1
  Fe  Fe67  1  0.50026436  0.50282927  0.00297377  1
  Fe  Fe68  1  0.24911969  -0.00326944  0.49839805  1
  Fe  Fe69  1  0.12692652  0.12343676  0.62558286  1
  Fe  Fe70  1  0.62483811  0.12511144  0.62408540  1
  Fe  Fe71  1  0.00044340  0.25028900  0.50309993  1
  Fe  Fe72  1  0.37864842  0.37222053  0.12992583  1
  Fe  Fe73  1  0.37613502  0.37626611  0.87387150  1
  Fe  Fe74  1  0.37693714  0.87447361  0.12616014  1
  Fe  Fe75  1  0.87644192  0.12432074  0.12350688  1
  Fe  Fe76  1  0.75199011  -0.00048417  0.50061902  1
  Fe  Fe77  1  0.87701765  0.37316220  0.87269975  1
  Fe  Fe78  1  0.87786976  0.37555830  0.12503662  1
  Fe  Fe79  1  0.49982151  0.74886029  0.74856550  1
  Fe  Fe80  1  0.37250405  0.12406106  0.87563268  1
  Fe  Fe81  1  0.12945966  0.62416651  0.62317271  1
  Fe  Fe82  1  0.00201375  0.74550092  0.49719960  1
  Fe  Fe83  1  0.50013619  0.50189123  0.74827489  1
  Fe  Fe84  1  0.00037654  0.50156877  -0.00043707  1
  Fe  Fe85  1  0.87570892  0.12643921  0.37548313  1
  Fe  Fe86  1  0.62343293  0.87526626  0.62388790  1
  Fe  Fe87  1  0.00014093  0.74740007  0.00036446  1
  Fe  Fe88  1  0.50125574  0.00208615  0.25252896  1
  Fe  Fe89  1  0.00122936  0.74716552  0.25367805  1
  Co  Co90  1  0.24935598  0.49847257  0.75007527  1
  Co  Co91  1  0.49857506  0.24907266  -0.00160335  1
  Co  Co92  1  0.74890531  0.49849657  0.74899037  1
  Co  Co93  1  0.62503699  0.62519150  0.62290870  1
  Co  Co94  1  0.12306913  0.37960403  0.12572181  1
  Co  Co95  1  0.13011307  0.62103869  0.37610286  1
  Co  Co96  1  0.75166539  0.24975793  0.24789821  1
  Co  Co97  1  0.24931001  0.25126611  0.50307216  1
  Co  Co98  1  0.62721881  0.62624101  0.12766206  1
  Co  Co99  1  0.37228227  0.36936926  0.37056964  1
  Co  Co100  1  0.37571324  0.87695488  0.37317800  1
  Co  Co101  1  0.24961907  0.75292186  0.75039889  1
  Co  Co102  1  0.37970778  0.87385197  0.87437415  1
  Co  Co103  1  0.74865041  0.75122361  0.74822354  1
  Co  Co104  1  0.75093945  0.25024695  0.50229821  1
  Co  Co105  1  0.87207313  0.12971971  0.87381644  1
  Co  Co106  1  0.87130035  0.62345377  0.37521303  1
  Co  Co107  1  0.75087334  0.75278415  0.25140606  1
  Co  Co108  1  0.87557718  0.37621135  0.62490081  1
  Co  Co109  1  0.12140843  0.87308711  0.87726312  1
  Co  Co110  1  0.49939674  0.50146954  0.25136088  1
  Co  Co111  1  0.00010945  0.25000099  0.00154884  1
  Co  Co112  1  -0.00269316  0.00187840  -0.00644769  1
  Co  Co113  1  0.24903908  0.75375999  0.49750236  1
  Co  Co114  1  0.50057238  0.74719445  0.00046850  1
  Co  Co115  1  -0.00142611  0.00254579  0.50247879  1
  Co  Co116  1  0.24433542  0.24705569  0.24565370  1
  Co  Co117  1  0.50147415  0.24625378  0.25366543  1
  Co  Co118  1  0.50001216  0.00158536  0.74997546  1
  Co  Co119  1  0.62509597  0.87579965  0.37633083  1
  Co  Co120  1  0.37388115  0.62671828  0.37484644  1
  Co  Co121  1  0.12970704  0.12861585  0.87841446  1
  Co  Co122  1  0.37688602  0.37574719  0.62600584  1
  Co  Co123  1  0.12086896  0.87827107  0.37654051  1
  Co  Co124  1  -0.00004868  0.00163017  0.24960171  1
  Co  Co125  1  0.00245549  0.24831529  0.74675161  1
  Co  Co126  1  0.25250721  -0.00537602  -0.00147941  1
  Co  Co127  1  -0.00004985  0.50133744  0.49978110  1
