# generated using pymatgen
data_Fe45Co19
_symmetry_space_group_name_H-M   'P 1'
_cell_length_a   11.41481782
_cell_length_b   11.41549200
_cell_length_c   11.41325734
_cell_angle_alpha   89.99877764
_cell_angle_beta   89.99375780
_cell_angle_gamma   89.99752380
_symmetry_Int_Tables_number   1
_chemical_formula_structural   Fe45Co19
_chemical_formula_sum   'Fe90 Co38'
_cell_volume   1487.21317826
_cell_formula_units_Z   2
loop_
 _symmetry_equiv_pos_site_id
 _symmetry_equiv_pos_as_xyz
  1  'x, y, z'
loop_
 _atom_site_type_symbol
 _atom_site_label
 _atom_site_symmetry_multiplicity
 _atom_site_fract_x
 _atom_site_fract_y
 _atom_site_fract_z
 _atom_site_occupancy
  Fe  Fe0  1  0.37491998  0.87656727  0.62161647  1
  Fe  Fe1  1  0.75093357  0.00097031  0.75200778  1
  Fe  Fe2  1  0.37471778  0.62417131  0.12124471  1
  Fe  Fe3  1  0.24978731  0.24944504  0.74782834  1
  Fe  Fe4  1  0.87182579  0.87196871  0.87713105  1
  Fe  Fe5  1  0.37533317  0.12432583  0.62527797  1
  Fe  Fe6  1  0.75220494  0.50285653  -0.00690483  1
  Fe  Fe7  1  0.37528206  0.12853871  0.37530030  1
  Fe  Fe8  1  -0.00221123  0.50080087  -0.00344013  1
  Fe  Fe9  1  0.87543298  0.37382301  0.37773579  1
  Fe  Fe10  1  0.62326936  0.87408401  0.12859762  1
  Fe  Fe11  1  -0.00183366  0.50017826  0.25166802  1
  Fe  Fe12  1  0.37840103  0.87314437  0.37542362  1
  Fe  Fe13  1  0.87330249  0.12503988  0.37851697  1
  Fe  Fe14  1  0.49881540  0.49940192  0.25055267  1
  Fe  Fe15  1  0.87377118  0.12244093  0.12304092  1
  Fe  Fe16  1  0.87340702  0.62354306  0.62569117  1
  Fe  Fe17  1  0.62540816  0.37756729  0.12107587  1
  Fe  Fe18  1  0.62463968  0.37588082  0.37522567  1
  Fe  Fe19  1  0.62567936  0.12249722  0.62591475  1
  Fe  Fe20  1  0.12513298  0.87439668  0.12565083  1
  Fe  Fe21  1  0.75041607  0.25060243  0.24868820  1
  Fe  Fe22  1  0.49912468  0.25143186  0.24641180  1
  Fe  Fe23  1  0.62340072  0.12525173  0.12418925  1
  Fe  Fe24  1  0.00335217  0.24572116  0.50433442  1
  Fe  Fe25  1  -0.00058323  0.49970439  0.50074361  1
  Fe  Fe26  1  0.50264187  0.74958455  -0.00125877  1
  Fe  Fe27  1  0.87601789  0.62627695  0.12483392  1
  Fe  Fe28  1  0.12629178  0.12442415  0.12414432  1
  Fe  Fe29  1  0.37499955  0.87114852  0.87709367  1
  Fe  Fe30  1  0.25156631  0.75038932  0.24922073  1
  Fe  Fe31  1  0.37504750  0.12319102  0.12399778  1
  Fe  Fe32  1  0.25201420  0.49837774  0.50275004  1
  Fe  Fe33  1  0.00213877  0.00381130  0.50158724  1
  Fe  Fe34  1  0.62432551  0.38085362  0.62879886  1
  Fe  Fe35  1  0.50427568  0.00109686  0.49611318  1
  Fe  Fe36  1  -0.00290713  0.75267783  0.74808377  1
  Fe  Fe37  1  0.75238464  0.49974399  0.25152991  1
  Fe  Fe38  1  0.50147223  0.50300553  -0.00644005  1
  Fe  Fe39  1  0.50269765  0.25123252  0.75069589  1
  Fe  Fe40  1  0.37550218  0.62540875  0.37674597  1
  Fe  Fe41  1  0.37775958  0.62009504  0.62815647  1
  Fe  Fe42  1  0.12536010  0.62556896  0.62510970  1
  Fe  Fe43  1  0.49992104  0.25350699  0.50382145  1
  Fe  Fe44  1  0.87477731  0.87455906  0.37675353  1
  Fe  Fe45  1  0.74840149  0.24839922  -0.00464934  1
  Fe  Fe46  1  0.12679233  0.37195761  0.37565849  1
  Fe  Fe47  1  0.74827812  0.24947852  0.50351702  1
  Fe  Fe48  1  0.00184388  -0.00036807  -0.00541872  1
  Fe  Fe49  1  0.75042555  0.74826628  0.25198535  1
  Fe  Fe50  1  0.25100246  0.25161151  0.00042718  1
  Fe  Fe51  1  0.37580675  0.12502261  0.87465479  1
  Fe  Fe52  1  0.12464970  0.62582364  0.12571625  1
  Fe  Fe53  1  0.37715427  0.87525654  0.12535131  1
  Fe  Fe54  1  0.74708504  0.74813918  0.50095192  1
  Fe  Fe55  1  0.00068818  0.75134736  0.00092221  1
  Fe  Fe56  1  0.00007840  0.24763449  -0.00227801  1
  Fe  Fe57  1  0.12523383  0.62600309  0.37626099  1
  Fe  Fe58  1  0.87442830  0.37236632  0.62966121  1
  Fe  Fe59  1  0.62497759  0.87487587  0.62616746  1
  Fe  Fe60  1  0.87336334  0.87529432  0.12538183  1
  Fe  Fe61  1  0.12545176  0.87312245  0.37655674  1
  Fe  Fe62  1  0.74516388  0.00136672  0.25476054  1
  Fe  Fe63  1  0.87381242  0.88017701  0.62147947  1
  Fe  Fe64  1  0.50222217  -0.00250880  -0.00150991  1
  Fe  Fe65  1  0.50228037  0.74579224  0.50326017  1
  Fe  Fe66  1  0.12575720  0.62908513  0.87392987  1
  Fe  Fe67  1  0.25114746  0.49807763  0.24872233  1
  Fe  Fe68  1  0.74667898  -0.00043322  -0.00248332  1
  Fe  Fe69  1  0.12598829  0.37559604  0.62631435  1
  Fe  Fe70  1  0.24919305  0.00295212  0.49889610  1
  Fe  Fe71  1  -0.00161960  0.50039935  0.75210628  1
  Fe  Fe72  1  0.37519219  0.37770066  0.87175836  1
  Fe  Fe73  1  0.49990511  0.25175212  -0.00131349  1
  Fe  Fe74  1  0.87408688  0.37547088  0.12120962  1
  Fe  Fe75  1  0.12702500  0.87838449  0.62762375  1
  Fe  Fe76  1  0.12402711  0.37493329  0.12538881  1
  Fe  Fe77  1  0.00020480  0.00037913  0.25107903  1
  Fe  Fe78  1  0.25101969  0.00038653  0.25156752  1
  Fe  Fe79  1  -0.00004243  0.74990325  0.50118774  1
  Fe  Fe80  1  -0.00159396  0.24866464  0.24911795  1
  Fe  Fe81  1  0.24916018  0.49995981  -0.00217279  1
  Fe  Fe82  1  0.12413973  0.37369682  0.87321977  1
  Fe  Fe83  1  0.62556791  0.62368191  0.12662798  1
  Fe  Fe84  1  0.24793715  -0.00199869  -0.00406507  1
  Fe  Fe85  1  0.49867714  -0.00288373  0.75149661  1
  Fe  Fe86  1  0.74895650  0.50216654  0.50052920  1
  Fe  Fe87  1  0.37301578  0.37227003  0.37676801  1
  Fe  Fe88  1  0.25347250  0.75013023  0.74775959  1
  Fe  Fe89  1  0.62849625  0.63236328  0.86635570  1
  Co  Co90  1  0.37749438  0.37877857  0.12153979  1
  Co  Co91  1  0.00256191  0.24730420  0.74777562  1
  Co  Co92  1  0.12608933  0.12747659  0.37290026  1
  Co  Co93  1  0.25168962  0.25069792  0.24548005  1
  Co  Co94  1  0.62134527  0.86943453  0.37403081  1
  Co  Co95  1  0.87532726  0.63052735  0.87392027  1
  Co  Co96  1  0.12673630  0.87164098  0.87014380  1
  Co  Co97  1  0.24701879  0.50169296  0.75001084  1
  Co  Co98  1  -0.00034904  0.75054187  0.25059618  1
  Co  Co99  1  0.25126129  0.74909301  0.50287298  1
  Co  Co100  1  0.25574638  -0.00251522  0.75269063  1
  Co  Co101  1  0.50156191  0.50065872  0.75429605  1
  Co  Co102  1  0.87611478  0.62580808  0.37731768  1
  Co  Co103  1  0.37275909  0.62640663  0.87426376  1
  Co  Co104  1  0.74706557  0.74940930  0.00275844  1
  Co  Co105  1  0.50169246  0.00317399  0.25269450  1
  Co  Co106  1  0.87601629  0.37017795  0.87275180  1
  Co  Co107  1  0.62607373  0.87230952  0.87127382  1
  Co  Co108  1  0.37517930  0.37711248  0.62942018  1
  Co  Co109  1  0.49758612  0.74613770  0.24814856  1
  Co  Co110  1  0.75447144  0.75348058  0.74441300  1
  Co  Co111  1  0.24932019  0.75133460  0.00142378  1
  Co  Co112  1  0.49546429  0.75295304  0.74807307  1
  Co  Co113  1  0.24833025  0.24811641  0.50592013  1
  Co  Co114  1  0.12676969  0.11841294  0.63203471  1
  Co  Co115  1  0.49862527  0.49926781  0.50054800  1
  Co  Co116  1  0.62518323  0.62312084  0.63015629  1
  Co  Co117  1  0.74473567  0.00003605  0.49649197  1
  Co  Co118  1  0.62376407  0.62314565  0.37513986  1
  Co  Co119  1  0.62544979  0.37537308  0.87546980  1
  Co  Co120  1  0.75353118  0.49889575  0.75385195  1
  Co  Co121  1  0.62341278  0.13187352  0.37584359  1
  Co  Co122  1  0.62156769  0.12208794  0.87446060  1
  Co  Co123  1  -0.00410786  -0.00136257  0.75355612  1
  Co  Co124  1  0.12736444  0.12468786  0.87206401  1
  Co  Co125  1  0.74469978  0.24916398  0.75119245  1
  Co  Co126  1  0.87218470  0.12499598  0.62608955  1
  Co  Co127  1  0.87451348  0.12754678  0.87264383  1
