# generated using pymatgen
data_Fe45Co19
_symmetry_space_group_name_H-M   'P 1'
_cell_length_a   11.41509108
_cell_length_b   11.41543186
_cell_length_c   11.41433887
_cell_angle_alpha   89.98969948
_cell_angle_beta   89.99384263
_cell_angle_gamma   90.00189274
_symmetry_Int_Tables_number   1
_chemical_formula_structural   Fe45Co19
_chemical_formula_sum   'Fe90 Co38'
_cell_volume   1487.38185581
_cell_formula_units_Z   2
loop_
 _symmetry_equiv_pos_site_id
 _symmetry_equiv_pos_as_xyz
  1  'x, y, z'
loop_
 _atom_site_type_symbol
 _atom_site_label
 _atom_site_symmetry_multiplicity
 _atom_site_fract_x
 _atom_site_fract_y
 _atom_site_fract_z
 _atom_site_occupancy
  Fe  Fe0  1  0.49784819  0.50201493  -0.00172758  1
  Fe  Fe1  1  0.49966397  0.75106373  0.25115198  1
  Fe  Fe2  1  0.24915546  0.50041651  0.50161442  1
  Fe  Fe3  1  0.62826760  0.37370206  0.37737711  1
  Fe  Fe4  1  0.24888852  0.25062992  0.24840875  1
  Fe  Fe5  1  0.87505268  0.37501258  0.37750099  1
  Fe  Fe6  1  0.87049197  0.37954707  0.62282022  1
  Fe  Fe7  1  0.62492513  0.62471754  0.37465599  1
  Fe  Fe8  1  0.37616709  0.87456900  0.87473568  1
  Fe  Fe9  1  0.00237641  0.49883229  0.50108641  1
  Fe  Fe10  1  0.24726834  0.24893987  -0.00267094  1
  Fe  Fe11  1  0.37383075  0.87450148  0.37723747  1
  Fe  Fe12  1  0.87465872  0.87424445  0.62497742  1
  Fe  Fe13  1  0.25343373  0.50704210  -0.00468310  1
  Fe  Fe14  1  0.49927302  0.49670588  0.74994198  1
  Fe  Fe15  1  0.74738532  0.74852798  0.50130625  1
  Fe  Fe16  1  -0.00113178  -0.00118950  0.00111528  1
  Fe  Fe17  1  0.24875835  0.74505651  -0.00290467  1
  Fe  Fe18  1  0.75166886  0.74624716  0.75021725  1
  Fe  Fe19  1  0.25121565  0.74868731  0.24965587  1
  Fe  Fe20  1  0.75048343  -0.00166857  0.75256277  1
  Fe  Fe21  1  0.75206303  0.25076369  0.24651592  1
  Fe  Fe22  1  0.49894540  0.49729894  0.25039285  1
  Fe  Fe23  1  0.12488324  0.87417543  0.37432630  1
  Fe  Fe24  1  0.50090311  0.24724551  -0.00161726  1
  Fe  Fe25  1  0.49875731  0.00014894  0.25160053  1
  Fe  Fe26  1  0.87337843  0.87300939  0.37508472  1
  Fe  Fe27  1  0.87418515  0.37606187  0.87789760  1
  Fe  Fe28  1  0.50193081  0.00000907  0.49948098  1
  Fe  Fe29  1  0.50263494  0.75492542  0.74791266  1
  Fe  Fe30  1  0.24951575  0.49919403  0.24949317  1
  Fe  Fe31  1  0.24756162  0.00159132  0.49892241  1
  Fe  Fe32  1  0.37592993  0.62704147  0.62761577  1
  Fe  Fe33  1  0.50122828  0.74912311  0.00082954  1
  Fe  Fe34  1  0.12677570  0.37930723  0.87161094  1
  Fe  Fe35  1  -0.00068855  0.00004779  0.49909092  1
  Fe  Fe36  1  0.75196606  0.25241816  0.74904803  1
  Fe  Fe37  1  0.50409760  0.00168354  -0.00394666  1
  Fe  Fe38  1  0.62619641  0.12512101  0.62842599  1
  Fe  Fe39  1  0.87670222  0.12728173  0.87650421  1
  Fe  Fe40  1  0.62330024  0.62561616  0.87202024  1
  Fe  Fe41  1  0.00126801  0.25327428  0.74892516  1
  Fe  Fe42  1  0.87730995  0.12344583  0.62741815  1
  Fe  Fe43  1  0.62415539  0.62427090  0.12740372  1
  Fe  Fe44  1  0.12483829  0.87277658  0.12479328  1
  Fe  Fe45  1  0.00183198  0.25650555  0.24241538  1
  Fe  Fe46  1  0.62755395  0.87442173  0.12630199  1
  Fe  Fe47  1  0.87784606  0.12841315  0.37268070  1
  Fe  Fe48  1  0.37341624  0.12462603  0.62633621  1
  Fe  Fe49  1  0.24516218  0.24953748  0.50200277  1
  Fe  Fe50  1  -0.00204694  0.74972564  0.24789821  1
  Fe  Fe51  1  0.37494433  0.12447715  0.12294730  1
  Fe  Fe52  1  0.74746089  0.50200839  -0.00180846  1
  Fe  Fe53  1  0.50293786  0.75181496  0.50030113  1
  Fe  Fe54  1  0.62572074  0.12629682  0.37367182  1
  Fe  Fe55  1  0.24764740  0.74876735  0.50242306  1
  Fe  Fe56  1  0.37225864  0.37217049  0.62708805  1
  Fe  Fe57  1  0.24997054  -0.00001982  0.75058658  1
  Fe  Fe58  1  0.62518396  0.37367114  0.87412570  1
  Fe  Fe59  1  -0.00281340  0.74835631  0.75193975  1
  Fe  Fe60  1  0.00159960  0.74904384  0.50207822  1
  Fe  Fe61  1  0.12249395  0.12734576  0.37340880  1
  Fe  Fe62  1  -0.00116659  -0.00190817  0.24674166  1
  Fe  Fe63  1  0.37348043  0.37610519  0.12092838  1
  Fe  Fe64  1  0.75236271  0.00077793  0.24798235  1
  Fe  Fe65  1  0.12347075  0.62318741  0.37235527  1
  Fe  Fe66  1  0.49849981  0.25131114  0.24960506  1
  Fe  Fe67  1  0.12239713  0.12380957  0.87302905  1
  Fe  Fe68  1  0.87595940  0.62672857  0.12084321  1
  Fe  Fe69  1  0.50187565  0.49801860  0.50216604  1
  Fe  Fe70  1  0.87601931  0.62462181  0.37761446  1
  Fe  Fe71  1  0.24821071  -0.00003200  -0.00009117  1
  Fe  Fe72  1  0.12472637  0.62147575  0.63222982  1
  Fe  Fe73  1  0.37227235  0.37402969  0.37677822  1
  Fe  Fe74  1  0.75362350  0.50019815  0.25007883  1
  Fe  Fe75  1  0.00228477  0.50132793  -0.00028402  1
  Fe  Fe76  1  0.37523934  0.87628173  0.62533754  1
  Fe  Fe77  1  0.75071728  0.00211230  0.49923106  1
  Fe  Fe78  1  0.49746118  0.24774560  0.75325399  1
  Fe  Fe79  1  0.50104680  0.24976276  0.50004754  1
  Fe  Fe80  1  0.00181207  0.25169105  0.50451583  1
  Fe  Fe81  1  0.12234755  0.87701743  0.62716998  1
  Fe  Fe82  1  0.87303631  0.87088850  0.87971830  1
  Fe  Fe83  1  0.37495096  0.87417325  0.12289264  1
  Fe  Fe84  1  0.25071742  0.00165215  0.24998027  1
  Fe  Fe85  1  0.62532428  0.37524796  0.12380571  1
  Fe  Fe86  1  0.74966197  0.24821003  0.00210744  1
  Fe  Fe87  1  0.37514064  0.62433437  0.37584698  1
  Fe  Fe88  1  0.12400532  0.87393316  0.87374098  1
  Fe  Fe89  1  0.74914055  0.00190515  0.00059487  1
  Co  Co90  1  0.24858739  0.75237922  0.75062726  1
  Co  Co91  1  0.62796536  0.87723561  0.62615099  1
  Co  Co92  1  0.74630878  0.50149410  0.49990864  1
  Co  Co93  1  0.50020417  0.00138693  0.75254559  1
  Co  Co94  1  -0.00682551  0.49885863  0.75027889  1
  Co  Co95  1  0.75046903  0.50147856  0.75204806  1
  Co  Co96  1  0.62606174  0.37298186  0.62684297  1
  Co  Co97  1  0.37407587  0.12624763  0.37567133  1
  Co  Co98  1  0.75193338  0.74736526  0.24937031  1
  Co  Co99  1  0.87494688  0.62302723  0.62249702  1
  Co  Co100  1  0.37496193  0.37306350  0.87746132  1
  Co  Co101  1  0.12456138  0.62391543  0.12660572  1
  Co  Co102  1  0.25735148  0.50069594  0.75298839  1
  Co  Co103  1  0.87329190  0.87204240  0.12124019  1
  Co  Co104  1  0.37254962  0.12235311  0.87657075  1
  Co  Co105  1  0.00308526  0.25227224  -0.00070689  1
  Co  Co106  1  0.12374366  0.12425777  0.12422988  1
  Co  Co107  1  0.62384407  0.62382075  0.62728778  1
  Co  Co108  1  0.62899836  0.12745851  0.87234247  1
  Co  Co109  1  0.12301041  0.62248583  0.86876881  1
  Co  Co110  1  0.87825331  0.12653006  0.12286191  1
  Co  Co111  1  0.24802031  0.24791384  0.75197317  1
  Co  Co112  1  0.12384841  0.37533194  0.37469736  1
  Co  Co113  1  0.00473031  0.74891951  -0.00103338  1
  Co  Co114  1  -0.00330595  0.49800480  0.24780636  1
  Co  Co115  1  0.62396734  0.12541873  0.12647481  1
  Co  Co116  1  0.75131113  0.24670728  0.50181761  1
  Co  Co117  1  0.74548814  0.74731312  -0.00011141  1
  Co  Co118  1  0.62774587  0.87544249  0.37395970  1
  Co  Co119  1  0.12804647  0.37972736  0.63015347  1
  Co  Co120  1  0.87568058  0.62463180  0.87937925  1
  Co  Co121  1  -0.00325557  -0.00272056  0.75398887  1
  Co  Co122  1  0.12238797  0.12141678  0.62766590  1
  Co  Co123  1  0.37589932  0.62504816  0.12707176  1
  Co  Co124  1  0.87354852  0.37666661  0.11953749  1
  Co  Co125  1  0.62640431  0.87334308  0.87416401  1
  Co  Co126  1  0.12926732  0.37984761  0.12057956  1
  Co  Co127  1  0.37953138  0.63043623  0.86953790  1
