# generated using pymatgen
data_Fe45Co19
_symmetry_space_group_name_H-M   'P 1'
_cell_length_a   11.41564241
_cell_length_b   11.41611517
_cell_length_c   11.41498574
_cell_angle_alpha   90.00876897
_cell_angle_beta   90.00484118
_cell_angle_gamma   90.00177590
_symmetry_Int_Tables_number   1
_chemical_formula_structural   Fe45Co19
_chemical_formula_sum   'Fe90 Co38'
_cell_volume   1487.62704188
_cell_formula_units_Z   2
loop_
 _symmetry_equiv_pos_site_id
 _symmetry_equiv_pos_as_xyz
  1  'x, y, z'
loop_
 _atom_site_type_symbol
 _atom_site_label
 _atom_site_symmetry_multiplicity
 _atom_site_fract_x
 _atom_site_fract_y
 _atom_site_fract_z
 _atom_site_occupancy
  Fe  Fe0  1  0.75631439  0.75241573  0.50052051  1
  Fe  Fe1  1  0.87560141  0.11998734  0.62134887  1
  Fe  Fe2  1  0.74669294  0.50198474  -0.00363107  1
  Fe  Fe3  1  0.24838470  0.49864312  -0.00008522  1
  Fe  Fe4  1  0.37434437  0.37657077  0.87438625  1
  Fe  Fe5  1  0.62374046  0.12372861  0.62589774  1
  Fe  Fe6  1  0.75188701  0.25090329  -0.00305689  1
  Fe  Fe7  1  0.62612787  0.87321054  0.62636555  1
  Fe  Fe8  1  0.12564447  0.62768630  0.37875671  1
  Fe  Fe9  1  0.74848767  0.50247746  0.74963816  1
  Fe  Fe10  1  0.62380065  0.37541950  0.62657527  1
  Fe  Fe11  1  0.37445080  0.12750788  0.12441296  1
  Fe  Fe12  1  0.62538757  0.62775196  0.62523485  1
  Fe  Fe13  1  0.75217436  0.25059975  0.74938918  1
  Fe  Fe14  1  0.75064197  0.74841739  -0.00299378  1
  Fe  Fe15  1  0.49691261  -0.00257210  0.75254618  1
  Fe  Fe16  1  0.49727957  0.24967995  0.74824323  1
  Fe  Fe17  1  0.24998799  -0.00271056  0.50138985  1
  Fe  Fe18  1  0.12176674  0.87582175  0.12656790  1
  Fe  Fe19  1  0.87563223  0.62244207  0.12313541  1
  Fe  Fe20  1  0.00225417  -0.00091974  0.74984415  1
  Fe  Fe21  1  0.50170238  0.50140667  0.25007936  1
  Fe  Fe22  1  0.74799588  0.50020175  0.24930896  1
  Fe  Fe23  1  0.25288189  0.25260354  0.50396416  1
  Fe  Fe24  1  0.62384322  0.37607367  0.12307762  1
  Fe  Fe25  1  -0.00215679  0.24804824  0.75052497  1
  Fe  Fe26  1  0.62465917  0.37441436  0.37646123  1
  Fe  Fe27  1  0.12566744  0.12653262  0.87500263  1
  Fe  Fe28  1  0.87689668  0.87286864  0.87203227  1
  Fe  Fe29  1  0.37668028  0.37437241  0.37530480  1
  Fe  Fe30  1  0.50166223  0.74977631  -0.00147492  1
  Fe  Fe31  1  0.12253337  0.12994869  0.12374297  1
  Fe  Fe32  1  0.49672533  0.75003661  0.49987494  1
  Fe  Fe33  1  0.62884471  0.62600555  0.37609905  1
  Fe  Fe34  1  0.50017282  0.00055508  0.25004032  1
  Fe  Fe35  1  0.87413701  0.37790706  0.37710931  1
  Fe  Fe36  1  0.37534963  0.37449293  0.12555013  1
  Fe  Fe37  1  0.75234253  -0.00128360  -0.00119356  1
  Fe  Fe38  1  0.12100936  0.87045076  0.62214507  1
  Fe  Fe39  1  0.00162076  0.00642755  0.25514545  1
  Fe  Fe40  1  0.62620846  0.87314962  0.37436847  1
  Fe  Fe41  1  0.24765877  0.74822915  0.74810802  1
  Fe  Fe42  1  0.12521796  0.87202144  0.37528981  1
  Fe  Fe43  1  0.25096196  -0.00245452  0.74970406  1
  Fe  Fe44  1  0.62493836  0.12506044  0.87415505  1
  Fe  Fe45  1  0.12587959  0.12582185  0.62446440  1
  Fe  Fe46  1  0.87630785  0.12300105  0.87508419  1
  Fe  Fe47  1  0.87765646  0.37533299  0.12353542  1
  Fe  Fe48  1  0.12303547  0.62500137  0.12377168  1
  Fe  Fe49  1  0.24916484  0.00090088  -0.00029276  1
  Fe  Fe50  1  0.49996583  0.74816568  0.25025515  1
  Fe  Fe51  1  0.37493862  0.12732332  0.37620692  1
  Fe  Fe52  1  0.24888732  0.00210044  0.24966760  1
  Fe  Fe53  1  0.87831178  0.12643595  0.12392880  1
  Fe  Fe54  1  0.37292146  0.87342404  0.37283392  1
  Fe  Fe55  1  0.87919140  0.37847721  0.62454670  1
  Fe  Fe56  1  0.00707541  0.50550229  0.75000668  1
  Fe  Fe57  1  0.50018936  0.50017498  0.75107195  1
  Fe  Fe58  1  0.49838925  -0.00190233  -0.00329766  1
  Fe  Fe59  1  0.12365128  0.87156039  0.87672089  1
  Fe  Fe60  1  0.00071750  0.49974767  0.25157993  1
  Fe  Fe61  1  0.25317179  0.25148270  0.74760648  1
  Fe  Fe62  1  0.74913259  0.00156592  0.25080543  1
  Fe  Fe63  1  0.87740082  0.87677989  0.12683844  1
  Fe  Fe64  1  0.12511518  0.37411506  0.87319552  1
  Fe  Fe65  1  0.24854412  0.75077053  0.00391238  1
  Fe  Fe66  1  0.75100076  0.25019919  0.24952570  1
  Fe  Fe67  1  0.74942414  0.25117978  0.50299360  1
  Fe  Fe68  1  0.24829098  0.49958069  0.24992251  1
  Fe  Fe69  1  0.62481507  0.12727758  0.37608817  1
  Fe  Fe70  1  0.49951979  -0.00164704  0.50074399  1
  Fe  Fe71  1  0.12239133  0.37058728  0.12600042  1
  Fe  Fe72  1  0.12484140  0.37170561  0.37499699  1
  Fe  Fe73  1  0.37468714  0.87443848  0.12614999  1
  Fe  Fe74  1  0.87670526  0.37945567  0.87370459  1
  Fe  Fe75  1  0.37274035  0.62346167  0.62570698  1
  Fe  Fe76  1  -0.00257674  0.74780061  0.25289539  1
  Fe  Fe77  1  0.62481991  0.12485812  0.12326912  1
  Fe  Fe78  1  0.37241139  0.62457747  0.87501806  1
  Fe  Fe79  1  0.37159292  0.62462642  0.37537605  1
  Fe  Fe80  1  0.37570779  0.62432807  0.12552331  1
  Fe  Fe81  1  0.50179624  0.50095214  0.50039972  1
  Fe  Fe82  1  0.24684389  0.49772452  0.50466407  1
  Fe  Fe83  1  0.74981559  -0.00153199  0.74931939  1
  Fe  Fe84  1  0.62596833  0.87427083  0.12426541  1
  Fe  Fe85  1  -0.00077072  0.24812003  0.49868544  1
  Fe  Fe86  1  0.49975820  0.25052844  -0.00172439  1
  Fe  Fe87  1  0.49932996  0.75198080  0.75192895  1
  Fe  Fe88  1  0.75299273  0.74925725  0.25080522  1
  Fe  Fe89  1  0.87823934  0.62347790  0.62361234  1
  Co  Co90  1  0.25145714  0.25020652  0.24956791  1
  Co  Co91  1  0.12646403  0.62799512  0.87911353  1
  Co  Co92  1  0.75301651  0.74765109  0.74965844  1
  Co  Co93  1  0.24502689  0.50132743  0.74803360  1
  Co  Co94  1  0.37357407  0.12543717  0.87431034  1
  Co  Co95  1  -0.00140632  0.25103447  -0.00454224  1
  Co  Co96  1  0.25392892  0.75194281  0.50181147  1
  Co  Co97  1  -0.00722536  0.75087314  0.49722730  1
  Co  Co98  1  0.49998234  0.25020244  0.50311829  1
  Co  Co99  1  0.50000832  0.50072308  -0.00092882  1
  Co  Co100  1  0.74601645  -0.00285887  0.50056612  1
  Co  Co101  1  0.87746777  0.87854883  0.62662979  1
  Co  Co102  1  0.12459265  0.62946209  0.61859731  1
  Co  Co103  1  0.62306491  0.62544273  0.87254551  1
  Co  Co104  1  0.24913466  0.25099736  -0.00122921  1
  Co  Co105  1  0.00064089  -0.00018376  -0.00199589  1
  Co  Co106  1  0.37401564  0.12204605  0.62472438  1
  Co  Co107  1  0.87332857  0.61882519  0.37577249  1
  Co  Co108  1  0.00406237  0.00072683  0.49744117  1
  Co  Co109  1  0.13066804  0.12862542  0.37845274  1
  Co  Co110  1  0.62506069  0.37397403  0.87292133  1
  Co  Co111  1  0.62749126  0.87489720  0.87436350  1
  Co  Co112  1  0.50081678  0.25042070  0.24880135  1
  Co  Co113  1  0.87588606  0.88093043  0.37333298  1
  Co  Co114  1  0.00438774  0.49943975  0.49896102  1
  Co  Co115  1  0.00081647  0.74696806  0.74976988  1
  Co  Co116  1  0.37656339  0.37882278  0.62544007  1
  Co  Co117  1  0.62557011  0.62567947  0.12484869  1
  Co  Co118  1  0.00342963  0.49884831  -0.00074312  1
  Co  Co119  1  -0.00282504  0.24831734  0.25477338  1
  Co  Co120  1  0.87040794  0.12300561  0.37926909  1
  Co  Co121  1  0.37530858  0.87443454  0.62659425  1
  Co  Co122  1  0.74771708  0.49949667  0.50388884  1
  Co  Co123  1  0.24874486  0.74895043  0.24781767  1
  Co  Co124  1  0.12105335  0.37150747  0.62683952  1
  Co  Co125  1  -0.00215806  0.75068110  0.00124696  1
  Co  Co126  1  0.37117463  0.87251743  0.87609615  1
  Co  Co127  1  0.87767575  0.62320142  0.87568509  1
