# generated using pymatgen
data_Fe45Co19
_symmetry_space_group_name_H-M   'P 1'
_cell_length_a   11.41568901
_cell_length_b   11.41520400
_cell_length_c   11.41499334
_cell_angle_alpha   90.00685347
_cell_angle_beta   90.00660604
_cell_angle_gamma   89.99508639
_symmetry_Int_Tables_number   1
_chemical_formula_structural   Fe45Co19
_chemical_formula_sum   'Fe90 Co38'
_cell_volume   1487.51536775
_cell_formula_units_Z   2
loop_
 _symmetry_equiv_pos_site_id
 _symmetry_equiv_pos_as_xyz
  1  'x, y, z'
loop_
 _atom_site_type_symbol
 _atom_site_label
 _atom_site_symmetry_multiplicity
 _atom_site_fract_x
 _atom_site_fract_y
 _atom_site_fract_z
 _atom_site_occupancy
  Fe  Fe0  1  0.87480815  0.62672668  0.12498897  1
  Fe  Fe1  1  0.75305343  0.25099038  0.25143568  1
  Fe  Fe2  1  0.62312304  0.87839288  0.37518650  1
  Fe  Fe3  1  0.00121378  0.00318017  0.25464001  1
  Fe  Fe4  1  0.62687450  0.62397297  0.37501181  1
  Fe  Fe5  1  0.24934402  -0.00360814  0.25227581  1
  Fe  Fe6  1  0.75018296  -0.00070682  0.24890669  1
  Fe  Fe7  1  0.74718358  0.49859554  0.00265465  1
  Fe  Fe8  1  0.00132165  0.50260945  0.74802392  1
  Fe  Fe9  1  0.75337444  0.25082676  0.50072712  1
  Fe  Fe10  1  0.37382521  0.62560495  0.62368948  1
  Fe  Fe11  1  0.37534744  0.37555831  0.62526301  1
  Fe  Fe12  1  0.25048687  0.25078278  -0.00064364  1
  Fe  Fe13  1  0.12635041  0.12634885  0.12711746  1
  Fe  Fe14  1  0.50282804  0.74938367  0.75165579  1
  Fe  Fe15  1  0.12595549  0.37670539  0.87461491  1
  Fe  Fe16  1  0.12587648  0.12441215  0.87308008  1
  Fe  Fe17  1  0.75420785  -0.00055763  0.50435477  1
  Fe  Fe18  1  0.00220732  0.25156663  0.74909059  1
  Fe  Fe19  1  0.00014699  0.00012683  0.00023392  1
  Fe  Fe20  1  0.74836338  0.75198148  0.75127463  1
  Fe  Fe21  1  0.24969145  0.49743464  0.24916691  1
  Fe  Fe22  1  -0.00037898  0.50212194  0.25238434  1
  Fe  Fe23  1  0.87523149  0.37651445  0.87480859  1
  Fe  Fe24  1  0.87830168  0.37405081  0.12574463  1
  Fe  Fe25  1  0.62197514  0.36798523  0.12525209  1
  Fe  Fe26  1  0.37619577  0.87660689  0.62637215  1
  Fe  Fe27  1  0.75158573  0.75108204  0.25292763  1
  Fe  Fe28  1  0.37525652  0.37543775  0.87355420  1
  Fe  Fe29  1  -0.00072143  0.74805843  0.75302652  1
  Fe  Fe30  1  0.49993124  0.25075394  0.49811848  1
  Fe  Fe31  1  0.49869244  0.74995585  0.25196858  1
  Fe  Fe32  1  0.87596508  0.12419765  0.87302978  1
  Fe  Fe33  1  0.00011305  0.24951173  0.00055543  1
  Fe  Fe34  1  0.62432789  0.87482806  0.62455373  1
  Fe  Fe35  1  0.12459333  0.62863629  0.12886207  1
  Fe  Fe36  1  0.24764865  -0.00463044  0.49813123  1
  Fe  Fe37  1  0.62382606  0.87449925  0.12499275  1
  Fe  Fe38  1  -0.00009261  0.74599890  0.49368179  1
  Fe  Fe39  1  0.24907957  0.75104256  0.74912797  1
  Fe  Fe40  1  0.87694666  0.87761903  0.37738860  1
  Fe  Fe41  1  0.50265710  0.50088102  0.00099605  1
  Fe  Fe42  1  0.75101575  -0.00019086  0.00098935  1
  Fe  Fe43  1  0.50026188  0.24727855  0.74864951  1
  Fe  Fe44  1  0.49955890  0.75033423  0.49863617  1
  Fe  Fe45  1  0.37163752  0.62443849  0.37560349  1
  Fe  Fe46  1  0.75172398  -0.00227788  0.74700845  1
  Fe  Fe47  1  0.50023209  0.00495739  0.00236997  1
  Fe  Fe48  1  0.12107533  0.87236210  0.62060251  1
  Fe  Fe49  1  0.62822838  0.12530608  0.37630465  1
  Fe  Fe50  1  0.00226797  0.50178006  0.00058537  1
  Fe  Fe51  1  0.24878834  0.49966886  0.00255561  1
  Fe  Fe52  1  0.37681235  0.87632812  0.12493798  1
  Fe  Fe53  1  0.37221765  0.12296117  0.62661722  1
  Fe  Fe54  1  -0.00137201  -0.00245567  0.74753821  1
  Fe  Fe55  1  0.74852157  0.75069031  -0.00093467  1
  Fe  Fe56  1  0.50040447  0.00538096  0.24774609  1
  Fe  Fe57  1  0.50260315  0.74817973  -0.00174710  1
  Fe  Fe58  1  0.87828656  0.87389995  0.12478226  1
  Fe  Fe59  1  0.12437106  0.12526660  0.62411466  1
  Fe  Fe60  1  0.37111279  0.12188115  0.87086789  1
  Fe  Fe61  1  0.74813679  0.49823137  0.50150182  1
  Fe  Fe62  1  0.37638495  0.87807044  0.87401892  1
  Fe  Fe63  1  0.87822416  0.37375891  0.62301782  1
  Fe  Fe64  1  0.87477602  0.12498710  0.12553911  1
  Fe  Fe65  1  0.49935439  0.00196937  0.50135840  1
  Fe  Fe66  1  0.24658792  0.50012057  0.50118172  1
  Fe  Fe67  1  0.37806968  0.37164935  0.12551755  1
  Fe  Fe68  1  0.74939062  0.25033251  0.74884107  1
  Fe  Fe69  1  0.24705851  0.49989408  0.74694041  1
  Fe  Fe70  1  0.50187413  0.49847038  0.49947221  1
  Fe  Fe71  1  0.62702741  0.12437287  0.87590755  1
  Fe  Fe72  1  0.37612892  0.62471875  0.12616096  1
  Fe  Fe73  1  0.50297868  0.50168826  0.74764142  1
  Fe  Fe74  1  0.24819611  -0.00110624  0.00086258  1
  Fe  Fe75  1  0.12154163  0.87149642  0.12921322  1
  Fe  Fe76  1  0.87338783  0.62436409  0.87690390  1
  Fe  Fe77  1  0.74866045  0.50078623  0.74668761  1
  Fe  Fe78  1  0.12312239  0.87414746  0.87589274  1
  Fe  Fe79  1  0.37196231  0.12443849  0.37503683  1
  Fe  Fe80  1  0.12170084  0.37215725  0.37542534  1
  Fe  Fe81  1  0.50106618  0.49730244  0.25222685  1
  Fe  Fe82  1  0.24899920  0.74994072  0.00107761  1
  Fe  Fe83  1  0.37394706  0.62376955  0.87478038  1
  Fe  Fe84  1  0.24926701  0.25193880  0.50213051  1
  Fe  Fe85  1  0.00207218  0.50337994  0.49863281  1
  Fe  Fe86  1  0.87231755  0.62874156  0.62207185  1
  Fe  Fe87  1  0.62432527  0.37329715  0.87557024  1
  Fe  Fe88  1  0.25035806  0.25228737  0.25009051  1
  Fe  Fe89  1  0.74950574  0.49828253  0.24906393  1
  Co  Co90  1  0.62401411  0.87896516  0.87634212  1
  Co  Co91  1  0.74759684  0.75347289  0.49575784  1
  Co  Co92  1  0.12888870  0.12772764  0.37530293  1
  Co  Co93  1  -0.00598996  0.74708014  0.25524419  1
  Co  Co94  1  0.75444210  0.25107503  -0.00090504  1
  Co  Co95  1  0.62852677  0.12972819  0.12501250  1
  Co  Co96  1  0.49895694  0.24713263  0.25437027  1
  Co  Co97  1  0.62589636  0.62735062  0.62306296  1
  Co  Co98  1  0.25249480  0.75352639  0.49894598  1
  Co  Co99  1  0.37228058  0.37532664  0.37606474  1
  Co  Co100  1  0.62720473  0.37330913  0.37494637  1
  Co  Co101  1  0.87723301  0.37664822  0.37643489  1
  Co  Co102  1  0.62693293  0.62228891  0.87471604  1
  Co  Co103  1  0.25480445  0.75391267  0.25084851  1
  Co  Co104  1  0.37858080  0.87778250  0.37430381  1
  Co  Co105  1  0.00046258  0.74860328  -0.00140966  1
  Co  Co106  1  0.12204541  0.87196775  0.37411925  1
  Co  Co107  1  0.87550750  0.87580858  0.87615212  1
  Co  Co108  1  -0.00218480  0.24698701  0.25152494  1
  Co  Co109  1  0.24904951  0.25175386  0.74825023  1
  Co  Co110  1  0.50310503  0.00255705  0.74831003  1
  Co  Co111  1  0.12252553  0.37360489  0.12668342  1
  Co  Co112  1  0.12713671  0.62368428  0.87492814  1
  Co  Co113  1  -0.00235519  0.24543245  0.49760982  1
  Co  Co114  1  0.49619194  0.24513574  -0.00239126  1
  Co  Co115  1  0.62483687  0.62676202  0.12801839  1
  Co  Co116  1  0.12532386  0.62888908  0.62390965  1
  Co  Co117  1  0.87668709  0.12708171  0.62792202  1
  Co  Co118  1  -0.00021676  0.00387472  0.49808108  1
  Co  Co119  1  0.62682485  0.12546497  0.62226388  1
  Co  Co120  1  0.24566216  -0.00380184  0.74772174  1
  Co  Co121  1  0.12177832  0.37423061  0.62273713  1
  Co  Co122  1  0.86977436  0.62153697  0.37717877  1
  Co  Co123  1  0.36998251  0.12572357  0.12750412  1
  Co  Co124  1  0.62436987  0.37331738  0.62470831  1
  Co  Co125  1  0.87826011  0.87018955  0.62196853  1
  Co  Co126  1  0.87149401  0.12384324  0.37439869  1
  Co  Co127  1  0.13080476  0.62727000  0.37114342  1
