# generated using pymatgen
data_Fe45Co19
_symmetry_space_group_name_H-M   'P 1'
_cell_length_a   11.41714490
_cell_length_b   11.41505393
_cell_length_c   11.41561905
_cell_angle_alpha   90.00283073
_cell_angle_beta   89.99757914
_cell_angle_gamma   89.99517096
_symmetry_Int_Tables_number   1
_chemical_formula_structural   Fe45Co19
_chemical_formula_sum   'Fe90 Co38'
_cell_volume   1487.76708205
_cell_formula_units_Z   2
loop_
 _symmetry_equiv_pos_site_id
 _symmetry_equiv_pos_as_xyz
  1  'x, y, z'
loop_
 _atom_site_type_symbol
 _atom_site_label
 _atom_site_symmetry_multiplicity
 _atom_site_fract_x
 _atom_site_fract_y
 _atom_site_fract_z
 _atom_site_occupancy
  Fe  Fe0  1  0.74906293  -0.00046276  0.75184707  1
  Fe  Fe1  1  0.87568823  0.62619265  0.37317552  1
  Fe  Fe2  1  0.00193861  0.75157096  0.25012123  1
  Fe  Fe3  1  0.50065174  0.25394940  0.25028228  1
  Fe  Fe4  1  0.12677981  0.87644265  0.62636594  1
  Fe  Fe5  1  0.50078880  0.25109139  0.49801269  1
  Fe  Fe6  1  0.00344636  0.25213681  0.24632167  1
  Fe  Fe7  1  0.62528356  0.87660199  0.12287117  1
  Fe  Fe8  1  0.12427633  0.62259473  0.12421098  1
  Fe  Fe9  1  0.74846056  0.75044282  0.25046781  1
  Fe  Fe10  1  0.12559010  0.87659223  0.87510280  1
  Fe  Fe11  1  -0.00074356  0.49771507  0.24756801  1
  Fe  Fe12  1  0.37786647  0.12813977  0.63046475  1
  Fe  Fe13  1  0.87662614  0.12785439  0.12507516  1
  Fe  Fe14  1  0.87595853  0.87829466  0.37756739  1
  Fe  Fe15  1  0.25296872  0.00212913  0.75289135  1
  Fe  Fe16  1  0.25164319  0.24598849  0.00281924  1
  Fe  Fe17  1  0.12158251  0.12146708  0.37351774  1
  Fe  Fe18  1  0.74967255  0.49872725  0.75060996  1
  Fe  Fe19  1  0.75148234  0.50073765  0.24734882  1
  Fe  Fe20  1  0.25127250  0.74779825  0.00063736  1
  Fe  Fe21  1  0.75029252  0.00371230  -0.00050141  1
  Fe  Fe22  1  0.87302680  0.87511535  0.12283914  1
  Fe  Fe23  1  0.12542367  0.62329004  0.62638351  1
  Fe  Fe24  1  0.12706459  0.87857403  0.12261153  1
  Fe  Fe25  1  0.87334254  0.62902067  0.62737168  1
  Fe  Fe26  1  0.37783803  0.12489797  0.37220374  1
  Fe  Fe27  1  0.75261469  0.50080606  0.00201648  1
  Fe  Fe28  1  0.62262177  0.12225121  0.62486283  1
  Fe  Fe29  1  0.24969850  0.74880974  0.49851882  1
  Fe  Fe30  1  0.62157323  0.12665226  0.87351927  1
  Fe  Fe31  1  0.62635076  0.37470993  0.62348531  1
  Fe  Fe32  1  0.12604606  0.37615501  0.37679949  1
  Fe  Fe33  1  0.12398656  0.87999898  0.37588783  1
  Fe  Fe34  1  0.87555239  0.12861281  0.87527629  1
  Fe  Fe35  1  0.75120149  0.50145729  0.49939773  1
  Fe  Fe36  1  0.62454922  0.87604115  0.87770820  1
  Fe  Fe37  1  0.25054382  0.74754528  0.75113523  1
  Fe  Fe38  1  -0.00099382  0.49605834  0.75017678  1
  Fe  Fe39  1  0.75109644  0.00280029  0.25240060  1
  Fe  Fe40  1  -0.00030977  0.00124100  0.00046720  1
  Fe  Fe41  1  0.24849451  0.25051383  0.24813779  1
  Fe  Fe42  1  0.87511808  0.12660957  0.62592407  1
  Fe  Fe43  1  -0.00331605  0.49636953  0.00178547  1
  Fe  Fe44  1  0.12475657  0.12512382  0.62762690  1
  Fe  Fe45  1  0.87407340  0.37169921  0.62506267  1
  Fe  Fe46  1  0.25187817  0.00082282  0.24664829  1
  Fe  Fe47  1  -0.00123010  0.50038357  0.49992372  1
  Fe  Fe48  1  0.62505520  0.88052434  0.37802421  1
  Fe  Fe49  1  0.12504299  0.37226511  0.87595660  1
  Fe  Fe50  1  0.74808901  0.24606507  0.49682711  1
  Fe  Fe51  1  -0.00131679  -0.00073864  0.75020922  1
  Fe  Fe52  1  0.62686317  0.87680808  0.62271172  1
  Fe  Fe53  1  0.49867877  0.49711965  0.74936069  1
  Fe  Fe54  1  0.74740125  0.24749214  0.25221074  1
  Fe  Fe55  1  0.12475740  0.12639358  0.87510717  1
  Fe  Fe56  1  0.37439618  0.87472256  0.62645879  1
  Fe  Fe57  1  0.49860836  0.49835279  0.49947067  1
  Fe  Fe58  1  0.49983790  0.75089393  0.49910326  1
  Fe  Fe59  1  0.62117695  0.12393365  0.12694888  1
  Fe  Fe60  1  0.49463771  0.00327669  0.00012492  1
  Fe  Fe61  1  0.87582237  0.62740385  0.87293293  1
  Fe  Fe62  1  0.62489131  0.62326845  0.37404898  1
  Fe  Fe63  1  0.00207304  0.24961150  0.50087350  1
  Fe  Fe64  1  0.50090641  0.75011845  0.75042989  1
  Fe  Fe65  1  0.87179222  0.87287924  0.62567356  1
  Fe  Fe66  1  0.49758939  0.74727992  0.00216780  1
  Fe  Fe67  1  0.49900191  0.49790653  0.24886146  1
  Fe  Fe68  1  0.25246005  0.00250719  0.50075704  1
  Fe  Fe69  1  0.00217676  0.74997838  0.50004021  1
  Fe  Fe70  1  0.25294788  0.49637893  0.74822703  1
  Fe  Fe71  1  0.25340116  0.49989720  -0.00021624  1
  Fe  Fe72  1  0.50083629  0.75178865  0.24796307  1
  Fe  Fe73  1  0.87337001  0.37238436  0.37416527  1
  Fe  Fe74  1  0.24903149  0.74970438  0.24974433  1
  Fe  Fe75  1  0.24950668  0.24902326  0.50082953  1
  Fe  Fe76  1  0.62557633  0.62645805  0.62504768  1
  Fe  Fe77  1  0.12455142  0.62297737  0.87414733  1
  Fe  Fe78  1  0.37450073  0.87450615  0.87623861  1
  Fe  Fe79  1  0.62645353  0.37558762  0.12281904  1
  Fe  Fe80  1  0.25051073  0.49890553  0.24939426  1
  Fe  Fe81  1  0.49720604  0.49928434  0.00135763  1
  Fe  Fe82  1  0.62394581  0.62275807  0.87572552  1
  Fe  Fe83  1  0.37490151  0.62409572  0.37431384  1
  Fe  Fe84  1  0.00013221  0.75052160  -0.00124146  1
  Fe  Fe85  1  0.25156862  0.49943331  0.50147424  1
  Fe  Fe86  1  0.87129172  0.36864929  0.87597711  1
  Fe  Fe87  1  0.37515438  0.87707579  0.37415008  1
  Fe  Fe88  1  0.37697548  0.36952136  0.87454080  1
  Fe  Fe89  1  0.75052917  0.74770670  -0.00126752  1
  Co  Co90  1  0.37577614  0.37124410  0.62365223  1
  Co  Co91  1  0.88092270  0.12632740  0.37384783  1
  Co  Co92  1  0.37428617  0.37353783  0.12477077  1
  Co  Co93  1  0.37379985  0.87525574  0.12336907  1
  Co  Co94  1  0.37778658  0.12617889  0.12839421  1
  Co  Co95  1  0.12805458  0.37726099  0.12258648  1
  Co  Co96  1  0.62667296  0.37642512  0.87812454  1
  Co  Co97  1  0.25377758  0.00423065  -0.00131738  1
  Co  Co98  1  0.00161659  0.75102640  0.75005083  1
  Co  Co99  1  0.62789062  0.37666022  0.37517534  1
  Co  Co100  1  0.37706629  0.12984374  0.87059157  1
  Co  Co101  1  0.49956244  -0.00393954  0.24840235  1
  Co  Co102  1  0.74617154  0.24920305  0.74955778  1
  Co  Co103  1  0.00243703  0.25129583  0.00254421  1
  Co  Co104  1  0.00099779  0.25164371  0.75017125  1
  Co  Co105  1  -0.00036678  -0.00011302  0.50426267  1
  Co  Co106  1  0.37270750  0.37444045  0.37561250  1
  Co  Co107  1  0.37554102  0.62489685  0.87342470  1
  Co  Co108  1  0.61961101  0.12144383  0.37508110  1
  Co  Co109  1  0.74619299  0.75122545  0.75379777  1
  Co  Co110  1  0.37393671  0.62475090  0.12721250  1
  Co  Co111  1  0.12452045  0.37586395  0.62339015  1
  Co  Co112  1  0.50102879  0.24954960  0.00103531  1
  Co  Co113  1  0.74560908  0.24719228  0.00089109  1
  Co  Co114  1  0.75225047  0.00466258  0.49811545  1
  Co  Co115  1  0.87152130  0.36969644  0.12526371  1
  Co  Co116  1  0.87479716  0.87560642  0.87583899  1
  Co  Co117  1  0.49960843  -0.00285636  0.75131997  1
  Co  Co118  1  0.87682443  0.62835219  0.12580356  1
  Co  Co119  1  0.62477513  0.62450197  0.12439673  1
  Co  Co120  1  0.24747790  0.25240671  0.74877567  1
  Co  Co121  1  0.12469992  0.12211918  0.12524690  1
  Co  Co122  1  0.74888753  0.74881439  0.49690193  1
  Co  Co123  1  0.50557719  0.25435755  0.75022820  1
  Co  Co124  1  0.37560008  0.62566467  0.62455724  1
  Co  Co125  1  -0.00199957  -0.00150355  0.24625156  1
  Co  Co126  1  0.12489543  0.62269030  0.37456751  1
  Co  Co127  1  0.49556167  0.00004618  0.50146615  1
