# generated using pymatgen
data_Fe45Co19
_symmetry_space_group_name_H-M   'P 1'
_cell_length_a   11.41504060
_cell_length_b   11.41506527
_cell_length_c   11.41392107
_cell_angle_alpha   90.01022638
_cell_angle_beta   90.00220813
_cell_angle_gamma   90.00595533
_symmetry_Int_Tables_number   1
_chemical_formula_structural   Fe45Co19
_chemical_formula_sum   'Fe90 Co38'
_cell_volume   1487.27307260
_cell_formula_units_Z   2
loop_
 _symmetry_equiv_pos_site_id
 _symmetry_equiv_pos_as_xyz
  1  'x, y, z'
loop_
 _atom_site_type_symbol
 _atom_site_label
 _atom_site_symmetry_multiplicity
 _atom_site_fract_x
 _atom_site_fract_y
 _atom_site_fract_z
 _atom_site_occupancy
  Fe  Fe0  1  0.62460033  0.12409962  0.61976353  1
  Fe  Fe1  1  -0.00101670  0.49850452  0.00177571  1
  Fe  Fe2  1  0.50108422  0.50290893  0.00061768  1
  Fe  Fe3  1  0.75143628  0.49908473  0.25004673  1
  Fe  Fe4  1  0.87926495  0.37100132  0.12780596  1
  Fe  Fe5  1  0.75222988  -0.00070535  0.00017915  1
  Fe  Fe6  1  0.00218932  0.75010071  0.25176790  1
  Fe  Fe7  1  0.74598309  0.75189156  -0.00168778  1
  Fe  Fe8  1  0.12408670  0.62536529  0.37811563  1
  Fe  Fe9  1  0.62351712  0.62308705  0.62376729  1
  Fe  Fe10  1  -0.00046012  0.75182829  0.00018096  1
  Fe  Fe11  1  0.24654655  0.24949578  0.24802359  1
  Fe  Fe12  1  0.87633312  0.12690108  0.62346421  1
  Fe  Fe13  1  0.25231217  0.49876603  0.74790430  1
  Fe  Fe14  1  0.00021066  0.00214363  0.24983393  1
  Fe  Fe15  1  0.87679687  0.87397995  0.62480119  1
  Fe  Fe16  1  0.37576365  0.62453624  0.87382137  1
  Fe  Fe17  1  0.00338205  0.24414246  0.25165597  1
  Fe  Fe18  1  0.49751415  0.00068486  -0.00027508  1
  Fe  Fe19  1  0.61971829  0.87813989  0.62106070  1
  Fe  Fe20  1  0.87603128  0.37285794  0.87268259  1
  Fe  Fe21  1  0.50350280  0.25183955  0.74934946  1
  Fe  Fe22  1  0.37531119  0.87312817  0.12783740  1
  Fe  Fe23  1  0.12543158  0.12086759  0.87269282  1
  Fe  Fe24  1  0.12498393  0.37804359  0.87555063  1
  Fe  Fe25  1  0.24820556  0.50002424  0.25021642  1
  Fe  Fe26  1  0.24669912  0.25092988  -0.00026615  1
  Fe  Fe27  1  0.74707996  0.24951994  0.74839701  1
  Fe  Fe28  1  0.50265423  0.74794853  0.75076230  1
  Fe  Fe29  1  0.74838863  0.49818039  0.74781112  1
  Fe  Fe30  1  0.12355058  0.37416438  0.37521279  1
  Fe  Fe31  1  0.62453722  0.37482316  0.37690484  1
  Fe  Fe32  1  0.24825447  0.24925599  0.50251391  1
  Fe  Fe33  1  0.25226330  0.75182961  0.50083098  1
  Fe  Fe34  1  0.24835700  0.75176243  0.74863883  1
  Fe  Fe35  1  0.12518147  0.62372694  0.62276868  1
  Fe  Fe36  1  0.25897426  0.00036201  0.50241320  1
  Fe  Fe37  1  0.74784922  0.75103014  0.25322858  1
  Fe  Fe38  1  0.74952384  0.24952058  0.00056349  1
  Fe  Fe39  1  0.37395839  0.12594944  0.12572458  1
  Fe  Fe40  1  0.25013534  0.00117906  0.25127514  1
  Fe  Fe41  1  0.74898051  0.75173883  0.49997926  1
  Fe  Fe42  1  0.37501361  0.37473768  0.87353954  1
  Fe  Fe43  1  0.62547843  0.12222485  0.87636433  1
  Fe  Fe44  1  0.49569917  0.49815328  0.50238015  1
  Fe  Fe45  1  0.74983807  0.00339695  0.25028654  1
  Fe  Fe46  1  0.87611664  0.62594994  0.37642270  1
  Fe  Fe47  1  0.50068832  0.24887424  0.00020004  1
  Fe  Fe48  1  0.62499579  0.62190232  0.37668984  1
  Fe  Fe49  1  0.87378702  0.62789072  0.12581928  1
  Fe  Fe50  1  0.12287003  0.87747869  0.87347559  1
  Fe  Fe51  1  0.87323150  0.62630976  0.87417640  1
  Fe  Fe52  1  0.37268024  0.12833633  0.87092309  1
  Fe  Fe53  1  0.25093672  0.75073897  -0.00007125  1
  Fe  Fe54  1  0.50002444  0.00417794  0.25379467  1
  Fe  Fe55  1  0.12576245  0.62402339  0.87585190  1
  Fe  Fe56  1  0.62340740  0.87621671  0.12418181  1
  Fe  Fe57  1  0.37359578  0.37499268  0.12537664  1
  Fe  Fe58  1  0.25358895  0.49845913  0.50044928  1
  Fe  Fe59  1  -0.00357801  0.00003612  0.00117030  1
  Fe  Fe60  1  0.37432874  0.62673744  0.37461120  1
  Fe  Fe61  1  0.37731041  0.87294132  0.87332681  1
  Fe  Fe62  1  0.12752880  0.87648960  0.37613871  1
  Fe  Fe63  1  0.75112144  -0.00060115  0.74834671  1
  Fe  Fe64  1  -0.00350765  0.49580049  0.49963903  1
  Fe  Fe65  1  0.74793386  0.75273404  0.74965494  1
  Fe  Fe66  1  0.87557906  0.62610203  0.62384623  1
  Fe  Fe67  1  0.12605999  0.87589473  0.12532685  1
  Fe  Fe68  1  0.00115340  0.75052972  0.74887332  1
  Fe  Fe69  1  0.00551634  0.24940158  0.74634253  1
  Fe  Fe70  1  0.87624421  0.12667692  0.87486121  1
  Fe  Fe71  1  0.75383757  0.49618481  0.50000305  1
  Fe  Fe72  1  0.49648507  0.24798793  0.49852408  1
  Fe  Fe73  1  0.12521989  0.87891905  0.62577013  1
  Fe  Fe74  1  0.49971556  0.49865999  0.25066755  1
  Fe  Fe75  1  0.49783345  0.00239560  0.74818950  1
  Fe  Fe76  1  0.12603908  0.62400752  0.12356514  1
  Fe  Fe77  1  0.37434435  0.62638123  0.12595706  1
  Fe  Fe78  1  0.87525288  0.87613544  0.37480706  1
  Fe  Fe79  1  0.62445947  0.37452323  0.12527678  1
  Fe  Fe80  1  0.50228599  0.24775875  0.25147521  1
  Fe  Fe81  1  0.74747425  0.24636468  0.25105348  1
  Fe  Fe82  1  0.75029176  0.49933104  0.00191110  1
  Fe  Fe83  1  0.62489582  0.37750148  0.87511490  1
  Fe  Fe84  1  0.25225496  -0.00034589  -0.00182095  1
  Fe  Fe85  1  -0.00114460  0.00200230  0.49964380  1
  Fe  Fe86  1  0.50200807  0.74957240  0.25202027  1
  Fe  Fe87  1  -0.00029487  0.50054671  0.74836917  1
  Fe  Fe88  1  0.62166566  0.88004101  0.38043013  1
  Fe  Fe89  1  0.75443143  0.25258596  0.49841136  1
  Co  Co90  1  0.62445466  0.12350845  0.12227833  1
  Co  Co91  1  0.37325573  0.37270664  0.37365146  1
  Co  Co92  1  0.12593101  0.37905843  0.62249095  1
  Co  Co93  1  0.49936573  0.49757066  0.74714880  1
  Co  Co94  1  -0.00389240  0.00088029  0.74875026  1
  Co  Co95  1  0.37195295  0.13105149  0.63079449  1
  Co  Co96  1  0.12595576  0.12201642  0.12232757  1
  Co  Co97  1  0.37109482  0.12857526  0.37220128  1
  Co  Co98  1  0.00099077  0.75303884  0.49991847  1
  Co  Co99  1  0.50094562  0.74830535  0.00017072  1
  Co  Co100  1  0.12789863  0.11986409  0.62514391  1
  Co  Co101  1  0.62599145  0.62275099  0.87328884  1
  Co  Co102  1  0.87561027  0.12705600  0.12424063  1
  Co  Co103  1  0.37957216  0.87114095  0.62605214  1
  Co  Co104  1  0.25064211  0.49925519  0.00058049  1
  Co  Co105  1  0.87440573  0.12444779  0.37621309  1
  Co  Co106  1  0.62610593  0.62562993  0.12687348  1
  Co  Co107  1  0.37561394  0.87272567  0.37287510  1
  Co  Co108  1  0.50015515  0.74774189  0.49746409  1
  Co  Co109  1  0.00081021  0.24992493  0.50178287  1
  Co  Co110  1  0.24719157  0.74827266  0.25098761  1
  Co  Co111  1  0.87393857  0.87389245  0.12731113  1
  Co  Co112  1  0.12313984  0.37564784  0.12705024  1
  Co  Co113  1  0.62708369  0.12362431  0.38088438  1
  Co  Co114  1  0.87796887  0.37212159  0.36978913  1
  Co  Co115  1  0.37453861  0.62714715  0.62605563  1
  Co  Co116  1  0.62435518  0.37416057  0.62098553  1
  Co  Co117  1  0.62328713  0.87835983  0.87479630  1
  Co  Co118  1  0.00110180  0.50399300  0.25030955  1
  Co  Co119  1  0.87595892  0.37305099  0.62889390  1
  Co  Co120  1  0.49052716  0.00528655  0.49927427  1
  Co  Co121  1  0.75317872  -0.00177759  0.50240288  1
  Co  Co122  1  0.12808273  0.12306694  0.37885175  1
  Co  Co123  1  0.87495664  0.87373194  0.87387060  1
  Co  Co124  1  0.25454571  -0.00302611  0.74941543  1
  Co  Co125  1  0.24299636  0.25267090  0.75059278  1
  Co  Co126  1  0.37405305  0.37068966  0.62704326  1
  Co  Co127  1  0.00442779  0.25003946  -0.00183943  1
