# generated using pymatgen
data_Fe45Co19
_symmetry_space_group_name_H-M   'P 1'
_cell_length_a   11.41547219
_cell_length_b   11.41534610
_cell_length_c   11.41543517
_cell_angle_alpha   90.00478626
_cell_angle_beta   89.99754353
_cell_angle_gamma   90.00534051
_symmetry_Int_Tables_number   1
_chemical_formula_structural   Fe45Co19
_chemical_formula_sum   'Fe90 Co38'
_cell_volume   1487.56322002
_cell_formula_units_Z   2
loop_
 _symmetry_equiv_pos_site_id
 _symmetry_equiv_pos_as_xyz
  1  'x, y, z'
loop_
 _atom_site_type_symbol
 _atom_site_label
 _atom_site_symmetry_multiplicity
 _atom_site_fract_x
 _atom_site_fract_y
 _atom_site_fract_z
 _atom_site_occupancy
  Fe  Fe0  1  -0.00437134  0.00262993  0.49566156  1
  Fe  Fe1  1  0.74909032  0.75056113  0.00135101  1
  Fe  Fe2  1  0.50221036  0.24688639  0.50260224  1
  Fe  Fe3  1  0.87398661  0.62467504  0.62631793  1
  Fe  Fe4  1  0.75132124  0.00131740  0.00058225  1
  Fe  Fe5  1  0.00127994  0.49843232  -0.00319666  1
  Fe  Fe6  1  0.12700648  0.62241946  0.62533372  1
  Fe  Fe7  1  0.62625440  0.87981078  0.62297480  1
  Fe  Fe8  1  0.37812778  0.36709067  0.87653898  1
  Fe  Fe9  1  0.37567463  0.37335215  0.62399823  1
  Fe  Fe10  1  0.62766438  0.12234558  0.37344434  1
  Fe  Fe11  1  0.37399545  0.87829304  0.12372729  1
  Fe  Fe12  1  0.12467903  0.12771928  0.87694887  1
  Fe  Fe13  1  0.24774795  0.75686722  0.74469373  1
  Fe  Fe14  1  0.49831609  0.49839482  0.75134097  1
  Fe  Fe15  1  0.62363250  0.37335591  0.37455515  1
  Fe  Fe16  1  0.12729296  0.62492641  0.37496192  1
  Fe  Fe17  1  0.87503872  0.62556627  0.12387190  1
  Fe  Fe18  1  0.25223478  0.00358536  -0.00394054  1
  Fe  Fe19  1  0.49732275  0.49994914  0.49722320  1
  Fe  Fe20  1  0.74493925  0.25081961  0.74755109  1
  Fe  Fe21  1  0.24932762  0.24819028  0.75081904  1
  Fe  Fe22  1  0.49950156  0.00129053  0.75233653  1
  Fe  Fe23  1  0.62028703  0.12926704  0.87908937  1
  Fe  Fe24  1  0.75581419  -0.00302643  0.25141702  1
  Fe  Fe25  1  0.74777998  0.24921488  0.50308003  1
  Fe  Fe26  1  0.12347180  0.87905809  0.12237492  1
  Fe  Fe27  1  0.12206051  0.12205718  0.12430086  1
  Fe  Fe28  1  0.50103232  0.75158125  0.74863463  1
  Fe  Fe29  1  0.00083837  0.75055299  -0.00001589  1
  Fe  Fe30  1  0.25099365  0.74963230  0.24750407  1
  Fe  Fe31  1  0.87471875  0.62612687  0.87434512  1
  Fe  Fe32  1  0.49924687  0.75111075  0.24793838  1
  Fe  Fe33  1  0.00159462  0.74876297  0.50177882  1
  Fe  Fe34  1  0.24879599  0.00074011  0.25299148  1
  Fe  Fe35  1  0.87417024  0.37431575  0.12401678  1
  Fe  Fe36  1  -0.00093364  0.49813989  0.49999412  1
  Fe  Fe37  1  0.12526251  0.87525528  0.37796197  1
  Fe  Fe38  1  0.87540067  0.12906365  0.87770327  1
  Fe  Fe39  1  0.49891633  0.00188408  0.49834325  1
  Fe  Fe40  1  0.50052137  0.49844958  -0.00058276  1
  Fe  Fe41  1  0.87504212  0.87438211  0.87617243  1
  Fe  Fe42  1  0.37305689  0.12187595  0.62758794  1
  Fe  Fe43  1  0.74930711  0.49609801  -0.00296981  1
  Fe  Fe44  1  0.25119926  0.49762247  0.75279339  1
  Fe  Fe45  1  0.50046997  0.75063555  0.50187426  1
  Fe  Fe46  1  0.00058082  0.75250779  0.24842882  1
  Fe  Fe47  1  0.37487655  0.12742775  0.37269656  1
  Fe  Fe48  1  0.12610552  0.37581728  0.12508446  1
  Fe  Fe49  1  0.87583719  0.37129895  0.37562508  1
  Fe  Fe50  1  0.12711395  0.11999752  0.62426529  1
  Fe  Fe51  1  0.62477047  0.62410666  0.12449583  1
  Fe  Fe52  1  0.00034033  0.24988031  0.50266907  1
  Fe  Fe53  1  0.49789029  0.50128739  0.25208299  1
  Fe  Fe54  1  0.75013525  0.75386983  0.24917747  1
  Fe  Fe55  1  0.25307405  0.49908718  0.25415499  1
  Fe  Fe56  1  0.25040032  0.49749827  -0.00291729  1
  Fe  Fe57  1  0.74942588  0.24828733  0.24544011  1
  Fe  Fe58  1  0.62508731  0.62739553  0.37481778  1
  Fe  Fe59  1  0.12314225  0.12600775  0.37462464  1
  Fe  Fe60  1  0.12726325  0.62322168  0.12415499  1
  Fe  Fe61  1  -0.00123753  0.49976597  0.25039831  1
  Fe  Fe62  1  0.87535785  0.62825323  0.37478393  1
  Fe  Fe63  1  0.87931920  0.37101533  0.87108230  1
  Fe  Fe64  1  0.24899955  0.25026040  0.49888123  1
  Fe  Fe65  1  0.12780003  0.62803006  0.87445018  1
  Fe  Fe66  1  0.62540168  0.62195125  0.62588748  1
  Fe  Fe67  1  0.50281554  0.24715540  0.24437993  1
  Fe  Fe68  1  0.62434851  0.87596315  0.87803748  1
  Fe  Fe69  1  0.49914422  0.75053753  0.00184340  1
  Fe  Fe70  1  0.37469490  0.37468009  0.12634268  1
  Fe  Fe71  1  0.37328195  0.62535994  0.62444764  1
  Fe  Fe72  1  -0.00028287  0.24913243  0.24733510  1
  Fe  Fe73  1  0.37445921  0.87324936  0.37673827  1
  Fe  Fe74  1  0.62502255  0.62441384  0.87449745  1
  Fe  Fe75  1  0.37282021  0.62863380  0.87521159  1
  Fe  Fe76  1  0.74954421  0.49636949  0.75078178  1
  Fe  Fe77  1  0.12272856  0.37617076  0.62878874  1
  Fe  Fe78  1  0.00233391  0.75251406  0.74932065  1
  Fe  Fe79  1  0.87425188  0.87689943  0.62391009  1
  Fe  Fe80  1  0.75191786  0.49863715  0.49956753  1
  Fe  Fe81  1  0.87277373  0.12453696  0.62602376  1
  Fe  Fe82  1  0.24859682  0.24975754  0.24961495  1
  Fe  Fe83  1  0.50039636  -0.00037747  0.24847719  1
  Fe  Fe84  1  0.25141236  0.49657374  0.49584987  1
  Fe  Fe85  1  0.75118714  0.50026226  0.25133290  1
  Fe  Fe86  1  0.74833706  0.75112006  0.74883693  1
  Fe  Fe87  1  0.00111921  0.00003901  0.75345541  1
  Fe  Fe88  1  0.74867888  0.00148450  0.75283364  1
  Fe  Fe89  1  0.37395347  0.87461407  0.87466439  1
  Co  Co90  1  0.49676709  0.00184499  0.00059453  1
  Co  Co91  1  0.87517337  0.87036571  0.37896176  1
  Co  Co92  1  0.62301617  0.37898849  0.62355672  1
  Co  Co93  1  0.62548092  0.87751465  0.12348763  1
  Co  Co94  1  0.62043656  0.37024735  0.87485360  1
  Co  Co95  1  0.62896891  0.11821392  0.12415617  1
  Co  Co96  1  0.87753498  0.87618027  0.12183798  1
  Co  Co97  1  0.75297973  0.00163246  0.49687841  1
  Co  Co98  1  0.37276780  0.62953345  0.37647222  1
  Co  Co99  1  0.50250880  0.24924844  0.74373745  1
  Co  Co100  1  -0.00083018  0.00109587  -0.00411671  1
  Co  Co101  1  -0.00317787  -0.00133732  0.25441151  1
  Co  Co102  1  0.37927349  0.13018546  0.87386471  1
  Co  Co103  1  0.87727747  0.12317956  0.12338534  1
  Co  Co104  1  0.62588072  0.11929799  0.62505160  1
  Co  Co105  1  0.24940700  0.24898767  0.00152766  1
  Co  Co106  1  0.37490247  0.62203957  0.12360502  1
  Co  Co107  1  0.87709214  0.37340588  0.62810158  1
  Co  Co108  1  0.37622678  0.87979184  0.62487291  1
  Co  Co109  1  0.12634958  0.87354039  0.87827128  1
  Co  Co110  1  0.12208940  0.37377772  0.37368377  1
  Co  Co111  1  0.24837860  -0.00055857  0.75436130  1
  Co  Co112  1  0.62579845  0.37878669  0.12678302  1
  Co  Co113  1  0.00058386  0.50363448  0.75226161  1
  Co  Co114  1  0.62454176  0.87659532  0.37656470  1
  Co  Co115  1  0.12301383  0.37160978  0.87183770  1
  Co  Co116  1  0.74737390  0.74940701  0.50194795  1
  Co  Co117  1  0.37177402  0.12320410  0.12679274  1
  Co  Co118  1  0.12240912  0.88282439  0.62053411  1
  Co  Co119  1  0.50088535  0.24826777  0.00972915  1
  Co  Co120  1  0.00220232  0.24410602  0.74776023  1
  Co  Co121  1  0.25143952  0.75108817  0.00372391  1
  Co  Co122  1  0.00108505  0.25184580  0.00206567  1
  Co  Co123  1  0.25314460  0.00178521  0.49602867  1
  Co  Co124  1  0.87411825  0.13061638  0.37362562  1
  Co  Co125  1  0.37836250  0.36856114  0.37384555  1
  Co  Co126  1  0.74873082  0.25198333  0.00210069  1
  Co  Co127  1  0.24949243  0.75253498  0.50423541  1
