# generated using pymatgen
data_Fe45Co19
_symmetry_space_group_name_H-M   'P 1'
_cell_length_a   11.41597670
_cell_length_b   11.41482570
_cell_length_c   11.41452750
_cell_angle_alpha   90.01909985
_cell_angle_beta   90.00758719
_cell_angle_gamma   89.99674310
_symmetry_Int_Tables_number   1
_chemical_formula_structural   Fe45Co19
_chemical_formula_sum   'Fe90 Co38'
_cell_volume   1487.44278018
_cell_formula_units_Z   2
loop_
 _symmetry_equiv_pos_site_id
 _symmetry_equiv_pos_as_xyz
  1  'x, y, z'
loop_
 _atom_site_type_symbol
 _atom_site_label
 _atom_site_symmetry_multiplicity
 _atom_site_fract_x
 _atom_site_fract_y
 _atom_site_fract_z
 _atom_site_occupancy
  Fe  Fe0  1  0.74835583  0.50164519  0.49765665  1
  Fe  Fe1  1  0.12618948  0.37575040  0.87287685  1
  Fe  Fe2  1  0.75172833  -0.00153479  0.75151213  1
  Fe  Fe3  1  0.87579958  0.62476401  0.87677338  1
  Fe  Fe4  1  0.37649104  0.87635569  0.37835816  1
  Fe  Fe5  1  0.12763541  0.87353395  0.12805262  1
  Fe  Fe6  1  0.62527287  0.12315697  0.12706299  1
  Fe  Fe7  1  0.24955908  0.50208112  0.74674191  1
  Fe  Fe8  1  0.50080359  0.74752753  0.74837016  1
  Fe  Fe9  1  0.75120063  0.00038594  0.00334373  1
  Fe  Fe10  1  0.24993102  0.25140099  -0.00004444  1
  Fe  Fe11  1  0.12301183  0.37305082  0.62361105  1
  Fe  Fe12  1  0.24542516  0.74829926  0.49703417  1
  Fe  Fe13  1  0.37207843  0.62929999  0.12444959  1
  Fe  Fe14  1  0.00291752  0.74915534  0.49623561  1
  Fe  Fe15  1  0.37623270  0.12508569  0.37680042  1
  Fe  Fe16  1  0.75097962  0.50156408  0.00405402  1
  Fe  Fe17  1  0.12523529  0.12360248  0.87255739  1
  Fe  Fe18  1  0.75477501  0.24886420  0.25107881  1
  Fe  Fe19  1  0.74691423  0.74950472  0.49958973  1
  Fe  Fe20  1  0.24837131  0.50108898  0.50017730  1
  Fe  Fe21  1  0.62494577  0.12426597  0.62554327  1
  Fe  Fe22  1  0.37517147  0.12604995  0.87492105  1
  Fe  Fe23  1  0.00185778  0.75192590  0.25281346  1
  Fe  Fe24  1  0.50027560  0.25256005  -0.00114237  1
  Fe  Fe25  1  0.62561058  0.87396045  0.87806014  1
  Fe  Fe26  1  0.12288411  0.12660883  0.12719938  1
  Fe  Fe27  1  0.00022772  0.50127236  0.50034161  1
  Fe  Fe28  1  0.49933917  0.50153173  0.74735509  1
  Fe  Fe29  1  0.49716913  0.75298021  0.24880952  1
  Fe  Fe30  1  0.50143822  0.24954368  0.49928950  1
  Fe  Fe31  1  0.00076686  0.49814525  0.00048257  1
  Fe  Fe32  1  0.49859358  0.49975885  0.24967455  1
  Fe  Fe33  1  0.75081440  0.75092355  0.24477690  1
  Fe  Fe34  1  0.62263295  0.87699194  0.12451311  1
  Fe  Fe35  1  0.74976691  0.25241472  0.75309744  1
  Fe  Fe36  1  -0.00241976  0.49666396  0.24959946  1
  Fe  Fe37  1  -0.00109395  -0.00001010  0.49900192  1
  Fe  Fe38  1  -0.00052898  0.75029588  0.75018627  1
  Fe  Fe39  1  0.87539218  0.37015814  0.12225804  1
  Fe  Fe40  1  0.74958509  0.74989095  0.75050209  1
  Fe  Fe41  1  0.87417238  0.87334592  0.87841061  1
  Fe  Fe42  1  0.49906009  0.24941425  0.25055674  1
  Fe  Fe43  1  0.87439730  0.12357932  0.62449165  1
  Fe  Fe44  1  0.62521433  0.12437664  0.87582892  1
  Fe  Fe45  1  0.37633198  0.12545293  0.12379810  1
  Fe  Fe46  1  0.62583012  0.37640086  0.62466122  1
  Fe  Fe47  1  0.50166788  0.25207061  0.75155632  1
  Fe  Fe48  1  0.75190719  0.24989447  0.49794915  1
  Fe  Fe49  1  0.25357302  -0.00085950  0.24944267  1
  Fe  Fe50  1  0.62570366  0.62420915  0.87725814  1
  Fe  Fe51  1  0.74827533  -0.00236458  0.49699522  1
  Fe  Fe52  1  0.12256682  0.12666218  0.37580884  1
  Fe  Fe53  1  0.12402919  0.37273872  0.37600203  1
  Fe  Fe54  1  0.49698959  0.49903238  0.00200530  1
  Fe  Fe55  1  0.37606150  0.37492078  0.62308966  1
  Fe  Fe56  1  0.25160262  0.00090907  0.74718675  1
  Fe  Fe57  1  0.12426431  0.87685910  0.87328688  1
  Fe  Fe58  1  0.62658509  0.37607924  0.37304308  1
  Fe  Fe59  1  0.00049962  0.00078342  0.00099280  1
  Fe  Fe60  1  0.87544772  0.87425862  0.62344950  1
  Fe  Fe61  1  0.37695789  0.87377181  0.62184942  1
  Fe  Fe62  1  0.62471004  0.37518747  0.12644373  1
  Fe  Fe63  1  -0.00205449  0.25040620  0.75095789  1
  Fe  Fe64  1  0.87432885  0.37643313  0.62452051  1
  Fe  Fe65  1  0.25062516  0.49943812  0.00095986  1
  Fe  Fe66  1  0.87452695  0.12762466  0.87898589  1
  Fe  Fe67  1  0.87427130  0.62472352  0.37163089  1
  Fe  Fe68  1  0.24948621  0.00457320  0.50311055  1
  Fe  Fe69  1  -0.00516907  0.00004536  0.25001158  1
  Fe  Fe70  1  0.12649325  0.62650406  0.12857968  1
  Fe  Fe71  1  0.75156737  0.49991488  0.75161604  1
  Fe  Fe72  1  0.25053350  0.24961301  0.25155796  1
  Fe  Fe73  1  0.37651700  0.62484153  0.37788841  1
  Fe  Fe74  1  0.00241359  0.74948839  0.00075084  1
  Fe  Fe75  1  0.37604753  0.87366757  0.87836877  1
  Fe  Fe76  1  0.25029427  -0.00111312  0.00082687  1
  Fe  Fe77  1  0.62623182  0.12124982  0.37180864  1
  Fe  Fe78  1  0.37389604  0.62555762  0.87558289  1
  Fe  Fe79  1  0.25163831  0.49994684  0.25051540  1
  Fe  Fe80  1  0.49976845  -0.00034462  0.75044369  1
  Fe  Fe81  1  0.62492458  0.62549255  0.37122272  1
  Fe  Fe82  1  0.37501061  0.37461230  0.37633028  1
  Fe  Fe83  1  0.25076853  0.24804696  0.74619880  1
  Fe  Fe84  1  0.87527757  0.62577633  0.62525810  1
  Fe  Fe85  1  0.62427650  0.87519083  0.62461790  1
  Fe  Fe86  1  0.12408625  0.62367058  0.87316230  1
  Fe  Fe87  1  0.24934487  0.74960404  0.74954340  1
  Fe  Fe88  1  0.12319447  0.87647427  0.62573993  1
  Fe  Fe89  1  0.12635732  0.37302189  0.12698960  1
  Co  Co90  1  0.87625932  0.12902890  0.12161296  1
  Co  Co91  1  0.50141541  0.74882913  0.00024532  1
  Co  Co92  1  0.24620435  0.75015687  -0.00216872  1
  Co  Co93  1  0.00542856  0.25077582  -0.00201200  1
  Co  Co94  1  -0.00352255  0.25017502  0.49993448  1
  Co  Co95  1  0.37347185  0.62648539  0.62106144  1
  Co  Co96  1  0.50354167  0.00087725  0.49887464  1
  Co  Co97  1  0.87441323  0.37783910  0.37653843  1
  Co  Co98  1  0.62200598  0.62403108  0.12631719  1
  Co  Co99  1  0.37345050  0.37558447  0.87255634  1
  Co  Co100  1  0.12030686  0.12447051  0.62573707  1
  Co  Co101  1  0.49933141  0.00085692  -0.00013317  1
  Co  Co102  1  0.12378244  0.62690395  0.62600867  1
  Co  Co103  1  0.37435112  0.37315683  0.12665149  1
  Co  Co104  1  0.50458238  0.74867772  0.50072617  1
  Co  Co105  1  0.62687627  0.62326728  0.62598241  1
  Co  Co106  1  0.74490286  0.25093569  -0.00038525  1
  Co  Co107  1  0.37294312  0.87259230  0.12156804  1
  Co  Co108  1  -0.00401717  0.00054388  0.75177391  1
  Co  Co109  1  0.12581333  0.88061874  0.37420279  1
  Co  Co110  1  0.25047350  0.24750906  0.50132362  1
  Co  Co111  1  0.12386720  0.62082555  0.37115753  1
  Co  Co112  1  -0.00310895  0.25118661  0.25262617  1
  Co  Co113  1  0.38010576  0.12564318  0.62519583  1
  Co  Co114  1  0.25129360  0.75121309  0.25518172  1
  Co  Co115  1  0.87316948  0.87276518  0.37516191  1
  Co  Co116  1  0.62445643  0.37975932  0.87634895  1
  Co  Co117  1  0.87763287  0.87325846  0.12353862  1
  Co  Co118  1  -0.00093366  0.49870607  0.74949012  1
  Co  Co119  1  0.75179664  0.49903771  0.24691560  1
  Co  Co120  1  0.87506073  0.12254692  0.37616210  1
  Co  Co121  1  0.87948563  0.62613941  0.12658453  1
  Co  Co122  1  0.49672837  -0.00191898  0.24964431  1
  Co  Co123  1  0.62532974  0.87429483  0.37139325  1
  Co  Co124  1  0.75461316  -0.00105830  0.24788351  1
  Co  Co125  1  0.50301315  0.50020403  0.49923058  1
  Co  Co126  1  0.87438496  0.37475327  0.87850187  1
  Co  Co127  1  0.74924922  0.74763016  0.00370625  1
