# generated using pymatgen
data_Fe45Co19
_symmetry_space_group_name_H-M   'P 1'
_cell_length_a   11.41444872
_cell_length_b   11.41450709
_cell_length_c   11.41491299
_cell_angle_alpha   89.99396765
_cell_angle_beta   90.00628480
_cell_angle_gamma   89.99510215
_symmetry_Int_Tables_number   1
_chemical_formula_structural   Fe45Co19
_chemical_formula_sum   'Fe90 Co38'
_cell_volume   1487.25248280
_cell_formula_units_Z   2
loop_
 _symmetry_equiv_pos_site_id
 _symmetry_equiv_pos_as_xyz
  1  'x, y, z'
loop_
 _atom_site_type_symbol
 _atom_site_label
 _atom_site_symmetry_multiplicity
 _atom_site_fract_x
 _atom_site_fract_y
 _atom_site_fract_z
 _atom_site_occupancy
  Fe  Fe0  1  0.24718809  0.49889484  0.74898091  1
  Fe  Fe1  1  0.49842837  0.24887044  0.74547738  1
  Fe  Fe2  1  0.87733085  0.62415956  0.37780048  1
  Fe  Fe3  1  0.00384505  0.00259293  0.25190591  1
  Fe  Fe4  1  0.74956667  0.74813594  0.00340544  1
  Fe  Fe5  1  0.00084540  0.50015502  0.74974603  1
  Fe  Fe6  1  0.12475374  0.87270842  0.37699586  1
  Fe  Fe7  1  0.74966909  0.24874033  0.74748485  1
  Fe  Fe8  1  0.12656654  0.87673145  0.12688613  1
  Fe  Fe9  1  0.00183480  0.74606238  0.25052298  1
  Fe  Fe10  1  0.00078805  0.49677373  0.49689115  1
  Fe  Fe11  1  0.75041155  -0.00000999  0.00113732  1
  Fe  Fe12  1  0.24971904  0.00222918  0.74694865  1
  Fe  Fe13  1  0.37453977  0.62493029  0.12495049  1
  Fe  Fe14  1  0.37546378  0.62343694  0.62389756  1
  Fe  Fe15  1  0.00047333  -0.00101979  -0.00128467  1
  Fe  Fe16  1  0.25288867  0.25547478  0.50212900  1
  Fe  Fe17  1  0.87690358  0.12559194  0.12547507  1
  Fe  Fe18  1  0.12521510  0.37700064  0.12564780  1
  Fe  Fe19  1  0.87484651  0.37643797  0.37092079  1
  Fe  Fe20  1  0.00402722  0.24800288  0.25283236  1
  Fe  Fe21  1  0.62618467  0.37470277  0.87517757  1
  Fe  Fe22  1  0.62765473  0.87372062  0.87152511  1
  Fe  Fe23  1  0.37414645  0.87415408  0.87285183  1
  Fe  Fe24  1  0.24953458  0.49808491  0.49870444  1
  Fe  Fe25  1  0.49956176  0.50051813  0.75207035  1
  Fe  Fe26  1  0.87010815  0.87600568  0.63047738  1
  Fe  Fe27  1  0.87491460  0.87458999  0.12788205  1
  Fe  Fe28  1  0.62416629  0.37683566  0.62354802  1
  Fe  Fe29  1  0.37221340  0.87657723  0.12698828  1
  Fe  Fe30  1  0.87145837  0.87589572  0.37037607  1
  Fe  Fe31  1  0.62606989  0.37774294  0.12501193  1
  Fe  Fe32  1  0.00014569  0.25296495  0.00001513  1
  Fe  Fe33  1  0.75239164  0.25349869  0.00102097  1
  Fe  Fe34  1  0.37268851  0.37549593  0.13032693  1
  Fe  Fe35  1  0.50081313  -0.00230465  -0.00008565  1
  Fe  Fe36  1  0.24805766  0.74770056  0.25146121  1
  Fe  Fe37  1  0.37508566  0.62663928  0.37738533  1
  Fe  Fe38  1  0.87541151  0.12678234  0.87403980  1
  Fe  Fe39  1  0.24872674  0.74747113  0.74845236  1
  Fe  Fe40  1  0.62446575  0.62801976  0.37333325  1
  Fe  Fe41  1  0.12244057  0.62695482  0.61917738  1
  Fe  Fe42  1  0.24956633  0.74878936  -0.00083943  1
  Fe  Fe43  1  0.62532772  0.12284062  0.37861526  1
  Fe  Fe44  1  0.87495852  0.37664799  0.62512580  1
  Fe  Fe45  1  0.12713048  0.12852230  0.87521958  1
  Fe  Fe46  1  0.24454795  0.50371648  0.25333189  1
  Fe  Fe47  1  0.24911012  0.00163880  -0.00045510  1
  Fe  Fe48  1  0.75204317  0.25115470  0.50016589  1
  Fe  Fe49  1  0.75141758  0.50176915  0.75051633  1
  Fe  Fe50  1  0.37743649  0.87144438  0.37581396  1
  Fe  Fe51  1  0.75220745  0.50447415  0.24645714  1
  Fe  Fe52  1  -0.00373482  -0.00216519  0.50082848  1
  Fe  Fe53  1  0.37077430  0.37241051  0.87172379  1
  Fe  Fe54  1  0.87511958  0.12418024  0.37599714  1
  Fe  Fe55  1  0.62571000  0.62318028  0.87880872  1
  Fe  Fe56  1  0.49644042  0.25260348  0.00170215  1
  Fe  Fe57  1  -0.00394033  0.49562670  0.00140986  1
  Fe  Fe58  1  0.50039925  0.00139699  0.74897581  1
  Fe  Fe59  1  0.62596432  0.37543079  0.37421703  1
  Fe  Fe60  1  0.12356632  0.87283759  0.62434870  1
  Fe  Fe61  1  0.50238212  0.74810742  0.74831255  1
  Fe  Fe62  1  0.37299527  0.12714410  0.87366516  1
  Fe  Fe63  1  0.49602292  0.49845277  -0.00131341  1
  Fe  Fe64  1  0.37773663  0.87359690  0.62520704  1
  Fe  Fe65  1  0.12362125  0.12759882  0.61962764  1
  Fe  Fe66  1  0.00290376  0.25266366  0.74885806  1
  Fe  Fe67  1  0.37485231  0.12260939  0.12694305  1
  Fe  Fe68  1  0.37563374  0.12657870  0.37809581  1
  Fe  Fe69  1  0.49988335  0.49820482  0.49716647  1
  Fe  Fe70  1  0.87218414  0.87439004  0.87230318  1
  Fe  Fe71  1  0.87411968  0.62474098  0.87706355  1
  Fe  Fe72  1  0.00185718  0.75210703  0.00000272  1
  Fe  Fe73  1  0.62441118  0.12170257  0.62025909  1
  Fe  Fe74  1  0.12575775  0.87480358  0.87234047  1
  Fe  Fe75  1  0.12522172  0.62264199  0.87818009  1
  Fe  Fe76  1  0.74896234  0.24776587  0.24974890  1
  Fe  Fe77  1  0.24653468  0.24610281  0.25070504  1
  Fe  Fe78  1  0.62382840  0.12528847  0.12363941  1
  Fe  Fe79  1  0.50161341  0.25006803  0.25173858  1
  Fe  Fe80  1  -0.00190278  0.74709992  0.74862619  1
  Fe  Fe81  1  0.00032749  0.00191492  0.74985118  1
  Fe  Fe82  1  0.50061956  -0.00084400  0.25330481  1
  Fe  Fe83  1  0.49907026  0.75030056  0.00101412  1
  Fe  Fe84  1  0.62414508  0.12700565  0.87683649  1
  Fe  Fe85  1  0.62647477  0.62305353  0.62286454  1
  Fe  Fe86  1  0.62681584  0.87250914  0.13135781  1
  Fe  Fe87  1  0.25166571  -0.00301352  0.49982543  1
  Fe  Fe88  1  0.74986570  0.75168170  0.50083199  1
  Fe  Fe89  1  0.49980115  0.50114779  0.25113467  1
  Co  Co90  1  0.37814641  0.37867054  0.62564748  1
  Co  Co91  1  0.62205957  0.62306694  0.12340298  1
  Co  Co92  1  0.50042598  0.25400651  0.49970897  1
  Co  Co93  1  0.24855165  0.25170704  0.74423064  1
  Co  Co94  1  0.12778592  0.37541898  0.87804017  1
  Co  Co95  1  0.12522027  0.37340753  0.37434462  1
  Co  Co96  1  0.87690698  0.12608097  0.62529281  1
  Co  Co97  1  0.74883792  0.00551082  0.75200835  1
  Co  Co98  1  0.00274287  0.50423283  0.25207350  1
  Co  Co99  1  0.50374721  0.74970011  0.50217900  1
  Co  Co100  1  0.37484450  0.12460211  0.62095621  1
  Co  Co101  1  0.25222546  0.75116850  0.50132682  1
  Co  Co102  1  0.12552092  0.12542832  0.38351188  1
  Co  Co103  1  0.87879797  0.62621439  0.12289253  1
  Co  Co104  1  0.74895232  0.00413641  0.24846164  1
  Co  Co105  1  0.62784150  0.87750399  0.62737017  1
  Co  Co106  1  0.75022121  0.74332304  0.74805028  1
  Co  Co107  1  0.25421753  0.49983284  -0.00054215  1
  Co  Co108  1  0.50022281  -0.00400310  0.49832418  1
  Co  Co109  1  0.12363293  0.12292093  0.12345501  1
  Co  Co110  1  0.12418793  0.62369810  0.12090330  1
  Co  Co111  1  0.87619060  0.37314055  0.13198607  1
  Co  Co112  1  0.37421327  0.37469578  0.37186536  1
  Co  Co113  1  0.37442107  0.62684292  0.87304298  1
  Co  Co114  1  -0.00672239  0.75514327  0.50108625  1
  Co  Co115  1  -0.00489425  0.25348919  0.49770431  1
  Co  Co116  1  0.12270249  0.62908200  0.38221206  1
  Co  Co117  1  0.49725030  0.74910643  0.24902529  1
  Co  Co118  1  0.87391279  0.37442990  0.87023134  1
  Co  Co119  1  0.74912031  0.49920116  0.49743204  1
  Co  Co120  1  0.12247170  0.37516011  0.62201260  1
  Co  Co121  1  0.75284260  0.74341856  0.24977275  1
  Co  Co122  1  0.75294767  -0.00233373  0.49932760  1
  Co  Co123  1  0.75381778  0.49752141  0.00223157  1
  Co  Co124  1  0.24919438  0.00119919  0.25552221  1
  Co  Co125  1  0.87618810  0.62139330  0.62050178  1
  Co  Co126  1  0.25102471  0.24929661  0.00435570  1
  Co  Co127  1  0.62723460  0.87271215  0.37140685  1
