# generated using pymatgen
data_Fe45Co19
_symmetry_space_group_name_H-M   'P 1'
_cell_length_a   11.41561228
_cell_length_b   11.41351829
_cell_length_c   11.41558514
_cell_angle_alpha   89.99649636
_cell_angle_beta   90.00150706
_cell_angle_gamma   90.01442434
_symmetry_Int_Tables_number   1
_chemical_formula_structural   Fe45Co19
_chemical_formula_sum   'Fe90 Co38'
_cell_volume   1487.36278869
_cell_formula_units_Z   2
loop_
 _symmetry_equiv_pos_site_id
 _symmetry_equiv_pos_as_xyz
  1  'x, y, z'
loop_
 _atom_site_type_symbol
 _atom_site_label
 _atom_site_symmetry_multiplicity
 _atom_site_fract_x
 _atom_site_fract_y
 _atom_site_fract_z
 _atom_site_occupancy
  Fe  Fe0  1  0.25201539  0.50256830  0.75123193  1
  Fe  Fe1  1  0.74950652  0.75303987  0.49869698  1
  Fe  Fe2  1  0.74865850  0.75123207  0.75076681  1
  Fe  Fe3  1  0.50004921  -0.00101421  0.00114666  1
  Fe  Fe4  1  0.75064476  0.49764430  0.49903812  1
  Fe  Fe5  1  0.62474289  0.12122043  0.62191498  1
  Fe  Fe6  1  0.62152363  0.62388878  0.87630184  1
  Fe  Fe7  1  0.62355742  0.62604523  0.62475024  1
  Fe  Fe8  1  0.87669760  0.62617842  0.87642470  1
  Fe  Fe9  1  0.12613961  0.37610604  0.12230961  1
  Fe  Fe10  1  0.25050016  0.49930023  0.24777541  1
  Fe  Fe11  1  0.62220295  0.37528616  0.87468069  1
  Fe  Fe12  1  0.12787834  0.62544988  0.62514754  1
  Fe  Fe13  1  0.25229102  0.49896739  0.50092257  1
  Fe  Fe14  1  0.37371318  0.62704264  0.12135135  1
  Fe  Fe15  1  0.25032066  0.75147516  0.24967685  1
  Fe  Fe16  1  0.24962069  -0.00151577  0.49839205  1
  Fe  Fe17  1  0.87813566  0.87654789  0.87215951  1
  Fe  Fe18  1  0.37642290  0.12561086  0.87311535  1
  Fe  Fe19  1  0.50129637  0.75418037  0.49726752  1
  Fe  Fe20  1  0.87455815  0.87659426  0.12568446  1
  Fe  Fe21  1  0.62340959  0.87425476  0.12573778  1
  Fe  Fe22  1  0.00214921  0.25044364  0.74742141  1
  Fe  Fe23  1  0.37437778  0.12332854  0.37547240  1
  Fe  Fe24  1  0.24913830  -0.00075164  0.25065323  1
  Fe  Fe25  1  0.49670374  0.24792917  0.50224052  1
  Fe  Fe26  1  0.87620661  0.87544101  0.62724204  1
  Fe  Fe27  1  0.00191413  0.75015835  0.49966695  1
  Fe  Fe28  1  0.12494705  0.62750031  0.87888822  1
  Fe  Fe29  1  0.12297553  0.37268668  0.37734350  1
  Fe  Fe30  1  0.12249829  0.12857666  0.37680994  1
  Fe  Fe31  1  0.87856415  0.12818545  0.37305942  1
  Fe  Fe32  1  0.50049690  0.24825441  0.24895277  1
  Fe  Fe33  1  0.49772247  0.49829456  0.50311475  1
  Fe  Fe34  1  0.74768313  0.24843742  0.75182104  1
  Fe  Fe35  1  -0.00059627  0.00092296  0.00080462  1
  Fe  Fe36  1  0.37488794  0.62647244  0.37636512  1
  Fe  Fe37  1  0.87732712  0.87626649  0.37407970  1
  Fe  Fe38  1  0.00081304  0.00070579  0.50192150  1
  Fe  Fe39  1  0.49911145  0.00021903  0.74732060  1
  Fe  Fe40  1  0.75072865  0.49981037  0.25114415  1
  Fe  Fe41  1  -0.00130497  0.49557603  0.50252004  1
  Fe  Fe42  1  0.12394649  0.37542308  0.87590773  1
  Fe  Fe43  1  0.87481131  0.37293238  0.87520613  1
  Fe  Fe44  1  0.37628947  0.37482007  0.37230398  1
  Fe  Fe45  1  0.74987101  0.75262470  -0.00152068  1
  Fe  Fe46  1  0.74868820  0.00118855  0.25118623  1
  Fe  Fe47  1  0.74853948  0.50140329  0.75126211  1
  Fe  Fe48  1  0.00249477  0.00305471  0.24784781  1
  Fe  Fe49  1  0.74958191  0.49862887  -0.00097723  1
  Fe  Fe50  1  0.12509504  0.62412166  0.37424511  1
  Fe  Fe51  1  0.62340418  0.62475308  0.37491190  1
  Fe  Fe52  1  0.12634541  0.87147069  0.62725712  1
  Fe  Fe53  1  0.37852099  0.37599436  0.87355323  1
  Fe  Fe54  1  0.12598992  0.87493673  0.12456981  1
  Fe  Fe55  1  0.50009981  0.25000058  0.00153646  1
  Fe  Fe56  1  0.24821134  0.24941345  0.24993399  1
  Fe  Fe57  1  0.49927019  0.50107829  0.24680514  1
  Fe  Fe58  1  0.37223152  0.37081643  0.62956267  1
  Fe  Fe59  1  0.74927019  -0.00022616  0.75074091  1
  Fe  Fe60  1  0.00058160  0.50040186  0.74932083  1
  Fe  Fe61  1  0.37257332  0.87300134  0.62409335  1
  Fe  Fe62  1  0.87385228  0.62446262  0.62459954  1
  Fe  Fe63  1  -0.00380997  0.24785694  0.00403719  1
  Fe  Fe64  1  0.62488428  0.12270098  0.37807416  1
  Fe  Fe65  1  0.50031948  0.75109554  0.75109786  1
  Fe  Fe66  1  0.37516924  0.87405186  0.87645489  1
  Fe  Fe67  1  0.24983256  -0.00103937  -0.00109753  1
  Fe  Fe68  1  0.25221049  0.25086586  -0.00141503  1
  Fe  Fe69  1  0.13017423  0.12995841  0.62346457  1
  Fe  Fe70  1  0.87498328  0.12489657  0.62766705  1
  Fe  Fe71  1  0.75019571  0.74928381  0.25134242  1
  Fe  Fe72  1  0.12319907  0.12552934  0.87672254  1
  Fe  Fe73  1  0.75327138  0.25061218  0.50012111  1
  Fe  Fe74  1  0.75031495  0.24937771  0.24755883  1
  Fe  Fe75  1  0.87599596  0.62367289  0.37647696  1
  Fe  Fe76  1  0.00036231  0.74926154  0.24792899  1
  Fe  Fe77  1  0.87672008  0.62323094  0.12256533  1
  Fe  Fe78  1  0.49958838  -0.00240899  0.25178834  1
  Fe  Fe79  1  0.24833645  0.00056813  0.75145213  1
  Fe  Fe80  1  0.12246264  0.87222160  0.87322923  1
  Fe  Fe81  1  0.62397122  0.62723421  0.12360977  1
  Fe  Fe82  1  -0.00082408  0.49800498  0.24868919  1
  Fe  Fe83  1  0.62390549  0.37481228  0.37504871  1
  Fe  Fe84  1  0.62499623  0.37496166  0.62644204  1
  Fe  Fe85  1  0.75061000  0.00207589  -0.00052694  1
  Fe  Fe86  1  0.62422436  0.12403800  0.87665566  1
  Fe  Fe87  1  0.37708679  0.62443398  0.87909441  1
  Fe  Fe88  1  0.62556381  0.37434524  0.12450213  1
  Fe  Fe89  1  0.37362487  0.12418919  0.12516319  1
  Co  Co90  1  0.87357708  0.37707461  0.12375291  1
  Co  Co91  1  0.74999126  0.24781250  0.00034681  1
  Co  Co92  1  0.87619050  0.37246149  0.37260244  1
  Co  Co93  1  0.49821573  0.75006363  0.25047295  1
  Co  Co94  1  0.25399570  0.25172263  0.49617266  1
  Co  Co95  1  0.87352398  0.12352041  0.12665062  1
  Co  Co96  1  0.37336638  0.87433279  0.37579396  1
  Co  Co97  1  0.13068350  0.37465680  0.62561415  1
  Co  Co98  1  0.24864742  0.75195479  0.00043067  1
  Co  Co99  1  0.12541756  0.62414956  0.12446487  1
  Co  Co100  1  0.87213938  0.37646222  0.62994373  1
  Co  Co101  1  0.12881699  0.12453401  0.12218152  1
  Co  Co102  1  -0.00303140  0.25250199  0.50529097  1
  Co  Co103  1  0.25112567  0.49826312  -0.00078918  1
  Co  Co104  1  -0.00040456  0.74693074  0.74924909  1
  Co  Co105  1  0.24875605  0.24893798  0.75582475  1
  Co  Co106  1  0.37562534  0.87596781  0.12378697  1
  Co  Co107  1  -0.00050509  0.75172902  0.00186934  1
  Co  Co108  1  0.50188711  0.24651293  0.74845016  1
  Co  Co109  1  0.49957439  0.49815397  0.00432846  1
  Co  Co110  1  0.62344020  0.12325767  0.12456960  1
  Co  Co111  1  0.37388182  0.37219266  0.12617689  1
  Co  Co112  1  0.75493654  -0.00024469  0.49871292  1
  Co  Co113  1  0.62439446  0.87749799  0.87499468  1
  Co  Co114  1  0.49644892  -0.00080509  0.50043615  1
  Co  Co115  1  0.62584207  0.87697259  0.62451657  1
  Co  Co116  1  0.62649296  0.87669767  0.37437483  1
  Co  Co117  1  0.00040620  0.50031634  -0.00105596  1
  Co  Co118  1  0.00238481  0.25072459  0.24427647  1
  Co  Co119  1  0.00453882  0.00308100  0.74744332  1
  Co  Co120  1  0.24631021  0.75066629  0.49639932  1
  Co  Co121  1  0.37024484  0.12521154  0.62645593  1
  Co  Co122  1  0.49802141  0.50192808  0.74646169  1
  Co  Co123  1  0.37494667  0.63015978  0.62177188  1
  Co  Co124  1  0.50126295  0.75201604  -0.00073928  1
  Co  Co125  1  0.87653768  0.12484989  0.87276352  1
  Co  Co126  1  0.12297584  0.87530762  0.37283952  1
  Co  Co127  1  0.25207352  0.74773437  0.75333598  1
