# generated using pymatgen
data_Fe45Co19
_symmetry_space_group_name_H-M   'P 1'
_cell_length_a   11.41379218
_cell_length_b   11.41535564
_cell_length_c   11.41519957
_cell_angle_alpha   89.99870331
_cell_angle_beta   89.98746069
_cell_angle_gamma   89.99123071
_symmetry_Int_Tables_number   1
_chemical_formula_structural   Fe45Co19
_chemical_formula_sum   'Fe90 Co38'
_cell_volume   1487.31480198
_cell_formula_units_Z   2
loop_
 _symmetry_equiv_pos_site_id
 _symmetry_equiv_pos_as_xyz
  1  'x, y, z'
loop_
 _atom_site_type_symbol
 _atom_site_label
 _atom_site_symmetry_multiplicity
 _atom_site_fract_x
 _atom_site_fract_y
 _atom_site_fract_z
 _atom_site_occupancy
  Fe  Fe0  1  0.24832726  0.24638507  0.49927630  1
  Fe  Fe1  1  0.00936246  -0.00377212  -0.00106837  1
  Fe  Fe2  1  0.87555750  0.12567537  0.87671420  1
  Fe  Fe3  1  0.62508807  0.12692386  0.37471946  1
  Fe  Fe4  1  0.75328658  0.24781513  0.24864672  1
  Fe  Fe5  1  0.87465635  0.12346576  0.62466143  1
  Fe  Fe6  1  0.12321882  0.37317310  0.37685911  1
  Fe  Fe7  1  -0.00461195  0.74906322  0.74699844  1
  Fe  Fe8  1  0.50135840  0.00051498  0.75522987  1
  Fe  Fe9  1  0.49932010  0.74937539  0.75025471  1
  Fe  Fe10  1  0.87751621  0.62196822  0.87612744  1
  Fe  Fe11  1  0.50045549  0.50151273  0.74989498  1
  Fe  Fe12  1  0.37478130  0.37507342  0.62407623  1
  Fe  Fe13  1  0.24702920  0.50076491  0.50277006  1
  Fe  Fe14  1  0.37351658  0.87976520  0.37351272  1
  Fe  Fe15  1  0.75038106  0.00095924  0.75242856  1
  Fe  Fe16  1  0.50116361  0.00058010  0.49841036  1
  Fe  Fe17  1  0.62340146  0.37116210  0.62546207  1
  Fe  Fe18  1  0.12425494  0.12403584  0.62828494  1
  Fe  Fe19  1  0.75067194  0.25057575  0.49954417  1
  Fe  Fe20  1  -0.00167929  0.75171343  0.50297379  1
  Fe  Fe21  1  0.62951547  0.62576125  0.62184762  1
  Fe  Fe22  1  0.00196851  0.00020745  0.50249142  1
  Fe  Fe23  1  0.75321397  0.75084238  0.74847929  1
  Fe  Fe24  1  0.12504219  0.87660769  0.62990127  1
  Fe  Fe25  1  0.25199767  0.24893572  0.75201416  1
  Fe  Fe26  1  0.24638165  0.50054375  0.00081005  1
  Fe  Fe27  1  0.87507023  0.37525266  0.62416746  1
  Fe  Fe28  1  0.87915142  0.12161088  0.12176824  1
  Fe  Fe29  1  0.12480936  0.37309987  0.12739753  1
  Fe  Fe30  1  0.62601862  0.87576330  0.12478340  1
  Fe  Fe31  1  0.75373709  0.75228831  0.25039975  1
  Fe  Fe32  1  0.49952076  0.75185719  0.25123057  1
  Fe  Fe33  1  0.12129704  0.62879305  0.12804950  1
  Fe  Fe34  1  0.00285382  0.50034838  0.50579156  1
  Fe  Fe35  1  0.62576354  0.87536277  0.62617093  1
  Fe  Fe36  1  0.37481654  0.37460583  0.37632310  1
  Fe  Fe37  1  0.24981913  0.75255299  0.50129997  1
  Fe  Fe38  1  0.50227208  0.75139389  0.49767351  1
  Fe  Fe39  1  0.74871313  -0.00103939  0.49949735  1
  Fe  Fe40  1  0.62670326  0.37154911  0.87449386  1
  Fe  Fe41  1  0.50058558  0.75270582  -0.00032293  1
  Fe  Fe42  1  0.75063901  0.49890813  0.25193821  1
  Fe  Fe43  1  0.87377636  0.62306465  0.37993745  1
  Fe  Fe44  1  0.12568452  0.87616170  0.37384497  1
  Fe  Fe45  1  0.62664017  0.62741534  0.87610048  1
  Fe  Fe46  1  0.75001336  0.00074095  0.24922330  1
  Fe  Fe47  1  0.37570059  0.87754420  0.62515175  1
  Fe  Fe48  1  0.25375580  0.74874924  0.74843112  1
  Fe  Fe49  1  0.49814314  0.24733623  0.75205640  1
  Fe  Fe50  1  0.00205476  0.25179663  -0.00227893  1
  Fe  Fe51  1  0.37421105  0.37841427  0.87528541  1
  Fe  Fe52  1  0.49582757  0.24616318  0.24885379  1
  Fe  Fe53  1  0.50466488  0.49926164  0.49748590  1
  Fe  Fe54  1  0.37181088  0.87748579  0.87701376  1
  Fe  Fe55  1  0.87793663  0.37568209  0.12461640  1
  Fe  Fe56  1  0.00030553  0.24798966  0.25122914  1
  Fe  Fe57  1  -0.00308034  0.25029691  0.74969764  1
  Fe  Fe58  1  0.37337846  0.88115557  0.12378473  1
  Fe  Fe59  1  0.75168514  0.49789159  0.75048287  1
  Fe  Fe60  1  0.24583659  0.75201668  -0.00053359  1
  Fe  Fe61  1  0.49879049  0.24890428  0.00013071  1
  Fe  Fe62  1  0.87774900  0.37430241  0.37609182  1
  Fe  Fe63  1  0.12324423  0.62698214  0.37545314  1
  Fe  Fe64  1  0.37524483  0.62393920  0.62210074  1
  Fe  Fe65  1  0.87963866  0.62637353  0.12433949  1
  Fe  Fe66  1  0.37472968  0.12303781  0.62450551  1
  Fe  Fe67  1  0.00418309  0.00035322  0.24678240  1
  Fe  Fe68  1  0.37453884  0.62369012  0.87656422  1
  Fe  Fe69  1  0.75190770  0.25036123  0.00102981  1
  Fe  Fe70  1  0.37002620  0.12144876  0.88237368  1
  Fe  Fe71  1  0.37481491  0.62454360  0.37604043  1
  Fe  Fe72  1  0.37169127  0.37287273  0.12461235  1
  Fe  Fe73  1  0.75151286  0.49981729  0.00079564  1
  Fe  Fe74  1  0.50159043  0.49961021  0.00037342  1
  Fe  Fe75  1  0.87588795  0.87509029  0.87710615  1
  Fe  Fe76  1  0.87533233  0.87854950  0.37587643  1
  Fe  Fe77  1  0.24811995  0.50010441  0.25074618  1
  Fe  Fe78  1  0.62527344  0.12623545  0.62655695  1
  Fe  Fe79  1  0.12327408  0.37818988  0.86986063  1
  Fe  Fe80  1  0.62513072  0.37336368  0.12680478  1
  Fe  Fe81  1  0.74745542  -0.00090895  -0.00221189  1
  Fe  Fe82  1  0.12320338  0.62430842  0.87096187  1
  Fe  Fe83  1  0.50069351  0.49993611  0.25116978  1
  Fe  Fe84  1  0.37145955  0.12074038  0.37353887  1
  Fe  Fe85  1  0.62348151  0.12420761  0.12311233  1
  Fe  Fe86  1  0.62495822  0.62646507  0.12593505  1
  Fe  Fe87  1  0.87762698  0.12419261  0.37609300  1
  Fe  Fe88  1  0.37452861  0.62491811  0.12419185  1
  Fe  Fe89  1  0.25161213  0.75072460  0.25112261  1
  Co  Co90  1  0.62356433  0.36917312  0.37145196  1
  Co  Co91  1  0.24426617  0.00191893  0.24567262  1
  Co  Co92  1  0.62790907  0.62747584  0.37410620  1
  Co  Co93  1  0.50050790  0.00263833  0.24924180  1
  Co  Co94  1  0.87439120  0.87845231  0.62458270  1
  Co  Co95  1  0.25142017  0.50163035  0.74780983  1
  Co  Co96  1  0.37018658  0.12261232  0.11940955  1
  Co  Co97  1  0.12314931  0.12328012  0.37568099  1
  Co  Co98  1  -0.00147292  0.50018434  0.74398903  1
  Co  Co99  1  0.24787588  0.00025717  0.50272775  1
  Co  Co100  1  0.12486389  0.12520738  0.87174735  1
  Co  Co101  1  0.25202325  0.00183305  0.75015657  1
  Co  Co102  1  0.00218044  0.49974517  0.00138758  1
  Co  Co103  1  0.23886211  -0.00435752  0.00239431  1
  Co  Co104  1  0.62486672  0.87596784  0.37336618  1
  Co  Co105  1  0.75288206  0.74892334  0.00194967  1
  Co  Co106  1  0.12697057  0.13139431  0.12378591  1
  Co  Co107  1  0.62769308  0.12957772  0.87471397  1
  Co  Co108  1  0.12584509  0.87262632  0.86576191  1
  Co  Co109  1  0.24651245  0.25377681  -0.00406052  1
  Co  Co110  1  0.24979827  0.24900104  0.25419556  1
  Co  Co111  1  0.74690126  0.49334384  0.49762352  1
  Co  Co112  1  -0.00573311  0.75123447  0.25458294  1
  Co  Co113  1  0.62725340  0.87050202  0.87375091  1
  Co  Co114  1  0.87665516  0.87803046  0.12233593  1
  Co  Co115  1  0.00004192  0.24840293  0.50227676  1
  Co  Co116  1  0.75365646  0.24980372  0.74886916  1
  Co  Co117  1  0.12243718  0.86726673  0.13017122  1
  Co  Co118  1  0.87009721  0.62303923  0.62059749  1
  Co  Co119  1  0.00188725  0.75231003  -0.00285442  1
  Co  Co120  1  -0.00374730  0.00097356  0.75180217  1
  Co  Co121  1  0.00019908  0.49996977  0.25121012  1
  Co  Co122  1  0.75124002  0.75527686  0.49885167  1
  Co  Co123  1  0.12760888  0.37069940  0.62718479  1
  Co  Co124  1  0.49800626  0.24750518  0.49925000  1
  Co  Co125  1  0.87617614  0.37554432  0.87575720  1
  Co  Co126  1  0.12623645  0.62901613  0.62752914  1
  Co  Co127  1  0.50379692  -0.00043874  -0.00343308  1
