# generated using pymatgen
data_Fe45Co19
_symmetry_space_group_name_H-M   'P 1'
_cell_length_a   11.41475539
_cell_length_b   11.41543976
_cell_length_c   11.41451247
_cell_angle_alpha   90.00645128
_cell_angle_beta   89.99573695
_cell_angle_gamma   90.00499484
_symmetry_Int_Tables_number   1
_chemical_formula_structural   Fe45Co19
_chemical_formula_sum   'Fe90 Co38'
_cell_volume   1487.36177821
_cell_formula_units_Z   2
loop_
 _symmetry_equiv_pos_site_id
 _symmetry_equiv_pos_as_xyz
  1  'x, y, z'
loop_
 _atom_site_type_symbol
 _atom_site_label
 _atom_site_symmetry_multiplicity
 _atom_site_fract_x
 _atom_site_fract_y
 _atom_site_fract_z
 _atom_site_occupancy
  Fe  Fe0  1  0.37562624  0.87255423  0.12544443  1
  Fe  Fe1  1  0.49928470  0.50077555  -0.00077162  1
  Fe  Fe2  1  0.00197759  0.24493316  0.75424963  1
  Fe  Fe3  1  0.49930434  -0.00095605  -0.00276173  1
  Fe  Fe4  1  0.87459126  0.62487300  0.37665148  1
  Fe  Fe5  1  0.24876248  0.75315606  0.50344095  1
  Fe  Fe6  1  -0.00073373  0.49976752  0.50303630  1
  Fe  Fe7  1  0.37223650  0.37361431  0.87534624  1
  Fe  Fe8  1  0.87776063  0.37427849  0.87528209  1
  Fe  Fe9  1  0.75221049  0.00054636  0.50256090  1
  Fe  Fe10  1  0.87623064  0.12682872  0.12179957  1
  Fe  Fe11  1  0.74654024  0.25248846  0.00036974  1
  Fe  Fe12  1  0.75028371  0.74983444  0.24874805  1
  Fe  Fe13  1  0.00112340  -0.00373411  -0.00498477  1
  Fe  Fe14  1  0.62672923  0.12325101  0.87429227  1
  Fe  Fe15  1  0.87296938  0.87402334  0.37717259  1
  Fe  Fe16  1  0.87774616  0.87229742  0.12197741  1
  Fe  Fe17  1  0.49868249  0.24788001  0.75130884  1
  Fe  Fe18  1  0.75176602  0.49927536  0.50245197  1
  Fe  Fe19  1  0.12587199  0.87342992  0.37198039  1
  Fe  Fe20  1  0.50251832  0.75195680  0.50257300  1
  Fe  Fe21  1  0.87387381  0.37550329  0.37440263  1
  Fe  Fe22  1  0.00380408  0.25154315  -0.00054228  1
  Fe  Fe23  1  0.37286208  0.62839951  0.37702636  1
  Fe  Fe24  1  0.62422149  0.37762256  0.87230513  1
  Fe  Fe25  1  0.37642395  0.37318953  0.12414203  1
  Fe  Fe26  1  -0.00086272  0.74965307  0.75243011  1
  Fe  Fe27  1  0.62467120  0.87639536  0.37424207  1
  Fe  Fe28  1  0.37738360  0.87662576  0.62602232  1
  Fe  Fe29  1  0.24953455  0.24721749  0.25111663  1
  Fe  Fe30  1  0.87735337  0.37077925  0.62654085  1
  Fe  Fe31  1  0.87571764  0.12519952  0.37601102  1
  Fe  Fe32  1  0.25003488  0.49954260  0.75001945  1
  Fe  Fe33  1  0.24525195  0.75153457  0.00003553  1
  Fe  Fe34  1  -0.00030611  0.75125501  0.50034276  1
  Fe  Fe35  1  0.12317351  0.62569675  0.12530389  1
  Fe  Fe36  1  0.12486871  0.37339502  0.62876823  1
  Fe  Fe37  1  0.12509847  0.12142599  0.12395669  1
  Fe  Fe38  1  0.74799198  0.74954262  0.75073568  1
  Fe  Fe39  1  0.37362141  0.37280762  0.62514240  1
  Fe  Fe40  1  0.37199442  0.12440080  0.61877439  1
  Fe  Fe41  1  0.24690796  0.25137079  -0.00075422  1
  Fe  Fe42  1  0.37512408  0.37257845  0.37446687  1
  Fe  Fe43  1  0.50045226  0.74895408  0.25092317  1
  Fe  Fe44  1  0.24886628  0.49856134  0.50147285  1
  Fe  Fe45  1  0.50217267  0.24939491  0.49828592  1
  Fe  Fe46  1  0.37638793  0.12726876  0.12303038  1
  Fe  Fe47  1  -0.00158807  -0.00098508  0.25118496  1
  Fe  Fe48  1  0.75196587  -0.00017916  0.24713168  1
  Fe  Fe49  1  0.37633747  0.62565364  0.62660011  1
  Fe  Fe50  1  0.37507407  0.62712821  0.87235964  1
  Fe  Fe51  1  -0.00340819  0.50000314  0.24760303  1
  Fe  Fe52  1  0.12620486  0.37838507  0.12368672  1
  Fe  Fe53  1  0.37403634  0.87265320  0.87162718  1
  Fe  Fe54  1  0.75089554  -0.00147870  0.00033871  1
  Fe  Fe55  1  0.37283094  0.12716196  0.87752971  1
  Fe  Fe56  1  0.74524831  0.75040598  -0.00276723  1
  Fe  Fe57  1  0.62399766  0.37483298  0.62623008  1
  Fe  Fe58  1  0.12369438  0.62454713  0.62576089  1
  Fe  Fe59  1  0.12454205  0.62191743  0.87467846  1
  Fe  Fe60  1  0.49726463  0.00168492  0.25202670  1
  Fe  Fe61  1  0.24941183  -0.00393149  -0.00007162  1
  Fe  Fe62  1  0.62538040  0.12327979  0.37454961  1
  Fe  Fe63  1  0.37617238  0.62779214  0.12274343  1
  Fe  Fe64  1  0.62446294  0.87945452  0.63004948  1
  Fe  Fe65  1  0.00140844  0.24947014  0.24895626  1
  Fe  Fe66  1  0.87517214  0.62455027  0.87565059  1
  Fe  Fe67  1  0.50497653  0.75070847  -0.00587726  1
  Fe  Fe68  1  0.49903394  0.49928181  0.49891787  1
  Fe  Fe69  1  0.00254927  0.24938685  0.49774564  1
  Fe  Fe70  1  0.25275817  0.50258301  0.24823679  1
  Fe  Fe71  1  0.75904198  0.00329180  0.75074516  1
  Fe  Fe72  1  0.74897601  0.25022606  0.50010200  1
  Fe  Fe73  1  0.62318709  0.87493933  0.12486261  1
  Fe  Fe74  1  0.62634845  0.12471777  0.62791271  1
  Fe  Fe75  1  0.62295590  0.12483742  0.12403827  1
  Fe  Fe76  1  0.12539084  0.62509128  0.37456868  1
  Fe  Fe77  1  0.25276647  -0.00030876  0.25260068  1
  Fe  Fe78  1  0.74909742  0.25053991  0.24958960  1
  Fe  Fe79  1  0.75123395  0.49968962  0.00311192  1
  Fe  Fe80  1  0.62615792  0.62139298  0.37292387  1
  Fe  Fe81  1  0.12425747  0.12245970  0.62214809  1
  Fe  Fe82  1  0.12076589  0.87879368  0.62972947  1
  Fe  Fe83  1  0.62324678  0.62169836  0.62845171  1
  Fe  Fe84  1  0.12530706  0.37696498  0.37308338  1
  Fe  Fe85  1  0.74810801  0.75014761  0.50336773  1
  Fe  Fe86  1  0.87662363  0.62835732  0.12285554  1
  Fe  Fe87  1  0.25072105  0.00260533  0.74996062  1
  Fe  Fe88  1  0.62184691  0.37741580  0.12961006  1
  Fe  Fe89  1  0.75381780  0.49834984  0.74772748  1
  Co  Co90  1  -0.00116575  -0.00207065  0.49821381  1
  Co  Co91  1  0.12508292  0.12390192  0.37584896  1
  Co  Co92  1  0.87524705  0.62788600  0.62578377  1
  Co  Co93  1  0.50296885  0.25077180  -0.00272479  1
  Co  Co94  1  0.75418243  0.50049561  0.24703727  1
  Co  Co95  1  0.12517156  0.37757950  0.87419955  1
  Co  Co96  1  0.62662056  0.88132381  0.87118857  1
  Co  Co97  1  0.12423887  0.87644664  0.12775646  1
  Co  Co98  1  0.62594877  0.37837283  0.37341328  1
  Co  Co99  1  0.24995359  0.74950388  0.24807230  1
  Co  Co100  1  0.24622639  0.25258490  0.49855717  1
  Co  Co101  1  0.49622864  0.49791955  0.75037715  1
  Co  Co102  1  0.62404381  0.62431547  0.12555449  1
  Co  Co103  1  0.87655335  0.87359578  0.62617078  1
  Co  Co104  1  -0.00157449  0.49910520  0.00183047  1
  Co  Co105  1  0.87507658  0.37079193  0.12417425  1
  Co  Co106  1  0.12688135  0.87654960  0.86959949  1
  Co  Co107  1  0.37304525  0.12577497  0.38047936  1
  Co  Co108  1  0.24748735  -0.00525770  0.49762556  1
  Co  Co109  1  -0.00082766  0.50087718  0.74861466  1
  Co  Co110  1  0.49565890  0.00473961  0.75184663  1
  Co  Co111  1  0.49999524  0.24736338  0.25261483  1
  Co  Co112  1  0.87392408  0.87196086  0.87542941  1
  Co  Co113  1  0.50253489  -0.00036728  0.49957909  1
  Co  Co114  1  0.62622052  0.61954707  0.87234951  1
  Co  Co115  1  0.50376779  0.75063823  0.75115104  1
  Co  Co116  1  0.00524580  0.75209033  -0.00283367  1
  Co  Co117  1  0.37650881  0.87215111  0.37642789  1
  Co  Co118  1  0.87337204  0.12889891  0.88160487  1
  Co  Co119  1  0.49552049  0.50233397  0.25041074  1
  Co  Co120  1  0.75043388  0.25038157  0.75124800  1
  Co  Co121  1  0.24881112  0.74904156  0.74733380  1
  Co  Co122  1  -0.00483288  0.00431069  0.75393876  1
  Co  Co123  1  0.87772915  0.12790010  0.62208880  1
  Co  Co124  1  0.24972384  0.24743252  0.75013513  1
  Co  Co125  1  0.25117268  0.50171224  -0.00035993  1
  Co  Co126  1  -0.00152360  0.75054679  0.25119104  1
  Co  Co127  1  0.12796976  0.12240208  0.87742188  1
