# generated using pymatgen
data_Fe45Co19
_symmetry_space_group_name_H-M   'P 1'
_cell_length_a   11.41586202
_cell_length_b   11.41608573
_cell_length_c   11.41626103
_cell_angle_alpha   90.00109240
_cell_angle_beta   90.00610916
_cell_angle_gamma   89.99680354
_symmetry_Int_Tables_number   1
_chemical_formula_structural   Fe45Co19
_chemical_formula_sum   'Fe90 Co38'
_cell_volume   1487.81803723
_cell_formula_units_Z   2
loop_
 _symmetry_equiv_pos_site_id
 _symmetry_equiv_pos_as_xyz
  1  'x, y, z'
loop_
 _atom_site_type_symbol
 _atom_site_label
 _atom_site_symmetry_multiplicity
 _atom_site_fract_x
 _atom_site_fract_y
 _atom_site_fract_z
 _atom_site_occupancy
  Fe  Fe0  1  0.37295156  0.37603384  0.37592368  1
  Fe  Fe1  1  0.62399313  0.37575696  0.62622104  1
  Fe  Fe2  1  0.49959393  -0.00028788  0.75110527  1
  Fe  Fe3  1  0.50099562  0.25105887  0.49976616  1
  Fe  Fe4  1  -0.00085860  0.74861288  0.75005586  1
  Fe  Fe5  1  0.87556926  0.62324342  0.12269508  1
  Fe  Fe6  1  0.87790231  0.37352217  0.62563468  1
  Fe  Fe7  1  0.62573874  0.37541111  0.87458020  1
  Fe  Fe8  1  0.12028106  0.87454974  0.62097089  1
  Fe  Fe9  1  0.62620880  0.87459482  0.87574583  1
  Fe  Fe10  1  0.74966249  0.75182288  0.49979989  1
  Fe  Fe11  1  0.62456307  0.12386336  0.62441542  1
  Fe  Fe12  1  0.62817316  0.12365047  0.37339515  1
  Fe  Fe13  1  0.49844362  0.24793739  0.25105035  1
  Fe  Fe14  1  0.74926730  0.25130050  0.50070973  1
  Fe  Fe15  1  0.87990960  0.12655834  0.62241185  1
  Fe  Fe16  1  0.25043661  0.00053126  0.25165756  1
  Fe  Fe17  1  0.75133898  0.49909725  0.24814820  1
  Fe  Fe18  1  0.12752683  0.37652577  0.37040751  1
  Fe  Fe19  1  0.87297287  0.62438983  0.87952312  1
  Fe  Fe20  1  -0.00246402  0.00197280  0.25684344  1
  Fe  Fe21  1  0.37203031  0.12723252  0.87340171  1
  Fe  Fe22  1  0.75153725  0.75117857  0.75058057  1
  Fe  Fe23  1  0.87704105  0.12537689  0.87499959  1
  Fe  Fe24  1  0.12544194  0.61884489  0.12561258  1
  Fe  Fe25  1  0.62442703  0.37632747  0.37402154  1
  Fe  Fe26  1  0.00172782  0.74680921  0.25121897  1
  Fe  Fe27  1  0.62543207  0.12178064  0.12692757  1
  Fe  Fe28  1  0.87754079  0.12541299  0.12614162  1
  Fe  Fe29  1  0.62562550  0.62257823  0.37404001  1
  Fe  Fe30  1  0.12436348  0.87550001  0.87375369  1
  Fe  Fe31  1  0.00140098  0.50021975  0.49919536  1
  Fe  Fe32  1  0.75124008  0.24973331  0.75011077  1
  Fe  Fe33  1  0.50087537  0.24875045  -0.00088731  1
  Fe  Fe34  1  0.75061716  0.25080443  0.24812881  1
  Fe  Fe35  1  0.75628689  -0.00161971  0.49681872  1
  Fe  Fe36  1  0.75436362  -0.00150905  0.74937468  1
  Fe  Fe37  1  0.75258198  0.49958623  0.75074604  1
  Fe  Fe38  1  0.49631418  0.50025472  0.00280091  1
  Fe  Fe39  1  0.62215702  0.37602294  0.12607308  1
  Fe  Fe40  1  0.37239084  0.62422759  0.37774892  1
  Fe  Fe41  1  0.36984876  0.12683581  0.37802322  1
  Fe  Fe42  1  0.62714448  0.62441022  0.87861525  1
  Fe  Fe43  1  0.37205384  0.37207413  0.87489421  1
  Fe  Fe44  1  0.37221472  0.87345560  0.87446894  1
  Fe  Fe45  1  0.24930329  -0.00038278  0.00079924  1
  Fe  Fe46  1  0.12793886  0.62272009  0.37715801  1
  Fe  Fe47  1  0.49538754  0.50138017  0.24755557  1
  Fe  Fe48  1  0.37275201  0.62667498  0.87725190  1
  Fe  Fe49  1  0.49746327  0.00019438  -0.00080450  1
  Fe  Fe50  1  0.12415125  0.37736010  0.62958004  1
  Fe  Fe51  1  0.00148229  0.74917496  0.00007814  1
  Fe  Fe52  1  0.00044773  -0.00097827  -0.00079725  1
  Fe  Fe53  1  0.50264776  0.75033976  0.00281044  1
  Fe  Fe54  1  0.74945479  0.49935658  0.50026619  1
  Fe  Fe55  1  0.75329418  -0.00452938  0.00343630  1
  Fe  Fe56  1  0.87631366  0.62567129  0.62272366  1
  Fe  Fe57  1  0.12540110  0.12577777  0.12732395  1
  Fe  Fe58  1  0.62602219  0.87628652  0.62470135  1
  Fe  Fe59  1  0.12515057  0.12417548  0.87426946  1
  Fe  Fe60  1  0.37427328  0.37426625  0.62547195  1
  Fe  Fe61  1  0.87325154  0.62601892  0.37516035  1
  Fe  Fe62  1  0.24882928  0.74942591  0.25046094  1
  Fe  Fe63  1  0.00379187  0.25315182  -0.00094462  1
  Fe  Fe64  1  0.50019141  0.74931598  0.74920981  1
  Fe  Fe65  1  0.62491928  0.87865793  0.37063261  1
  Fe  Fe66  1  0.12289977  0.87667554  0.12695085  1
  Fe  Fe67  1  0.24694164  0.00107352  0.74654026  1
  Fe  Fe68  1  0.49782884  -0.00075847  0.49740839  1
  Fe  Fe69  1  0.37507204  0.12735990  0.62502076  1
  Fe  Fe70  1  0.37374475  0.62345042  0.62143881  1
  Fe  Fe71  1  0.50024057  0.74876463  0.24969869  1
  Fe  Fe72  1  0.88001102  0.37696005  0.12439886  1
  Fe  Fe73  1  0.37465735  0.87463280  0.62392924  1
  Fe  Fe74  1  0.12585894  0.87506670  0.37812547  1
  Fe  Fe75  1  0.75102999  0.25204476  0.00163070  1
  Fe  Fe76  1  0.62486994  0.62387929  0.62460965  1
  Fe  Fe77  1  0.49822304  0.50047865  0.75011699  1
  Fe  Fe78  1  0.12680246  0.62175309  0.87266154  1
  Fe  Fe79  1  0.74823544  0.75198579  0.24397188  1
  Fe  Fe80  1  0.24896816  0.74902248  0.74661076  1
  Fe  Fe81  1  0.87481866  0.37450605  0.37529321  1
  Fe  Fe82  1  0.12134692  0.12536062  0.61866557  1
  Fe  Fe83  1  0.24646509  0.74977200  0.00191945  1
  Fe  Fe84  1  0.00192472  0.24965752  0.25292547  1
  Fe  Fe85  1  0.62651736  0.12445741  0.87473031  1
  Fe  Fe86  1  0.37183059  0.12825187  0.12341425  1
  Fe  Fe87  1  0.37492808  0.87394958  0.12654131  1
  Fe  Fe88  1  0.12600311  0.37817128  0.87133329  1
  Fe  Fe89  1  0.50087169  0.75081919  0.49825166  1
  Co  Co90  1  0.12394300  0.37760425  0.12965145  1
  Co  Co91  1  0.00260190  0.49871378  -0.00201242  1
  Co  Co92  1  0.87817580  0.87389758  0.62505830  1
  Co  Co93  1  0.24917059  0.74982290  0.50157337  1
  Co  Co94  1  0.24656306  0.49767778  0.50136585  1
  Co  Co95  1  0.24700514  0.24739670  0.74858594  1
  Co  Co96  1  0.62606729  0.62148431  0.12407942  1
  Co  Co97  1  0.87534992  0.86820042  0.37211881  1
  Co  Co98  1  0.37253260  0.62951546  0.12367246  1
  Co  Co99  1  0.50128755  0.49945209  0.50011717  1
  Co  Co100  1  0.88247812  0.87398892  0.12656532  1
  Co  Co101  1  -0.00503794  -0.00119844  0.49333088  1
  Co  Co102  1  0.00143226  0.24890943  0.75209444  1
  Co  Co103  1  0.00147463  0.00056181  0.74927867  1
  Co  Co104  1  0.24394290  0.25176082  -0.00041554  1
  Co  Co105  1  0.74992697  0.75451663  0.00460185  1
  Co  Co106  1  0.87553265  0.37365406  0.87495741  1
  Co  Co107  1  0.12380642  0.62387357  0.62593795  1
  Co  Co108  1  0.87388188  0.13151853  0.37625059  1
  Co  Co109  1  0.75069934  0.49575558  0.00192783  1
  Co  Co110  1  -0.00423327  0.50215153  0.75061253  1
  Co  Co111  1  0.87807675  0.87447549  0.87534590  1
  Co  Co112  1  0.24755873  0.25412290  0.50139804  1
  Co  Co113  1  0.49427845  0.00424247  0.25157785  1
  Co  Co114  1  -0.00141051  0.50206935  0.25345593  1
  Co  Co115  1  0.75639989  -0.00047801  0.24955133  1
  Co  Co116  1  0.00364000  0.25517481  0.49661754  1
  Co  Co117  1  0.50164973  0.24963266  0.75033133  1
  Co  Co118  1  0.25440501  0.50082489  0.24685485  1
  Co  Co119  1  0.12757012  0.12483583  0.37795534  1
  Co  Co120  1  0.24928609  0.24949678  0.25024250  1
  Co  Co121  1  0.37312008  0.87271689  0.37416634  1
  Co  Co122  1  0.37327398  0.36981195  0.12388774  1
  Co  Co123  1  0.25357123  0.50212033  0.74924277  1
  Co  Co124  1  0.62040628  0.88079337  0.12783736  1
  Co  Co125  1  0.25046582  0.49868910  0.00244154  1
  Co  Co126  1  0.00060286  0.74731181  0.49830261  1
  Co  Co127  1  0.25108387  -0.00092511  0.50103747  1
