# generated using pymatgen
data_Fe45Co19
_symmetry_space_group_name_H-M   'P 1'
_cell_length_a   11.41568285
_cell_length_b   11.41610835
_cell_length_c   11.41424183
_cell_angle_alpha   89.99702185
_cell_angle_beta   90.00314315
_cell_angle_gamma   89.99759532
_symmetry_Int_Tables_number   1
_chemical_formula_structural   Fe45Co19
_chemical_formula_sum   'Fe90 Co38'
_cell_volume   1487.53449242
_cell_formula_units_Z   2
loop_
 _symmetry_equiv_pos_site_id
 _symmetry_equiv_pos_as_xyz
  1  'x, y, z'
loop_
 _atom_site_type_symbol
 _atom_site_label
 _atom_site_symmetry_multiplicity
 _atom_site_fract_x
 _atom_site_fract_y
 _atom_site_fract_z
 _atom_site_occupancy
  Fe  Fe0  1  0.49817233  0.75084033  0.00210062  1
  Fe  Fe1  1  0.74826420  0.25029577  0.25058748  1
  Fe  Fe2  1  0.74970997  -0.00178031  0.24727362  1
  Fe  Fe3  1  0.12584752  0.12255927  0.62230915  1
  Fe  Fe4  1  0.12515751  0.87354597  0.61945146  1
  Fe  Fe5  1  0.49924893  0.75091769  0.75008051  1
  Fe  Fe6  1  0.74907679  0.74924627  0.49732175  1
  Fe  Fe7  1  0.62583910  0.12454851  0.62420216  1
  Fe  Fe8  1  0.24952482  0.00120106  0.25170603  1
  Fe  Fe9  1  0.37328688  0.62520786  0.12779707  1
  Fe  Fe10  1  0.12739527  0.37752402  0.62208982  1
  Fe  Fe11  1  0.37336161  0.12639654  0.87417347  1
  Fe  Fe12  1  0.12781313  0.62025804  0.12578510  1
  Fe  Fe13  1  0.50079990  0.75181544  0.24826809  1
  Fe  Fe14  1  0.62641266  0.37592568  0.12524887  1
  Fe  Fe15  1  0.75165647  -0.00007857  0.75149159  1
  Fe  Fe16  1  0.62523568  0.87520680  0.62414368  1
  Fe  Fe17  1  0.37223149  0.62537076  0.62392321  1
  Fe  Fe18  1  0.87853754  0.62538304  0.87370686  1
  Fe  Fe19  1  0.50380926  0.25081850  0.25159572  1
  Fe  Fe20  1  0.25273835  0.49790014  0.25527533  1
  Fe  Fe21  1  0.37344948  0.87378057  0.62422157  1
  Fe  Fe22  1  0.00295978  0.25085787  0.00292823  1
  Fe  Fe23  1  0.87571362  0.62494387  0.37393081  1
  Fe  Fe24  1  -0.00003139  0.49761666  0.00105126  1
  Fe  Fe25  1  0.87480461  0.12662115  0.62616976  1
  Fe  Fe26  1  0.12434694  0.87638389  0.87744137  1
  Fe  Fe27  1  0.75127824  0.00029370  0.49824099  1
  Fe  Fe28  1  0.00415722  0.25084232  0.24885946  1
  Fe  Fe29  1  0.24633035  0.24920933  -0.00034259  1
  Fe  Fe30  1  0.62417098  0.62503735  0.12486154  1
  Fe  Fe31  1  0.24728407  0.75191594  0.25296841  1
  Fe  Fe32  1  0.74749984  0.25004391  0.49760399  1
  Fe  Fe33  1  0.75007883  0.49953078  0.24912928  1
  Fe  Fe34  1  0.75150919  0.49988903  0.49950589  1
  Fe  Fe35  1  0.37490084  0.62562191  0.87446761  1
  Fe  Fe36  1  0.87884729  0.87227913  0.87967311  1
  Fe  Fe37  1  0.62490414  0.37449567  0.87509075  1
  Fe  Fe38  1  0.75253916  0.25082394  0.00152260  1
  Fe  Fe39  1  0.75426148  0.00003457  0.00438556  1
  Fe  Fe40  1  0.49990977  0.00131117  0.24717856  1
  Fe  Fe41  1  0.37343113  0.87511516  0.87576913  1
  Fe  Fe42  1  0.62174472  0.62252314  0.37362315  1
  Fe  Fe43  1  0.75229755  0.49909369  -0.00068442  1
  Fe  Fe44  1  0.24876807  0.25166625  0.75037187  1
  Fe  Fe45  1  0.37456281  0.12891735  0.37645498  1
  Fe  Fe46  1  0.49638109  0.49811068  0.00247316  1
  Fe  Fe47  1  0.37084008  0.37297031  0.12607671  1
  Fe  Fe48  1  0.00020983  0.00095206  0.24799125  1
  Fe  Fe49  1  0.49928056  0.00137212  0.75002005  1
  Fe  Fe50  1  0.49685007  0.49722107  0.75070768  1
  Fe  Fe51  1  0.24319890  0.24964106  0.25360456  1
  Fe  Fe52  1  0.87621588  0.62770777  0.62744721  1
  Fe  Fe53  1  0.49908478  0.00171506  0.49923508  1
  Fe  Fe54  1  0.74953496  0.75065807  0.75223939  1
  Fe  Fe55  1  0.49472963  0.49624249  0.49619870  1
  Fe  Fe56  1  0.24834512  0.74811662  0.00026105  1
  Fe  Fe57  1  0.87795315  0.87389926  0.37459165  1
  Fe  Fe58  1  0.00235820  0.24864320  0.49822369  1
  Fe  Fe59  1  0.87675940  0.37549883  0.37399435  1
  Fe  Fe60  1  0.37339905  0.12879716  0.62167391  1
  Fe  Fe61  1  0.00016401  -0.00122191  0.74990897  1
  Fe  Fe62  1  0.50036223  0.25002807  0.74959972  1
  Fe  Fe63  1  0.87535829  0.62685532  0.12451143  1
  Fe  Fe64  1  0.12584718  0.62373477  0.37809652  1
  Fe  Fe65  1  0.12367200  0.62274849  0.87211996  1
  Fe  Fe66  1  0.25177127  0.49765374  0.75125647  1
  Fe  Fe67  1  0.87609712  0.87278636  0.62302023  1
  Fe  Fe68  1  0.87454261  0.37298285  0.62613612  1
  Fe  Fe69  1  0.37539488  0.87447442  0.37444291  1
  Fe  Fe70  1  0.62462444  0.37530818  0.62454291  1
  Fe  Fe71  1  0.75180195  0.49807329  0.75127217  1
  Fe  Fe72  1  0.49898930  0.74976967  0.49912892  1
  Fe  Fe73  1  0.25077455  0.00368619  0.00214093  1
  Fe  Fe74  1  0.00293489  0.74925773  0.24984224  1
  Fe  Fe75  1  0.24955979  -0.00077425  0.74884756  1
  Fe  Fe76  1  0.62394806  0.62503352  0.87559042  1
  Fe  Fe77  1  0.62596762  0.12425246  0.87742601  1
  Fe  Fe78  1  0.87582490  0.12539329  0.37303788  1
  Fe  Fe79  1  0.62409546  0.87593949  0.87857423  1
  Fe  Fe80  1  -0.00106940  0.50177672  0.50181529  1
  Fe  Fe81  1  0.49596887  0.00218539  0.00440032  1
  Fe  Fe82  1  0.87733073  0.12825900  0.87427981  1
  Fe  Fe83  1  0.12442583  0.87720510  0.12367570  1
  Fe  Fe84  1  0.62365085  0.62325581  0.62457503  1
  Fe  Fe85  1  0.74841285  0.75222978  0.24867586  1
  Fe  Fe86  1  0.00340561  0.25193033  0.75026970  1
  Fe  Fe87  1  0.12742310  0.62669991  0.62429646  1
  Fe  Fe88  1  0.49882792  0.24962332  0.00194056  1
  Fe  Fe89  1  0.00009433  0.49926310  0.24915689  1
  Co  Co90  1  0.49694252  0.49640817  0.24822731  1
  Co  Co91  1  0.62524014  0.12189357  0.37435026  1
  Co  Co92  1  0.87602331  0.12744511  0.12746734  1
  Co  Co93  1  -0.00007280  0.74770925  0.49866177  1
  Co  Co94  1  0.00202825  0.75292392  0.74964167  1
  Co  Co95  1  0.25250165  0.00025421  0.49845071  1
  Co  Co96  1  0.12514179  0.12310454  0.12528075  1
  Co  Co97  1  0.12332323  0.12099895  0.37699886  1
  Co  Co98  1  0.50408071  0.25136016  0.49843725  1
  Co  Co99  1  0.87744494  0.37271097  0.87331642  1
  Co  Co100  1  0.25255727  0.50130424  -0.00198395  1
  Co  Co101  1  0.62436580  0.87575251  0.12267827  1
  Co  Co102  1  0.62611630  0.12449908  0.12439623  1
  Co  Co103  1  0.12136051  0.37891517  0.37664996  1
  Co  Co104  1  0.12233460  0.87809877  0.37743973  1
  Co  Co105  1  -0.00156523  0.00370882  0.00084693  1
  Co  Co106  1  0.37250075  0.12948138  0.12839947  1
  Co  Co107  1  0.87577547  0.37479568  0.12722989  1
  Co  Co108  1  0.25323066  0.49952601  0.49635798  1
  Co  Co109  1  0.37322892  0.37171965  0.62309324  1
  Co  Co110  1  0.37383285  0.37246078  0.87616018  1
  Co  Co111  1  0.12470544  0.12390214  0.87411093  1
  Co  Co112  1  0.00015942  0.49770046  0.74709667  1
  Co  Co113  1  0.24513020  0.25088183  0.49687047  1
  Co  Co114  1  0.37178922  0.87402813  0.12560962  1
  Co  Co115  1  -0.00315537  0.00191991  0.50103769  1
  Co  Co116  1  0.12506120  0.37717786  0.87638494  1
  Co  Co117  1  0.62332926  0.87622265  0.37523731  1
  Co  Co118  1  0.37399933  0.36850212  0.37462871  1
  Co  Co119  1  0.25078575  0.75054558  0.49588923  1
  Co  Co120  1  0.74749101  0.24968522  0.75008274  1
  Co  Co121  1  0.75065239  0.74861861  0.00030849  1
  Co  Co122  1  0.24921049  0.75113190  0.75117139  1
  Co  Co123  1  0.62638459  0.37926977  0.37469856  1
  Co  Co124  1  0.87921799  0.87162341  0.12444206  1
  Co  Co125  1  0.12806462  0.37859764  0.12521690  1
  Co  Co126  1  0.00474452  0.74592344  0.00210202  1
  Co  Co127  1  0.37685823  0.62729130  0.37273786  1
