# generated using pymatgen
data_Fe45Co19
_symmetry_space_group_name_H-M   'P 1'
_cell_length_a   11.41555598
_cell_length_b   11.41542906
_cell_length_c   11.41608641
_cell_angle_alpha   90.00274700
_cell_angle_beta   89.99277294
_cell_angle_gamma   90.00756058
_symmetry_Int_Tables_number   1
_chemical_formula_structural   Fe45Co19
_chemical_formula_sum   'Fe90 Co38'
_cell_volume   1487.66980186
_cell_formula_units_Z   2
loop_
 _symmetry_equiv_pos_site_id
 _symmetry_equiv_pos_as_xyz
  1  'x, y, z'
loop_
 _atom_site_type_symbol
 _atom_site_label
 _atom_site_symmetry_multiplicity
 _atom_site_fract_x
 _atom_site_fract_y
 _atom_site_fract_z
 _atom_site_occupancy
  Fe  Fe0  1  0.12493797  0.37641571  0.62407521  1
  Fe  Fe1  1  0.87315166  0.87181211  0.87479311  1
  Fe  Fe2  1  0.49775766  -0.00203785  0.75126509  1
  Fe  Fe3  1  0.49912633  0.00217062  0.00148983  1
  Fe  Fe4  1  0.62622954  0.12240796  0.37303195  1
  Fe  Fe5  1  0.25060133  0.75236347  0.24811438  1
  Fe  Fe6  1  0.25146177  0.24816543  0.49940973  1
  Fe  Fe7  1  0.87201658  0.37823035  0.87391678  1
  Fe  Fe8  1  0.50305126  0.74748758  -0.00063238  1
  Fe  Fe9  1  0.12739532  0.37568457  0.37572106  1
  Fe  Fe10  1  0.25543801  0.50117637  0.49922277  1
  Fe  Fe11  1  0.37834880  0.37233235  0.62300636  1
  Fe  Fe12  1  0.00004982  0.50299026  -0.00018105  1
  Fe  Fe13  1  0.74583773  0.75378635  0.25024360  1
  Fe  Fe14  1  0.50217283  0.75496549  0.25114908  1
  Fe  Fe15  1  0.50107666  0.50032950  0.74956795  1
  Fe  Fe16  1  0.62164352  0.37353097  0.62354802  1
  Fe  Fe17  1  0.87523064  0.12554330  0.87368909  1
  Fe  Fe18  1  0.87692179  0.86880136  0.62431420  1
  Fe  Fe19  1  0.12896924  0.37906895  0.87768655  1
  Fe  Fe20  1  0.74613191  0.74665139  0.00130113  1
  Fe  Fe21  1  0.12820543  0.12304450  0.87559608  1
  Fe  Fe22  1  0.00008382  -0.00115591  0.50036839  1
  Fe  Fe23  1  0.12720522  0.87515252  0.62382327  1
  Fe  Fe24  1  0.12714040  0.12347532  0.62699047  1
  Fe  Fe25  1  0.37184113  0.12592080  0.87456701  1
  Fe  Fe26  1  0.74769794  0.49686181  0.25023932  1
  Fe  Fe27  1  0.25239252  0.50011190  0.74850806  1
  Fe  Fe28  1  0.74997125  -0.00149616  0.50217469  1
  Fe  Fe29  1  0.87331078  0.12445143  0.37367257  1
  Fe  Fe30  1  0.87282354  0.62550934  0.12699023  1
  Fe  Fe31  1  0.00029046  -0.00294389  0.75009741  1
  Fe  Fe32  1  0.25133121  -0.00026797  0.23991189  1
  Fe  Fe33  1  0.50088335  -0.00207117  0.24565503  1
  Fe  Fe34  1  0.50276650  0.24848052  -0.00192013  1
  Fe  Fe35  1  0.00099557  0.24896050  0.49998604  1
  Fe  Fe36  1  0.37358829  0.37326360  0.87596732  1
  Fe  Fe37  1  0.62817065  0.12744836  0.12600913  1
  Fe  Fe38  1  -0.00160285  -0.00190519  0.24787050  1
  Fe  Fe39  1  0.37463820  0.36868876  0.12581604  1
  Fe  Fe40  1  0.00021501  0.50237019  0.49884317  1
  Fe  Fe41  1  0.62578940  0.37778267  0.87545202  1
  Fe  Fe42  1  0.49578389  0.00069180  0.50054824  1
  Fe  Fe43  1  -0.00039181  0.50499448  0.75208269  1
  Fe  Fe44  1  0.00082896  0.74617366  -0.00245638  1
  Fe  Fe45  1  0.12923742  0.87846469  0.37412030  1
  Fe  Fe46  1  0.62552594  0.87533534  0.87534138  1
  Fe  Fe47  1  0.25296359  0.75104056  0.49765170  1
  Fe  Fe48  1  0.87263430  0.87441350  0.37715215  1
  Fe  Fe49  1  0.12631897  0.62304183  0.12514705  1
  Fe  Fe50  1  0.87494850  0.37591963  0.62650031  1
  Fe  Fe51  1  0.25146718  0.75178767  0.75059267  1
  Fe  Fe52  1  0.12393634  0.62744041  0.62471525  1
  Fe  Fe53  1  0.37893096  0.62757592  0.62546065  1
  Fe  Fe54  1  0.74899568  0.24836900  0.49968914  1
  Fe  Fe55  1  0.75039416  -0.00116428  0.74909451  1
  Fe  Fe56  1  0.12599350  0.12271052  0.37305236  1
  Fe  Fe57  1  0.74721345  0.24960476  0.75274483  1
  Fe  Fe58  1  0.00104447  0.74991283  0.25205611  1
  Fe  Fe59  1  0.49864976  0.50057071  0.00286597  1
  Fe  Fe60  1  0.00274166  0.25122652  0.75140607  1
  Fe  Fe61  1  0.37501748  0.62420095  0.87488990  1
  Fe  Fe62  1  0.12842528  0.62392468  0.37433009  1
  Fe  Fe63  1  0.74746289  0.50455624  0.50460819  1
  Fe  Fe64  1  0.87571949  0.12621097  0.62656463  1
  Fe  Fe65  1  0.74715350  0.50242178  0.00217850  1
  Fe  Fe66  1  0.87313764  0.62655229  0.37691956  1
  Fe  Fe67  1  0.37751180  0.62724233  0.12806409  1
  Fe  Fe68  1  0.12717104  0.87567614  0.87746827  1
  Fe  Fe69  1  -0.00049827  -0.00101907  0.00057394  1
  Fe  Fe70  1  0.25012295  0.74869737  0.00214938  1
  Fe  Fe71  1  0.62140876  0.87196446  0.62474822  1
  Fe  Fe72  1  0.87293117  0.37380748  0.12371313  1
  Fe  Fe73  1  0.87453472  0.87286987  0.12355375  1
  Fe  Fe74  1  0.37416633  0.12595254  0.36903195  1
  Fe  Fe75  1  0.00152913  0.25253865  0.24950750  1
  Fe  Fe76  1  0.49710964  0.75218977  0.49527189  1
  Fe  Fe77  1  0.62276875  0.62440863  0.37439513  1
  Fe  Fe78  1  0.37423292  0.87600310  0.87855862  1
  Fe  Fe79  1  0.37385089  0.12610586  0.62995392  1
  Fe  Fe80  1  0.62152865  0.37376750  0.37918857  1
  Fe  Fe81  1  0.74814556  0.74356854  0.74824966  1
  Fe  Fe82  1  0.87299300  0.12767011  0.12641041  1
  Fe  Fe83  1  0.87463968  0.37538516  0.37808945  1
  Fe  Fe84  1  0.49905787  0.49560830  0.25065407  1
  Fe  Fe85  1  0.00181083  0.25166861  -0.00047037  1
  Fe  Fe86  1  0.25314685  0.49723745  0.24923464  1
  Fe  Fe87  1  0.75050287  0.00173515  0.00005377  1
  Fe  Fe88  1  -0.00044999  0.49997248  0.25031357  1
  Fe  Fe89  1  0.62319459  0.12519846  0.62755475  1
  Co  Co90  1  0.37760760  0.13023366  0.12552137  1
  Co  Co91  1  0.49828169  0.75168447  0.75465383  1
  Co  Co92  1  0.25120559  -0.00308219  0.75110053  1
  Co  Co93  1  0.12131367  0.12431774  0.12340729  1
  Co  Co94  1  0.37285387  0.87930400  0.37187590  1
  Co  Co95  1  0.74835965  0.24872844  -0.00373329  1
  Co  Co96  1  0.62564602  0.37304277  0.12242976  1
  Co  Co97  1  0.37618494  0.62660465  0.37103044  1
  Co  Co98  1  0.62424803  0.12145852  0.87363771  1
  Co  Co99  1  0.24534698  0.25027329  0.24797181  1
  Co  Co100  1  0.62365043  0.87887848  0.37833560  1
  Co  Co101  1  0.62267203  0.62364298  0.12911239  1
  Co  Co102  1  0.74729739  0.50382675  0.74445057  1
  Co  Co103  1  0.62488793  0.87670343  0.12063466  1
  Co  Co104  1  0.24787702  0.24862905  0.00226939  1
  Co  Co105  1  0.49689676  0.50172553  0.49768575  1
  Co  Co106  1  0.00426448  0.75166463  0.49479608  1
  Co  Co107  1  0.37496251  0.37052305  0.37556276  1
  Co  Co108  1  0.25531351  0.50113569  0.00337882  1
  Co  Co109  1  0.61658155  0.62820088  0.62376704  1
  Co  Co110  1  0.13041924  0.62273256  0.87575198  1
  Co  Co111  1  0.87117342  0.62409554  0.87554659  1
  Co  Co112  1  0.50115883  0.25031183  0.75289003  1
  Co  Co113  1  0.75027669  -0.00373533  0.24837606  1
  Co  Co114  1  0.50426956  0.25142114  0.25077375  1
  Co  Co115  1  0.88048062  0.62788035  0.62262621  1
  Co  Co116  1  0.12523450  0.37872652  0.12332603  1
  Co  Co117  1  0.74640781  0.74791499  0.50036858  1
  Co  Co118  1  0.62345268  0.62220510  0.87500536  1
  Co  Co119  1  0.24891490  0.25315158  0.75019492  1
  Co  Co120  1  0.74930851  0.25369354  0.25273808  1
  Co  Co121  1  0.37566869  0.87416725  0.62437691  1
  Co  Co122  1  0.12249234  0.87346550  0.12308264  1
  Co  Co123  1  0.49802496  0.24394862  0.49880124  1
  Co  Co124  1  0.25170169  0.00086255  0.00516734  1
  Co  Co125  1  0.25402160  0.00275151  0.50107441  1
  Co  Co126  1  0.37811350  0.87193310  0.12257380  1
  Co  Co127  1  0.00259761  0.74919428  0.75456241  1
