# generated using pymatgen
data_Fe45Co19
_symmetry_space_group_name_H-M   'P 1'
_cell_length_a   11.41519856
_cell_length_b   11.41393597
_cell_length_c   11.41478974
_cell_angle_alpha   90.00359443
_cell_angle_beta   89.99178781
_cell_angle_gamma   90.00845735
_symmetry_Int_Tables_number   1
_chemical_formula_structural   Fe45Co19
_chemical_formula_sum   'Fe90 Co38'
_cell_volume   1487.25969427
_cell_formula_units_Z   2
loop_
 _symmetry_equiv_pos_site_id
 _symmetry_equiv_pos_as_xyz
  1  'x, y, z'
loop_
 _atom_site_type_symbol
 _atom_site_label
 _atom_site_symmetry_multiplicity
 _atom_site_fract_x
 _atom_site_fract_y
 _atom_site_fract_z
 _atom_site_occupancy
  Fe  Fe0  1  0.74978442  0.50031767  0.74977618  1
  Fe  Fe1  1  0.74855897  0.24995028  0.50070851  1
  Fe  Fe2  1  0.12588197  0.62726466  0.37231095  1
  Fe  Fe3  1  0.62796566  0.87412457  0.12554607  1
  Fe  Fe4  1  0.37623284  0.62306631  0.88051008  1
  Fe  Fe5  1  0.37450916  0.87464753  0.62666510  1
  Fe  Fe6  1  0.12179672  0.12258369  0.37104659  1
  Fe  Fe7  1  0.62325528  0.37395292  0.87357466  1
  Fe  Fe8  1  0.62638022  0.37408762  0.12652334  1
  Fe  Fe9  1  0.74820916  0.50039164  -0.00062728  1
  Fe  Fe10  1  0.62582024  0.87713772  0.87432289  1
  Fe  Fe11  1  0.87317193  0.37440617  0.87524524  1
  Fe  Fe12  1  0.49963489  0.24831694  0.00169279  1
  Fe  Fe13  1  0.75233914  0.75134807  0.75010971  1
  Fe  Fe14  1  0.00339545  0.00411763  -0.00356628  1
  Fe  Fe15  1  0.49882432  -0.00304346  0.49807289  1
  Fe  Fe16  1  0.62637371  0.62922007  0.12528814  1
  Fe  Fe17  1  0.37480935  0.87357596  0.12412677  1
  Fe  Fe18  1  0.87433385  0.87378049  0.12158997  1
  Fe  Fe19  1  0.87439995  0.62466366  0.62485606  1
  Fe  Fe20  1  0.87443065  0.62544178  0.12382126  1
  Fe  Fe21  1  0.50126870  -0.00271182  0.25094717  1
  Fe  Fe22  1  0.37198805  0.87045494  0.37421791  1
  Fe  Fe23  1  0.25026671  0.74942553  0.75191115  1
  Fe  Fe24  1  0.25516764  0.25271119  0.75021754  1
  Fe  Fe25  1  0.24822351  0.74912237  0.00135280  1
  Fe  Fe26  1  0.00011278  0.25037310  0.75064170  1
  Fe  Fe27  1  -0.00025552  0.49772658  0.24813684  1
  Fe  Fe28  1  0.24785877  -0.00214780  0.49933513  1
  Fe  Fe29  1  0.37568195  0.12259030  0.87456588  1
  Fe  Fe30  1  0.49854481  0.74913477  0.75034291  1
  Fe  Fe31  1  0.00022365  0.50034233  0.75023641  1
  Fe  Fe32  1  0.87889803  0.12569484  0.12790240  1
  Fe  Fe33  1  0.12627549  0.37218485  0.87829989  1
  Fe  Fe34  1  0.00011705  0.00062763  0.50243679  1
  Fe  Fe35  1  0.37418085  0.37697009  0.37364457  1
  Fe  Fe36  1  0.49977890  0.25018005  0.25043808  1
  Fe  Fe37  1  0.50206286  0.75148182  -0.00030761  1
  Fe  Fe38  1  0.62114645  0.37642415  0.62656999  1
  Fe  Fe39  1  0.37380217  0.62501577  0.62453121  1
  Fe  Fe40  1  0.62581636  0.87278303  0.62396289  1
  Fe  Fe41  1  0.75136994  0.24818684  0.00120660  1
  Fe  Fe42  1  0.87818385  0.87592719  0.87298186  1
  Fe  Fe43  1  0.00173778  0.25095441  0.49915640  1
  Fe  Fe44  1  0.37424578  0.12317045  0.37457282  1
  Fe  Fe45  1  0.74939732  0.00170870  -0.00075094  1
  Fe  Fe46  1  0.87516993  0.37463084  0.62473633  1
  Fe  Fe47  1  0.50034089  0.50264086  0.50025123  1
  Fe  Fe48  1  0.12548470  0.12615357  0.62784328  1
  Fe  Fe49  1  0.87539402  0.87344132  0.37828125  1
  Fe  Fe50  1  0.74652663  0.24654237  0.74729069  1
  Fe  Fe51  1  0.24984501  0.24967992  0.24891145  1
  Fe  Fe52  1  0.62542036  0.62929605  0.37532633  1
  Fe  Fe53  1  0.50146616  0.00011917  0.00080542  1
  Fe  Fe54  1  0.25008415  0.50192250  0.49996420  1
  Fe  Fe55  1  0.37543686  0.12338581  0.62447109  1
  Fe  Fe56  1  -0.00103546  0.75192551  0.24915736  1
  Fe  Fe57  1  0.12429104  0.36998207  0.12079209  1
  Fe  Fe58  1  0.74807548  0.50153467  0.50007886  1
  Fe  Fe59  1  0.62568858  0.12374900  0.37489283  1
  Fe  Fe60  1  0.25068726  0.50269282  0.24274158  1
  Fe  Fe61  1  0.49925525  0.50187887  0.24771987  1
  Fe  Fe62  1  0.87736536  0.12565282  0.37424262  1
  Fe  Fe63  1  0.62768065  0.87220265  0.37579644  1
  Fe  Fe64  1  0.87581102  0.62603839  0.87644301  1
  Fe  Fe65  1  0.24651650  0.00112129  -0.00241709  1
  Fe  Fe66  1  0.00184881  0.50068267  0.50086021  1
  Fe  Fe67  1  0.24703095  -0.00255929  0.25076857  1
  Fe  Fe68  1  0.75133546  0.25044589  0.25080437  1
  Fe  Fe69  1  0.12349471  0.62616260  0.87623671  1
  Fe  Fe70  1  0.49897230  0.25106651  0.49900130  1
  Fe  Fe71  1  0.62429288  0.62438176  0.87306003  1
  Fe  Fe72  1  0.87377996  0.12303126  0.86996637  1
  Fe  Fe73  1  0.25146197  0.49925914  0.75214500  1
  Fe  Fe74  1  0.12704950  0.37656902  0.62566654  1
  Fe  Fe75  1  0.00128331  0.74715098  0.50207745  1
  Fe  Fe76  1  -0.00061975  0.49830639  -0.00017659  1
  Fe  Fe77  1  0.75229571  0.00113270  0.50455151  1
  Fe  Fe78  1  0.75064268  0.50166412  0.25098684  1
  Fe  Fe79  1  0.24945001  0.24942120  0.49890007  1
  Fe  Fe80  1  0.87402387  0.37727994  0.37569404  1
  Fe  Fe81  1  0.37444231  0.12255657  0.12681383  1
  Fe  Fe82  1  0.12700031  0.37721213  0.37417496  1
  Fe  Fe83  1  0.50254152  0.00106555  0.75047045  1
  Fe  Fe84  1  0.24671632  -0.00205526  0.75334997  1
  Fe  Fe85  1  0.12334769  0.87570945  0.12339055  1
  Fe  Fe86  1  0.37689440  0.37866442  0.88076231  1
  Fe  Fe87  1  0.75209873  -0.00088934  0.25013844  1
  Fe  Fe88  1  0.37290252  0.63013547  0.37278665  1
  Fe  Fe89  1  0.12331315  0.87226688  0.62747295  1
  Co  Co90  1  0.62469566  0.12513401  0.87593284  1
  Co  Co91  1  0.24772936  0.75040276  0.24538076  1
  Co  Co92  1  -0.00154742  -0.00513042  0.24951602  1
  Co  Co93  1  0.24899180  0.75108872  0.50216958  1
  Co  Co94  1  0.12216948  0.87039195  0.87471688  1
  Co  Co95  1  0.24664089  0.50188674  0.00392852  1
  Co  Co96  1  -0.00131212  0.74655396  0.74862286  1
  Co  Co97  1  0.50526869  0.50024857  0.00281478  1
  Co  Co98  1  0.12303840  0.12598056  0.12723398  1
  Co  Co99  1  0.00308445  0.00097476  0.75083263  1
  Co  Co100  1  -0.00012826  0.25475473  0.25156238  1
  Co  Co101  1  0.87703342  0.12647372  0.62662004  1
  Co  Co102  1  0.12712801  0.62340948  0.62690745  1
  Co  Co103  1  -0.00409376  0.24707040  -0.00250631  1
  Co  Co104  1  0.87344177  0.37651393  0.12409292  1
  Co  Co105  1  0.62593416  0.62618677  0.62725811  1
  Co  Co106  1  0.87732163  0.87419961  0.62623791  1
  Co  Co107  1  0.49873357  0.75005796  0.50090756  1
  Co  Co108  1  0.37537451  0.87529403  0.87646152  1
  Co  Co109  1  0.12733795  0.13004534  0.87290619  1
  Co  Co110  1  0.50069497  0.75221187  0.24952035  1
  Co  Co111  1  0.12365395  0.87288120  0.37625427  1
  Co  Co112  1  0.49655764  0.25026508  0.75042788  1
  Co  Co113  1  0.74823062  -0.00019718  0.74669321  1
  Co  Co114  1  0.49736382  0.50085482  0.74988977  1
  Co  Co115  1  0.12017547  0.62603787  0.12484599  1
  Co  Co116  1  0.74967974  0.75030694  -0.00333773  1
  Co  Co117  1  0.62558424  0.12429166  0.12672620  1
  Co  Co118  1  -0.00070021  0.74975172  0.00100369  1
  Co  Co119  1  0.37802090  0.62723264  0.12200286  1
  Co  Co120  1  0.75151025  0.74807956  0.50096404  1
  Co  Co121  1  0.25394419  0.24670059  0.00052362  1
  Co  Co122  1  0.87731647  0.62396996  0.37497650  1
  Co  Co123  1  0.37533806  0.37733022  0.62149481  1
  Co  Co124  1  0.75320798  0.75078341  0.25100188  1
  Co  Co125  1  0.37568421  0.37609512  0.12342116  1
  Co  Co126  1  0.62103165  0.12449623  0.62283309  1
  Co  Co127  1  0.62455838  0.37643626  0.37378638  1
