# generated using pymatgen
data_Fe45Co19
_symmetry_space_group_name_H-M   'P 1'
_cell_length_a   11.41613472
_cell_length_b   11.41536890
_cell_length_c   11.41430679
_cell_angle_alpha   90.00044705
_cell_angle_beta   90.00220554
_cell_angle_gamma   89.99251849
_symmetry_Int_Tables_number   1
_chemical_formula_structural   Fe45Co19
_chemical_formula_sum   'Fe90 Co38'
_cell_volume   1487.50547427
_cell_formula_units_Z   2
loop_
 _symmetry_equiv_pos_site_id
 _symmetry_equiv_pos_as_xyz
  1  'x, y, z'
loop_
 _atom_site_type_symbol
 _atom_site_label
 _atom_site_symmetry_multiplicity
 _atom_site_fract_x
 _atom_site_fract_y
 _atom_site_fract_z
 _atom_site_occupancy
  Fe  Fe0  1  0.37726377  0.12251090  0.12739170  1
  Fe  Fe1  1  -0.00099137  0.25039908  -0.00189804  1
  Fe  Fe2  1  0.12500002  0.37399393  0.37669859  1
  Fe  Fe3  1  0.62152675  0.37867299  0.12189251  1
  Fe  Fe4  1  0.37057787  0.87647631  0.36987611  1
  Fe  Fe5  1  0.25040190  0.24994803  0.24730883  1
  Fe  Fe6  1  0.87324042  0.62694879  0.37267072  1
  Fe  Fe7  1  0.25133822  0.24875051  0.50544015  1
  Fe  Fe8  1  0.25009391  0.49984953  0.24915465  1
  Fe  Fe9  1  0.75351155  0.50117395  -0.00305167  1
  Fe  Fe10  1  0.25194627  -0.00187386  0.00076902  1
  Fe  Fe11  1  0.37821103  0.87267516  0.62870097  1
  Fe  Fe12  1  0.37747163  0.62355798  0.12540852  1
  Fe  Fe13  1  0.62379861  0.37836795  0.62250343  1
  Fe  Fe14  1  0.25212419  0.25118972  0.00311237  1
  Fe  Fe15  1  0.12616382  0.62745660  0.37334844  1
  Fe  Fe16  1  0.74990791  0.75132194  0.24756772  1
  Fe  Fe17  1  0.87546086  0.37615578  0.62505155  1
  Fe  Fe18  1  0.00118749  0.75012430  0.49979225  1
  Fe  Fe19  1  0.12736786  0.12569657  0.87566540  1
  Fe  Fe20  1  0.37447818  0.37353981  0.37621261  1
  Fe  Fe21  1  0.87309177  0.12479175  0.87381303  1
  Fe  Fe22  1  0.00097599  -0.00054912  0.75192079  1
  Fe  Fe23  1  0.50052653  -0.00157872  0.75593458  1
  Fe  Fe24  1  0.62309835  0.12245518  0.12501778  1
  Fe  Fe25  1  0.25001961  0.75107552  0.50234869  1
  Fe  Fe26  1  0.74939655  0.24879480  0.50200664  1
  Fe  Fe27  1  0.87696459  0.37679325  0.12658940  1
  Fe  Fe28  1  0.62528575  0.37692821  0.37851686  1
  Fe  Fe29  1  0.49932821  0.75070821  0.25058711  1
  Fe  Fe30  1  0.75073920  0.00075610  -0.00011779  1
  Fe  Fe31  1  0.49768263  0.00128486  0.49606494  1
  Fe  Fe32  1  0.62907278  0.62632009  0.87335298  1
  Fe  Fe33  1  -0.00118145  0.74833132  0.00007721  1
  Fe  Fe34  1  0.62208426  0.87634272  0.12292151  1
  Fe  Fe35  1  0.12131509  0.62592867  0.12846745  1
  Fe  Fe36  1  0.87567299  0.37344477  0.37444209  1
  Fe  Fe37  1  0.25189233  0.49982962  0.00051994  1
  Fe  Fe38  1  0.87361502  0.62521225  0.62980817  1
  Fe  Fe39  1  0.87667970  0.87608868  0.12432498  1
  Fe  Fe40  1  0.12556762  0.87295398  0.12907519  1
  Fe  Fe41  1  0.49786145  0.74960554  -0.00285610  1
  Fe  Fe42  1  0.25033776  -0.00205658  0.75010732  1
  Fe  Fe43  1  0.50066853  0.50047576  0.25338830  1
  Fe  Fe44  1  0.24830252  0.25299662  0.74624738  1
  Fe  Fe45  1  0.49904696  0.24738829  0.49942711  1
  Fe  Fe46  1  0.00288656  0.75163540  0.74921897  1
  Fe  Fe47  1  0.12652184  0.62182886  0.62618222  1
  Fe  Fe48  1  0.74981782  0.75119976  0.50474875  1
  Fe  Fe49  1  0.87612869  0.12158818  0.62522638  1
  Fe  Fe50  1  0.12709963  0.62392700  0.87361869  1
  Fe  Fe51  1  0.74744426  -0.00576536  0.74685517  1
  Fe  Fe52  1  -0.00205315  0.50165484  0.49830655  1
  Fe  Fe53  1  0.49682959  -0.00031523  -0.00513456  1
  Fe  Fe54  1  0.00057605  0.24728858  0.50173137  1
  Fe  Fe55  1  0.00179996  -0.00160673  0.25354313  1
  Fe  Fe56  1  0.62763348  0.12276752  0.37395599  1
  Fe  Fe57  1  0.87733664  0.12336827  0.12612614  1
  Fe  Fe58  1  0.62578698  0.62368501  0.62312520  1
  Fe  Fe59  1  0.62405114  0.62379214  0.12442429  1
  Fe  Fe60  1  0.87362745  0.87722999  0.37922932  1
  Fe  Fe61  1  0.50042449  0.25011427  0.25074031  1
  Fe  Fe62  1  0.37021358  0.62966417  0.86843874  1
  Fe  Fe63  1  0.74905236  0.50072781  0.25147716  1
  Fe  Fe64  1  0.25112175  0.75050970  0.00279331  1
  Fe  Fe65  1  0.25136432  0.00084373  0.50156189  1
  Fe  Fe66  1  -0.00264685  0.50126308  -0.00303582  1
  Fe  Fe67  1  0.62197330  0.12196155  0.62544390  1
  Fe  Fe68  1  0.62442293  0.37543567  0.87583540  1
  Fe  Fe69  1  0.87360220  0.87254367  0.87379732  1
  Fe  Fe70  1  0.49924255  0.24823539  -0.00158016  1
  Fe  Fe71  1  0.49855020  0.74849576  0.49823582  1
  Fe  Fe72  1  0.00281462  0.25097989  0.75044503  1
  Fe  Fe73  1  0.75003438  0.24994754  0.00091461  1
  Fe  Fe74  1  0.00065608  0.49691821  0.75355328  1
  Fe  Fe75  1  0.87242270  0.12347975  0.37502882  1
  Fe  Fe76  1  0.37389907  0.37435342  0.87489342  1
  Fe  Fe77  1  0.25350384  0.49939733  0.50444123  1
  Fe  Fe78  1  0.12206450  0.12423922  0.12368382  1
  Fe  Fe79  1  0.50039225  0.24801098  0.75184411  1
  Fe  Fe80  1  0.12790396  0.12549771  0.37637901  1
  Fe  Fe81  1  0.75251706  0.74744514  0.00092507  1
  Fe  Fe82  1  0.62759336  0.87530863  0.37589239  1
  Fe  Fe83  1  0.74811313  0.25103080  0.74871941  1
  Fe  Fe84  1  0.12605065  0.87450895  0.87718095  1
  Fe  Fe85  1  0.12212372  0.87854302  0.62175973  1
  Fe  Fe86  1  0.74891999  0.25013845  0.24785352  1
  Fe  Fe87  1  0.12242291  0.37607449  0.12521828  1
  Fe  Fe88  1  0.49744354  0.50267095  0.74875086  1
  Fe  Fe89  1  0.37399270  0.62485263  0.37590852  1
  Co  Co90  1  0.50573763  0.74944209  0.75141039  1
  Co  Co91  1  0.25174002  0.49606715  0.74718712  1
  Co  Co92  1  -0.00307659  0.75336638  0.25205194  1
  Co  Co93  1  0.87396702  0.37187294  0.87452984  1
  Co  Co94  1  0.12913236  0.87254837  0.37375951  1
  Co  Co95  1  0.37247839  0.12639387  0.37377726  1
  Co  Co96  1  0.12496119  0.12260958  0.62648723  1
  Co  Co97  1  0.37642007  0.87691228  0.12614978  1
  Co  Co98  1  0.12756940  0.37439350  0.87779721  1
  Co  Co99  1  0.25359708  0.74663247  0.24777204  1
  Co  Co100  1  0.74987708  -0.00118037  0.24785900  1
  Co  Co101  1  0.37354054  0.63050176  0.62837516  1
  Co  Co102  1  0.61756735  0.87620138  0.62143757  1
  Co  Co103  1  0.74969975  0.49756693  0.75115463  1
  Co  Co104  1  0.49705435  0.50312223  0.50074028  1
  Co  Co105  1  0.50111611  -0.00084789  0.25340998  1
  Co  Co106  1  0.37714094  0.12327199  0.62765905  1
  Co  Co107  1  0.74794613  0.00023876  0.50446369  1
  Co  Co108  1  0.00247069  0.00206805  0.49590284  1
  Co  Co109  1  0.88022988  0.87647659  0.62302579  1
  Co  Co110  1  0.24721810  0.00313830  0.24765611  1
  Co  Co111  1  0.37857571  0.37696124  0.12533360  1
  Co  Co112  1  0.37032134  0.12674385  0.87384874  1
  Co  Co113  1  0.00099744  0.24833795  0.25117388  1
  Co  Co114  1  0.62664996  0.62713177  0.37613666  1
  Co  Co115  1  0.00079437  -0.00141895  -0.00158651  1
  Co  Co116  1  0.62749160  0.87353320  0.87981307  1
  Co  Co117  1  0.75275768  0.50075154  0.49915576  1
  Co  Co118  1  0.87647212  0.62306193  0.12777161  1
  Co  Co119  1  0.00142672  0.49995477  0.25348587  1
  Co  Co120  1  0.24340530  0.75398133  0.74650837  1
  Co  Co121  1  0.37310649  0.87013975  0.87271357  1
  Co  Co122  1  0.37957025  0.37246927  0.62450383  1
  Co  Co123  1  0.62894976  0.12434526  0.87519774  1
  Co  Co124  1  0.49689096  0.50361604  -0.00655439  1
  Co  Co125  1  0.74673668  0.75604840  0.74458949  1
  Co  Co126  1  0.87410766  0.62948864  0.86923842  1
  Co  Co127  1  0.12155657  0.37732979  0.62220493  1
