# generated using pymatgen
data_Fe45Co19
_symmetry_space_group_name_H-M   'P 1'
_cell_length_a   11.41562622
_cell_length_b   11.41523801
_cell_length_c   11.41430828
_cell_angle_alpha   89.99169315
_cell_angle_beta   89.99454480
_cell_angle_gamma   90.00801585
_symmetry_Int_Tables_number   1
_chemical_formula_structural   Fe45Co19
_chemical_formula_sum   'Fe90 Co38'
_cell_volume   1487.42233468
_cell_formula_units_Z   2
loop_
 _symmetry_equiv_pos_site_id
 _symmetry_equiv_pos_as_xyz
  1  'x, y, z'
loop_
 _atom_site_type_symbol
 _atom_site_label
 _atom_site_symmetry_multiplicity
 _atom_site_fract_x
 _atom_site_fract_y
 _atom_site_fract_z
 _atom_site_occupancy
  Fe  Fe0  1  0.62390671  0.12435267  0.87263627  1
  Fe  Fe1  1  0.50090497  0.75084242  0.75088172  1
  Fe  Fe2  1  0.87540939  0.12425599  0.37975022  1
  Fe  Fe3  1  0.00076508  0.49877975  0.50196397  1
  Fe  Fe4  1  0.88140946  0.37881839  0.86918769  1
  Fe  Fe5  1  0.37523945  0.62629718  0.87080177  1
  Fe  Fe6  1  0.36863909  0.87161253  0.62978388  1
  Fe  Fe7  1  0.88114680  0.37206376  0.62791108  1
  Fe  Fe8  1  0.37507302  0.87359575  0.12356484  1
  Fe  Fe9  1  0.74838842  0.49914035  0.25007872  1
  Fe  Fe10  1  0.75192144  0.74914582  -0.00373622  1
  Fe  Fe11  1  0.25148169  -0.00059073  -0.00126153  1
  Fe  Fe12  1  0.50020675  0.25156754  -0.00145097  1
  Fe  Fe13  1  0.24970053  0.00099992  0.25204459  1
  Fe  Fe14  1  0.62520759  0.12637909  0.12348114  1
  Fe  Fe15  1  0.62432207  0.62653865  0.37569483  1
  Fe  Fe16  1  0.75366094  0.50080095  -0.00102795  1
  Fe  Fe17  1  0.87416204  0.37332421  0.12647487  1
  Fe  Fe18  1  0.87523597  0.87574337  0.62429144  1
  Fe  Fe19  1  0.49849000  -0.00040133  0.50282422  1
  Fe  Fe20  1  0.24925308  0.74861545  -0.00275804  1
  Fe  Fe21  1  0.49960037  0.25149867  0.74933298  1
  Fe  Fe22  1  0.87282432  0.37548164  0.37651266  1
  Fe  Fe23  1  0.36967643  0.37406958  0.87428395  1
  Fe  Fe24  1  0.12467573  0.87504173  0.12570162  1
  Fe  Fe25  1  0.37464731  0.37448660  0.12401943  1
  Fe  Fe26  1  0.49847357  0.74847169  0.50274344  1
  Fe  Fe27  1  0.00094578  0.25034811  0.25215814  1
  Fe  Fe28  1  0.12328445  0.12372860  0.12209155  1
  Fe  Fe29  1  0.12420604  0.62379070  0.12422954  1
  Fe  Fe30  1  0.74804495  0.74997221  0.50223782  1
  Fe  Fe31  1  0.37597195  0.37456300  0.37625066  1
  Fe  Fe32  1  0.87575018  0.12614152  0.12442735  1
  Fe  Fe33  1  0.49774763  -0.00187385  0.75127654  1
  Fe  Fe34  1  0.75068997  0.00173723  0.74727199  1
  Fe  Fe35  1  0.37395746  0.62462811  0.37635885  1
  Fe  Fe36  1  0.12095947  0.61990806  0.87804069  1
  Fe  Fe37  1  0.74912575  0.24809505  0.50435178  1
  Fe  Fe38  1  0.62900815  0.62294280  0.86732605  1
  Fe  Fe39  1  0.75009585  0.50180163  0.50553449  1
  Fe  Fe40  1  0.37573080  0.87400620  0.37445214  1
  Fe  Fe41  1  0.62609945  0.37759871  0.87228744  1
  Fe  Fe42  1  0.13038757  0.87647500  0.62528779  1
  Fe  Fe43  1  0.49797140  0.50102507  0.50443851  1
  Fe  Fe44  1  0.62634438  0.62648312  0.12638164  1
  Fe  Fe45  1  0.25048212  0.74989138  0.25106815  1
  Fe  Fe46  1  0.12628295  0.37527274  0.37816802  1
  Fe  Fe47  1  0.37195822  0.12635131  0.62484404  1
  Fe  Fe48  1  0.50494576  0.25381384  0.25070700  1
  Fe  Fe49  1  0.50326714  0.49832901  0.25044145  1
  Fe  Fe50  1  0.50182562  0.75029938  -0.00411185  1
  Fe  Fe51  1  0.25020677  0.49986179  0.25020188  1
  Fe  Fe52  1  -0.00169196  0.74939410  0.25056402  1
  Fe  Fe53  1  0.00329294  0.00438033  0.74646549  1
  Fe  Fe54  1  0.12729745  0.37674161  0.12122883  1
  Fe  Fe55  1  0.62341983  0.12566163  0.37999518  1
  Fe  Fe56  1  0.50243598  -0.00212516  0.25042637  1
  Fe  Fe57  1  0.62360357  0.37557255  0.62653944  1
  Fe  Fe58  1  0.74773466  -0.00045404  0.25297920  1
  Fe  Fe59  1  0.00210431  0.25235295  -0.00342444  1
  Fe  Fe60  1  0.75168395  0.24838269  0.74877989  1
  Fe  Fe61  1  0.37647113  0.62567696  0.12526581  1
  Fe  Fe62  1  0.12410371  0.12369218  0.38161720  1
  Fe  Fe63  1  0.62563542  0.87176845  0.12628552  1
  Fe  Fe64  1  0.87585059  0.87500445  0.87147285  1
  Fe  Fe65  1  0.24022264  0.24644875  0.75114648  1
  Fe  Fe66  1  0.24771663  0.50204880  0.74779670  1
  Fe  Fe67  1  0.24885158  0.24890801  0.25093696  1
  Fe  Fe68  1  0.75115787  0.25113935  -0.00342311  1
  Fe  Fe69  1  0.62529807  0.87601768  0.62614365  1
  Fe  Fe70  1  -0.00341580  0.74884110  -0.00050136  1
  Fe  Fe71  1  0.74988437  -0.00083950  -0.00112621  1
  Fe  Fe72  1  0.00094207  0.74689120  0.74846154  1
  Fe  Fe73  1  0.87392670  0.87602021  0.37690390  1
  Fe  Fe74  1  0.50060749  -0.00268947  -0.00275027  1
  Fe  Fe75  1  0.87564899  0.62444119  0.37687502  1
  Fe  Fe76  1  -0.00075602  0.00040602  0.25153272  1
  Fe  Fe77  1  0.74677866  0.25124634  0.25154308  1
  Fe  Fe78  1  0.49950049  0.50046825  -0.00323558  1
  Fe  Fe79  1  0.12858649  0.62602377  0.62010493  1
  Fe  Fe80  1  -0.00088788  0.49928242  0.24895273  1
  Fe  Fe81  1  0.00280374  0.75321057  0.49950357  1
  Fe  Fe82  1  0.37091406  0.37406748  0.62557602  1
  Fe  Fe83  1  0.87825890  0.12390127  0.87447107  1
  Fe  Fe84  1  0.37383982  0.12519431  0.87491107  1
  Fe  Fe85  1  0.37720455  0.12711913  0.37612778  1
  Fe  Fe86  1  0.12507948  0.87758604  0.87437759  1
  Fe  Fe87  1  0.87351714  0.87431013  0.12679875  1
  Fe  Fe88  1  0.37653247  0.12612458  0.12549821  1
  Fe  Fe89  1  0.12562657  0.62505791  0.37603918  1
  Co  Co90  1  0.62209760  0.12460162  0.62799052  1
  Co  Co91  1  0.00056963  -0.00491396  0.50087989  1
  Co  Co92  1  0.49595816  0.49786481  0.74896501  1
  Co  Co93  1  0.62338732  0.62440979  0.62965044  1
  Co  Co94  1  0.25135101  0.49943874  0.50082955  1
  Co  Co95  1  0.25058815  0.75193045  0.49699349  1
  Co  Co96  1  0.25452443  0.50299638  -0.00037811  1
  Co  Co97  1  -0.00533979  0.50038542  0.00373626  1
  Co  Co98  1  0.25158404  0.25118237  0.49915682  1
  Co  Co99  1  0.75143126  0.75047455  0.25409452  1
  Co  Co100  1  0.25302635  -0.00252410  0.49847115  1
  Co  Co101  1  -0.00127804  0.25285260  0.49897911  1
  Co  Co102  1  0.12318086  0.12017546  0.88078096  1
  Co  Co103  1  0.12461810  0.12445071  0.61570480  1
  Co  Co104  1  0.12524883  0.87536651  0.37264160  1
  Co  Co105  1  0.87916349  0.12544577  0.62309051  1
  Co  Co106  1  0.24779610  0.00501669  0.75018237  1
  Co  Co107  1  -0.00302328  -0.00368395  0.00103448  1
  Co  Co108  1  0.75444502  0.49930424  0.74396084  1
  Co  Co109  1  0.62630423  0.37638135  0.38149155  1
  Co  Co110  1  0.00750009  0.24547019  0.75195563  1
  Co  Co111  1  0.62265135  0.87272157  0.37740234  1
  Co  Co112  1  0.87496090  0.62303995  0.86994855  1
  Co  Co113  1  0.87290582  0.62613330  0.12749646  1
  Co  Co114  1  0.00273698  0.50471595  0.74328443  1
  Co  Co115  1  0.87729066  0.62823036  0.62268501  1
  Co  Co116  1  0.74765693  0.00046328  0.50195048  1
  Co  Co117  1  0.24852962  0.24835884  -0.00071942  1
  Co  Co118  1  0.49982863  0.25112658  0.50318047  1
  Co  Co119  1  0.75222121  0.75045884  0.74675514  1
  Co  Co120  1  0.62798987  0.87531224  0.87168278  1
  Co  Co121  1  0.37135923  0.87378696  0.87266428  1
  Co  Co122  1  0.12438877  0.37384609  0.62465120  1
  Co  Co123  1  0.49801244  0.75006276  0.25049523  1
  Co  Co124  1  0.24461635  0.74569813  0.75428447  1
  Co  Co125  1  0.12420327  0.38159115  0.87565169  1
  Co  Co126  1  0.37207302  0.62836557  0.62745918  1
  Co  Co127  1  0.62594871  0.37606619  0.12060424  1
