# generated using pymatgen
data_Fe45Co19
_symmetry_space_group_name_H-M   'P 1'
_cell_length_a   11.41508887
_cell_length_b   11.41545143
_cell_length_c   11.41602605
_cell_angle_alpha   89.99487353
_cell_angle_beta   89.99992990
_cell_angle_gamma   89.99569746
_symmetry_Int_Tables_number   1
_chemical_formula_structural   Fe45Co19
_chemical_formula_sum   'Fe90 Co38'
_cell_volume   1487.60399385
_cell_formula_units_Z   2
loop_
 _symmetry_equiv_pos_site_id
 _symmetry_equiv_pos_as_xyz
  1  'x, y, z'
loop_
 _atom_site_type_symbol
 _atom_site_label
 _atom_site_symmetry_multiplicity
 _atom_site_fract_x
 _atom_site_fract_y
 _atom_site_fract_z
 _atom_site_occupancy
  Fe  Fe0  1  0.62688173  0.62511203  0.37450631  1
  Fe  Fe1  1  0.37543603  0.87550113  0.12482325  1
  Fe  Fe2  1  -0.00159206  0.74916658  0.24834226  1
  Fe  Fe3  1  0.87309429  0.62510739  0.87366501  1
  Fe  Fe4  1  0.24820518  -0.00122301  0.74937483  1
  Fe  Fe5  1  0.25074098  0.74903694  0.00130576  1
  Fe  Fe6  1  0.12574367  0.87251640  0.12575992  1
  Fe  Fe7  1  -0.00020170  0.25001809  0.25144614  1
  Fe  Fe8  1  0.37628269  0.62609300  0.12435419  1
  Fe  Fe9  1  0.75300962  -0.00019748  0.24810846  1
  Fe  Fe10  1  0.12397324  0.12799627  0.62436062  1
  Fe  Fe11  1  0.75117735  0.24695052  0.00033955  1
  Fe  Fe12  1  0.50033630  0.25033252  0.50045883  1
  Fe  Fe13  1  0.49961310  0.50160902  -0.00166270  1
  Fe  Fe14  1  0.37776526  0.37389702  0.12489623  1
  Fe  Fe15  1  0.24885413  0.25347030  0.25004698  1
  Fe  Fe16  1  0.49944841  0.49779240  0.50110628  1
  Fe  Fe17  1  0.87470082  0.87612394  0.87586174  1
  Fe  Fe18  1  0.62438842  0.37378900  0.37485489  1
  Fe  Fe19  1  0.25055949  0.49808225  0.24957327  1
  Fe  Fe20  1  0.75094021  0.49898817  0.50146599  1
  Fe  Fe21  1  0.62273777  0.62644213  0.62505853  1
  Fe  Fe22  1  0.87175357  0.62680329  0.12589870  1
  Fe  Fe23  1  0.00347488  0.00075396  0.75405111  1
  Fe  Fe24  1  0.37680092  0.87492957  0.61953668  1
  Fe  Fe25  1  0.24995862  0.75183664  0.74773454  1
  Fe  Fe26  1  0.49994516  0.74936225  0.25020200  1
  Fe  Fe27  1  0.00149421  -0.00027587  -0.00064354  1
  Fe  Fe28  1  0.12654805  0.62187680  0.62634326  1
  Fe  Fe29  1  0.37446797  0.62416616  0.62432006  1
  Fe  Fe30  1  0.37287762  0.87440350  0.37948805  1
  Fe  Fe31  1  0.37494532  0.12470710  0.12717036  1
  Fe  Fe32  1  0.87804811  0.37343536  0.62715089  1
  Fe  Fe33  1  0.87642905  0.12442992  0.37475420  1
  Fe  Fe34  1  0.62459107  0.87529413  0.12672401  1
  Fe  Fe35  1  0.75002735  0.00018846  0.50197740  1
  Fe  Fe36  1  0.37189798  0.12739172  0.37609998  1
  Fe  Fe37  1  0.62452558  0.87529721  0.87386786  1
  Fe  Fe38  1  0.87581921  0.87315703  0.37546959  1
  Fe  Fe39  1  0.37499243  0.87301705  0.87561539  1
  Fe  Fe40  1  0.49781502  0.49811485  0.75056274  1
  Fe  Fe41  1  0.25111131  0.24996138  -0.00021850  1
  Fe  Fe42  1  0.74999167  0.00341254  0.00125424  1
  Fe  Fe43  1  0.87668348  0.62449736  0.62486337  1
  Fe  Fe44  1  0.24894968  0.00039562  -0.00042899  1
  Fe  Fe45  1  0.75123702  0.50006914  0.00080904  1
  Fe  Fe46  1  0.62476678  0.37460335  0.12583148  1
  Fe  Fe47  1  0.62567248  0.37357480  0.87438098  1
  Fe  Fe48  1  0.24664549  0.25404951  0.75302736  1
  Fe  Fe49  1  0.00130626  0.49904458  0.49958607  1
  Fe  Fe50  1  0.74903910  0.50061053  0.74839527  1
  Fe  Fe51  1  0.37083275  0.12651669  0.62268993  1
  Fe  Fe52  1  0.24499132  0.25658475  0.49679515  1
  Fe  Fe53  1  0.62578785  0.12445801  0.62585842  1
  Fe  Fe54  1  0.00323206  0.74934363  0.50085435  1
  Fe  Fe55  1  -0.00168444  0.50281186  0.24719926  1
  Fe  Fe56  1  0.75067817  0.74948578  0.50075668  1
  Fe  Fe57  1  0.12129517  0.37730138  0.12162027  1
  Fe  Fe58  1  0.62236879  0.62712656  0.87387630  1
  Fe  Fe59  1  0.25247486  0.50016284  -0.00014018  1
  Fe  Fe60  1  0.75225128  0.24813367  0.75103512  1
  Fe  Fe61  1  0.00507787  0.00038544  0.49696992  1
  Fe  Fe62  1  0.75145993  0.24918313  0.24752055  1
  Fe  Fe63  1  0.62593010  0.12577982  0.37371778  1
  Fe  Fe64  1  0.12739169  0.62604600  0.37338442  1
  Fe  Fe65  1  0.00095609  0.74706602  0.00012455  1
  Fe  Fe66  1  0.74957494  0.75248393  0.74717854  1
  Fe  Fe67  1  0.50061024  -0.00133666  0.74749869  1
  Fe  Fe68  1  0.12728362  0.62351833  0.87581630  1
  Fe  Fe69  1  0.87636886  0.37616823  0.37477359  1
  Fe  Fe70  1  0.74777655  0.74930857  0.00166744  1
  Fe  Fe71  1  0.00011614  0.49726378  0.75378092  1
  Fe  Fe72  1  0.24811911  -0.00042103  0.25227682  1
  Fe  Fe73  1  0.00103655  0.75026177  0.75135622  1
  Fe  Fe74  1  0.49933566  0.49974516  0.25034315  1
  Fe  Fe75  1  0.75258580  0.25022065  0.50138809  1
  Fe  Fe76  1  0.50058610  0.00184758  -0.00023953  1
  Fe  Fe77  1  0.25204825  0.49577881  0.75161160  1
  Fe  Fe78  1  0.62440711  0.87504370  0.37738665  1
  Fe  Fe79  1  0.00113573  -0.00114614  0.24982179  1
  Fe  Fe80  1  0.50150055  0.24641732  0.00113896  1
  Fe  Fe81  1  -0.00357430  0.25071037  -0.00555126  1
  Fe  Fe82  1  0.49841086  0.00195429  0.25278332  1
  Fe  Fe83  1  0.87897177  0.12473217  0.62706118  1
  Fe  Fe84  1  0.49927199  0.25152971  0.74888654  1
  Fe  Fe85  1  0.87756972  0.87669285  0.62516202  1
  Fe  Fe86  1  0.12386415  0.12620406  0.12472649  1
  Fe  Fe87  1  0.75164172  0.50059218  0.24944318  1
  Fe  Fe88  1  0.37474158  0.12493666  0.87348805  1
  Fe  Fe89  1  0.37153652  0.62489458  0.37741736  1
  Co  Co90  1  0.12671165  0.87278999  0.87627883  1
  Co  Co91  1  0.37731019  0.37489175  0.37548417  1
  Co  Co92  1  0.12605062  0.12656864  0.37390823  1
  Co  Co93  1  0.87493989  0.87410315  0.12297728  1
  Co  Co94  1  0.50000166  0.00525383  0.49992363  1
  Co  Co95  1  -0.00468023  0.50343388  -0.00003626  1
  Co  Co96  1  0.87843866  0.12510882  0.12478841  1
  Co  Co97  1  0.00027075  0.25086133  0.49759795  1
  Co  Co98  1  0.62441892  0.12415100  0.87200382  1
  Co  Co99  1  0.12243909  0.37460226  0.62610667  1
  Co  Co100  1  0.37680806  0.37245439  0.87700941  1
  Co  Co101  1  0.62257738  0.87385604  0.62084673  1
  Co  Co102  1  0.12768587  0.12511125  0.87643094  1
  Co  Co103  1  0.87154754  0.37688761  0.87318922  1
  Co  Co104  1  0.62510684  0.62396280  0.12642015  1
  Co  Co105  1  0.62447689  0.12345101  0.12805858  1
  Co  Co106  1  0.87591391  0.37426351  0.12517393  1
  Co  Co107  1  0.87511076  0.62548902  0.37632488  1
  Co  Co108  1  0.12659917  0.87042502  0.37259239  1
  Co  Co109  1  0.50044260  0.74981734  0.00165521  1
  Co  Co110  1  0.12157571  0.37887721  0.37188565  1
  Co  Co111  1  0.25349539  0.75007858  0.24852938  1
  Co  Co112  1  0.49913231  0.75202887  0.74920633  1
  Co  Co113  1  0.62564900  0.37414880  0.62580955  1
  Co  Co114  1  0.87400433  0.12105005  0.87332251  1
  Co  Co115  1  0.74825301  -0.00251876  0.74729143  1
  Co  Co116  1  0.24832013  0.49757354  0.49881789  1
  Co  Co117  1  0.24662689  0.75007893  0.50355218  1
  Co  Co118  1  0.49981688  0.74660325  0.49802688  1
  Co  Co119  1  0.12700420  0.62451540  0.12514614  1
  Co  Co120  1  0.24556626  -0.00131771  0.49915466  1
  Co  Co121  1  0.74995542  0.75053391  0.25049112  1
  Co  Co122  1  0.12526927  0.37842455  0.87984585  1
  Co  Co123  1  0.00169877  0.25089832  0.75524167  1
  Co  Co124  1  0.12253828  0.87665371  0.62620966  1
  Co  Co125  1  0.49940096  0.24907352  0.24993628  1
  Co  Co126  1  0.37321383  0.37439900  0.62325565  1
  Co  Co127  1  0.37443613  0.62791720  0.87419447  1
