# generated using pymatgen
data_Fe45Co19
_symmetry_space_group_name_H-M   'P 1'
_cell_length_a   11.41511931
_cell_length_b   11.41378226
_cell_length_c   11.41443440
_cell_angle_alpha   89.99797645
_cell_angle_beta   90.00022695
_cell_angle_gamma   89.99463717
_symmetry_Int_Tables_number   1
_chemical_formula_structural   Fe45Co19
_chemical_formula_sum   'Fe90 Co38'
_cell_volume   1487.18306957
_cell_formula_units_Z   2
loop_
 _symmetry_equiv_pos_site_id
 _symmetry_equiv_pos_as_xyz
  1  'x, y, z'
loop_
 _atom_site_type_symbol
 _atom_site_label
 _atom_site_symmetry_multiplicity
 _atom_site_fract_x
 _atom_site_fract_y
 _atom_site_fract_z
 _atom_site_occupancy
  Fe  Fe0  1  0.24953447  -0.00148191  0.00238228  1
  Fe  Fe1  1  0.62228033  0.37612352  0.12617949  1
  Fe  Fe2  1  0.74914533  0.25058127  0.74824776  1
  Fe  Fe3  1  0.12861496  0.62387965  0.87710123  1
  Fe  Fe4  1  0.62525583  0.12347114  0.87485058  1
  Fe  Fe5  1  0.87902748  0.87524088  0.12544270  1
  Fe  Fe6  1  0.87227251  0.12614760  0.37862513  1
  Fe  Fe7  1  0.75020387  0.25165382  0.25209455  1
  Fe  Fe8  1  0.75218047  0.75317661  0.49808514  1
  Fe  Fe9  1  0.87349026  0.62553358  0.87362970  1
  Fe  Fe10  1  0.12626380  0.12670240  0.12380817  1
  Fe  Fe11  1  0.12387108  0.37695082  0.37327016  1
  Fe  Fe12  1  0.62223302  0.87763786  0.37770568  1
  Fe  Fe13  1  0.49773764  0.24977610  -0.00082931  1
  Fe  Fe14  1  0.49816928  0.00130276  0.00260499  1
  Fe  Fe15  1  0.00050148  0.50168175  0.75028534  1
  Fe  Fe16  1  0.62524136  0.62687132  0.87458203  1
  Fe  Fe17  1  0.25193971  0.50064601  0.75009022  1
  Fe  Fe18  1  0.12551579  0.12412222  0.62393499  1
  Fe  Fe19  1  0.24832892  -0.00237166  0.74927325  1
  Fe  Fe20  1  0.62468488  0.62583599  0.37507433  1
  Fe  Fe21  1  0.12722603  0.12585081  0.87651644  1
  Fe  Fe22  1  0.62353761  0.87591134  0.12376928  1
  Fe  Fe23  1  0.49891458  0.24592427  0.50339255  1
  Fe  Fe24  1  0.49848583  0.74826330  0.00128250  1
  Fe  Fe25  1  -0.00197658  -0.00092655  0.50064554  1
  Fe  Fe26  1  0.24918629  0.25060238  0.75095775  1
  Fe  Fe27  1  0.75220176  -0.00335798  -0.00308556  1
  Fe  Fe28  1  0.12253900  0.87476581  0.87659610  1
  Fe  Fe29  1  -0.00195681  0.24956847  0.25225010  1
  Fe  Fe30  1  0.00056572  0.50168073  0.49981576  1
  Fe  Fe31  1  0.62670045  0.62319407  0.12564298  1
  Fe  Fe32  1  0.25033625  0.75016057  0.74957813  1
  Fe  Fe33  1  0.50158207  0.24732717  0.24992595  1
  Fe  Fe34  1  0.75080255  0.25271664  -0.00078843  1
  Fe  Fe35  1  0.49435666  0.50326332  0.49661360  1
  Fe  Fe36  1  0.62761768  0.12471628  0.12375888  1
  Fe  Fe37  1  0.37490973  0.12627062  0.87228997  1
  Fe  Fe38  1  0.50046983  0.74827029  0.24878465  1
  Fe  Fe39  1  0.00173549  0.00257219  0.25000673  1
  Fe  Fe40  1  0.75004100  0.75142306  0.25015217  1
  Fe  Fe41  1  0.37687375  0.37417924  0.62702521  1
  Fe  Fe42  1  0.00051274  0.74618570  0.00199810  1
  Fe  Fe43  1  0.37293563  0.12397677  0.12767828  1
  Fe  Fe44  1  0.49887894  0.50003563  -0.00176440  1
  Fe  Fe45  1  0.00050533  0.50033777  -0.00010306  1
  Fe  Fe46  1  0.74954956  -0.00154903  0.25175731  1
  Fe  Fe47  1  0.74957656  0.49864580  0.25200286  1
  Fe  Fe48  1  0.25093102  -0.00239950  0.50018093  1
  Fe  Fe49  1  0.63097288  0.11938703  0.62209027  1
  Fe  Fe50  1  0.87405172  0.37561770  0.62505395  1
  Fe  Fe51  1  0.37796606  0.87384939  0.87503887  1
  Fe  Fe52  1  0.74944821  0.49996518  0.49994035  1
  Fe  Fe53  1  0.87355576  0.12492305  0.87359792  1
  Fe  Fe54  1  0.49569039  0.74884620  0.49883467  1
  Fe  Fe55  1  0.13083490  0.62513680  0.37823018  1
  Fe  Fe56  1  0.00010731  0.25019406  0.75037588  1
  Fe  Fe57  1  0.25008775  0.75404538  0.00303508  1
  Fe  Fe58  1  0.12554433  0.37628540  0.62578247  1
  Fe  Fe59  1  0.87526682  0.87488391  0.62687613  1
  Fe  Fe60  1  0.62244146  0.37790950  0.62528410  1
  Fe  Fe61  1  0.37635146  0.87399770  0.62669509  1
  Fe  Fe62  1  0.87503987  0.62477628  0.37457662  1
  Fe  Fe63  1  -0.00089515  0.25099478  0.50045963  1
  Fe  Fe64  1  0.87753782  0.37774517  0.12714019  1
  Fe  Fe65  1  0.25046463  0.25360879  0.24868804  1
  Fe  Fe66  1  0.50261301  -0.00011175  0.74696643  1
  Fe  Fe67  1  0.37293735  0.62243623  0.12705584  1
  Fe  Fe68  1  0.00214103  0.74385248  0.24731066  1
  Fe  Fe69  1  0.75035355  0.49874894  -0.00257415  1
  Fe  Fe70  1  0.24847019  0.75390288  0.24709988  1
  Fe  Fe71  1  0.75057952  0.75250161  -0.00147703  1
  Fe  Fe72  1  0.00324569  0.74797189  0.74784900  1
  Fe  Fe73  1  0.12726552  0.12517307  0.37658864  1
  Fe  Fe74  1  0.12180676  0.87281926  0.37656899  1
  Fe  Fe75  1  0.00076205  0.25163711  -0.00234794  1
  Fe  Fe76  1  0.25102807  0.49221122  0.00175238  1
  Fe  Fe77  1  0.49683872  0.50578838  0.75144216  1
  Fe  Fe78  1  0.87432529  0.12456026  0.12448033  1
  Fe  Fe79  1  0.00018717  0.00063404  0.75002010  1
  Fe  Fe80  1  0.87204194  0.62590658  0.62614544  1
  Fe  Fe81  1  0.62423392  0.62759039  0.62415944  1
  Fe  Fe82  1  0.25066316  0.25206207  0.50100463  1
  Fe  Fe83  1  0.74559911  0.75499603  0.75260612  1
  Fe  Fe84  1  0.62253294  0.37405749  0.37689148  1
  Fe  Fe85  1  0.62276408  0.37428682  0.87192399  1
  Fe  Fe86  1  0.37405411  0.12349881  0.37376170  1
  Fe  Fe87  1  0.62628336  0.12282389  0.37893117  1
  Fe  Fe88  1  0.13043125  0.62639013  0.62001506  1
  Fe  Fe89  1  0.37704032  0.87798099  0.37025728  1
  Co  Co90  1  0.12560248  0.37550025  0.87388299  1
  Co  Co91  1  0.11916679  0.87631301  0.12355981  1
  Co  Co92  1  -0.00164715  0.74784090  0.50202299  1
  Co  Co93  1  0.36903555  0.62730577  0.37174575  1
  Co  Co94  1  0.87597012  0.37711957  0.37582972  1
  Co  Co95  1  0.12012670  0.37340974  0.12786823  1
  Co  Co96  1  0.74942642  -0.00405991  0.75310821  1
  Co  Co97  1  0.37766666  0.87652630  0.12770994  1
  Co  Co98  1  0.13133737  0.62172754  0.12345519  1
  Co  Co99  1  0.87516529  0.37565230  0.87295091  1
  Co  Co100  1  0.37792428  0.37078530  0.37439010  1
  Co  Co101  1  0.88029131  0.87293431  0.37080067  1
  Co  Co102  1  0.24538673  -0.00268271  0.24933045  1
  Co  Co103  1  0.37725951  0.37235337  0.87080664  1
  Co  Co104  1  0.49881027  0.74706532  0.75023061  1
  Co  Co105  1  0.87406461  0.12500617  0.62428799  1
  Co  Co106  1  0.49919269  0.50220237  0.25349250  1
  Co  Co107  1  0.50328154  0.24561704  0.74630832  1
  Co  Co108  1  0.38034668  0.37495560  0.12688054  1
  Co  Co109  1  0.25374641  0.75608901  0.49979692  1
  Co  Co110  1  0.62365688  0.87372397  0.62044738  1
  Co  Co111  1  0.37178478  0.62627935  0.62285081  1
  Co  Co112  1  0.50377858  0.00295014  0.24864308  1
  Co  Co113  1  0.61819231  0.87564011  0.87741184  1
  Co  Co114  1  0.37062804  0.62597644  0.87935054  1
  Co  Co115  1  0.00203229  0.50564412  0.25101283  1
  Co  Co116  1  0.74859404  0.50025734  0.74998311  1
  Co  Co117  1  0.87086699  0.62359274  0.12463165  1
  Co  Co118  1  0.25209907  0.25255333  0.00047908  1
  Co  Co119  1  0.25395485  0.49562261  0.49840651  1
  Co  Co120  1  0.00046421  0.00325735  -0.00091647  1
  Co  Co121  1  0.75488303  -0.00545313  0.49767201  1
  Co  Co122  1  0.49516685  0.00187190  0.50307142  1
  Co  Co123  1  0.25109582  0.49535271  0.25056761  1
  Co  Co124  1  0.37024197  0.12485422  0.62700634  1
  Co  Co125  1  0.12412555  0.87504968  0.62342759  1
  Co  Co126  1  0.74918207  0.25314900  0.50146638  1
  Co  Co127  1  0.88090298  0.87304083  0.87458006  1
