# generated using pymatgen
data_Fe45Co19
_symmetry_space_group_name_H-M   'P 1'
_cell_length_a   11.41610411
_cell_length_b   11.41626564
_cell_length_c   11.41433917
_cell_angle_alpha   89.99405870
_cell_angle_beta   90.00346182
_cell_angle_gamma   89.99785806
_symmetry_Int_Tables_number   1
_chemical_formula_structural   Fe45Co19
_chemical_formula_sum   'Fe90 Co38'
_cell_volume   1487.62256173
_cell_formula_units_Z   2
loop_
 _symmetry_equiv_pos_site_id
 _symmetry_equiv_pos_as_xyz
  1  'x, y, z'
loop_
 _atom_site_type_symbol
 _atom_site_label
 _atom_site_symmetry_multiplicity
 _atom_site_fract_x
 _atom_site_fract_y
 _atom_site_fract_z
 _atom_site_occupancy
  Fe  Fe0  1  0.12478535  0.87600352  0.87393447  1
  Fe  Fe1  1  0.12510310  0.87303440  0.12494567  1
  Fe  Fe2  1  0.75069653  0.75207776  0.00019779  1
  Fe  Fe3  1  0.87458642  0.12756120  0.62426248  1
  Fe  Fe4  1  -0.00145331  0.50008896  0.74810495  1
  Fe  Fe5  1  0.12753082  0.37591070  0.87780982  1
  Fe  Fe6  1  0.12603161  0.62622771  0.62457213  1
  Fe  Fe7  1  -0.00058378  0.24900734  0.75014609  1
  Fe  Fe8  1  0.50093920  -0.00098477  0.74788600  1
  Fe  Fe9  1  0.00008349  0.74654951  0.50012620  1
  Fe  Fe10  1  0.74936466  0.25060544  0.00126830  1
  Fe  Fe11  1  0.62380286  0.12806853  0.62329212  1
  Fe  Fe12  1  0.25140693  0.74912169  -0.00146936  1
  Fe  Fe13  1  0.50010539  0.49940838  0.00097093  1
  Fe  Fe14  1  0.62422110  0.87393615  0.12563425  1
  Fe  Fe15  1  0.49733929  0.25179859  0.25070723  1
  Fe  Fe16  1  0.87542251  0.62267199  0.37311906  1
  Fe  Fe17  1  0.62046466  0.12589691  0.37605914  1
  Fe  Fe18  1  -0.00317342  0.75033850  0.00138064  1
  Fe  Fe19  1  0.87867201  0.37492860  0.37776145  1
  Fe  Fe20  1  0.00205807  0.25246255  0.24953824  1
  Fe  Fe21  1  0.12320549  0.87562285  0.37537566  1
  Fe  Fe22  1  0.37375936  0.37682000  0.37863542  1
  Fe  Fe23  1  -0.00379206  0.75026029  0.75020429  1
  Fe  Fe24  1  0.74964768  0.49658841  0.00291430  1
  Fe  Fe25  1  0.12384037  0.37350394  0.62247017  1
  Fe  Fe26  1  0.00414215  0.49812545  0.24558768  1
  Fe  Fe27  1  0.87114081  0.88130659  0.87616644  1
  Fe  Fe28  1  0.37304601  0.62557691  0.12534806  1
  Fe  Fe29  1  0.25007932  0.00097139  0.49915058  1
  Fe  Fe30  1  0.62743603  0.62407086  0.87452076  1
  Fe  Fe31  1  0.24963905  0.25212308  0.25187650  1
  Fe  Fe32  1  0.37447272  0.62392862  0.37843567  1
  Fe  Fe33  1  0.62275625  0.37417368  0.87644754  1
  Fe  Fe34  1  0.12566708  0.12248041  0.87142296  1
  Fe  Fe35  1  0.87461954  0.37607549  0.62059284  1
  Fe  Fe36  1  0.62539956  0.12358121  0.87481537  1
  Fe  Fe37  1  0.00086323  -0.00002296  0.24828534  1
  Fe  Fe38  1  0.37544143  0.62306041  0.87327260  1
  Fe  Fe39  1  0.62535192  0.37403419  0.62165470  1
  Fe  Fe40  1  0.12518786  0.12601790  0.37528828  1
  Fe  Fe41  1  0.37505592  0.87312594  0.62277202  1
  Fe  Fe42  1  0.37660253  0.37519962  0.62511079  1
  Fe  Fe43  1  0.49852460  0.75102753  0.25038359  1
  Fe  Fe44  1  0.25173059  0.75228440  0.25171548  1
  Fe  Fe45  1  0.75169754  0.75126872  0.24936575  1
  Fe  Fe46  1  0.00185639  0.24816342  -0.00022051  1
  Fe  Fe47  1  0.87615913  0.12510572  0.37480662  1
  Fe  Fe48  1  0.62695511  0.87349955  0.62484558  1
  Fe  Fe49  1  0.50016927  0.75007108  -0.00045039  1
  Fe  Fe50  1  0.74876969  0.00067845  0.24891202  1
  Fe  Fe51  1  0.00077675  0.00295898  0.50148007  1
  Fe  Fe52  1  0.75028056  0.49645435  0.24910299  1
  Fe  Fe53  1  0.87282707  0.87379198  0.62358165  1
  Fe  Fe54  1  0.49729764  0.49849083  0.24926163  1
  Fe  Fe55  1  0.62291574  0.37501843  0.37736952  1
  Fe  Fe56  1  0.24973725  0.49953603  0.75009093  1
  Fe  Fe57  1  0.12362100  0.62552754  0.87451251  1
  Fe  Fe58  1  0.74868100  0.00274416  0.49996373  1
  Fe  Fe59  1  0.25002894  0.24935162  0.49926855  1
  Fe  Fe60  1  0.37435513  0.12384383  0.12787062  1
  Fe  Fe61  1  -0.00130542  0.74937707  0.24816818  1
  Fe  Fe62  1  0.49768722  0.25020963  0.75337205  1
  Fe  Fe63  1  0.87649960  0.37455492  0.87682168  1
  Fe  Fe64  1  0.87554693  0.87640677  0.37538814  1
  Fe  Fe65  1  0.37161554  0.37359862  0.11901891  1
  Fe  Fe66  1  0.50229863  0.74994275  0.75070357  1
  Fe  Fe67  1  0.74935398  0.74614154  0.49692843  1
  Fe  Fe68  1  0.50113578  0.49936617  0.74941693  1
  Fe  Fe69  1  0.37790454  0.87841510  0.37585857  1
  Fe  Fe70  1  0.87277056  0.62255515  0.87428520  1
  Fe  Fe71  1  0.00232420  0.50118182  0.00461524  1
  Fe  Fe72  1  0.62601779  0.62394343  0.12749663  1
  Fe  Fe73  1  0.24997769  0.00040543  0.00034809  1
  Fe  Fe74  1  0.37704658  0.87666766  0.87495835  1
  Fe  Fe75  1  0.25013196  0.75101203  0.75058357  1
  Fe  Fe76  1  0.37397738  0.12498244  0.62589386  1
  Fe  Fe77  1  0.50069899  0.00051911  0.00256495  1
  Fe  Fe78  1  0.37404693  0.62647292  0.62247672  1
  Fe  Fe79  1  0.12655894  0.12567846  0.12591336  1
  Fe  Fe80  1  0.75119782  0.25095528  0.75110978  1
  Fe  Fe81  1  0.62305662  0.87578875  0.37588418  1
  Fe  Fe82  1  0.75071548  0.25134880  0.25086064  1
  Fe  Fe83  1  0.25181851  0.25038938  0.75373043  1
  Fe  Fe84  1  0.12514433  0.87562822  0.62531351  1
  Fe  Fe85  1  0.12858500  0.62166081  0.37396166  1
  Fe  Fe86  1  0.62918297  0.62441869  0.62656756  1
  Fe  Fe87  1  -0.00191702  0.00143691  0.74910892  1
  Fe  Fe88  1  0.62294056  0.12869195  0.12676204  1
  Fe  Fe89  1  0.87556281  0.12404900  0.12355910  1
  Co  Co90  1  0.37430810  0.87590643  0.12493110  1
  Co  Co91  1  0.49976674  0.00091805  0.50203575  1
  Co  Co92  1  0.62345626  0.62366663  0.36945894  1
  Co  Co93  1  0.24844795  0.50443256  -0.00015515  1
  Co  Co94  1  0.62217966  0.37352362  0.12605012  1
  Co  Co95  1  0.25079928  0.49743864  0.24843000  1
  Co  Co96  1  0.74948118  0.00279854  0.74701945  1
  Co  Co97  1  0.37600382  0.12267198  0.37285345  1
  Co  Co98  1  0.24854871  0.75229164  0.49796811  1
  Co  Co99  1  0.75093335  0.75165747  0.75335339  1
  Co  Co100  1  0.37426690  0.37808523  0.87748331  1
  Co  Co101  1  0.87557807  0.87786077  0.12587707  1
  Co  Co102  1  0.74855141  0.50176086  0.49733208  1
  Co  Co103  1  0.75049443  0.49536953  0.75070623  1
  Co  Co104  1  0.87155950  0.62434860  0.62688220  1
  Co  Co105  1  0.00147507  0.24737891  0.50018301  1
  Co  Co106  1  0.12956128  0.37261161  0.12111754  1
  Co  Co107  1  0.49668260  0.24959649  0.49895354  1
  Co  Co108  1  0.24793451  -0.00150935  0.25065047  1
  Co  Co109  1  0.49800869  0.24825458  -0.00156470  1
  Co  Co110  1  0.74667962  0.00130628  0.00374766  1
  Co  Co111  1  0.87689288  0.37266499  0.12443667  1
  Co  Co112  1  0.00273014  0.00054481  0.00027334  1
  Co  Co113  1  0.24982153  0.49845468  0.50244465  1
  Co  Co114  1  0.12716441  0.62904243  0.12663428  1
  Co  Co115  1  0.50174149  0.50200121  0.50097709  1
  Co  Co116  1  0.75037875  0.24935671  0.49754158  1
  Co  Co117  1  0.62468361  0.87763471  0.87494182  1
  Co  Co118  1  0.50293078  0.74817177  0.49932462  1
  Co  Co119  1  0.25162221  0.24455061  -0.00424111  1
  Co  Co120  1  0.00103511  0.50351741  0.50132241  1
  Co  Co121  1  0.87277386  0.62386480  0.12607250  1
  Co  Co122  1  0.12388216  0.37597105  0.37721427  1
  Co  Co123  1  0.87362701  0.12426903  0.87704539  1
  Co  Co124  1  0.50180198  -0.00051027  0.24861583  1
  Co  Co125  1  0.37712618  0.12037432  0.87328764  1
  Co  Co126  1  0.25165996  -0.00245249  0.74940173  1
  Co  Co127  1  0.12748674  0.12522178  0.62726756  1
