# generated using pymatgen
data_Fe45Co19
_symmetry_space_group_name_H-M   'P 1'
_cell_length_a   11.41477038
_cell_length_b   11.41540113
_cell_length_c   11.41515678
_cell_angle_alpha   89.99839952
_cell_angle_beta   89.98789054
_cell_angle_gamma   89.99446159
_symmetry_Int_Tables_number   1
_chemical_formula_structural   Fe45Co19
_chemical_formula_sum   'Fe90 Co38'
_cell_volume   1487.44263390
_cell_formula_units_Z   2
loop_
 _symmetry_equiv_pos_site_id
 _symmetry_equiv_pos_as_xyz
  1  'x, y, z'
loop_
 _atom_site_type_symbol
 _atom_site_label
 _atom_site_symmetry_multiplicity
 _atom_site_fract_x
 _atom_site_fract_y
 _atom_site_fract_z
 _atom_site_occupancy
  Fe  Fe0  1  0.12451224  0.12418113  0.87303476  1
  Fe  Fe1  1  0.37325286  0.62583541  0.12748023  1
  Fe  Fe2  1  0.12730595  0.37378513  0.62309640  1
  Fe  Fe3  1  0.25052292  -0.00192165  0.75162979  1
  Fe  Fe4  1  0.50216613  -0.00133197  -0.00457574  1
  Fe  Fe5  1  0.75217729  0.24858562  0.25001502  1
  Fe  Fe6  1  0.00255965  0.49924435  0.24921235  1
  Fe  Fe7  1  0.62548113  0.87521921  0.37319654  1
  Fe  Fe8  1  0.75061416  0.24746588  0.50274169  1
  Fe  Fe9  1  0.50040331  0.00053699  0.24878008  1
  Fe  Fe10  1  0.74888905  0.50061666  0.50009900  1
  Fe  Fe11  1  0.87206885  0.87250396  0.87492225  1
  Fe  Fe12  1  0.12662255  0.37237703  0.37698632  1
  Fe  Fe13  1  0.62485392  0.62618919  0.37430264  1
  Fe  Fe14  1  0.62673214  0.62433666  0.12357302  1
  Fe  Fe15  1  0.00220332  0.50054744  0.50004468  1
  Fe  Fe16  1  0.37702604  0.12599354  0.12480409  1
  Fe  Fe17  1  0.12382064  0.12606377  0.12655132  1
  Fe  Fe18  1  0.87125393  0.62351363  0.87922470  1
  Fe  Fe19  1  0.37636359  0.87439564  0.12391474  1
  Fe  Fe20  1  -0.00105723  0.00110743  -0.00168503  1
  Fe  Fe21  1  0.75043941  0.25219861  -0.00287304  1
  Fe  Fe22  1  0.24838269  0.74948056  0.00117560  1
  Fe  Fe23  1  0.00118962  0.50150190  0.75039049  1
  Fe  Fe24  1  0.12540575  0.87309575  0.87640142  1
  Fe  Fe25  1  -0.00029463  0.25044750  0.74991743  1
  Fe  Fe26  1  0.49954179  0.75096035  0.49817580  1
  Fe  Fe27  1  0.25062276  0.24882721  0.75013603  1
  Fe  Fe28  1  0.49952169  0.49940348  0.00011214  1
  Fe  Fe29  1  0.37400118  0.87434301  0.62651867  1
  Fe  Fe30  1  0.87542125  0.37468691  0.62488413  1
  Fe  Fe31  1  0.25211995  0.24849104  0.25068893  1
  Fe  Fe32  1  0.49817740  0.49895607  0.24928769  1
  Fe  Fe33  1  0.12570880  0.87882684  0.37163108  1
  Fe  Fe34  1  0.49905114  0.50176156  0.49944105  1
  Fe  Fe35  1  0.12632379  0.37540188  0.87566582  1
  Fe  Fe36  1  0.87573829  0.62397443  0.37337444  1
  Fe  Fe37  1  0.12176444  0.87524602  0.12633037  1
  Fe  Fe38  1  0.62493031  0.37551217  0.87318359  1
  Fe  Fe39  1  0.75327552  0.75077734  0.24673112  1
  Fe  Fe40  1  0.87463007  0.87702193  0.37535949  1
  Fe  Fe41  1  0.00207557  0.50017138  0.00052946  1
  Fe  Fe42  1  -0.00075734  0.75010323  0.75071974  1
  Fe  Fe43  1  0.62068799  0.12675830  0.63154869  1
  Fe  Fe44  1  0.37174482  0.37570781  0.87717678  1
  Fe  Fe45  1  -0.00375220  0.00399730  0.24927322  1
  Fe  Fe46  1  0.37236411  0.37391874  0.62295739  1
  Fe  Fe47  1  -0.00226230  0.74755085  0.00363451  1
  Fe  Fe48  1  0.24840970  0.50239186  0.00091099  1
  Fe  Fe49  1  0.49999852  0.50097243  0.75038779  1
  Fe  Fe50  1  0.87608450  0.37510414  0.12481341  1
  Fe  Fe51  1  0.62421792  0.87495078  0.12528502  1
  Fe  Fe52  1  0.12703902  0.62709879  0.62376322  1
  Fe  Fe53  1  0.24966238  0.00117553  0.00074444  1
  Fe  Fe54  1  0.49939212  0.25065207  -0.00250300  1
  Fe  Fe55  1  0.75036447  -0.00016379  0.00045046  1
  Fe  Fe56  1  0.00153979  0.75157684  0.49774149  1
  Fe  Fe57  1  0.87435249  0.12662681  0.87372148  1
  Fe  Fe58  1  0.62662991  0.87244057  0.62633453  1
  Fe  Fe59  1  0.24821505  0.50230708  0.74958356  1
  Fe  Fe60  1  0.49746260  0.24723145  0.50077311  1
  Fe  Fe61  1  0.62380140  0.12541071  0.37411467  1
  Fe  Fe62  1  0.25067200  0.00490203  0.50066789  1
  Fe  Fe63  1  0.75191661  0.00219216  0.24811037  1
  Fe  Fe64  1  0.12895978  0.62546679  0.37259235  1
  Fe  Fe65  1  0.75102195  0.00028309  0.74918411  1
  Fe  Fe66  1  0.37415139  0.37369792  0.37647906  1
  Fe  Fe67  1  0.00181314  0.24532443  0.50085129  1
  Fe  Fe68  1  0.50009643  0.00051179  0.50206335  1
  Fe  Fe69  1  0.37338632  0.62805330  0.62478190  1
  Fe  Fe70  1  0.37319508  0.62710411  0.87427329  1
  Fe  Fe71  1  0.62265462  0.37318817  0.12606851  1
  Fe  Fe72  1  0.62405136  0.37533801  0.62492052  1
  Fe  Fe73  1  0.37446534  0.87693934  0.37280055  1
  Fe  Fe74  1  0.00007778  0.25053174  -0.00094766  1
  Fe  Fe75  1  0.50257560  0.75138789  0.75349355  1
  Fe  Fe76  1  0.74934188  0.49807916  0.25016922  1
  Fe  Fe77  1  0.87633663  0.37317556  0.37649058  1
  Fe  Fe78  1  0.12873313  0.37272511  0.12362228  1
  Fe  Fe79  1  0.12372497  0.87666409  0.62616016  1
  Fe  Fe80  1  0.62469401  0.12671568  0.12331692  1
  Fe  Fe81  1  0.62359882  0.37288207  0.37573559  1
  Fe  Fe82  1  0.75009551  0.00224435  0.50293296  1
  Fe  Fe83  1  0.87544849  0.62609658  0.62320269  1
  Fe  Fe84  1  -0.00106473  0.00342010  0.50140302  1
  Fe  Fe85  1  0.37781115  0.12318264  0.87218874  1
  Fe  Fe86  1  0.74926017  0.50108538  0.74958792  1
  Fe  Fe87  1  0.50284843  0.75096975  -0.00257494  1
  Fe  Fe88  1  0.37125749  0.62699683  0.37342329  1
  Fe  Fe89  1  0.75055729  0.74960395  0.50050689  1
  Co  Co90  1  0.49755041  0.25460653  0.75203299  1
  Co  Co91  1  0.62266986  0.62532341  0.62362542  1
  Co  Co92  1  0.37691762  0.12247976  0.37311913  1
  Co  Co93  1  0.24764224  0.75078283  0.75023053  1
  Co  Co94  1  -0.00117267  0.25060802  0.24941377  1
  Co  Co95  1  0.49857068  0.25053426  0.24985285  1
  Co  Co96  1  0.25052553  0.49667730  0.24999185  1
  Co  Co97  1  0.49989327  0.75001738  0.24996784  1
  Co  Co98  1  0.37203633  0.87375000  0.87688277  1
  Co  Co99  1  0.87838036  0.87733672  0.12571702  1
  Co  Co100  1  0.87392158  0.62072344  0.12411623  1
  Co  Co101  1  0.87704354  0.12476733  0.62793941  1
  Co  Co102  1  0.37313662  0.37348018  0.12247312  1
  Co  Co103  1  0.75087190  0.25192255  0.75041393  1
  Co  Co104  1  0.12483694  0.12398415  0.37119190  1
  Co  Co105  1  0.24849132  0.75364624  0.49854692  1
  Co  Co106  1  0.62439740  0.12553685  0.87239156  1
  Co  Co107  1  0.24990458  0.50140859  0.50046553  1
  Co  Co108  1  0.87575293  0.87415242  0.62414692  1
  Co  Co109  1  0.25053560  0.24520464  -0.00182431  1
  Co  Co110  1  0.12623971  0.62578375  0.12796696  1
  Co  Co111  1  -0.00188964  -0.00278011  0.75289856  1
  Co  Co112  1  0.74850369  0.49417706  0.00050267  1
  Co  Co113  1  0.37745549  0.12400214  0.62960865  1
  Co  Co114  1  0.87535440  0.12654933  0.12192386  1
  Co  Co115  1  0.24913190  0.75445839  0.24914069  1
  Co  Co116  1  0.12454587  0.12275088  0.62907293  1
  Co  Co117  1  0.25009200  0.24351586  0.49986295  1
  Co  Co118  1  0.63019534  0.87410163  0.87459153  1
  Co  Co119  1  0.12438677  0.62644782  0.87583671  1
  Co  Co120  1  0.25170518  0.00009314  0.24555065  1
  Co  Co121  1  0.75022729  0.75297146  0.00529363  1
  Co  Co122  1  0.50069787  -0.00604800  0.75252476  1
  Co  Co123  1  0.87716118  0.37685427  0.87369824  1
  Co  Co124  1  0.74992794  0.74662088  0.74822283  1
  Co  Co125  1  0.62805166  0.62451280  0.87816732  1
  Co  Co126  1  -0.00094649  0.74886554  0.25090385  1
  Co  Co127  1  0.87457901  0.12527607  0.37619137  1
