# generated using pymatgen
data_Fe45Co19
_symmetry_space_group_name_H-M   'P 1'
_cell_length_a   11.41629523
_cell_length_b   11.41540921
_cell_length_c   11.41566599
_cell_angle_alpha   90.00117232
_cell_angle_beta   90.00131263
_cell_angle_gamma   90.00549691
_symmetry_Int_Tables_number   1
_chemical_formula_structural   Fe45Co19
_chemical_formula_sum   'Fe90 Co38'
_cell_volume   1487.70878252
_cell_formula_units_Z   2
loop_
 _symmetry_equiv_pos_site_id
 _symmetry_equiv_pos_as_xyz
  1  'x, y, z'
loop_
 _atom_site_type_symbol
 _atom_site_label
 _atom_site_symmetry_multiplicity
 _atom_site_fract_x
 _atom_site_fract_y
 _atom_site_fract_z
 _atom_site_occupancy
  Fe  Fe0  1  0.25219818  0.75118284  0.74991809  1
  Fe  Fe1  1  0.87467314  0.37427095  0.12537823  1
  Fe  Fe2  1  0.24956043  0.24930081  0.75042896  1
  Fe  Fe3  1  0.00170880  0.74764324  0.24714093  1
  Fe  Fe4  1  0.12611057  0.62512898  0.37769009  1
  Fe  Fe5  1  0.25354092  0.25243888  0.49998286  1
  Fe  Fe6  1  0.49668830  0.75241260  0.49969415  1
  Fe  Fe7  1  0.25079967  0.75302006  0.00079277  1
  Fe  Fe8  1  0.37520079  0.62465535  0.62490973  1
  Fe  Fe9  1  0.87496382  0.37469125  0.37276328  1
  Fe  Fe10  1  0.74667750  0.25157842  0.75273536  1
  Fe  Fe11  1  0.25064182  0.49973241  0.75159190  1
  Fe  Fe12  1  0.12544475  0.12372147  0.37856737  1
  Fe  Fe13  1  0.62261492  0.87415178  0.62723793  1
  Fe  Fe14  1  0.12522018  0.87609267  0.87497613  1
  Fe  Fe15  1  0.87578564  0.37738866  0.62857339  1
  Fe  Fe16  1  0.37500087  0.37318111  0.12622969  1
  Fe  Fe17  1  0.24577362  -0.00255007  0.25051246  1
  Fe  Fe18  1  0.87396576  0.12418049  0.37363177  1
  Fe  Fe19  1  0.37456659  0.12398695  0.37269913  1
  Fe  Fe20  1  0.12522536  0.37669651  0.12451581  1
  Fe  Fe21  1  0.50054088  0.74791432  0.24811681  1
  Fe  Fe22  1  0.25437026  0.75412290  0.49886565  1
  Fe  Fe23  1  0.62138622  0.87608505  0.87646814  1
  Fe  Fe24  1  0.00049239  0.74890961  0.00218574  1
  Fe  Fe25  1  0.87072413  0.12375564  0.12522877  1
  Fe  Fe26  1  0.74965034  0.50127002  0.25065047  1
  Fe  Fe27  1  0.62376597  0.37564463  0.62494545  1
  Fe  Fe28  1  0.12501326  0.37416814  0.87662284  1
  Fe  Fe29  1  0.37799901  0.87966759  0.87069193  1
  Fe  Fe30  1  0.62520674  0.37510312  0.12248959  1
  Fe  Fe31  1  0.49886852  -0.00131750  0.50058156  1
  Fe  Fe32  1  0.75071409  0.75131888  0.50075321  1
  Fe  Fe33  1  0.49955059  0.74995095  0.00206201  1
  Fe  Fe34  1  0.75007795  -0.00308791  0.49884660  1
  Fe  Fe35  1  0.74906178  0.49883195  -0.00110305  1
  Fe  Fe36  1  -0.00093356  0.25148108  0.49999962  1
  Fe  Fe37  1  0.62404683  0.62389272  0.87776310  1
  Fe  Fe38  1  -0.00061234  0.24972116  0.00059721  1
  Fe  Fe39  1  0.00239984  0.24937674  0.74982012  1
  Fe  Fe40  1  0.00055791  0.50203306  -0.00011277  1
  Fe  Fe41  1  0.87553497  0.37678568  0.87254541  1
  Fe  Fe42  1  0.87486438  0.62204127  0.62662557  1
  Fe  Fe43  1  0.49656396  0.25245115  0.49952090  1
  Fe  Fe44  1  0.87502845  0.12402271  0.87440159  1
  Fe  Fe45  1  0.62227147  0.62418286  0.62330895  1
  Fe  Fe46  1  0.25232268  0.50336834  0.25125782  1
  Fe  Fe47  1  0.24711678  0.24893723  0.24947344  1
  Fe  Fe48  1  0.49811048  0.50204153  0.24924441  1
  Fe  Fe49  1  0.75116480  0.49982251  0.49853038  1
  Fe  Fe50  1  0.25053837  -0.00455014  0.50258201  1
  Fe  Fe51  1  0.12892807  0.12410713  0.87764795  1
  Fe  Fe52  1  0.87340112  0.12453140  0.62611300  1
  Fe  Fe53  1  -0.00044968  0.50358030  0.25060948  1
  Fe  Fe54  1  0.12647019  0.37636883  0.37571730  1
  Fe  Fe55  1  0.12591691  0.37724502  0.62358946  1
  Fe  Fe56  1  0.00093540  -0.00148255  0.50309980  1
  Fe  Fe57  1  0.74681376  -0.00007262  0.75132215  1
  Fe  Fe58  1  0.87604279  0.87531410  0.87215537  1
  Fe  Fe59  1  0.62261190  0.87461129  0.37344843  1
  Fe  Fe60  1  -0.00046316  -0.00053209  0.00124956  1
  Fe  Fe61  1  0.74795213  0.74998025  0.24842302  1
  Fe  Fe62  1  0.12698256  0.62356351  0.62290564  1
  Fe  Fe63  1  0.25284116  0.49837196  -0.00007370  1
  Fe  Fe64  1  0.62371556  0.62417961  0.37556204  1
  Fe  Fe65  1  0.12648320  0.62557711  0.87702849  1
  Fe  Fe66  1  0.62607180  0.12660689  0.37669950  1
  Fe  Fe67  1  0.75066010  0.25288935  0.49816650  1
  Fe  Fe68  1  0.37600415  0.62529826  0.87741896  1
  Fe  Fe69  1  0.12758710  0.12291886  0.12098986  1
  Fe  Fe70  1  0.62182652  0.12665210  0.87925751  1
  Fe  Fe71  1  0.62597693  0.12607293  0.62222811  1
  Fe  Fe72  1  0.24886881  0.75035474  0.25056155  1
  Fe  Fe73  1  0.74937201  0.75166476  0.00150476  1
  Fe  Fe74  1  0.50047031  0.50003039  0.75217449  1
  Fe  Fe75  1  0.50279332  0.00209410  0.24745228  1
  Fe  Fe76  1  0.87763703  0.87566893  0.37243048  1
  Fe  Fe77  1  0.00033471  0.74785254  0.74945835  1
  Fe  Fe78  1  0.37532216  0.87591962  0.12725011  1
  Fe  Fe79  1  0.37480377  0.12322422  0.62823876  1
  Fe  Fe80  1  0.00451110  0.00057523  0.74628422  1
  Fe  Fe81  1  0.87410416  0.62382300  0.87463469  1
  Fe  Fe82  1  0.37996312  0.36933061  0.87587847  1
  Fe  Fe83  1  0.49397629  0.49655731  0.49696193  1
  Fe  Fe84  1  0.00107202  0.24714998  0.24911343  1
  Fe  Fe85  1  0.74782604  0.74853728  0.74950556  1
  Fe  Fe86  1  0.87424378  0.87738536  0.12651640  1
  Fe  Fe87  1  0.63134357  0.12274680  0.12132320  1
  Fe  Fe88  1  -0.00221878  0.75032829  0.50148422  1
  Fe  Fe89  1  0.50283480  0.24796455  0.24822607  1
  Co  Co90  1  0.00271007  0.00363058  0.24837130  1
  Co  Co91  1  0.12799195  0.62406094  0.12273051  1
  Co  Co92  1  0.12661098  0.12826664  0.62214386  1
  Co  Co93  1  0.62449827  0.87677862  0.12304123  1
  Co  Co94  1  0.50036140  0.74673113  0.75154933  1
  Co  Co95  1  0.50370154  0.00363603  0.74948842  1
  Co  Co96  1  0.49745016  0.50042381  0.00096718  1
  Co  Co97  1  0.74833899  0.25029397  0.25076959  1
  Co  Co98  1  -0.00123748  0.49965988  0.49871258  1
  Co  Co99  1  0.75178791  0.25194218  -0.00288273  1
  Co  Co100  1  0.37832810  0.87619995  0.62990531  1
  Co  Co101  1  0.24670860  -0.00047602  0.74774872  1
  Co  Co102  1  0.37601060  0.62701234  0.37511976  1
  Co  Co103  1  0.36984305  0.12405007  0.12919091  1
  Co  Co104  1  0.37485672  0.12549661  0.87119710  1
  Co  Co105  1  0.37693093  0.87752226  0.37068731  1
  Co  Co106  1  0.37481615  0.37529473  0.62911085  1
  Co  Co107  1  0.25484937  -0.00151947  -0.00081726  1
  Co  Co108  1  0.75120425  -0.00273056  -0.00349061  1
  Co  Co109  1  0.00385868  0.50188895  0.75091964  1
  Co  Co110  1  0.25204523  0.25061104  0.00069236  1
  Co  Co111  1  0.25413457  0.49857550  0.49844457  1
  Co  Co112  1  0.12198320  0.87431612  0.37581834  1
  Co  Co113  1  0.87348538  0.62697356  0.37448668  1
  Co  Co114  1  0.12495221  0.87550815  0.12337418  1
  Co  Co115  1  0.61999237  0.37321571  0.87827088  1
  Co  Co116  1  0.37463692  0.37119929  0.36915741  1
  Co  Co117  1  0.74546977  0.50051371  0.75111726  1
  Co  Co118  1  0.87304038  0.62471218  0.12349037  1
  Co  Co119  1  0.37351533  0.62682251  0.12314500  1
  Co  Co120  1  0.12522541  0.87042725  0.62532055  1
  Co  Co121  1  0.50258260  0.24851627  0.74732667  1
  Co  Co122  1  0.49553315  0.00353455  0.00316371  1
  Co  Co123  1  0.49728541  0.24466752  0.00565682  1
  Co  Co124  1  0.74801627  -0.00140789  0.25338670  1
  Co  Co125  1  0.87396369  0.87630236  0.62862636  1
  Co  Co126  1  0.62325102  0.37574570  0.37489229  1
  Co  Co127  1  0.62494134  0.62376383  0.12367594  1
