# generated using pymatgen
data_Fe45Co19
_symmetry_space_group_name_H-M   'P 1'
_cell_length_a   11.41555753
_cell_length_b   11.41678159
_cell_length_c   11.41607352
_cell_angle_alpha   89.99864512
_cell_angle_beta   89.99557218
_cell_angle_gamma   89.99778038
_symmetry_Int_Tables_number   1
_chemical_formula_structural   Fe45Co19
_chemical_formula_sum   'Fe90 Co38'
_cell_volume   1487.84460573
_cell_formula_units_Z   2
loop_
 _symmetry_equiv_pos_site_id
 _symmetry_equiv_pos_as_xyz
  1  'x, y, z'
loop_
 _atom_site_type_symbol
 _atom_site_label
 _atom_site_symmetry_multiplicity
 _atom_site_fract_x
 _atom_site_fract_y
 _atom_site_fract_z
 _atom_site_occupancy
  Fe  Fe0  1  0.12598035  0.37940341  0.87644318  1
  Fe  Fe1  1  0.00213470  0.25124610  0.50056399  1
  Fe  Fe2  1  0.87443559  0.37342104  0.62694744  1
  Fe  Fe3  1  0.00095262  0.50141377  0.50182076  1
  Fe  Fe4  1  0.00095654  -0.00204356  -0.00025251  1
  Fe  Fe5  1  0.49959856  -0.00422686  -0.00293087  1
  Fe  Fe6  1  0.25392510  0.25451174  0.50117352  1
  Fe  Fe7  1  -0.00179739  0.74614130  0.75288435  1
  Fe  Fe8  1  0.25124488  -0.00250451  0.75134864  1
  Fe  Fe9  1  0.75028386  0.00074674  0.75005202  1
  Fe  Fe10  1  0.37240055  0.37421961  0.12339795  1
  Fe  Fe11  1  0.00168312  0.24809139  0.24979290  1
  Fe  Fe12  1  0.24973459  0.75155013  -0.00153338  1
  Fe  Fe13  1  0.63051597  0.62231192  0.87940509  1
  Fe  Fe14  1  0.24934021  0.50399685  0.74984184  1
  Fe  Fe15  1  0.74970982  0.74847429  0.75211781  1
  Fe  Fe16  1  0.49406526  0.00187089  0.25128190  1
  Fe  Fe17  1  0.87773828  0.12737503  0.62711520  1
  Fe  Fe18  1  0.74782004  0.00013666  0.50134495  1
  Fe  Fe19  1  0.12680838  0.37702862  0.62619005  1
  Fe  Fe20  1  0.49940237  0.25157476  -0.00168449  1
  Fe  Fe21  1  0.62322765  0.12531192  0.87429428  1
  Fe  Fe22  1  0.00127583  0.74962797  0.49856223  1
  Fe  Fe23  1  0.62475971  0.62561570  0.62240571  1
  Fe  Fe24  1  0.74831054  0.24988821  0.49965894  1
  Fe  Fe25  1  0.49912214  -0.00290007  0.50032756  1
  Fe  Fe26  1  0.12699263  0.87701336  0.12689753  1
  Fe  Fe27  1  0.25267736  -0.00229361  0.50082371  1
  Fe  Fe28  1  0.74864606  0.49822394  0.50146779  1
  Fe  Fe29  1  0.50024801  0.74973895  0.25284667  1
  Fe  Fe30  1  0.87536107  0.37417885  0.37405813  1
  Fe  Fe31  1  0.87542199  0.12616049  0.12368544  1
  Fe  Fe32  1  0.87609390  0.12541492  0.37547705  1
  Fe  Fe33  1  0.62277422  0.37119559  0.63033963  1
  Fe  Fe34  1  0.37372389  0.87399045  0.12552006  1
  Fe  Fe35  1  0.87469642  0.87413410  0.12579667  1
  Fe  Fe36  1  0.87477417  0.87664064  0.37390085  1
  Fe  Fe37  1  0.62498967  0.37171395  0.12570048  1
  Fe  Fe38  1  0.37466154  0.62537912  0.87799814  1
  Fe  Fe39  1  0.12973105  0.37675752  0.37325978  1
  Fe  Fe40  1  0.62304471  0.12586573  0.12522557  1
  Fe  Fe41  1  0.12778747  0.37526287  0.12383720  1
  Fe  Fe42  1  0.74764011  0.74893784  0.25185887  1
  Fe  Fe43  1  0.37352143  0.62380538  0.37475486  1
  Fe  Fe44  1  -0.00108294  0.50443570  0.74801896  1
  Fe  Fe45  1  0.37317051  0.12362966  0.87842006  1
  Fe  Fe46  1  0.62117634  0.12796403  0.62702870  1
  Fe  Fe47  1  0.12840530  0.62277780  0.37597576  1
  Fe  Fe48  1  0.87523517  0.37252280  0.12651924  1
  Fe  Fe49  1  0.37557127  0.62475244  0.62439189  1
  Fe  Fe50  1  0.87554888  0.87343620  0.62588966  1
  Fe  Fe51  1  0.24955943  0.74854488  0.75235624  1
  Fe  Fe52  1  0.75072807  0.00244308  0.24998448  1
  Fe  Fe53  1  0.50244484  0.50165880  0.75181281  1
  Fe  Fe54  1  0.12846998  0.87793951  0.37168344  1
  Fe  Fe55  1  0.87392381  0.62401077  0.37580861  1
  Fe  Fe56  1  0.24986524  0.74969540  0.50023245  1
  Fe  Fe57  1  0.37865289  0.87144372  0.62913415  1
  Fe  Fe58  1  0.75026498  0.50035347  0.24791308  1
  Fe  Fe59  1  0.00152905  0.25138254  -0.00247908  1
  Fe  Fe60  1  0.50284081  0.75215109  -0.00290384  1
  Fe  Fe61  1  0.00095931  -0.00076236  0.50112119  1
  Fe  Fe62  1  0.12414732  0.87284497  0.62764572  1
  Fe  Fe63  1  0.87150238  0.37861869  0.87269159  1
  Fe  Fe64  1  0.62250917  0.37270929  0.37117259  1
  Fe  Fe65  1  0.25465382  0.24588704  0.24812894  1
  Fe  Fe66  1  0.50147713  0.75080613  0.49690475  1
  Fe  Fe67  1  -0.00322622  0.50183029  0.00130768  1
  Fe  Fe68  1  0.12474072  0.12289025  0.87424033  1
  Fe  Fe69  1  0.37380138  0.37665580  0.87479145  1
  Fe  Fe70  1  0.50048893  0.49909246  0.00067785  1
  Fe  Fe71  1  0.74681520  0.75164312  0.49699777  1
  Fe  Fe72  1  0.00176182  0.74929332  0.25052401  1
  Fe  Fe73  1  0.12503400  0.12590545  0.62645213  1
  Fe  Fe74  1  0.87809856  0.12399604  0.87303115  1
  Fe  Fe75  1  0.75005147  0.25066612  -0.00213931  1
  Fe  Fe76  1  0.12840105  0.12234469  0.12292249  1
  Fe  Fe77  1  0.62083207  0.12736872  0.37430909  1
  Fe  Fe78  1  0.12715805  0.12341738  0.37551543  1
  Fe  Fe79  1  0.62573573  0.62626570  0.12385977  1
  Fe  Fe80  1  0.62161646  0.87426250  0.62977120  1
  Fe  Fe81  1  -0.00310770  0.74860908  -0.00226819  1
  Fe  Fe82  1  0.12604443  0.62435920  0.12195735  1
  Fe  Fe83  1  0.49775454  0.49606010  0.50013155  1
  Fe  Fe84  1  0.74865936  -0.00305174  -0.00204418  1
  Fe  Fe85  1  0.49707786  0.50087872  0.24727222  1
  Fe  Fe86  1  0.62467775  0.87570562  0.12715571  1
  Fe  Fe87  1  0.00114108  0.50077166  0.24858887  1
  Fe  Fe88  1  0.37647262  0.12708597  0.62431038  1
  Fe  Fe89  1  0.25033255  0.25076261  0.75194570  1
  Co  Co90  1  0.25579343  0.00336189  0.25092536  1
  Co  Co91  1  0.62420344  0.87936259  0.37295900  1
  Co  Co92  1  0.75074647  0.24825145  0.24991305  1
  Co  Co93  1  0.12587137  0.62627846  0.62448266  1
  Co  Co94  1  0.87586608  0.87633543  0.87451417  1
  Co  Co95  1  -0.00033867  0.00139727  0.24916421  1
  Co  Co96  1  0.25280505  0.50208590  0.00213094  1
  Co  Co97  1  0.37736558  0.87269488  0.87199213  1
  Co  Co98  1  0.75004825  0.24796418  0.75250212  1
  Co  Co99  1  0.37340779  0.37611349  0.37088138  1
  Co  Co100  1  0.37728734  0.62934144  0.12230806  1
  Co  Co101  1  0.00108998  -0.00120993  0.74803904  1
  Co  Co102  1  0.37762069  0.12723425  0.38096905  1
  Co  Co103  1  0.00204771  0.25338481  0.75140479  1
  Co  Co104  1  0.49698025  0.24945794  0.75415596  1
  Co  Co105  1  0.12518546  0.62358737  0.87795349  1
  Co  Co106  1  0.75051230  0.49729213  0.00637717  1
  Co  Co107  1  0.87307765  0.62734660  0.62236341  1
  Co  Co108  1  0.37304460  0.87225373  0.37473952  1
  Co  Co109  1  0.49723867  0.00333287  0.75106429  1
  Co  Co110  1  0.87333324  0.62762492  0.12620995  1
  Co  Co111  1  0.49817675  0.25619172  0.50144304  1
  Co  Co112  1  0.25200796  0.49917791  0.50183122  1
  Co  Co113  1  0.50230968  0.74301312  0.75332830  1
  Co  Co114  1  0.62397654  0.62048512  0.37513533  1
  Co  Co115  1  0.62381923  0.87569606  0.87005435  1
  Co  Co116  1  0.25188743  0.50339670  0.24502638  1
  Co  Co117  1  0.74931174  0.75426919  -0.00060767  1
  Co  Co118  1  0.24914023  0.74767747  0.24816388  1
  Co  Co119  1  0.37415172  0.12265168  0.11696239  1
  Co  Co120  1  0.12245707  0.87394100  0.87371620  1
  Co  Co121  1  0.49449348  0.24795480  0.24647318  1
  Co  Co122  1  0.86945749  0.62141553  0.87673947  1
  Co  Co123  1  0.62696979  0.37633653  0.87481536  1
  Co  Co124  1  0.37503282  0.37695831  0.63096566  1
  Co  Co125  1  0.74701705  0.50135289  0.74519962  1
  Co  Co126  1  0.24851611  0.25146937  -0.00184124  1
  Co  Co127  1  0.24975882  -0.00594088  -0.00323449  1
