# generated using pymatgen
data_Fe45Co19
_symmetry_space_group_name_H-M   'P 1'
_cell_length_a   11.41425708
_cell_length_b   11.41424181
_cell_length_c   11.41635692
_cell_angle_alpha   89.99491014
_cell_angle_beta   90.00526913
_cell_angle_gamma   89.99914606
_symmetry_Int_Tables_number   1
_chemical_formula_structural   Fe45Co19
_chemical_formula_sum   'Fe90 Co38'
_cell_volume   1487.38108103
_cell_formula_units_Z   2
loop_
 _symmetry_equiv_pos_site_id
 _symmetry_equiv_pos_as_xyz
  1  'x, y, z'
loop_
 _atom_site_type_symbol
 _atom_site_label
 _atom_site_symmetry_multiplicity
 _atom_site_fract_x
 _atom_site_fract_y
 _atom_site_fract_z
 _atom_site_occupancy
  Fe  Fe0  1  0.49746355  0.25327278  0.24768968  1
  Fe  Fe1  1  0.12435479  0.87459183  0.12285775  1
  Fe  Fe2  1  0.62290320  0.12291847  0.62451908  1
  Fe  Fe3  1  0.24753579  0.25119866  0.74737718  1
  Fe  Fe4  1  0.00128551  0.25214406  0.25099522  1
  Fe  Fe5  1  0.12353887  0.87631351  0.62400783  1
  Fe  Fe6  1  -0.00312037  0.75040636  0.00116683  1
  Fe  Fe7  1  0.37395615  0.37750626  0.62522405  1
  Fe  Fe8  1  0.37324776  0.62309540  0.37383758  1
  Fe  Fe9  1  -0.00116564  0.49895340  -0.00319666  1
  Fe  Fe10  1  0.24989360  0.00006404  0.75258923  1
  Fe  Fe11  1  -0.00118233  -0.00083993  0.75256913  1
  Fe  Fe12  1  0.50434920  0.50015537  -0.00478613  1
  Fe  Fe13  1  0.12594800  0.12452031  0.12536203  1
  Fe  Fe14  1  0.74900270  0.00078651  0.49820618  1
  Fe  Fe15  1  0.74836487  -0.00369439  0.25115805  1
  Fe  Fe16  1  0.25397515  0.24722085  0.00251821  1
  Fe  Fe17  1  0.75118155  0.25084638  0.50197105  1
  Fe  Fe18  1  0.37704948  0.62351614  0.62880155  1
  Fe  Fe19  1  0.62303997  0.87637829  0.62272018  1
  Fe  Fe20  1  0.74869486  0.49741374  -0.00057591  1
  Fe  Fe21  1  0.62647619  0.37559900  0.62532840  1
  Fe  Fe22  1  0.87373979  0.12669378  0.12662261  1
  Fe  Fe23  1  -0.00536134  0.75277900  0.74633893  1
  Fe  Fe24  1  0.87237843  0.36942258  0.87588078  1
  Fe  Fe25  1  0.24923564  0.74763467  0.24911173  1
  Fe  Fe26  1  0.87509781  0.62494677  0.12636087  1
  Fe  Fe27  1  0.24939930  -0.00208101  0.24888613  1
  Fe  Fe28  1  0.37413764  0.12510129  0.37317911  1
  Fe  Fe29  1  0.87333393  0.37297037  0.12514036  1
  Fe  Fe30  1  0.37844179  0.87443288  0.12361083  1
  Fe  Fe31  1  0.12348120  0.87320261  0.87601733  1
  Fe  Fe32  1  0.49889316  0.74853171  0.49935117  1
  Fe  Fe33  1  0.24635548  0.49980106  0.75185546  1
  Fe  Fe34  1  0.62719869  0.62707019  0.37512854  1
  Fe  Fe35  1  -0.00097842  0.00094288  -0.00022852  1
  Fe  Fe36  1  0.50186714  0.74859028  0.75396429  1
  Fe  Fe37  1  0.12739871  0.37847554  0.37885353  1
  Fe  Fe38  1  0.50299069  -0.00432218  0.25429959  1
  Fe  Fe39  1  0.24937982  0.00166425  0.49962770  1
  Fe  Fe40  1  0.00305800  0.00297307  0.49731549  1
  Fe  Fe41  1  0.25135081  0.25341320  0.24737524  1
  Fe  Fe42  1  0.12380054  0.62472016  0.12330719  1
  Fe  Fe43  1  0.50010779  0.49975806  0.25002529  1
  Fe  Fe44  1  0.12495252  0.37581172  0.12189781  1
  Fe  Fe45  1  0.49997540  0.25064773  0.74918507  1
  Fe  Fe46  1  0.75097138  0.75198200  0.00203199  1
  Fe  Fe47  1  0.75140241  0.00029265  0.00135614  1
  Fe  Fe48  1  0.37196605  0.37779772  0.37685100  1
  Fe  Fe49  1  0.49830485  0.00233256  -0.00242525  1
  Fe  Fe50  1  0.12299410  0.87040600  0.37658366  1
  Fe  Fe51  1  0.00183592  0.25276150  0.74703376  1
  Fe  Fe52  1  0.87760470  0.12534863  0.62420498  1
  Fe  Fe53  1  0.37657881  0.12154044  0.62645255  1
  Fe  Fe54  1  0.62571313  0.12788420  0.87326570  1
  Fe  Fe55  1  0.00140580  0.49567134  0.75444545  1
  Fe  Fe56  1  0.74849293  0.75346991  0.24622472  1
  Fe  Fe57  1  0.62267116  0.62702498  0.12387817  1
  Fe  Fe58  1  0.87433032  0.12823994  0.87503058  1
  Fe  Fe59  1  0.87700145  0.87065925  0.37580706  1
  Fe  Fe60  1  0.00103117  0.50196035  0.25131765  1
  Fe  Fe61  1  -0.00455744  0.50468900  0.49809526  1
  Fe  Fe62  1  0.87241970  0.62760536  0.87238680  1
  Fe  Fe63  1  0.12229763  0.62357550  0.62644405  1
  Fe  Fe64  1  0.24971404  0.74880299  0.75075538  1
  Fe  Fe65  1  0.50101565  0.50056083  0.50096986  1
  Fe  Fe66  1  0.75084703  -0.00109251  0.74974290  1
  Fe  Fe67  1  0.87616765  0.12730086  0.37448721  1
  Fe  Fe68  1  0.49864074  0.24993310  0.50097131  1
  Fe  Fe69  1  0.00020378  -0.00115393  0.25015767  1
  Fe  Fe70  1  0.37549419  0.37621509  0.87453510  1
  Fe  Fe71  1  0.74898582  0.49910431  0.24996556  1
  Fe  Fe72  1  0.62509257  0.12554884  0.12794498  1
  Fe  Fe73  1  0.62728814  0.87364848  0.87651695  1
  Fe  Fe74  1  0.87358234  0.37488865  0.37699443  1
  Fe  Fe75  1  0.12580098  0.12736036  0.87623069  1
  Fe  Fe76  1  0.24922952  0.74757064  0.50202421  1
  Fe  Fe77  1  0.25145566  0.74870809  -0.00222594  1
  Fe  Fe78  1  0.37708245  0.62399675  0.12384002  1
  Fe  Fe79  1  0.37509427  0.87401430  0.37603576  1
  Fe  Fe80  1  0.62571550  0.37468314  0.37498710  1
  Fe  Fe81  1  0.24733700  0.50236176  -0.00348038  1
  Fe  Fe82  1  0.75581544  0.74684867  0.50548140  1
  Fe  Fe83  1  0.37538192  0.87538689  0.87494437  1
  Fe  Fe84  1  0.50038143  0.25052621  0.00187047  1
  Fe  Fe85  1  0.37756773  0.87688893  0.62586942  1
  Fe  Fe86  1  0.62440285  0.12765207  0.37467714  1
  Fe  Fe87  1  0.24643059  0.24690531  0.50219089  1
  Fe  Fe88  1  0.62693215  0.62405355  0.62813501  1
  Fe  Fe89  1  0.74845638  0.49598575  0.75137034  1
  Co  Co90  1  0.37702708  0.12119466  0.12851177  1
  Co  Co91  1  0.62551819  0.37139318  0.87331016  1
  Co  Co92  1  0.49966562  0.75053147  0.25221038  1
  Co  Co93  1  0.12032552  0.62982466  0.87364086  1
  Co  Co94  1  0.87607945  0.37595712  0.62356605  1
  Co  Co95  1  0.87686227  0.87593642  0.12622622  1
  Co  Co96  1  0.75203141  0.75562969  0.74600789  1
  Co  Co97  1  -0.00141093  0.24914433  0.00199511  1
  Co  Co98  1  0.25202101  0.50473506  0.50357289  1
  Co  Co99  1  0.12346807  0.12192348  0.62805605  1
  Co  Co100  1  0.62075807  0.87511840  0.12130569  1
  Co  Co101  1  0.87710004  0.88145256  0.62068304  1
  Co  Co102  1  0.62556873  0.37490866  0.12663461  1
  Co  Co103  1  0.49870725  0.74762027  -0.00517987  1
  Co  Co104  1  0.49967006  0.00006440  0.49638925  1
  Co  Co105  1  0.37492511  0.12784791  0.87228080  1
  Co  Co106  1  0.00229184  0.74750877  0.24851379  1
  Co  Co107  1  0.24816012  0.50063010  0.24738901  1
  Co  Co108  1  0.50277608  0.50001239  0.75085891  1
  Co  Co109  1  0.74751160  0.24988915  0.00201735  1
  Co  Co110  1  0.87399349  0.61842615  0.63195374  1
  Co  Co111  1  0.12716316  0.37014164  0.87901083  1
  Co  Co112  1  0.62790793  0.86986694  0.38009572  1
  Co  Co113  1  0.87427420  0.87388554  0.87671800  1
  Co  Co114  1  -0.00309538  0.74476864  0.50374424  1
  Co  Co115  1  0.37564901  0.38079796  0.12135738  1
  Co  Co116  1  0.50143733  -0.00118016  0.75318038  1
  Co  Co117  1  0.12608004  0.62484466  0.37657894  1
  Co  Co118  1  0.25146759  0.00054519  -0.00173492  1
  Co  Co119  1  0.75045930  0.24849344  0.74584727  1
  Co  Co120  1  0.37471038  0.62116084  0.87344656  1
  Co  Co121  1  0.12723452  0.12587141  0.37025972  1
  Co  Co122  1  0.87171947  0.62848291  0.37056399  1
  Co  Co123  1  0.75075705  0.25100670  0.25081300  1
  Co  Co124  1  0.00264145  0.24861411  0.49983684  1
  Co  Co125  1  0.63128793  0.62732691  0.87353032  1
  Co  Co126  1  0.12349386  0.37955566  0.62002689  1
  Co  Co127  1  0.75015486  0.50058067  0.49935800  1
