# generated using pymatgen
data_Fe45Co19
_symmetry_space_group_name_H-M   'P 1'
_cell_length_a   11.41475220
_cell_length_b   11.41519255
_cell_length_c   11.41460630
_cell_angle_alpha   89.99931601
_cell_angle_beta   89.99832464
_cell_angle_gamma   90.00343999
_symmetry_Int_Tables_number   1
_chemical_formula_structural   Fe45Co19
_chemical_formula_sum   'Fe90 Co38'
_cell_volume   1487.34139602
_cell_formula_units_Z   2
loop_
 _symmetry_equiv_pos_site_id
 _symmetry_equiv_pos_as_xyz
  1  'x, y, z'
loop_
 _atom_site_type_symbol
 _atom_site_label
 _atom_site_symmetry_multiplicity
 _atom_site_fract_x
 _atom_site_fract_y
 _atom_site_fract_z
 _atom_site_occupancy
  Fe  Fe0  1  0.13005927  0.37304774  0.37456628  1
  Fe  Fe1  1  0.87558316  0.62447800  0.62407495  1
  Fe  Fe2  1  0.25110089  0.24868092  0.74992962  1
  Fe  Fe3  1  0.74844989  0.50091331  0.00210552  1
  Fe  Fe4  1  0.87335696  0.87323110  0.62560987  1
  Fe  Fe5  1  0.37179755  0.37035828  0.12440257  1
  Fe  Fe6  1  0.37412709  0.37657588  0.87629925  1
  Fe  Fe7  1  0.37737118  0.12574084  0.12493452  1
  Fe  Fe8  1  0.49935356  0.74821170  0.75105581  1
  Fe  Fe9  1  0.12633424  0.12460262  0.62172881  1
  Fe  Fe10  1  0.49975048  0.24999448  0.75186338  1
  Fe  Fe11  1  0.62370500  0.37563653  0.87698168  1
  Fe  Fe12  1  0.00047074  0.75201570  0.75184244  1
  Fe  Fe13  1  0.12484286  0.12732412  0.12452537  1
  Fe  Fe14  1  0.74623018  0.00198693  0.24759910  1
  Fe  Fe15  1  0.62344264  0.87132650  0.12552599  1
  Fe  Fe16  1  0.12672992  0.62662677  0.87659088  1
  Fe  Fe17  1  0.37426380  0.87687821  0.37350638  1
  Fe  Fe18  1  0.74704512  0.50130309  0.24719690  1
  Fe  Fe19  1  0.49842893  0.74966334  0.49560227  1
  Fe  Fe20  1  0.87635593  0.12516119  0.62768939  1
  Fe  Fe21  1  0.87402287  0.87538550  0.12630087  1
  Fe  Fe22  1  0.00094981  0.00158487  0.25098908  1
  Fe  Fe23  1  0.12679986  0.37414476  0.62413303  1
  Fe  Fe24  1  0.62487357  0.87282158  0.87618939  1
  Fe  Fe25  1  0.12660202  0.87543442  0.37471120  1
  Fe  Fe26  1  0.87580076  0.62365269  0.37328744  1
  Fe  Fe27  1  -0.00005968  -0.00292184  0.75286753  1
  Fe  Fe28  1  0.62304959  0.12594221  0.62218362  1
  Fe  Fe29  1  0.87269674  0.87567907  0.37396716  1
  Fe  Fe30  1  0.49982029  -0.00210536  0.49875979  1
  Fe  Fe31  1  0.12341334  0.12593436  0.87447575  1
  Fe  Fe32  1  0.87465716  0.37735754  0.62520039  1
  Fe  Fe33  1  0.49907205  0.25241308  0.49669955  1
  Fe  Fe34  1  0.12469370  0.62581252  0.62588604  1
  Fe  Fe35  1  0.87400390  0.62506931  0.87439896  1
  Fe  Fe36  1  0.00579416  0.49904727  0.24836340  1
  Fe  Fe37  1  0.37741578  0.62767606  0.13088138  1
  Fe  Fe38  1  0.00202508  0.49967129  0.49785292  1
  Fe  Fe39  1  0.49942204  0.25029387  0.25290385  1
  Fe  Fe40  1  0.25040240  0.50089482  0.74882580  1
  Fe  Fe41  1  0.87484600  0.37431303  0.87303031  1
  Fe  Fe42  1  0.37537895  0.12174844  0.62374008  1
  Fe  Fe43  1  0.37750696  0.12424750  0.87538445  1
  Fe  Fe44  1  0.24862880  0.00421453  0.25271835  1
  Fe  Fe45  1  -0.00389142  0.24891898  -0.00079083  1
  Fe  Fe46  1  0.62735404  0.12659660  0.88094647  1
  Fe  Fe47  1  0.87319325  0.12506269  0.37550443  1
  Fe  Fe48  1  0.00035965  -0.00163363  0.49981897  1
  Fe  Fe49  1  0.50322233  0.00090977  0.25127627  1
  Fe  Fe50  1  0.12627005  0.37378585  0.87651721  1
  Fe  Fe51  1  0.87650563  0.62518097  0.12650502  1
  Fe  Fe52  1  0.00059089  0.75072903  0.49905188  1
  Fe  Fe53  1  0.37949965  0.62123153  0.62288597  1
  Fe  Fe54  1  0.74831623  0.24639343  0.24753957  1
  Fe  Fe55  1  0.12644216  0.87562686  0.12367809  1
  Fe  Fe56  1  0.62293261  0.37644233  0.62348137  1
  Fe  Fe57  1  0.37075040  0.38000141  0.37489100  1
  Fe  Fe58  1  0.12995838  0.62541343  0.37226764  1
  Fe  Fe59  1  0.25412347  0.74986796  0.50081238  1
  Fe  Fe60  1  0.37356230  0.87744815  0.87003809  1
  Fe  Fe61  1  0.37648905  0.62240919  0.87609076  1
  Fe  Fe62  1  0.37468643  0.87708755  0.12742295  1
  Fe  Fe63  1  0.62098859  0.62427723  0.36932870  1
  Fe  Fe64  1  0.87684348  0.37503751  0.12673817  1
  Fe  Fe65  1  0.74772238  -0.00022143  0.75132818  1
  Fe  Fe66  1  0.50093391  -0.00213591  -0.00056836  1
  Fe  Fe67  1  0.62362834  0.37206749  0.12455553  1
  Fe  Fe68  1  0.25288114  0.75136506  0.00065466  1
  Fe  Fe69  1  0.62256981  0.87340733  0.62408510  1
  Fe  Fe70  1  0.74911343  0.74809594  0.00202509  1
  Fe  Fe71  1  0.50062836  0.50085239  0.00392573  1
  Fe  Fe72  1  -0.00048586  0.75218978  -0.00112063  1
  Fe  Fe73  1  0.74898764  0.25035687  0.74904993  1
  Fe  Fe74  1  0.37649088  0.37788170  0.62400785  1
  Fe  Fe75  1  0.00209372  0.49967333  0.00246333  1
  Fe  Fe76  1  0.00058697  0.75100343  0.25030461  1
  Fe  Fe77  1  0.74753244  0.74753796  0.74900242  1
  Fe  Fe78  1  0.74663587  0.50094138  0.49916634  1
  Fe  Fe79  1  0.13071525  0.87532664  0.62747319  1
  Fe  Fe80  1  0.87157432  0.37528214  0.37431874  1
  Fe  Fe81  1  0.74993732  0.00080559  0.50042333  1
  Fe  Fe82  1  0.24765009  0.50044744  0.00596413  1
  Fe  Fe83  1  0.74602169  0.50225606  0.74978994  1
  Fe  Fe84  1  0.74835382  0.74779088  0.49733521  1
  Fe  Fe85  1  0.00129298  0.49983179  0.75050997  1
  Fe  Fe86  1  0.00039533  0.24835962  0.25163224  1
  Fe  Fe87  1  -0.00363676  -0.00102210  -0.00300370  1
  Fe  Fe88  1  0.25064257  0.00188608  -0.00152698  1
  Fe  Fe89  1  -0.00201065  0.25157242  0.50020737  1
  Co  Co90  1  0.12981528  0.87355238  0.87522688  1
  Co  Co91  1  0.25046706  0.75296627  0.24978469  1
  Co  Co92  1  0.75019727  0.74948821  0.25090580  1
  Co  Co93  1  0.87206783  0.12559622  0.87345915  1
  Co  Co94  1  0.37311693  0.62108533  0.37041001  1
  Co  Co95  1  0.24947577  0.00397851  0.75107808  1
  Co  Co96  1  0.87090836  0.87407584  0.87458550  1
  Co  Co97  1  0.62674529  0.87674447  0.37576059  1
  Co  Co98  1  0.74970563  -0.00181637  0.00251172  1
  Co  Co99  1  0.87551062  0.12369930  0.12519688  1
  Co  Co100  1  0.24719447  0.49844376  0.24310657  1
  Co  Co101  1  0.49836151  0.25140215  -0.00183138  1
  Co  Co102  1  0.62264314  0.62503531  0.87815629  1
  Co  Co103  1  0.62100757  0.12713663  0.12144516  1
  Co  Co104  1  0.25213917  0.24640033  0.25212575  1
  Co  Co105  1  0.25363188  0.24918538  0.50030093  1
  Co  Co106  1  0.62844098  0.37260980  0.37379752  1
  Co  Co107  1  0.49868500  0.75361333  0.25352176  1
  Co  Co108  1  0.75336959  0.25227253  0.00256692  1
  Co  Co109  1  0.75161282  0.25004721  0.50262412  1
  Co  Co110  1  0.37630211  0.87786121  0.62855928  1
  Co  Co111  1  0.50300678  0.49928741  0.49455615  1
  Co  Co112  1  0.37776272  0.12286405  0.37626320  1
  Co  Co113  1  0.12551456  0.36738316  0.12387755  1
  Co  Co114  1  0.49939607  0.49527414  0.24813319  1
  Co  Co115  1  0.25414975  0.74584669  0.74905908  1
  Co  Co116  1  0.50429047  0.00218969  0.75193048  1
  Co  Co117  1  0.50142794  0.49930012  0.75202091  1
  Co  Co118  1  0.12457614  0.12654814  0.37891505  1
  Co  Co119  1  0.00115377  0.25053367  0.74881564  1
  Co  Co120  1  0.24908280  0.50259728  0.50203889  1
  Co  Co121  1  0.49583623  0.75174758  -0.00077327  1
  Co  Co122  1  0.12478046  0.63042466  0.12444928  1
  Co  Co123  1  0.62497816  0.12620884  0.37751374  1
  Co  Co124  1  0.25098880  0.24637484  -0.00236600  1
  Co  Co125  1  0.62045605  0.62858204  0.12682460  1
  Co  Co126  1  0.25138732  -0.00193184  0.49795377  1
  Co  Co127  1  0.62074599  0.62498419  0.62410684  1
