# generated using pymatgen
data_Fe45Co19
_symmetry_space_group_name_H-M   'P 1'
_cell_length_a   11.41493485
_cell_length_b   11.41476293
_cell_length_c   11.41467679
_cell_angle_alpha   90.00174003
_cell_angle_beta   89.98881570
_cell_angle_gamma   90.00321547
_symmetry_Int_Tables_number   1
_chemical_formula_structural   Fe45Co19
_chemical_formula_sum   'Fe90 Co38'
_cell_volume   1487.31837281
_cell_formula_units_Z   2
loop_
 _symmetry_equiv_pos_site_id
 _symmetry_equiv_pos_as_xyz
  1  'x, y, z'
loop_
 _atom_site_type_symbol
 _atom_site_label
 _atom_site_symmetry_multiplicity
 _atom_site_fract_x
 _atom_site_fract_y
 _atom_site_fract_z
 _atom_site_occupancy
  Fe  Fe0  1  0.37381099  0.87401400  0.62542253  1
  Fe  Fe1  1  0.87434220  0.12406471  0.62407352  1
  Fe  Fe2  1  0.50068087  0.74626808  0.50068857  1
  Fe  Fe3  1  0.25186141  0.00380824  0.75206759  1
  Fe  Fe4  1  0.11681146  0.62467101  0.87298828  1
  Fe  Fe5  1  0.00084502  0.25334911  0.74689366  1
  Fe  Fe6  1  0.24915831  0.74943353  0.24896424  1
  Fe  Fe7  1  0.50072450  -0.00142727  0.25134449  1
  Fe  Fe8  1  0.49619765  0.49596913  0.25524810  1
  Fe  Fe9  1  0.50190353  -0.00131039  0.74998604  1
  Fe  Fe10  1  0.74918887  0.50324230  -0.00376071  1
  Fe  Fe11  1  0.74800785  0.25253236  0.24900912  1
  Fe  Fe12  1  0.12699565  0.37349436  0.37567126  1
  Fe  Fe13  1  0.62479777  0.12713166  0.87275114  1
  Fe  Fe14  1  0.12673632  0.37514826  0.12432194  1
  Fe  Fe15  1  0.12816489  0.37855644  0.62546875  1
  Fe  Fe16  1  -0.00256169  -0.00301146  0.74755116  1
  Fe  Fe17  1  0.74667917  0.25478962  0.74785078  1
  Fe  Fe18  1  0.12683847  0.37339795  0.87312025  1
  Fe  Fe19  1  0.00071300  0.00063094  0.25293343  1
  Fe  Fe20  1  0.87591343  0.12539389  0.12531195  1
  Fe  Fe21  1  0.87449749  0.87301595  0.37779481  1
  Fe  Fe22  1  0.87618712  0.87087457  0.87445921  1
  Fe  Fe23  1  0.62584828  0.87191571  0.37713286  1
  Fe  Fe24  1  -0.00219951  0.25232234  0.24931246  1
  Fe  Fe25  1  0.49956826  -0.00123148  -0.00310200  1
  Fe  Fe26  1  0.24768629  0.50284128  -0.00326163  1
  Fe  Fe27  1  0.25246628  0.49939284  0.25208568  1
  Fe  Fe28  1  0.25246100  0.24562622  0.00191974  1
  Fe  Fe29  1  0.74965964  0.74624172  0.24816537  1
  Fe  Fe30  1  0.87821325  0.62183800  0.62860723  1
  Fe  Fe31  1  0.49851296  0.74793549  0.75070822  1
  Fe  Fe32  1  0.37318731  0.87689473  0.12533063  1
  Fe  Fe33  1  0.25322286  0.50147214  0.49656411  1
  Fe  Fe34  1  0.62228962  0.61692210  0.62794919  1
  Fe  Fe35  1  0.49765909  0.25033462  0.00295620  1
  Fe  Fe36  1  0.25382762  0.24895448  0.24504374  1
  Fe  Fe37  1  0.75017468  0.00047276  -0.00238132  1
  Fe  Fe38  1  0.62635709  0.61999807  0.37382071  1
  Fe  Fe39  1  0.87534719  0.37696734  0.87663897  1
  Fe  Fe40  1  0.75071983  0.24934945  0.00125569  1
  Fe  Fe41  1  0.37559146  0.62097873  0.62709142  1
  Fe  Fe42  1  0.50186124  -0.00020250  0.50180227  1
  Fe  Fe43  1  0.24645986  0.74740784  0.00079916  1
  Fe  Fe44  1  0.25141381  0.00478511  -0.00127849  1
  Fe  Fe45  1  0.12246245  0.12362321  0.62428734  1
  Fe  Fe46  1  0.00057959  0.75019502  0.24659687  1
  Fe  Fe47  1  0.62683155  0.87220642  0.87265395  1
  Fe  Fe48  1  0.87776091  0.62615890  0.37593863  1
  Fe  Fe49  1  0.37508225  0.87294722  0.37548266  1
  Fe  Fe50  1  0.87421981  0.12639066  0.87197673  1
  Fe  Fe51  1  0.74814513  0.74557138  0.50268237  1
  Fe  Fe52  1  0.62187296  0.12955893  0.37514611  1
  Fe  Fe53  1  0.50214425  0.25435317  0.74664268  1
  Fe  Fe54  1  0.37843503  0.12965168  0.37353324  1
  Fe  Fe55  1  -0.00047396  0.49708714  0.49952830  1
  Fe  Fe56  1  0.74954759  0.00073871  0.25256865  1
  Fe  Fe57  1  0.50072348  0.50258425  -0.00692921  1
  Fe  Fe58  1  0.37558765  0.37910593  0.62612227  1
  Fe  Fe59  1  -0.00008021  -0.00020661  -0.00062087  1
  Fe  Fe60  1  0.12650874  0.87876801  0.12649667  1
  Fe  Fe61  1  0.24934122  0.00007203  0.49617817  1
  Fe  Fe62  1  0.50107684  0.74910870  0.24933942  1
  Fe  Fe63  1  0.62658766  0.87498498  0.12508823  1
  Fe  Fe64  1  0.87155779  0.37506040  0.37546040  1
  Fe  Fe65  1  0.74933612  0.74632195  0.00155701  1
  Fe  Fe66  1  0.87838956  0.62209260  0.12150306  1
  Fe  Fe67  1  0.12325804  0.12841275  0.37573930  1
  Fe  Fe68  1  0.87292295  0.37686718  0.62484857  1
  Fe  Fe69  1  0.24670764  0.74524620  0.74859489  1
  Fe  Fe70  1  0.37723178  0.12516099  0.62587391  1
  Fe  Fe71  1  0.37257429  0.87247687  0.87417671  1
  Fe  Fe72  1  0.24802958  0.74902033  0.50154270  1
  Fe  Fe73  1  0.50082053  0.74881062  -0.00001260  1
  Fe  Fe74  1  0.74650607  -0.00064641  0.50233379  1
  Fe  Fe75  1  0.37546168  0.62286112  0.12415034  1
  Fe  Fe76  1  0.62530584  0.37973342  0.12471721  1
  Fe  Fe77  1  0.12467466  0.87461735  0.87298999  1
  Fe  Fe78  1  0.74570575  0.25273058  0.50231570  1
  Fe  Fe79  1  0.62333920  0.12440840  0.12527199  1
  Fe  Fe80  1  0.87610138  0.12621753  0.37931118  1
  Fe  Fe81  1  0.12334385  0.12747126  0.87334826  1
  Fe  Fe82  1  0.75254830  0.74753553  0.74841262  1
  Fe  Fe83  1  0.00339385  0.75416787  0.50620444  1
  Fe  Fe84  1  0.87377743  0.87615606  0.12499143  1
  Fe  Fe85  1  0.37193318  0.37273692  0.87379847  1
  Fe  Fe86  1  -0.00021548  0.25143768  0.00121173  1
  Fe  Fe87  1  -0.00086573  0.49751628  0.24882997  1
  Fe  Fe88  1  0.12384385  0.62557188  0.37547820  1
  Fe  Fe89  1  0.25027066  0.24933498  0.50385274  1
  Co  Co90  1  0.62774496  0.37792115  0.37767256  1
  Co  Co91  1  0.00172206  -0.00325169  0.50032486  1
  Co  Co92  1  0.62232378  0.38503118  0.62093640  1
  Co  Co93  1  0.24916891  0.50301081  0.75330787  1
  Co  Co94  1  0.49427796  0.50051897  0.49337756  1
  Co  Co95  1  0.87268099  0.37605236  0.12254919  1
  Co  Co96  1  0.37455824  0.38092117  0.11995432  1
  Co  Co97  1  0.37350731  0.62744344  0.87570208  1
  Co  Co98  1  0.24941213  0.00244532  0.25402205  1
  Co  Co99  1  0.12396609  0.61961172  0.62295201  1
  Co  Co100  1  0.62745146  0.62873465  0.87129682  1
  Co  Co101  1  0.49999021  0.49825068  0.75787543  1
  Co  Co102  1  0.50218075  0.25177976  0.50403561  1
  Co  Co103  1  0.62653727  0.12522997  0.62759864  1
  Co  Co104  1  0.00018647  0.49592544  0.74945261  1
  Co  Co105  1  0.37897731  0.12844284  0.87232654  1
  Co  Co106  1  0.37295989  0.36687952  0.37785164  1
  Co  Co107  1  0.75338496  0.50123002  0.24910133  1
  Co  Co108  1  0.12445396  0.87182703  0.37360353  1
  Co  Co109  1  0.00004661  0.25408822  0.50219597  1
  Co  Co110  1  0.00208146  0.75306559  0.74478877  1
  Co  Co111  1  0.12520967  0.62167814  0.12758794  1
  Co  Co112  1  0.75379502  0.50233536  0.50053782  1
  Co  Co113  1  0.87105699  0.87595345  0.62268977  1
  Co  Co114  1  0.88048715  0.62576228  0.87501039  1
  Co  Co115  1  0.13116202  0.87922358  0.62741335  1
  Co  Co116  1  0.62558284  0.37176461  0.87813900  1
  Co  Co117  1  0.00285112  0.75207973  0.00338442  1
  Co  Co118  1  0.50045750  0.25629146  0.24678375  1
  Co  Co119  1  0.12268701  0.12552768  0.12516402  1
  Co  Co120  1  0.37305538  0.62975651  0.37329349  1
  Co  Co121  1  0.62419034  0.87148102  0.62600433  1
  Co  Co122  1  0.74963889  0.49821003  0.75403276  1
  Co  Co123  1  0.74950131  -0.00157331  0.75083021  1
  Co  Co124  1  0.62109999  0.62050516  0.12672116  1
  Co  Co125  1  0.00242489  0.49665096  0.00056079  1
  Co  Co126  1  0.24967586  0.24873201  0.74694913  1
  Co  Co127  1  0.37838312  0.12098917  0.12743734  1
