# generated using pymatgen
data_Fe45Co19
_symmetry_space_group_name_H-M   'P 1'
_cell_length_a   11.41455612
_cell_length_b   11.41513119
_cell_length_c   11.41459627
_cell_angle_alpha   90.01029101
_cell_angle_beta   89.98806911
_cell_angle_gamma   90.00142291
_symmetry_Int_Tables_number   1
_chemical_formula_structural   Fe45Co19
_chemical_formula_sum   'Fe90 Co38'
_cell_volume   1487.30649181
_cell_formula_units_Z   2
loop_
 _symmetry_equiv_pos_site_id
 _symmetry_equiv_pos_as_xyz
  1  'x, y, z'
loop_
 _atom_site_type_symbol
 _atom_site_label
 _atom_site_symmetry_multiplicity
 _atom_site_fract_x
 _atom_site_fract_y
 _atom_site_fract_z
 _atom_site_occupancy
  Fe  Fe0  1  0.37758488  0.62555117  0.12556792  1
  Fe  Fe1  1  0.25017669  0.50116877  0.74777371  1
  Fe  Fe2  1  0.50323725  0.00059638  0.24950157  1
  Fe  Fe3  1  0.74869125  0.00146664  0.00200596  1
  Fe  Fe4  1  0.12397205  0.12637974  0.12834288  1
  Fe  Fe5  1  0.49899999  0.50048653  0.74672535  1
  Fe  Fe6  1  0.87864542  0.62350147  0.62305867  1
  Fe  Fe7  1  -0.00390762  0.50039676  0.25307951  1
  Fe  Fe8  1  0.62619561  0.37615531  0.37435117  1
  Fe  Fe9  1  0.50017047  0.75151753  -0.00063463  1
  Fe  Fe10  1  0.62372493  0.62618427  0.87440978  1
  Fe  Fe11  1  -0.00384960  0.25507507  0.50050315  1
  Fe  Fe12  1  0.62585040  0.12320395  0.87227250  1
  Fe  Fe13  1  0.50061967  0.24919356  -0.00154836  1
  Fe  Fe14  1  0.24980396  0.75031881  -0.00008156  1
  Fe  Fe15  1  0.62648918  0.87876952  0.37753735  1
  Fe  Fe16  1  0.62622794  0.87602456  0.87364009  1
  Fe  Fe17  1  0.62110149  0.62702337  0.62425681  1
  Fe  Fe18  1  0.75132430  0.50023211  0.49915380  1
  Fe  Fe19  1  0.37429692  0.87611736  0.12766997  1
  Fe  Fe20  1  0.87582152  0.12297658  0.12763125  1
  Fe  Fe21  1  0.00063036  -0.00204767  0.00193628  1
  Fe  Fe22  1  0.12299886  0.62364690  0.37588720  1
  Fe  Fe23  1  0.87578089  0.12516881  0.37484966  1
  Fe  Fe24  1  0.25098617  0.50120241  0.50110176  1
  Fe  Fe25  1  0.12606834  0.37419044  0.12811663  1
  Fe  Fe26  1  0.37494272  0.12548849  0.12558437  1
  Fe  Fe27  1  0.25110882  0.74843706  0.25362267  1
  Fe  Fe28  1  0.62363808  0.37584211  0.12657767  1
  Fe  Fe29  1  0.12585685  0.12223566  0.87254513  1
  Fe  Fe30  1  0.37149026  0.87646549  0.87399754  1
  Fe  Fe31  1  0.74875641  0.74827048  0.00370071  1
  Fe  Fe32  1  0.87676062  0.62662717  0.87643441  1
  Fe  Fe33  1  0.62815794  0.37514282  0.62520168  1
  Fe  Fe34  1  -0.00112109  0.74938402  0.25041936  1
  Fe  Fe35  1  0.12604999  0.87405040  0.62335380  1
  Fe  Fe36  1  0.12734542  0.87674923  0.37629069  1
  Fe  Fe37  1  0.74988575  0.24933203  0.00070351  1
  Fe  Fe38  1  -0.00279762  -0.00128782  0.49959600  1
  Fe  Fe39  1  0.12296421  0.62528702  0.12442588  1
  Fe  Fe40  1  0.74910441  0.75190433  0.74683573  1
  Fe  Fe41  1  0.24816739  0.24897934  0.49862296  1
  Fe  Fe42  1  0.62590130  0.37406952  0.87290585  1
  Fe  Fe43  1  0.75249646  0.50548790  0.24891519  1
  Fe  Fe44  1  0.87360630  0.87440840  0.87494003  1
  Fe  Fe45  1  0.12654172  0.87454123  0.12672322  1
  Fe  Fe46  1  0.37321739  0.12442019  0.87151351  1
  Fe  Fe47  1  0.74893618  0.75214446  0.50152623  1
  Fe  Fe48  1  0.62720745  0.12219767  0.37900714  1
  Fe  Fe49  1  0.75188503  0.24875266  0.74781738  1
  Fe  Fe50  1  0.12522236  0.37535722  0.87380414  1
  Fe  Fe51  1  0.12407763  0.62515165  0.87653374  1
  Fe  Fe52  1  0.00041237  0.75031152  0.49860591  1
  Fe  Fe53  1  0.37625169  0.37489722  0.37677062  1
  Fe  Fe54  1  0.50086213  0.00003285  0.00109114  1
  Fe  Fe55  1  0.25190346  0.50051717  0.25096351  1
  Fe  Fe56  1  0.37477346  0.37361666  0.12644228  1
  Fe  Fe57  1  0.50255207  0.75108946  0.25256499  1
  Fe  Fe58  1  0.37522978  0.62675589  0.87182178  1
  Fe  Fe59  1  0.24921752  0.24803996  -0.00118217  1
  Fe  Fe60  1  0.50387956  0.25030535  0.50181448  1
  Fe  Fe61  1  0.87269730  0.87308950  0.37238990  1
  Fe  Fe62  1  0.37530351  0.12293953  0.37690178  1
  Fe  Fe63  1  0.12819711  0.87727315  0.87440533  1
  Fe  Fe64  1  0.87557632  0.12495441  0.87393323  1
  Fe  Fe65  1  0.62346953  0.62304980  0.37586794  1
  Fe  Fe66  1  0.37879863  0.62436616  0.37892326  1
  Fe  Fe67  1  0.87477674  0.37488211  0.12599994  1
  Fe  Fe68  1  0.49998868  0.49929173  -0.00100086  1
  Fe  Fe69  1  0.87235316  0.87416840  0.12819185  1
  Fe  Fe70  1  0.12531406  0.37298989  0.37366715  1
  Fe  Fe71  1  0.75247364  0.50186157  0.75103635  1
  Fe  Fe72  1  0.00151098  0.75031020  0.75146223  1
  Fe  Fe73  1  0.24704836  0.00313708  0.25310130  1
  Fe  Fe74  1  0.75025865  0.50105401  0.00038577  1
  Fe  Fe75  1  0.37365028  0.12740420  0.62525077  1
  Fe  Fe76  1  0.25133074  0.49965851  0.00029106  1
  Fe  Fe77  1  0.37358954  0.86878238  0.62103887  1
  Fe  Fe78  1  0.12388299  0.12534852  0.62334121  1
  Fe  Fe79  1  0.50043593  0.24948530  0.25200354  1
  Fe  Fe80  1  -0.00188796  0.49886145  -0.00092475  1
  Fe  Fe81  1  0.37410594  0.37227062  0.62556007  1
  Fe  Fe82  1  -0.00097385  0.25400047  0.74770753  1
  Fe  Fe83  1  0.74982601  0.24769135  0.25020115  1
  Fe  Fe84  1  -0.00022846  0.25013466  0.00060178  1
  Fe  Fe85  1  0.49850797  -0.00225345  0.74683170  1
  Fe  Fe86  1  0.37567724  0.37203378  0.87122288  1
  Fe  Fe87  1  -0.00281313  -0.00116639  0.74793891  1
  Fe  Fe88  1  0.62917238  0.11912431  0.62338465  1
  Fe  Fe89  1  0.12336857  0.62308209  0.62353718  1
  Co  Co90  1  0.75043801  0.24979927  0.50099123  1
  Co  Co91  1  0.24605649  0.24990665  0.75022004  1
  Co  Co92  1  -0.00224220  0.25082183  0.25057359  1
  Co  Co93  1  0.24882224  0.00179813  0.00257235  1
  Co  Co94  1  0.50282011  0.75182169  0.49657690  1
  Co  Co95  1  0.00112571  0.75458278  -0.00039514  1
  Co  Co96  1  0.62103168  0.62379846  0.12447799  1
  Co  Co97  1  0.62543775  0.87460788  0.12472901  1
  Co  Co98  1  0.24767226  0.74883981  0.74983172  1
  Co  Co99  1  0.00102157  -0.00177309  0.25110112  1
  Co  Co100  1  0.87358719  0.37338655  0.87453750  1
  Co  Co101  1  0.25123584  -0.00107121  0.74382062  1
  Co  Co102  1  0.87335672  0.37933200  0.62492759  1
  Co  Co103  1  0.50045218  0.49724248  0.50355750  1
  Co  Co104  1  0.24877162  0.74770237  0.49636115  1
  Co  Co105  1  0.87735296  0.87167797  0.62528171  1
  Co  Co106  1  0.12098827  0.12653323  0.37798910  1
  Co  Co107  1  0.87459355  0.62835714  0.37856929  1
  Co  Co108  1  0.25007221  0.00080360  0.50094646  1
  Co  Co109  1  0.75346082  -0.00215421  0.74823240  1
  Co  Co110  1  0.50437600  0.24809320  0.74689685  1
  Co  Co111  1  0.87091721  0.37451536  0.37460573  1
  Co  Co112  1  0.49638599  0.00000165  0.50288734  1
  Co  Co113  1  0.25142213  0.24798031  0.25253341  1
  Co  Co114  1  0.50161687  0.75260264  0.75042346  1
  Co  Co115  1  0.74783707  0.00181812  0.24979826  1
  Co  Co116  1  -0.00091023  0.49647185  0.49573786  1
  Co  Co117  1  0.75713252  -0.00280605  0.50132510  1
  Co  Co118  1  0.37431324  0.87765551  0.37475143  1
  Co  Co119  1  0.87841769  0.62721417  0.12311608  1
  Co  Co120  1  0.62356973  0.12692076  0.12466969  1
  Co  Co121  1  0.87533584  0.12606550  0.62431008  1
  Co  Co122  1  0.74684740  0.74666055  0.25001764  1
  Co  Co123  1  -0.00061593  0.49903395  0.75220014  1
  Co  Co124  1  0.62511154  0.87830868  0.62299237  1
  Co  Co125  1  0.12548150  0.37707438  0.62354595  1
  Co  Co126  1  0.37664682  0.62948696  0.62322318  1
  Co  Co127  1  0.49852335  0.49955863  0.25121211  1
