# generated using pymatgen
data_Fe45Co19
_symmetry_space_group_name_H-M   'P 1'
_cell_length_a   11.41579111
_cell_length_b   11.41565424
_cell_length_c   11.41397972
_cell_angle_alpha   89.98800795
_cell_angle_beta   89.98898407
_cell_angle_gamma   89.99509743
_symmetry_Int_Tables_number   1
_chemical_formula_structural   Fe45Co19
_chemical_formula_sum   'Fe90 Co38'
_cell_volume   1487.45520986
_cell_formula_units_Z   2
loop_
 _symmetry_equiv_pos_site_id
 _symmetry_equiv_pos_as_xyz
  1  'x, y, z'
loop_
 _atom_site_type_symbol
 _atom_site_label
 _atom_site_symmetry_multiplicity
 _atom_site_fract_x
 _atom_site_fract_y
 _atom_site_fract_z
 _atom_site_occupancy
  Fe  Fe0  1  0.00198408  0.00203075  0.24767743  1
  Fe  Fe1  1  0.25037075  0.50093774  0.75060218  1
  Fe  Fe2  1  0.49668228  0.74808906  0.24881897  1
  Fe  Fe3  1  0.49791181  0.25324394  0.24693302  1
  Fe  Fe4  1  -0.00149328  0.49848362  0.24966097  1
  Fe  Fe5  1  0.49644456  0.25020872  0.75030413  1
  Fe  Fe6  1  0.87539997  0.12612480  0.62397612  1
  Fe  Fe7  1  0.12467231  0.37377059  0.87288034  1
  Fe  Fe8  1  0.50067462  0.74870882  0.50182218  1
  Fe  Fe9  1  0.12413256  0.87501549  0.62771664  1
  Fe  Fe10  1  0.62378148  0.87525881  0.63168913  1
  Fe  Fe11  1  0.62524184  0.12718451  0.12305885  1
  Fe  Fe12  1  0.62522552  0.12612576  0.62942838  1
  Fe  Fe13  1  0.12797942  0.87526897  0.37170717  1
  Fe  Fe14  1  0.12292080  0.12593213  0.87325098  1
  Fe  Fe15  1  0.00053345  0.75249972  -0.00042825  1
  Fe  Fe16  1  0.50350601  0.74784031  -0.00103540  1
  Fe  Fe17  1  0.37789281  0.87434146  0.87415913  1
  Fe  Fe18  1  0.50259376  0.25080022  0.50069492  1
  Fe  Fe19  1  0.74941896  0.49951519  0.50040934  1
  Fe  Fe20  1  0.87326069  0.12211304  0.11825268  1
  Fe  Fe21  1  0.75589929  0.24782795  0.75563842  1
  Fe  Fe22  1  0.87482047  0.37250980  0.37655600  1
  Fe  Fe23  1  0.00287040  0.25027149  0.50110822  1
  Fe  Fe24  1  0.74927788  -0.00022517  0.24883870  1
  Fe  Fe25  1  0.75155106  0.25018847  0.24847235  1
  Fe  Fe26  1  0.62581723  0.62486390  0.62856298  1
  Fe  Fe27  1  -0.00399041  0.74787776  0.75155953  1
  Fe  Fe28  1  0.00250709  0.49960321  0.00040916  1
  Fe  Fe29  1  0.25294851  0.74747089  0.74978501  1
  Fe  Fe30  1  0.37377375  0.37796260  0.87810431  1
  Fe  Fe31  1  0.62489901  0.87267860  0.12723836  1
  Fe  Fe32  1  -0.00213284  0.25068103  -0.00287199  1
  Fe  Fe33  1  0.37715836  0.62201510  0.87722509  1
  Fe  Fe34  1  0.75378860  0.74727065  0.75350192  1
  Fe  Fe35  1  0.62683178  0.37525592  0.37205570  1
  Fe  Fe36  1  0.24946933  0.50021281  0.24935029  1
  Fe  Fe37  1  0.25381792  0.00370047  0.75069961  1
  Fe  Fe38  1  0.74901944  0.75080283  0.49957964  1
  Fe  Fe39  1  0.37651998  0.61961575  0.12119333  1
  Fe  Fe40  1  0.49990397  0.00081109  0.24975554  1
  Fe  Fe41  1  0.87233593  0.62614006  0.12361269  1
  Fe  Fe42  1  0.62655481  0.62463802  0.36937956  1
  Fe  Fe43  1  0.12347360  0.62503952  0.62474903  1
  Fe  Fe44  1  -0.00000167  0.24807046  0.24797580  1
  Fe  Fe45  1  0.24934660  0.74967097  0.50240288  1
  Fe  Fe46  1  0.25035210  0.24460335  0.24700246  1
  Fe  Fe47  1  0.12563768  0.87486550  0.87336196  1
  Fe  Fe48  1  0.50157265  0.49966240  0.49966586  1
  Fe  Fe49  1  0.74620117  0.75105266  -0.00225697  1
  Fe  Fe50  1  0.00197002  -0.00030850  0.50118868  1
  Fe  Fe51  1  0.12500829  0.62577813  0.37493693  1
  Fe  Fe52  1  0.13011253  0.87781115  0.12570623  1
  Fe  Fe53  1  0.87563093  0.87583906  0.37549504  1
  Fe  Fe54  1  0.50156047  0.25551276  0.00287187  1
  Fe  Fe55  1  0.87541688  0.62714997  0.37641354  1
  Fe  Fe56  1  0.37304286  0.37559590  0.62356544  1
  Fe  Fe57  1  0.62577790  0.12597964  0.37395034  1
  Fe  Fe58  1  0.37322911  0.62383091  0.37755945  1
  Fe  Fe59  1  0.00148735  0.49799289  0.49979950  1
  Fe  Fe60  1  0.37188421  0.37463705  0.37573680  1
  Fe  Fe61  1  -0.00068429  0.75180559  0.24869644  1
  Fe  Fe62  1  0.74478737  0.50102284  0.00000049  1
  Fe  Fe63  1  0.24593882  0.24891173  0.50198574  1
  Fe  Fe64  1  0.37338696  0.87581214  0.37367570  1
  Fe  Fe65  1  0.12510995  0.37266712  0.62999866  1
  Fe  Fe66  1  0.25082983  0.24894924  0.00033038  1
  Fe  Fe67  1  0.87352770  0.87751260  0.12115974  1
  Fe  Fe68  1  0.50212089  0.00077094  0.50239392  1
  Fe  Fe69  1  0.37300641  0.87850248  0.12434315  1
  Fe  Fe70  1  0.87496692  0.12498377  0.37622538  1
  Fe  Fe71  1  0.62426580  0.87422318  0.37364300  1
  Fe  Fe72  1  0.74824637  0.00033996  0.50213104  1
  Fe  Fe73  1  0.25062350  0.74978790  -0.00041620  1
  Fe  Fe74  1  -0.00433382  0.50072077  0.75071175  1
  Fe  Fe75  1  0.87493390  0.87301623  0.62512923  1
  Fe  Fe76  1  0.24834587  0.00244029  0.50175843  1
  Fe  Fe77  1  0.12336730  0.62583797  0.87498263  1
  Fe  Fe78  1  0.50406153  -0.00162654  -0.00231137  1
  Fe  Fe79  1  0.37599988  0.12508643  0.37643719  1
  Fe  Fe80  1  0.62748070  0.37365637  0.62772205  1
  Fe  Fe81  1  0.12664096  0.37327387  0.12520056  1
  Fe  Fe82  1  0.87234494  0.37514591  0.12138683  1
  Fe  Fe83  1  0.12532134  0.62582606  0.12500253  1
  Fe  Fe84  1  0.37753051  0.87491044  0.62657227  1
  Fe  Fe85  1  0.49919713  0.49991443  0.74977136  1
  Fe  Fe86  1  0.62744055  0.37514357  0.87293578  1
  Fe  Fe87  1  0.87357060  0.37452060  0.62516734  1
  Fe  Fe88  1  -0.00378930  0.00110214  0.75158841  1
  Fe  Fe89  1  0.37846266  0.12610006  0.87798182  1
  Co  Co90  1  0.50644207  0.49771455  0.00070632  1
  Co  Co91  1  -0.00709149  0.25032758  0.75438092  1
  Co  Co92  1  0.12303792  0.12530891  0.37590119  1
  Co  Co93  1  0.87554185  0.62589061  0.62133679  1
  Co  Co94  1  0.37549843  0.12705089  0.62163230  1
  Co  Co95  1  0.25017944  0.00131301  -0.00410946  1
  Co  Co96  1  0.62443294  0.62441503  0.87165935  1
  Co  Co97  1  0.24650933  0.49845138  0.50098707  1
  Co  Co98  1  0.75281727  0.00206327  0.75192015  1
  Co  Co99  1  0.12566015  0.37300661  0.37110995  1
  Co  Co100  1  0.12350738  0.12498916  0.12009684  1
  Co  Co101  1  0.75316264  0.50087759  0.74941434  1
  Co  Co102  1  0.49665099  0.74582310  0.75009206  1
  Co  Co103  1  0.62302502  0.12729708  0.87441478  1
  Co  Co104  1  0.87483195  0.87635649  0.87770033  1
  Co  Co105  1  0.00452917  -0.00348796  -0.00087653  1
  Co  Co106  1  0.75264508  0.75307293  0.25015428  1
  Co  Co107  1  0.87487743  0.11992532  0.88273737  1
  Co  Co108  1  0.25395511  0.24838228  0.75158545  1
  Co  Co109  1  0.62246398  0.87413159  0.86754694  1
  Co  Co110  1  0.37876582  0.12282070  0.12171236  1
  Co  Co111  1  0.37502197  0.62227339  0.62349601  1
  Co  Co112  1  0.37122558  0.37846478  0.12276093  1
  Co  Co113  1  0.87505934  0.62304032  0.88018371  1
  Co  Co114  1  0.62770368  0.37725343  0.12889165  1
  Co  Co115  1  0.00238743  0.75195620  0.49877516  1
  Co  Co116  1  0.25299414  0.74710109  0.24716036  1
  Co  Co117  1  0.12326900  0.12625484  0.62990849  1
  Co  Co118  1  0.74881268  0.25102162  -0.00224330  1
  Co  Co119  1  0.49689523  0.49776979  0.25075958  1
  Co  Co120  1  0.75514290  0.49823731  0.25130472  1
  Co  Co121  1  0.74272438  -0.00332420  -0.00306559  1
  Co  Co122  1  0.62637680  0.62449678  0.13019134  1
  Co  Co123  1  0.74813265  0.24924666  0.50008849  1
  Co  Co124  1  0.87331578  0.38061998  0.87864238  1
  Co  Co125  1  0.49701357  0.00442469  0.74995490  1
  Co  Co126  1  0.24480863  0.50024518  -0.00161484  1
  Co  Co127  1  0.25049413  0.00637923  0.24904080  1
