# generated using pymatgen
data_Fe45Co19
_symmetry_space_group_name_H-M   'P 1'
_cell_length_a   11.41494156
_cell_length_b   11.41592751
_cell_length_c   11.41374033
_cell_angle_alpha   89.99667689
_cell_angle_beta   90.00977107
_cell_angle_gamma   90.00547389
_symmetry_Int_Tables_number   1
_chemical_formula_structural   Fe45Co19
_chemical_formula_sum   'Fe90 Co38'
_cell_volume   1487.34895899
_cell_formula_units_Z   2
loop_
 _symmetry_equiv_pos_site_id
 _symmetry_equiv_pos_as_xyz
  1  'x, y, z'
loop_
 _atom_site_type_symbol
 _atom_site_label
 _atom_site_symmetry_multiplicity
 _atom_site_fract_x
 _atom_site_fract_y
 _atom_site_fract_z
 _atom_site_occupancy
  Fe  Fe0  1  0.62419315  0.37184346  0.37531357  1
  Fe  Fe1  1  0.75142265  0.24967874  0.24849704  1
  Fe  Fe2  1  0.37511157  0.12523142  0.62409948  1
  Fe  Fe3  1  0.00132932  0.00211737  -0.00278222  1
  Fe  Fe4  1  0.50271712  0.24579049  0.50165530  1
  Fe  Fe5  1  0.87249198  0.37704649  0.62070940  1
  Fe  Fe6  1  0.12464292  0.37710128  0.62923527  1
  Fe  Fe7  1  0.87203977  0.62532721  0.12431583  1
  Fe  Fe8  1  0.12478861  0.87575444  0.37363552  1
  Fe  Fe9  1  0.74854637  -0.00112101  -0.00145742  1
  Fe  Fe10  1  0.12532192  0.37635169  0.37438230  1
  Fe  Fe11  1  0.75362572  -0.00254687  0.75293337  1
  Fe  Fe12  1  0.37489645  0.62300997  0.37638981  1
  Fe  Fe13  1  0.74857178  0.75070350  0.24935298  1
  Fe  Fe14  1  0.74349868  0.75124616  -0.00020403  1
  Fe  Fe15  1  0.12460953  0.87676912  0.12378903  1
  Fe  Fe16  1  0.86813490  0.62347260  0.61933973  1
  Fe  Fe17  1  0.24930018  0.49905788  -0.00269631  1
  Fe  Fe18  1  0.25060537  0.74845595  0.24805452  1
  Fe  Fe19  1  0.62784537  0.12521569  0.87352304  1
  Fe  Fe20  1  0.00020734  0.74917990  0.24836631  1
  Fe  Fe21  1  0.24873715  0.74813470  0.00116687  1
  Fe  Fe22  1  0.50234041  0.75039833  0.50275259  1
  Fe  Fe23  1  0.49639648  0.24840054  0.25150504  1
  Fe  Fe24  1  0.37336481  0.12811621  0.87556095  1
  Fe  Fe25  1  0.24916478  0.74951518  0.50032976  1
  Fe  Fe26  1  0.75251844  0.00040216  0.24955130  1
  Fe  Fe27  1  0.62561734  0.62630045  0.37531093  1
  Fe  Fe28  1  0.37548862  0.37505664  0.12326693  1
  Fe  Fe29  1  0.00254478  0.74832191  0.00044744  1
  Fe  Fe30  1  0.75205662  0.49942162  0.25389083  1
  Fe  Fe31  1  0.49853151  0.00140400  0.75155641  1
  Fe  Fe32  1  0.74693663  0.49920655  -0.00195696  1
  Fe  Fe33  1  0.87642329  0.12704531  0.37470546  1
  Fe  Fe34  1  0.87480243  0.87403291  0.12206325  1
  Fe  Fe35  1  0.12415243  0.87343294  0.62727226  1
  Fe  Fe36  1  0.37593491  0.87660709  0.37668333  1
  Fe  Fe37  1  0.50560659  0.74861259  0.00055371  1
  Fe  Fe38  1  0.25169070  0.74983610  0.75023616  1
  Fe  Fe39  1  0.24968505  -0.00063932  0.75064194  1
  Fe  Fe40  1  -0.00389354  0.50208947  0.74834995  1
  Fe  Fe41  1  0.24987674  0.25027989  0.50064967  1
  Fe  Fe42  1  0.87672806  0.12654256  0.12264594  1
  Fe  Fe43  1  0.37581959  0.87641297  0.62348122  1
  Fe  Fe44  1  0.49859058  0.49921529  0.25116899  1
  Fe  Fe45  1  -0.00364085  0.49926201  0.25171595  1
  Fe  Fe46  1  0.12357824  0.12534720  0.37163207  1
  Fe  Fe47  1  0.25314815  0.25049488  0.25109120  1
  Fe  Fe48  1  0.37681962  0.87386699  0.87682619  1
  Fe  Fe49  1  0.62356200  0.12423769  0.12495080  1
  Fe  Fe50  1  0.37763715  0.62339448  0.87421902  1
  Fe  Fe51  1  0.24675529  0.25249213  -0.00323330  1
  Fe  Fe52  1  0.12505105  0.62422337  0.87195135  1
  Fe  Fe53  1  0.49650577  0.00390655  0.24947304  1
  Fe  Fe54  1  0.75078985  0.25166422  0.74976622  1
  Fe  Fe55  1  0.25224984  0.00226339  0.24800909  1
  Fe  Fe56  1  -0.00155268  -0.00113781  0.75421112  1
  Fe  Fe57  1  0.74789435  0.00007149  0.49946559  1
  Fe  Fe58  1  0.50277110  0.50052747  -0.00174508  1
  Fe  Fe59  1  0.24948242  0.49895634  0.50269218  1
  Fe  Fe60  1  0.87382421  0.37433127  0.12283102  1
  Fe  Fe61  1  0.87484236  0.12427984  0.62585702  1
  Fe  Fe62  1  0.00153326  0.74733819  0.50098988  1
  Fe  Fe63  1  0.87067697  0.62626633  0.87596671  1
  Fe  Fe64  1  0.87593124  0.87331390  0.37600458  1
  Fe  Fe65  1  0.24794290  0.00029242  0.50066131  1
  Fe  Fe66  1  0.87499812  0.87472810  0.62301262  1
  Fe  Fe67  1  0.00065071  0.00050160  0.49918177  1
  Fe  Fe68  1  0.37569855  0.62276672  0.12453513  1
  Fe  Fe69  1  0.00283731  0.24902477  -0.00138915  1
  Fe  Fe70  1  0.50211861  0.25040972  -0.00182614  1
  Fe  Fe71  1  0.37856941  0.87556678  0.12258544  1
  Fe  Fe72  1  0.62352082  0.37534862  0.87056342  1
  Fe  Fe73  1  0.24945170  0.00152090  -0.00024369  1
  Fe  Fe74  1  0.12510828  0.37696493  0.12598078  1
  Fe  Fe75  1  0.62476014  0.37604546  0.12640446  1
  Fe  Fe76  1  0.50497538  0.50065989  0.50415677  1
  Fe  Fe77  1  0.00101498  0.25113365  0.50016882  1
  Fe  Fe78  1  0.62289856  0.87736367  0.37264288  1
  Fe  Fe79  1  0.87513489  0.37364047  0.87661303  1
  Fe  Fe80  1  0.12540388  0.62234940  0.37383798  1
  Fe  Fe81  1  0.37479758  0.62434253  0.62572857  1
  Fe  Fe82  1  0.62485878  0.87434189  0.62925579  1
  Fe  Fe83  1  0.12435117  0.12545993  0.62830709  1
  Fe  Fe84  1  0.74753806  0.24785893  0.50106343  1
  Fe  Fe85  1  -0.00321850  0.74901912  0.74957121  1
  Fe  Fe86  1  0.00020483  0.50092587  -0.00038282  1
  Fe  Fe87  1  0.50041275  0.74883926  0.24801836  1
  Fe  Fe88  1  0.37797127  0.37289004  0.62854190  1
  Fe  Fe89  1  -0.00096662  0.24966010  0.75143334  1
  Co  Co90  1  0.50102213  0.50173236  0.74726163  1
  Co  Co91  1  0.37475863  0.12362309  0.37953287  1
  Co  Co92  1  0.00110536  0.49997643  0.49996756  1
  Co  Co93  1  0.50102656  0.00247879  -0.00301128  1
  Co  Co94  1  0.25317747  0.49954359  0.75131966  1
  Co  Co95  1  0.75106598  0.49677961  0.75110609  1
  Co  Co96  1  -0.00239667  -0.00127122  0.24914560  1
  Co  Co97  1  0.74677766  0.25156262  0.00043970  1
  Co  Co98  1  0.62497626  0.37306135  0.62654995  1
  Co  Co99  1  0.12462762  0.12579004  0.12698547  1
  Co  Co100  1  0.12618326  0.62451831  0.62761309  1
  Co  Co101  1  0.62523508  0.12477162  0.37287762  1
  Co  Co102  1  0.87339459  0.37259754  0.37888810  1
  Co  Co103  1  0.12206051  0.37797145  0.87102804  1
  Co  Co104  1  0.12539383  0.87315828  0.87448555  1
  Co  Co105  1  0.62245886  0.87940781  0.12626677  1
  Co  Co106  1  0.49709784  0.74933727  0.74881477  1
  Co  Co107  1  0.75432700  0.75279695  0.75088285  1
  Co  Co108  1  0.87585663  0.87235241  0.87929667  1
  Co  Co109  1  0.50120626  0.24692380  0.75094675  1
  Co  Co110  1  0.63059185  0.62758529  0.62962708  1
  Co  Co111  1  0.12511113  0.62140546  0.12626655  1
  Co  Co112  1  -0.00145654  0.25326990  0.24911947  1
  Co  Co113  1  0.87410323  0.62689051  0.37807066  1
  Co  Co114  1  0.25308479  0.49851781  0.24986376  1
  Co  Co115  1  0.62628086  0.62602208  0.86849757  1
  Co  Co116  1  0.25003001  0.25151051  0.75116071  1
  Co  Co117  1  0.37479303  0.12834680  0.12069379  1
  Co  Co118  1  0.37787850  0.37520507  0.87268656  1
  Co  Co119  1  0.12605806  0.12480115  0.87208866  1
  Co  Co120  1  0.62741634  0.12283662  0.62923099  1
  Co  Co121  1  0.37703543  0.37602852  0.37935578  1
  Co  Co122  1  0.62316317  0.87427426  0.87203046  1
  Co  Co123  1  0.74499516  0.49851002  0.49748897  1
  Co  Co124  1  0.50371322  0.00028222  0.50166870  1
  Co  Co125  1  0.74613886  0.75349869  0.49900585  1
  Co  Co126  1  0.62646561  0.62123891  0.12725607  1
  Co  Co127  1  0.87333438  0.12807780  0.87610743  1
