# generated using pymatgen
data_Fe45Co19
_symmetry_space_group_name_H-M   'P 1'
_cell_length_a   11.41534466
_cell_length_b   11.41655521
_cell_length_c   11.41560120
_cell_angle_alpha   89.99971939
_cell_angle_beta   89.99698984
_cell_angle_gamma   89.99633202
_symmetry_Int_Tables_number   1
_chemical_formula_structural   Fe45Co19
_chemical_formula_sum   'Fe90 Co38'
_cell_volume   1487.72580732
_cell_formula_units_Z   2
loop_
 _symmetry_equiv_pos_site_id
 _symmetry_equiv_pos_as_xyz
  1  'x, y, z'
loop_
 _atom_site_type_symbol
 _atom_site_label
 _atom_site_symmetry_multiplicity
 _atom_site_fract_x
 _atom_site_fract_y
 _atom_site_fract_z
 _atom_site_occupancy
  Fe  Fe0  1  0.62636510  0.62478820  0.62643749  1
  Fe  Fe1  1  0.12514377  0.12400370  0.62478987  1
  Fe  Fe2  1  0.62404159  0.37676936  0.87806507  1
  Fe  Fe3  1  0.75072364  0.49959073  0.24990962  1
  Fe  Fe4  1  0.24912351  0.00021997  -0.00148953  1
  Fe  Fe5  1  0.12255938  0.87331458  0.87692802  1
  Fe  Fe6  1  0.00266834  -0.00109014  0.25138311  1
  Fe  Fe7  1  0.00084846  0.00025375  0.00031355  1
  Fe  Fe8  1  0.37297219  0.62394935  0.62611696  1
  Fe  Fe9  1  0.12737576  0.37350419  0.37510318  1
  Fe  Fe10  1  0.87919152  0.87167376  0.87586581  1
  Fe  Fe11  1  0.49852435  0.74695886  0.00125408  1
  Fe  Fe12  1  0.37354842  0.87395091  0.87622442  1
  Fe  Fe13  1  0.12528911  0.38286286  0.12438920  1
  Fe  Fe14  1  0.74923293  0.25182221  0.24798261  1
  Fe  Fe15  1  0.37439903  0.37576427  0.62539874  1
  Fe  Fe16  1  0.00225212  0.25250710  0.24703523  1
  Fe  Fe17  1  0.87366769  0.37337471  0.37666121  1
  Fe  Fe18  1  0.49623749  0.00205258  0.49867287  1
  Fe  Fe19  1  0.37046546  0.62269608  0.12575490  1
  Fe  Fe20  1  0.37238259  0.87419607  0.12476754  1
  Fe  Fe21  1  0.24968575  0.25217957  -0.00003718  1
  Fe  Fe22  1  0.49732247  0.50087708  0.25089127  1
  Fe  Fe23  1  0.75366392  0.25319162  0.74977799  1
  Fe  Fe24  1  0.74582475  -0.00394670  0.24901292  1
  Fe  Fe25  1  0.75092691  0.00059794  0.49758804  1
  Fe  Fe26  1  0.25396261  0.24681621  0.49883396  1
  Fe  Fe27  1  0.49841358  -0.00062292  0.75158643  1
  Fe  Fe28  1  0.62519707  0.37754536  0.12306553  1
  Fe  Fe29  1  0.87752879  0.37951796  0.12249375  1
  Fe  Fe30  1  0.12667213  0.12297832  0.12608721  1
  Fe  Fe31  1  0.24733051  0.75113969  0.74789894  1
  Fe  Fe32  1  0.75085692  0.75155484  0.74931918  1
  Fe  Fe33  1  0.62497492  0.87554564  0.62333509  1
  Fe  Fe34  1  0.50018652  0.49996299  0.75019923  1
  Fe  Fe35  1  0.49949093  0.75054861  0.74997183  1
  Fe  Fe36  1  0.24715005  0.49741612  0.75501839  1
  Fe  Fe37  1  0.62501611  0.87358791  0.87777819  1
  Fe  Fe38  1  0.75226070  0.74938415  0.50007617  1
  Fe  Fe39  1  0.62490335  0.12579430  0.87565051  1
  Fe  Fe40  1  0.87488833  0.12374110  0.12693219  1
  Fe  Fe41  1  0.87808783  0.87358091  0.37537628  1
  Fe  Fe42  1  0.25265713  0.50111233  0.49646630  1
  Fe  Fe43  1  -0.00013766  0.50012580  0.49738221  1
  Fe  Fe44  1  0.37421271  0.62376717  0.87465864  1
  Fe  Fe45  1  0.00276652  0.75003861  0.24604896  1
  Fe  Fe46  1  0.49720459  0.24960400  0.00059195  1
  Fe  Fe47  1  0.62551782  0.37468485  0.37610247  1
  Fe  Fe48  1  0.87888739  0.87645827  0.62334992  1
  Fe  Fe49  1  0.37349143  0.12378350  0.12727370  1
  Fe  Fe50  1  0.49769585  0.25002470  0.75156351  1
  Fe  Fe51  1  0.62446462  0.62906610  0.37221614  1
  Fe  Fe52  1  0.24838489  -0.00029010  0.75025162  1
  Fe  Fe53  1  0.87549201  0.87542625  0.12478757  1
  Fe  Fe54  1  0.49862374  0.50063694  0.49810653  1
  Fe  Fe55  1  0.25146086  0.25193181  0.75331008  1
  Fe  Fe56  1  0.87906101  0.12824065  0.87568319  1
  Fe  Fe57  1  0.50086404  0.00052961  0.00148400  1
  Fe  Fe58  1  0.87561140  0.62625645  0.37107666  1
  Fe  Fe59  1  0.24769057  -0.00283322  0.25460072  1
  Fe  Fe60  1  0.24574082  0.74759593  0.00218653  1
  Fe  Fe61  1  0.62710234  0.62650983  0.12728818  1
  Fe  Fe62  1  0.12574638  0.12723071  0.37395398  1
  Fe  Fe63  1  0.12244276  0.12851111  0.87480087  1
  Fe  Fe64  1  0.49850060  0.25199520  0.24867612  1
  Fe  Fe65  1  0.62498545  0.12529868  0.37246854  1
  Fe  Fe66  1  0.49825512  0.24836658  0.49898261  1
  Fe  Fe67  1  0.75055333  0.25020429  0.00219714  1
  Fe  Fe68  1  0.62586033  0.62418655  0.87436490  1
  Fe  Fe69  1  0.74976211  0.50225762  0.49836817  1
  Fe  Fe70  1  0.87542949  0.12403494  0.62525934  1
  Fe  Fe71  1  0.75424308  0.74541330  0.00180822  1
  Fe  Fe72  1  0.87417602  0.12680665  0.37148801  1
  Fe  Fe73  1  0.12450128  0.37586775  0.62462620  1
  Fe  Fe74  1  0.37119703  0.37985880  0.12390289  1
  Fe  Fe75  1  0.12296412  0.87699055  0.61768158  1
  Fe  Fe76  1  0.49767074  0.74895139  0.50012029  1
  Fe  Fe77  1  0.24774985  0.75037331  0.25122449  1
  Fe  Fe78  1  0.50334752  -0.00582156  0.24814041  1
  Fe  Fe79  1  0.74926619  0.00135599  0.00080760  1
  Fe  Fe80  1  -0.00125323  0.24918187  0.50074768  1
  Fe  Fe81  1  0.62571926  0.12494937  0.62651162  1
  Fe  Fe82  1  0.37206356  0.87540401  0.62312958  1
  Fe  Fe83  1  0.62722257  0.37499663  0.62357476  1
  Fe  Fe84  1  0.12372467  0.62241970  0.62532218  1
  Fe  Fe85  1  0.75154559  -0.00137400  0.75193275  1
  Fe  Fe86  1  0.12517252  0.62596767  0.37416057  1
  Fe  Fe87  1  0.75568880  0.49676728  0.75471356  1
  Fe  Fe88  1  0.87723321  0.62267975  0.62797820  1
  Fe  Fe89  1  0.11922567  0.62765667  0.87352124  1
  Co  Co90  1  0.37756760  0.37804169  0.87641638  1
  Co  Co91  1  0.87988289  0.63014821  0.87168330  1
  Co  Co92  1  -0.00243934  0.25195787  0.74403000  1
  Co  Co93  1  -0.00089159  0.00454868  0.49715872  1
  Co  Co94  1  0.74939766  0.24698195  0.50025076  1
  Co  Co95  1  0.11796593  0.36995414  0.87614698  1
  Co  Co96  1  0.24565846  0.50008184  -0.00686667  1
  Co  Co97  1  0.62486656  0.12667280  0.12569295  1
  Co  Co98  1  0.87433722  0.37766201  0.61932706  1
  Co  Co99  1  0.25161873  0.50045447  0.25556059  1
  Co  Co100  1  -0.00019354  0.50537352  -0.00399772  1
  Co  Co101  1  0.00267990  0.75295741  0.74541189  1
  Co  Co102  1  0.37590465  0.62773267  0.37406354  1
  Co  Co103  1  0.87781305  0.62128722  0.12845421  1
  Co  Co104  1  0.88100710  0.37006349  0.88095298  1
  Co  Co105  1  0.50072822  0.50329791  0.00249926  1
  Co  Co106  1  0.24772944  0.25226680  0.24629001  1
  Co  Co107  1  0.75197848  0.75266103  0.24957218  1
  Co  Co108  1  0.12283697  0.87266617  0.38000845  1
  Co  Co109  1  0.75275771  0.50243836  -0.00209013  1
  Co  Co110  1  0.24998654  0.74761140  0.50004036  1
  Co  Co111  1  0.37386434  0.12514531  0.62813572  1
  Co  Co112  1  0.12546017  0.61788593  0.12789026  1
  Co  Co113  1  0.00210716  0.74857915  0.00690720  1
  Co  Co114  1  -0.00188871  0.49565141  0.75187915  1
  Co  Co115  1  -0.00113779  0.74536822  0.50104995  1
  Co  Co116  1  0.12597703  0.87736201  0.12454250  1
  Co  Co117  1  0.00165938  -0.00030200  0.75124235  1
  Co  Co118  1  0.37362042  0.37271516  0.37481587  1
  Co  Co119  1  0.49824063  0.75189503  0.24780347  1
  Co  Co120  1  0.25152327  0.00313040  0.49690260  1
  Co  Co121  1  0.62703100  0.86992661  0.12018825  1
  Co  Co122  1  0.00284239  0.24759961  0.00841168  1
  Co  Co123  1  0.00024003  0.49750127  0.25468692  1
  Co  Co124  1  0.37450195  0.87413991  0.37508669  1
  Co  Co125  1  0.62442208  0.87192636  0.37840003  1
  Co  Co126  1  0.37375021  0.12368171  0.87576169  1
  Co  Co127  1  0.37545102  0.12518028  0.36837837  1
