# generated using pymatgen
data_Fe45Co19
_symmetry_space_group_name_H-M   'P 1'
_cell_length_a   11.41521160
_cell_length_b   11.41447637
_cell_length_c   11.41612322
_cell_angle_alpha   90.00539455
_cell_angle_beta   89.99201824
_cell_angle_gamma   89.99095119
_symmetry_Int_Tables_number   1
_chemical_formula_structural   Fe45Co19
_chemical_formula_sum   'Fe90 Co38'
_cell_volume   1487.50555315
_cell_formula_units_Z   2
loop_
 _symmetry_equiv_pos_site_id
 _symmetry_equiv_pos_as_xyz
  1  'x, y, z'
loop_
 _atom_site_type_symbol
 _atom_site_label
 _atom_site_symmetry_multiplicity
 _atom_site_fract_x
 _atom_site_fract_y
 _atom_site_fract_z
 _atom_site_occupancy
  Fe  Fe0  1  0.50040209  0.49976567  0.50106787  1
  Fe  Fe1  1  0.62520119  0.62598130  0.62491617  1
  Fe  Fe2  1  0.37432437  0.62384723  0.37318816  1
  Fe  Fe3  1  0.37269086  0.37779919  0.37361210  1
  Fe  Fe4  1  0.37604383  0.62432893  0.12542280  1
  Fe  Fe5  1  0.37763502  0.62135416  0.87474046  1
  Fe  Fe6  1  0.12374187  0.12791350  0.12137948  1
  Fe  Fe7  1  0.25159619  0.24873541  0.24739092  1
  Fe  Fe8  1  0.74729305  0.00035809  0.00388782  1
  Fe  Fe9  1  0.49634152  0.24871828  0.24983350  1
  Fe  Fe10  1  0.24521577  -0.00169062  0.24814231  1
  Fe  Fe11  1  0.12801345  0.87179394  0.87609681  1
  Fe  Fe12  1  0.62562511  0.37311413  0.62468582  1
  Fe  Fe13  1  0.49915488  -0.00119780  0.50286588  1
  Fe  Fe14  1  0.24989164  -0.00057682  0.50398741  1
  Fe  Fe15  1  0.12427881  0.62604275  0.87662821  1
  Fe  Fe16  1  0.37167076  0.11881473  0.87329832  1
  Fe  Fe17  1  0.50288384  0.49969651  0.24855791  1
  Fe  Fe18  1  0.37463657  0.62801322  0.62597425  1
  Fe  Fe19  1  0.87556469  0.12276444  0.87649224  1
  Fe  Fe20  1  0.75086879  0.50145244  0.24855308  1
  Fe  Fe21  1  0.00334909  0.50259525  0.24824046  1
  Fe  Fe22  1  0.62608533  0.87621406  0.87486136  1
  Fe  Fe23  1  0.37398996  0.37840900  0.87451490  1
  Fe  Fe24  1  0.62314099  0.37413658  0.87536359  1
  Fe  Fe25  1  -0.00177050  0.75027032  0.75374480  1
  Fe  Fe26  1  0.87783986  0.62638027  0.12363841  1
  Fe  Fe27  1  0.49911135  0.75160668  0.75142518  1
  Fe  Fe28  1  0.62352571  0.37177838  0.12516527  1
  Fe  Fe29  1  0.49795168  0.24915982  0.49753961  1
  Fe  Fe30  1  0.12474851  0.37415005  0.37502081  1
  Fe  Fe31  1  0.00063791  0.49696749  -0.00301268  1
  Fe  Fe32  1  0.24796943  0.50221008  0.74865041  1
  Fe  Fe33  1  0.87765917  0.12586434  0.62620183  1
  Fe  Fe34  1  0.62705283  0.37582104  0.37442026  1
  Fe  Fe35  1  0.12346894  0.12498476  0.37697147  1
  Fe  Fe36  1  0.24625099  0.50401674  0.50069124  1
  Fe  Fe37  1  0.75269893  0.75044159  -0.00272534  1
  Fe  Fe38  1  0.87578250  0.62503964  0.62759639  1
  Fe  Fe39  1  0.24431126  0.50478961  0.24817637  1
  Fe  Fe40  1  0.50523661  -0.00016696  0.24558275  1
  Fe  Fe41  1  0.62332829  0.62416528  0.87492232  1
  Fe  Fe42  1  0.75309000  0.24853585  0.49952779  1
  Fe  Fe43  1  0.12863733  0.12872061  0.87681221  1
  Fe  Fe44  1  0.37348314  0.87642886  0.37366382  1
  Fe  Fe45  1  0.24999997  0.50113615  0.00238304  1
  Fe  Fe46  1  0.00211905  -0.00264280  -0.00112569  1
  Fe  Fe47  1  0.37296817  0.88124604  0.87260441  1
  Fe  Fe48  1  0.75149324  0.75027267  0.49966283  1
  Fe  Fe49  1  0.49685806  0.24874777  0.75046176  1
  Fe  Fe50  1  0.75442937  0.24562456  0.24929717  1
  Fe  Fe51  1  0.00035022  -0.00029340  0.24918121  1
  Fe  Fe52  1  0.74766882  0.00283768  0.74935549  1
  Fe  Fe53  1  0.87420540  0.87416793  0.12563901  1
  Fe  Fe54  1  0.00026789  -0.00217433  0.50158207  1
  Fe  Fe55  1  -0.00178262  0.24763670  0.25096255  1
  Fe  Fe56  1  0.87220743  0.87811586  0.37261476  1
  Fe  Fe57  1  0.12820486  0.86741631  0.62511765  1
  Fe  Fe58  1  0.25015270  0.24894132  0.50056964  1
  Fe  Fe59  1  0.87427584  0.62232502  0.87362262  1
  Fe  Fe60  1  0.12493111  0.86711131  0.12166855  1
  Fe  Fe61  1  0.87504883  0.37462655  0.62734480  1
  Fe  Fe62  1  0.50010694  0.75152782  0.25035743  1
  Fe  Fe63  1  0.74732998  0.49985613  0.00086555  1
  Fe  Fe64  1  0.37347862  0.12140337  0.37398780  1
  Fe  Fe65  1  0.62821061  0.12266313  0.37466577  1
  Fe  Fe66  1  0.74745838  0.49885020  0.74971468  1
  Fe  Fe67  1  0.00412989  -0.00128750  0.75161705  1
  Fe  Fe68  1  0.12469188  0.37437361  0.62787865  1
  Fe  Fe69  1  0.87746001  0.62459378  0.37556039  1
  Fe  Fe70  1  0.12522639  0.37210465  0.12135883  1
  Fe  Fe71  1  0.49844638  0.75232410  0.49908157  1
  Fe  Fe72  1  0.12416873  0.12865474  0.62604164  1
  Fe  Fe73  1  0.37440971  0.37470271  0.62441467  1
  Fe  Fe74  1  0.49190756  0.24915055  0.00250185  1
  Fe  Fe75  1  0.62570346  0.87399303  0.62661686  1
  Fe  Fe76  1  0.87668537  0.37596090  0.37612765  1
  Fe  Fe77  1  0.62603526  0.62426445  0.37604194  1
  Fe  Fe78  1  -0.00056774  0.25407225  0.75615904  1
  Fe  Fe79  1  0.12539711  0.86936814  0.37684188  1
  Fe  Fe80  1  0.62438815  0.62886844  0.12386408  1
  Fe  Fe81  1  0.75281570  0.24989036  -0.00021045  1
  Fe  Fe82  1  0.37373208  0.87759843  0.12383264  1
  Fe  Fe83  1  0.62318358  0.12565538  0.87713582  1
  Fe  Fe84  1  0.87657429  0.37396128  0.12322419  1
  Fe  Fe85  1  0.87363424  0.87493603  0.62918429  1
  Fe  Fe86  1  0.62975994  0.87691537  0.37309235  1
  Fe  Fe87  1  0.49727778  0.75237984  -0.00170805  1
  Fe  Fe88  1  0.62361997  0.12664378  0.62433833  1
  Fe  Fe89  1  0.00237264  0.50178022  0.50255603  1
  Co  Co90  1  0.24568754  -0.00063293  0.00104892  1
  Co  Co91  1  0.50267365  0.00045221  0.74828565  1
  Co  Co92  1  -0.00101128  0.25317555  -0.00570579  1
  Co  Co93  1  0.37464640  0.12356741  0.62578528  1
  Co  Co94  1  -0.00013868  0.25114654  0.49980288  1
  Co  Co95  1  0.75121282  0.49983405  0.50120178  1
  Co  Co96  1  0.12387652  0.63021997  0.62669372  1
  Co  Co97  1  0.37298664  0.87404937  0.62786239  1
  Co  Co98  1  -0.00043308  0.75030328  0.25070947  1
  Co  Co99  1  0.25574558  0.74900160  -0.00195417  1
  Co  Co100  1  0.00149427  0.49878549  0.75217317  1
  Co  Co101  1  0.25028539  0.74866984  0.24876023  1
  Co  Co102  1  -0.00517080  0.75202303  -0.00486454  1
  Co  Co103  1  0.25238453  0.25030900  0.75006921  1
  Co  Co104  1  0.87609264  0.12046188  0.37751495  1
  Co  Co105  1  0.74976342  0.00429439  0.24357929  1
  Co  Co106  1  0.50285300  -0.00085801  0.00163751  1
  Co  Co107  1  0.87062084  0.37751667  0.87476765  1
  Co  Co108  1  0.13088153  0.37462846  0.87652522  1
  Co  Co109  1  0.74968496  0.74924015  0.75204443  1
  Co  Co110  1  0.75150072  0.00029331  0.50443354  1
  Co  Co111  1  0.87231696  0.87985779  0.87322934  1
  Co  Co112  1  0.37400804  0.37975127  0.12839709  1
  Co  Co113  1  0.25661102  0.24981971  0.00200101  1
  Co  Co114  1  0.62273432  0.13043992  0.12315310  1
  Co  Co115  1  0.25203908  0.74830567  0.75528278  1
  Co  Co116  1  -0.00480470  0.75178082  0.50058965  1
  Co  Co117  1  0.75013697  0.24821244  0.75116142  1
  Co  Co118  1  0.12252681  0.62991651  0.37705866  1
  Co  Co119  1  0.75160823  0.74697472  0.25143289  1
  Co  Co120  1  0.25405217  0.74850528  0.49746651  1
  Co  Co121  1  0.50214716  0.49904250  0.00242283  1
  Co  Co122  1  0.12216927  0.63044825  0.11914243  1
  Co  Co123  1  0.62715604  0.86970848  0.12446796  1
  Co  Co124  1  0.88007003  0.12421861  0.12019649  1
  Co  Co125  1  0.50145069  0.49895320  0.74685057  1
  Co  Co126  1  0.24500811  -0.00021468  0.74651851  1
  Co  Co127  1  0.37344437  0.11794962  0.12645885  1
