# generated using pymatgen
data_Fe45Co19
_symmetry_space_group_name_H-M   'P 1'
_cell_length_a   11.41527428
_cell_length_b   11.41646475
_cell_length_c   11.41547406
_cell_angle_alpha   89.98898944
_cell_angle_beta   90.01094657
_cell_angle_gamma   89.99286000
_symmetry_Int_Tables_number   1
_chemical_formula_structural   Fe45Co19
_chemical_formula_sum   'Fe90 Co38'
_cell_volume   1487.68821649
_cell_formula_units_Z   2
loop_
 _symmetry_equiv_pos_site_id
 _symmetry_equiv_pos_as_xyz
  1  'x, y, z'
loop_
 _atom_site_type_symbol
 _atom_site_label
 _atom_site_symmetry_multiplicity
 _atom_site_fract_x
 _atom_site_fract_y
 _atom_site_fract_z
 _atom_site_occupancy
  Fe  Fe0  1  0.12426506  0.12499576  0.12340492  1
  Fe  Fe1  1  0.49719513  0.00037804  0.24756461  1
  Fe  Fe2  1  0.74995867  0.74904372  0.25035176  1
  Fe  Fe3  1  0.12484381  0.37781017  0.37780988  1
  Fe  Fe4  1  0.50074702  0.74840137  0.25134419  1
  Fe  Fe5  1  0.12716058  0.37664785  0.12318261  1
  Fe  Fe6  1  0.74899168  0.74931497  0.00031310  1
  Fe  Fe7  1  0.62190583  0.12443630  0.37733100  1
  Fe  Fe8  1  0.63070736  0.37121101  0.62598425  1
  Fe  Fe9  1  0.12462776  0.62276886  0.87659604  1
  Fe  Fe10  1  0.24907246  0.24577533  0.75292995  1
  Fe  Fe11  1  0.12802702  0.87873137  0.87392896  1
  Fe  Fe12  1  0.62611624  0.37492377  0.12497120  1
  Fe  Fe13  1  0.87578970  0.62595238  0.37617962  1
  Fe  Fe14  1  0.87400646  0.87499102  0.87597093  1
  Fe  Fe15  1  0.49877915  0.25034864  -0.00199405  1
  Fe  Fe16  1  0.75147355  0.50052220  0.00167170  1
  Fe  Fe17  1  0.37521491  0.62437590  0.37611815  1
  Fe  Fe18  1  0.12516468  0.37692134  0.87542042  1
  Fe  Fe19  1  0.50068022  0.49714057  0.50048159  1
  Fe  Fe20  1  0.74949972  0.24780662  -0.00143555  1
  Fe  Fe21  1  0.87762773  0.87510141  0.62252843  1
  Fe  Fe22  1  0.62601975  0.62341638  0.87394635  1
  Fe  Fe23  1  0.37310673  0.37477581  0.37595187  1
  Fe  Fe24  1  0.50263028  0.49689253  0.74944292  1
  Fe  Fe25  1  0.00177838  0.75123057  0.74975400  1
  Fe  Fe26  1  0.75028407  0.00055320  0.74881217  1
  Fe  Fe27  1  0.49874028  0.50057013  -0.00060755  1
  Fe  Fe28  1  -0.00242464  -0.00090043  0.24831778  1
  Fe  Fe29  1  0.37512748  0.62579301  0.62524541  1
  Fe  Fe30  1  0.00155393  0.75149371  0.00254393  1
  Fe  Fe31  1  0.25320682  0.00214741  0.50345367  1
  Fe  Fe32  1  0.62531129  0.87700921  0.37519294  1
  Fe  Fe33  1  0.37458309  0.37522488  0.12542630  1
  Fe  Fe34  1  0.25305379  0.00079650  0.24747882  1
  Fe  Fe35  1  0.25079740  0.24784183  0.49939411  1
  Fe  Fe36  1  0.12363634  0.62295180  0.62256008  1
  Fe  Fe37  1  0.62370826  0.87375089  0.12409495  1
  Fe  Fe38  1  0.12476909  0.12340893  0.37483356  1
  Fe  Fe39  1  0.87723576  0.12355283  0.87554991  1
  Fe  Fe40  1  0.00036028  0.75208112  0.24768385  1
  Fe  Fe41  1  0.62279693  0.87725183  0.87575986  1
  Fe  Fe42  1  0.75003949  0.75090098  0.74935912  1
  Fe  Fe43  1  0.24935165  0.50091098  0.74926380  1
  Fe  Fe44  1  0.62680206  0.62510016  0.62352092  1
  Fe  Fe45  1  0.12440999  0.87791923  0.62536319  1
  Fe  Fe46  1  0.25426123  0.00293043  0.00092445  1
  Fe  Fe47  1  0.50047986  0.75167427  0.75019604  1
  Fe  Fe48  1  0.75067262  0.75163159  0.49857445  1
  Fe  Fe49  1  0.74920542  0.00130484  0.00141753  1
  Fe  Fe50  1  0.12236184  0.12314706  0.62649804  1
  Fe  Fe51  1  0.24893875  0.74943823  0.24751790  1
  Fe  Fe52  1  0.62362321  0.62493914  0.12455841  1
  Fe  Fe53  1  0.25013981  0.50158165  0.24894025  1
  Fe  Fe54  1  0.37415939  0.62472444  0.87364016  1
  Fe  Fe55  1  -0.00192006  0.49861685  0.24958579  1
  Fe  Fe56  1  0.37520007  0.87633583  0.87454902  1
  Fe  Fe57  1  0.63096279  0.37544886  0.37517971  1
  Fe  Fe58  1  0.87493578  0.62547066  0.87407814  1
  Fe  Fe59  1  0.12279766  0.62186375  0.37703956  1
  Fe  Fe60  1  0.24778348  0.74958227  0.49985656  1
  Fe  Fe61  1  0.50064890  0.25070268  0.25306671  1
  Fe  Fe62  1  0.12383305  0.87775867  0.37556330  1
  Fe  Fe63  1  0.62230485  0.12589326  0.12424953  1
  Fe  Fe64  1  0.75153040  0.00137213  0.24867252  1
  Fe  Fe65  1  0.62544774  0.87502276  0.62318523  1
  Fe  Fe66  1  0.37377933  0.37560849  0.87474357  1
  Fe  Fe67  1  0.00010691  0.25119623  0.00037696  1
  Fe  Fe68  1  0.50232415  0.50059087  0.25235212  1
  Fe  Fe69  1  0.62143755  0.12827062  0.62542763  1
  Fe  Fe70  1  0.75693670  0.49776583  0.50157725  1
  Fe  Fe71  1  0.87177944  0.37523521  0.87136253  1
  Fe  Fe72  1  0.61878353  0.12233469  0.87254022  1
  Fe  Fe73  1  0.37352394  0.37220132  0.62483451  1
  Fe  Fe74  1  -0.00233221  0.49839735  0.00189517  1
  Fe  Fe75  1  0.87627505  0.12911238  0.37089650  1
  Fe  Fe76  1  0.37459321  0.87548431  0.37536301  1
  Fe  Fe77  1  0.24860875  0.24935540  0.25088812  1
  Fe  Fe78  1  0.00137402  0.24898999  0.75284551  1
  Fe  Fe79  1  -0.00231784  0.25291607  0.49811468  1
  Fe  Fe80  1  0.87161335  0.37089120  0.13008381  1
  Fe  Fe81  1  -0.00125289  -0.00173222  0.00190383  1
  Fe  Fe82  1  0.75299981  0.00243385  0.49924106  1
  Fe  Fe83  1  0.49603192  -0.00029725  0.50315511  1
  Fe  Fe84  1  0.25052640  0.74780518  0.00285312  1
  Fe  Fe85  1  0.87645964  0.12745352  0.62680315  1
  Fe  Fe86  1  0.25048567  0.24768880  -0.00279604  1
  Fe  Fe87  1  0.50048660  0.75040419  0.49901955  1
  Fe  Fe88  1  0.12491288  0.37571100  0.62419631  1
  Fe  Fe89  1  -0.00272418  0.50040726  0.74686322  1
  Co  Co90  1  0.25147958  0.50118002  0.00017546  1
  Co  Co91  1  0.62748416  0.62368788  0.37913344  1
  Co  Co92  1  0.49846548  0.00017959  0.00360962  1
  Co  Co93  1  -0.00669669  0.49520590  0.50158875  1
  Co  Co94  1  0.24750978  0.74927675  0.75019941  1
  Co  Co95  1  0.49815359  -0.00423679  0.74474373  1
  Co  Co96  1  0.25189451  0.50084804  0.50070047  1
  Co  Co97  1  0.37529167  0.12932638  0.12669428  1
  Co  Co98  1  0.12604204  0.87750727  0.12479540  1
  Co  Co99  1  0.50059493  0.25336641  0.49684128  1
  Co  Co100  1  -0.00225116  0.00198905  0.49814471  1
  Co  Co101  1  0.75219691  0.24748550  0.49801807  1
  Co  Co102  1  0.49917087  0.74865846  -0.00187447  1
  Co  Co103  1  0.87215154  0.36897479  0.63087253  1
  Co  Co104  1  0.87496424  0.62917633  0.62459485  1
  Co  Co105  1  0.37633000  0.62429235  0.12671346  1
  Co  Co106  1  0.00308406  0.75091902  0.49944997  1
  Co  Co107  1  0.25282701  0.00324051  0.74740435  1
  Co  Co108  1  0.12388044  0.62261909  0.12414946  1
  Co  Co109  1  0.87203332  0.37108673  0.36853727  1
  Co  Co110  1  0.50203225  0.25608810  0.75247448  1
  Co  Co111  1  0.12252723  0.12153200  0.87608595  1
  Co  Co112  1  -0.00168309  -0.00208001  0.75105145  1
  Co  Co113  1  0.74780260  0.24500575  0.75550968  1
  Co  Co114  1  0.62839591  0.37679407  0.87682798  1
  Co  Co115  1  0.37954861  0.13109571  0.62698245  1
  Co  Co116  1  0.87641748  0.62670472  0.12425830  1
  Co  Co117  1  0.87494983  0.87410280  0.37502256  1
  Co  Co118  1  0.37546721  0.12518280  0.37559019  1
  Co  Co119  1  0.75005162  0.50218942  0.74857538  1
  Co  Co120  1  0.00597029  0.25112069  0.24946163  1
  Co  Co121  1  0.37260503  0.87049487  0.62498740  1
  Co  Co122  1  0.38022243  0.12357962  0.87149635  1
  Co  Co123  1  0.87695789  0.12726722  0.12528932  1
  Co  Co124  1  0.87241486  0.87459293  0.12398251  1
  Co  Co125  1  0.74462344  0.24510049  0.24950911  1
  Co  Co126  1  0.37666338  0.87256863  0.12458734  1
  Co  Co127  1  0.74991506  0.50394115  0.24898599  1
