# generated using pymatgen
data_Fe45Co19
_symmetry_space_group_name_H-M   'P 1'
_cell_length_a   11.41472295
_cell_length_b   11.41528649
_cell_length_c   11.41545903
_cell_angle_alpha   89.99884848
_cell_angle_beta   90.01058732
_cell_angle_gamma   89.99340578
_symmetry_Int_Tables_number   1
_chemical_formula_structural   Fe45Co19
_chemical_formula_sum   'Fe90 Co38'
_cell_volume   1487.46090438
_cell_formula_units_Z   2
loop_
 _symmetry_equiv_pos_site_id
 _symmetry_equiv_pos_as_xyz
  1  'x, y, z'
loop_
 _atom_site_type_symbol
 _atom_site_label
 _atom_site_symmetry_multiplicity
 _atom_site_fract_x
 _atom_site_fract_y
 _atom_site_fract_z
 _atom_site_occupancy
  Fe  Fe0  1  0.62573293  0.12525273  0.87551310  1
  Fe  Fe1  1  0.62264889  0.62698145  0.12538896  1
  Fe  Fe2  1  0.12538111  0.62429091  0.87413680  1
  Fe  Fe3  1  0.50053069  0.75077481  0.49714261  1
  Fe  Fe4  1  0.49876757  0.49897336  0.49876817  1
  Fe  Fe5  1  0.12873626  0.12063762  0.87592592  1
  Fe  Fe6  1  0.12402599  0.62380478  0.12674845  1
  Fe  Fe7  1  0.25018618  0.74893480  0.00169529  1
  Fe  Fe8  1  0.49748955  0.24833718  0.75226956  1
  Fe  Fe9  1  0.62709817  0.37581048  0.87714709  1
  Fe  Fe10  1  0.50000181  0.49848237  0.25035091  1
  Fe  Fe11  1  0.12648640  0.87736945  0.87382842  1
  Fe  Fe12  1  0.37685530  0.37336112  0.62537914  1
  Fe  Fe13  1  0.88120259  0.12914131  0.12653452  1
  Fe  Fe14  1  0.74941974  0.00305322  0.00387191  1
  Fe  Fe15  1  0.75081819  0.74862675  0.00076535  1
  Fe  Fe16  1  -0.00212770  0.74677338  0.49565136  1
  Fe  Fe17  1  0.25089187  0.24887134  0.74974938  1
  Fe  Fe18  1  0.62516021  0.62479484  0.62626984  1
  Fe  Fe19  1  0.37684517  0.87593844  0.62425760  1
  Fe  Fe20  1  0.62740457  0.37286870  0.12238839  1
  Fe  Fe21  1  -0.00072759  0.49854393  0.74883927  1
  Fe  Fe22  1  0.25136556  0.49825698  0.74681380  1
  Fe  Fe23  1  0.12345359  0.62186415  0.62039104  1
  Fe  Fe24  1  0.50170275  0.75052777  0.75087105  1
  Fe  Fe25  1  0.49997312  0.00141628  0.00272825  1
  Fe  Fe26  1  0.75145300  0.74908622  0.50113917  1
  Fe  Fe27  1  0.62551486  0.87682026  0.87657402  1
  Fe  Fe28  1  0.12401679  0.12473747  0.62277647  1
  Fe  Fe29  1  0.75069537  0.25018741  0.74937228  1
  Fe  Fe30  1  0.49593819  0.00393104  0.74874644  1
  Fe  Fe31  1  0.87570423  0.12608717  0.87636739  1
  Fe  Fe32  1  0.62534700  0.37384441  0.62461088  1
  Fe  Fe33  1  0.37666450  0.62509657  0.62571728  1
  Fe  Fe34  1  0.24392455  0.25142755  0.25139317  1
  Fe  Fe35  1  0.12683679  0.37702556  0.87548360  1
  Fe  Fe36  1  0.62391619  0.87719639  0.62439707  1
  Fe  Fe37  1  0.49845082  0.49947464  0.00085313  1
  Fe  Fe38  1  0.00133692  0.24892064  0.75161962  1
  Fe  Fe39  1  0.62688409  0.62548513  0.37410432  1
  Fe  Fe40  1  0.87953950  0.37096114  0.12492956  1
  Fe  Fe41  1  0.87827780  0.62726934  0.12735228  1
  Fe  Fe42  1  0.24641542  0.00126239  0.24712121  1
  Fe  Fe43  1  0.75074884  0.24849906  0.25074955  1
  Fe  Fe44  1  0.00117086  0.00014037  0.00071120  1
  Fe  Fe45  1  0.87619237  0.87498827  0.62508367  1
  Fe  Fe46  1  0.37396434  0.62239470  0.87343542  1
  Fe  Fe47  1  0.37212427  0.87808731  0.87442422  1
  Fe  Fe48  1  0.24886277  0.74944455  0.25102654  1
  Fe  Fe49  1  0.24966661  0.49706512  0.25231265  1
  Fe  Fe50  1  0.37629090  0.87679663  0.37472908  1
  Fe  Fe51  1  0.24760753  0.25147335  0.00159308  1
  Fe  Fe52  1  0.87815569  0.87337421  0.12572480  1
  Fe  Fe53  1  0.37495101  0.12468972  0.37393642  1
  Fe  Fe54  1  0.49731476  0.74901542  0.00035978  1
  Fe  Fe55  1  0.87408372  0.62592867  0.87277895  1
  Fe  Fe56  1  0.87575635  0.12523531  0.62434538  1
  Fe  Fe57  1  0.24961986  0.75013453  0.49972977  1
  Fe  Fe58  1  0.62678683  0.62332567  0.87445120  1
  Fe  Fe59  1  0.50232730  0.24659664  0.49983343  1
  Fe  Fe60  1  0.75375481  0.50063017  0.50000433  1
  Fe  Fe61  1  -0.00259372  0.24731149  0.49178368  1
  Fe  Fe62  1  0.87497137  0.87416830  0.87582632  1
  Fe  Fe63  1  0.75000294  0.49851010  0.24715057  1
  Fe  Fe64  1  0.87329436  0.37408997  0.87760475  1
  Fe  Fe65  1  -0.00001974  0.49852859  0.25619587  1
  Fe  Fe66  1  0.25066496  -0.00036066  0.50167546  1
  Fe  Fe67  1  0.75201639  0.00004373  0.74991568  1
  Fe  Fe68  1  0.37142018  0.37671840  0.12405248  1
  Fe  Fe69  1  0.50458182  -0.00144475  0.25102621  1
  Fe  Fe70  1  0.87499098  0.87805758  0.37311254  1
  Fe  Fe71  1  0.25031401  0.25125757  0.49716097  1
  Fe  Fe72  1  0.37714757  0.87335203  0.12744492  1
  Fe  Fe73  1  0.87670977  0.37374338  0.62185472  1
  Fe  Fe74  1  0.49879677  0.25013826  -0.00077771  1
  Fe  Fe75  1  -0.00019228  0.75081775  0.75042780  1
  Fe  Fe76  1  0.37373929  0.12506010  0.12515492  1
  Fe  Fe77  1  0.12293625  0.87772681  0.37523999  1
  Fe  Fe78  1  0.12175856  0.87272234  0.12555517  1
  Fe  Fe79  1  0.24907327  0.75054191  0.74800832  1
  Fe  Fe80  1  -0.00063340  0.50021481  -0.00045031  1
  Fe  Fe81  1  0.74673100  0.00078687  0.24706997  1
  Fe  Fe82  1  0.12226685  0.37658487  0.61877541  1
  Fe  Fe83  1  0.62691522  0.37309942  0.37587080  1
  Fe  Fe84  1  0.75067003  0.49917178  0.74860599  1
  Fe  Fe85  1  0.74771055  0.75265975  0.24892983  1
  Fe  Fe86  1  0.74706526  0.00429190  0.49921892  1
  Fe  Fe87  1  0.37450251  0.62484130  0.37341766  1
  Fe  Fe88  1  0.12231379  0.87640366  0.62521101  1
  Fe  Fe89  1  0.49965856  0.25185346  0.24848981  1
  Co  Co90  1  0.62585199  0.12497235  0.62825895  1
  Co  Co91  1  0.00562494  0.25034816  0.25747701  1
  Co  Co92  1  0.50067669  0.75051180  0.25277958  1
  Co  Co93  1  0.50027342  0.49817455  0.75068265  1
  Co  Co94  1  0.00139012  0.74912359  -0.00159981  1
  Co  Co95  1  0.62436925  0.12752868  0.37206417  1
  Co  Co96  1  0.50097128  0.00289808  0.49875788  1
  Co  Co97  1  0.74820485  0.75205449  0.74995360  1
  Co  Co98  1  0.37283730  0.37582928  0.87592276  1
  Co  Co99  1  0.25119207  0.00119311  0.74466937  1
  Co  Co100  1  0.75051139  0.24804825  0.00121580  1
  Co  Co101  1  0.37087164  0.12340314  0.87931346  1
  Co  Co102  1  0.24923825  -0.00326427  0.00618815  1
  Co  Co103  1  0.12468201  0.37956952  0.38112262  1
  Co  Co104  1  0.00241496  0.00178341  0.24895185  1
  Co  Co105  1  0.75048085  0.24701390  0.49987995  1
  Co  Co106  1  0.00368328  0.25061601  -0.00429851  1
  Co  Co107  1  0.62685374  0.87454569  0.37668963  1
  Co  Co108  1  0.37650865  0.37222291  0.37455251  1
  Co  Co109  1  0.87578574  0.62609800  0.62887557  1
  Co  Co110  1  0.12847737  0.62164292  0.37760321  1
  Co  Co111  1  0.12161751  0.37667286  0.12543304  1
  Co  Co112  1  0.25672517  0.49850868  0.50088816  1
  Co  Co113  1  -0.00070926  0.00061204  0.50030414  1
  Co  Co114  1  0.87013982  0.62694615  0.36971125  1
  Co  Co115  1  0.87185355  0.37337898  0.37415042  1
  Co  Co116  1  0.12657765  0.12113731  0.37696646  1
  Co  Co117  1  -0.00069991  0.00142523  0.75044582  1
  Co  Co118  1  0.62343386  0.12810131  0.12537913  1
  Co  Co119  1  0.87352858  0.12101998  0.37178191  1
  Co  Co120  1  -0.00737950  0.50424777  0.49533466  1
  Co  Co121  1  0.75269869  0.50145146  0.00351412  1
  Co  Co122  1  0.37349106  0.12681112  0.62179587  1
  Co  Co123  1  0.12220226  0.12720942  0.12347379  1
  Co  Co124  1  0.24882996  0.50168856  0.00054840  1
  Co  Co125  1  0.00237794  0.74972250  0.25522800  1
  Co  Co126  1  0.62357455  0.87186436  0.12274103  1
  Co  Co127  1  0.37440746  0.62367683  0.12847809  1
