# generated using pymatgen
data_Fe45Co19
_symmetry_space_group_name_H-M   'P 1'
_cell_length_a   11.41497015
_cell_length_b   11.41616356
_cell_length_c   11.41568940
_cell_angle_alpha   90.00311271
_cell_angle_beta   89.99679822
_cell_angle_gamma   90.00442306
_symmetry_Int_Tables_number   1
_chemical_formula_structural   Fe45Co19
_chemical_formula_sum   'Fe90 Co38'
_cell_volume   1487.63745338
_cell_formula_units_Z   2
loop_
 _symmetry_equiv_pos_site_id
 _symmetry_equiv_pos_as_xyz
  1  'x, y, z'
loop_
 _atom_site_type_symbol
 _atom_site_label
 _atom_site_symmetry_multiplicity
 _atom_site_fract_x
 _atom_site_fract_y
 _atom_site_fract_z
 _atom_site_occupancy
  Fe  Fe0  1  0.87627981  0.87812083  0.62661049  1
  Fe  Fe1  1  0.12283775  0.87703136  0.37228933  1
  Fe  Fe2  1  -0.00026219  0.00077292  0.00379715  1
  Fe  Fe3  1  0.62407492  0.37244818  0.37440220  1
  Fe  Fe4  1  0.87189310  0.12513730  0.88010027  1
  Fe  Fe5  1  0.25098621  0.49533954  -0.00116042  1
  Fe  Fe6  1  0.87558130  0.37323633  0.87529767  1
  Fe  Fe7  1  0.62349417  0.87689547  0.37162215  1
  Fe  Fe8  1  0.37278236  0.62618164  0.62446702  1
  Fe  Fe9  1  0.49931037  0.75005539  -0.00063671  1
  Fe  Fe10  1  0.74945024  0.49706045  0.00055335  1
  Fe  Fe11  1  0.00176296  0.50200896  0.24785497  1
  Fe  Fe12  1  0.12632015  0.37363903  0.12386126  1
  Fe  Fe13  1  0.24897534  -0.00111080  0.75252476  1
  Fe  Fe14  1  0.24898295  0.75403281  0.75235089  1
  Fe  Fe15  1  0.62614763  0.62504155  0.12436494  1
  Fe  Fe16  1  0.24858215  0.49882777  0.74965451  1
  Fe  Fe17  1  0.74557132  0.24717266  0.75257117  1
  Fe  Fe18  1  0.49807753  -0.00233630  0.00219918  1
  Fe  Fe19  1  0.87564282  0.37375265  0.37427764  1
  Fe  Fe20  1  -0.00060690  0.74953059  0.74858442  1
  Fe  Fe21  1  0.00048868  0.49914562  0.00045475  1
  Fe  Fe22  1  0.12623450  0.62700763  0.62301521  1
  Fe  Fe23  1  0.87695450  0.62402622  0.37560304  1
  Fe  Fe24  1  0.00156987  0.49886570  0.50131708  1
  Fe  Fe25  1  0.75087386  0.74846452  0.24932483  1
  Fe  Fe26  1  0.87504271  0.37161783  0.12416372  1
  Fe  Fe27  1  0.25486183  0.24906101  0.25046398  1
  Fe  Fe28  1  0.37292666  0.62591866  0.12348046  1
  Fe  Fe29  1  0.00026878  0.75051889  0.00408918  1
  Fe  Fe30  1  0.24932782  0.74957311  0.24984228  1
  Fe  Fe31  1  0.75117739  0.00147601  0.50096951  1
  Fe  Fe32  1  0.49814421  0.24721339  0.49733292  1
  Fe  Fe33  1  0.75022768  0.24881797  0.50111791  1
  Fe  Fe34  1  0.24924502  0.75804658  0.00036275  1
  Fe  Fe35  1  0.24966973  0.75333676  0.49789367  1
  Fe  Fe36  1  0.62270922  0.87651226  0.62825254  1
  Fe  Fe37  1  0.75041209  0.49878007  0.50129512  1
  Fe  Fe38  1  0.37309988  0.62673669  0.87512922  1
  Fe  Fe39  1  0.62597890  0.62520594  0.37581698  1
  Fe  Fe40  1  0.87362309  0.62598416  0.87548305  1
  Fe  Fe41  1  0.75088784  0.75135691  0.50182883  1
  Fe  Fe42  1  0.50106330  0.00087005  0.49908294  1
  Fe  Fe43  1  0.62200121  0.87387738  0.12917789  1
  Fe  Fe44  1  0.12667482  0.37119057  0.62469006  1
  Fe  Fe45  1  0.00111970  0.00254565  0.74975983  1
  Fe  Fe46  1  0.87437160  0.12645322  0.37657208  1
  Fe  Fe47  1  0.49980272  0.25246050  -0.00104121  1
  Fe  Fe48  1  0.12731647  0.37313060  0.37637861  1
  Fe  Fe49  1  0.49988388  0.50103700  0.74913590  1
  Fe  Fe50  1  0.25019383  0.50010649  0.25089307  1
  Fe  Fe51  1  0.37489221  0.37345561  0.87209383  1
  Fe  Fe52  1  0.12605330  0.12465725  0.37682185  1
  Fe  Fe53  1  -0.00244998  0.00432094  0.24744782  1
  Fe  Fe54  1  0.12400101  0.12504773  0.62194348  1
  Fe  Fe55  1  0.00128019  0.74596436  0.24617408  1
  Fe  Fe56  1  0.37397438  0.12428787  0.62421012  1
  Fe  Fe57  1  0.49902779  0.50222084  0.25068401  1
  Fe  Fe58  1  0.62685793  0.62518648  0.87287461  1
  Fe  Fe59  1  0.62667526  0.62635016  0.62674610  1
  Fe  Fe60  1  0.87617556  0.87567740  0.37224615  1
  Fe  Fe61  1  0.00109607  0.50073118  0.74978502  1
  Fe  Fe62  1  0.75047605  0.49909782  0.24965428  1
  Fe  Fe63  1  -0.00068147  0.24782131  0.24861267  1
  Fe  Fe64  1  -0.00001315  0.75229374  0.50094307  1
  Fe  Fe65  1  0.12548767  0.62582049  0.87745207  1
  Fe  Fe66  1  0.50007237  0.75113964  0.49952421  1
  Fe  Fe67  1  0.37285487  0.12398523  0.87884672  1
  Fe  Fe68  1  0.75019866  0.75388593  0.00009079  1
  Fe  Fe69  1  0.50248907  0.24657888  0.75127150  1
  Fe  Fe70  1  0.62807458  0.12694791  0.12171263  1
  Fe  Fe71  1  0.87694261  0.87645031  0.87545935  1
  Fe  Fe72  1  0.24888645  -0.00181939  0.50007786  1
  Fe  Fe73  1  0.25305464  0.00093872  0.24582702  1
  Fe  Fe74  1  0.50021306  0.49974661  0.50124458  1
  Fe  Fe75  1  0.37887929  0.87784760  0.36992383  1
  Fe  Fe76  1  0.00188805  0.24775431  0.75278263  1
  Fe  Fe77  1  0.37359321  0.62365933  0.37694718  1
  Fe  Fe78  1  0.49919385  0.49962515  -0.00090923  1
  Fe  Fe79  1  0.74795386  0.00282506  0.75088234  1
  Fe  Fe80  1  0.37400353  0.37264186  0.62414092  1
  Fe  Fe81  1  0.62285797  0.37353287  0.12684050  1
  Fe  Fe82  1  0.49669816  0.24464924  0.25215078  1
  Fe  Fe83  1  0.87542541  0.37173778  0.62653763  1
  Fe  Fe84  1  0.37641331  0.87612175  0.62828440  1
  Fe  Fe85  1  0.62109428  0.87598749  0.87119299  1
  Fe  Fe86  1  0.75053355  0.00301022  0.24733920  1
  Fe  Fe87  1  0.12950840  0.12604384  0.12155129  1
  Fe  Fe88  1  0.12869299  0.12512925  0.88003173  1
  Fe  Fe89  1  0.74992783  0.49911345  0.74867553  1
  Co  Co90  1  0.75146735  0.75277582  0.74977603  1
  Co  Co91  1  0.37308183  0.12562283  0.11913041  1
  Co  Co92  1  0.00175321  0.24965133  -0.00001624  1
  Co  Co93  1  0.37565278  0.37651864  0.37580211  1
  Co  Co94  1  0.75128179  0.24910103  0.24978463  1
  Co  Co95  1  0.12415302  0.62522437  0.37669790  1
  Co  Co96  1  0.87507505  0.62434224  0.62431206  1
  Co  Co97  1  0.37847341  0.87377566  0.12965985  1
  Co  Co98  1  0.87572179  0.12658697  0.62607389  1
  Co  Co99  1  0.62383549  0.12486874  0.62317838  1
  Co  Co100  1  0.50115467  0.00743957  0.24748442  1
  Co  Co101  1  0.74752016  0.25435840  -0.00245658  1
  Co  Co102  1  0.12921697  0.62383217  0.12146962  1
  Co  Co103  1  0.24854591  0.49874598  0.50067994  1
  Co  Co104  1  0.74849039  -0.00589624  0.00110636  1
  Co  Co105  1  0.25155639  -0.00715977  -0.00025549  1
  Co  Co106  1  0.25206163  0.24847596  0.49826793  1
  Co  Co107  1  0.12303468  0.87713348  0.12795381  1
  Co  Co108  1  0.37885307  0.87632130  0.87211829  1
  Co  Co109  1  0.00010204  0.24980233  0.49848790  1
  Co  Co110  1  0.12489245  0.37471019  0.87464221  1
  Co  Co111  1  -0.00111935  0.00014398  0.49908051  1
  Co  Co112  1  0.62380504  0.37256848  0.62471141  1
  Co  Co113  1  0.87101061  0.12754355  0.11993832  1
  Co  Co114  1  0.37344718  0.11994341  0.37624479  1
  Co  Co115  1  0.25102552  0.25502447  -0.00067281  1
  Co  Co116  1  0.62433943  0.12214258  0.88020729  1
  Co  Co117  1  0.62784637  0.12480439  0.37605190  1
  Co  Co118  1  0.49884628  0.74697005  0.74964436  1
  Co  Co119  1  0.62333306  0.37744073  0.87340022  1
  Co  Co120  1  0.12006935  0.87597139  0.87532917  1
  Co  Co121  1  0.49896665  0.00531249  0.75043117  1
  Co  Co122  1  0.24841084  0.24740344  0.75066016  1
  Co  Co123  1  0.87632455  0.87528276  0.12730731  1
  Co  Co124  1  0.37724860  0.37513331  0.12716810  1
  Co  Co125  1  0.12400336  0.87635418  0.62589526  1
  Co  Co126  1  0.49964178  0.74486911  0.25148989  1
  Co  Co127  1  0.87253808  0.62421876  0.12362755  1
