# generated using pymatgen
data_Fe45Co19
_symmetry_space_group_name_H-M   'P 1'
_cell_length_a   11.41479378
_cell_length_b   11.41604157
_cell_length_c   11.41533428
_cell_angle_alpha   89.99606190
_cell_angle_beta   90.00344505
_cell_angle_gamma   89.99467374
_symmetry_Int_Tables_number   1
_chemical_formula_structural   Fe45Co19
_chemical_formula_sum   'Fe90 Co38'
_cell_volume   1487.55229191
_cell_formula_units_Z   2
loop_
 _symmetry_equiv_pos_site_id
 _symmetry_equiv_pos_as_xyz
  1  'x, y, z'
loop_
 _atom_site_type_symbol
 _atom_site_label
 _atom_site_symmetry_multiplicity
 _atom_site_fract_x
 _atom_site_fract_y
 _atom_site_fract_z
 _atom_site_occupancy
  Fe  Fe0  1  0.25004695  0.25253047  0.25027820  1
  Fe  Fe1  1  0.00010046  0.75099586  0.74770588  1
  Fe  Fe2  1  0.25172467  0.49881437  0.25248928  1
  Fe  Fe3  1  0.87239830  0.37617161  0.12307439  1
  Fe  Fe4  1  0.87452472  0.12587578  0.62647172  1
  Fe  Fe5  1  0.37646869  0.12368116  0.87623517  1
  Fe  Fe6  1  0.50057867  0.75108006  0.25250566  1
  Fe  Fe7  1  0.00043403  0.75149078  0.50062499  1
  Fe  Fe8  1  0.12573785  0.62504896  0.87259875  1
  Fe  Fe9  1  0.24964662  0.49852110  0.49967421  1
  Fe  Fe10  1  0.62304429  0.62355762  0.86742923  1
  Fe  Fe11  1  0.87108366  0.62775392  0.62388675  1
  Fe  Fe12  1  0.87361594  0.37698008  0.87764961  1
  Fe  Fe13  1  0.37707074  0.37454811  0.87705406  1
  Fe  Fe14  1  0.00103079  0.25305072  0.24827638  1
  Fe  Fe15  1  0.12393938  0.12555308  0.62567177  1
  Fe  Fe16  1  0.37583589  0.12358575  0.12379449  1
  Fe  Fe17  1  0.12381066  0.87589498  0.87339141  1
  Fe  Fe18  1  -0.00104660  -0.00064378  0.50120481  1
  Fe  Fe19  1  0.00035607  0.25254880  0.49921244  1
  Fe  Fe20  1  0.24851468  0.00091713  0.74951223  1
  Fe  Fe21  1  0.24781579  0.74913092  0.50076181  1
  Fe  Fe22  1  0.50248236  0.24564026  0.50083589  1
  Fe  Fe23  1  0.87613467  0.87558113  0.87572292  1
  Fe  Fe24  1  0.37691705  0.62522080  0.62576251  1
  Fe  Fe25  1  0.87641839  0.12391167  0.87663758  1
  Fe  Fe26  1  0.87380738  0.62455702  0.87441284  1
  Fe  Fe27  1  0.75227008  0.50171480  0.25111122  1
  Fe  Fe28  1  -0.00214368  0.50009068  0.24854526  1
  Fe  Fe29  1  0.75103641  -0.00009672  0.75150294  1
  Fe  Fe30  1  0.75186304  0.74982375  0.25420537  1
  Fe  Fe31  1  -0.00007414  0.50135598  0.00230223  1
  Fe  Fe32  1  -0.00156102  0.49862930  0.74623158  1
  Fe  Fe33  1  0.75048917  0.25120825  0.75245242  1
  Fe  Fe34  1  0.00164134  -0.00043600  0.00223495  1
  Fe  Fe35  1  0.74820321  0.25043711  -0.00089542  1
  Fe  Fe36  1  0.49959478  0.25064106  0.74964634  1
  Fe  Fe37  1  0.12317859  0.12447946  0.37184044  1
  Fe  Fe38  1  0.49969628  0.24949810  0.25042420  1
  Fe  Fe39  1  0.25047855  0.75034597  0.74952973  1
  Fe  Fe40  1  0.75025511  0.50043569  0.50077141  1
  Fe  Fe41  1  0.00057198  0.74853164  -0.00043865  1
  Fe  Fe42  1  0.12358947  0.37576217  0.87568500  1
  Fe  Fe43  1  0.24913250  0.00146305  0.50034934  1
  Fe  Fe44  1  0.62598178  0.62632307  0.12617477  1
  Fe  Fe45  1  -0.00131027  0.49619423  0.50298910  1
  Fe  Fe46  1  0.62521016  0.37445531  0.37454321  1
  Fe  Fe47  1  0.74929790  0.24511028  0.49651745  1
  Fe  Fe48  1  0.62336279  0.87527956  0.12567266  1
  Fe  Fe49  1  0.62306867  0.12578735  0.87483496  1
  Fe  Fe50  1  0.25291855  0.75251226  -0.00106623  1
  Fe  Fe51  1  0.62535745  0.37575232  0.12395844  1
  Fe  Fe52  1  0.37767458  0.12379659  0.37611368  1
  Fe  Fe53  1  0.25124938  0.49930982  0.74904717  1
  Fe  Fe54  1  0.50367362  0.75152518  0.50153318  1
  Fe  Fe55  1  0.50222400  0.50189726  -0.00204754  1
  Fe  Fe56  1  0.37667514  0.37607876  0.12390078  1
  Fe  Fe57  1  0.87235195  0.87517437  0.62420464  1
  Fe  Fe58  1  0.24798151  0.25027389  0.00159919  1
  Fe  Fe59  1  0.37553686  0.62783681  0.12531156  1
  Fe  Fe60  1  0.25002587  0.50069359  -0.00096409  1
  Fe  Fe61  1  0.24912583  0.24930563  0.75115465  1
  Fe  Fe62  1  0.74947302  0.24640134  0.25246464  1
  Fe  Fe63  1  0.12503040  0.87450214  0.37430827  1
  Fe  Fe64  1  0.25093779  -0.00355435  0.24761130  1
  Fe  Fe65  1  0.62696979  0.37485631  0.62687625  1
  Fe  Fe66  1  0.49939715  0.00119722  0.74697246  1
  Fe  Fe67  1  0.74836330  -0.00034877  0.00028306  1
  Fe  Fe68  1  0.37590911  0.87535754  0.37617382  1
  Fe  Fe69  1  -0.00038752  0.25137661  0.75111299  1
  Fe  Fe70  1  0.62087636  0.87410326  0.87446570  1
  Fe  Fe71  1  0.24774822  0.24965717  0.49759124  1
  Fe  Fe72  1  0.50167954  0.49986132  0.50183798  1
  Fe  Fe73  1  0.37337055  0.87653086  0.62465008  1
  Fe  Fe74  1  0.12390764  0.62316263  0.37609078  1
  Fe  Fe75  1  0.12251760  0.12424986  0.87710886  1
  Fe  Fe76  1  0.74768860  0.74795049  -0.00301646  1
  Fe  Fe77  1  0.87617689  0.12630481  0.12337001  1
  Fe  Fe78  1  0.37397386  0.37213178  0.62276279  1
  Fe  Fe79  1  0.12696516  0.62704701  0.12580506  1
  Fe  Fe80  1  0.25011420  -0.00367680  0.00252997  1
  Fe  Fe81  1  0.62798293  0.88304286  0.37553400  1
  Fe  Fe82  1  -0.00196185  0.74852088  0.25199912  1
  Fe  Fe83  1  0.62261775  0.12293259  0.12560488  1
  Fe  Fe84  1  0.62863712  0.87588159  0.62420762  1
  Fe  Fe85  1  0.49900040  0.49971479  0.25170001  1
  Fe  Fe86  1  0.37585235  0.62612746  0.37660101  1
  Fe  Fe87  1  0.87359324  0.87171802  0.12389832  1
  Fe  Fe88  1  0.62583230  0.62412527  0.37621450  1
  Fe  Fe89  1  -0.00149102  -0.00180720  0.24778265  1
  Co  Co90  1  0.87109816  0.37158534  0.62345534  1
  Co  Co91  1  0.37759264  0.37359238  0.37749995  1
  Co  Co92  1  0.37534168  0.62576246  0.87303317  1
  Co  Co93  1  0.12723501  0.37339088  0.62599602  1
  Co  Co94  1  0.00061070  0.25142497  0.00047386  1
  Co  Co95  1  0.62664876  0.62540751  0.62772330  1
  Co  Co96  1  0.87348953  0.37443392  0.37446442  1
  Co  Co97  1  0.75211957  0.49894261  0.74877193  1
  Co  Co98  1  0.87868045  0.12540728  0.37391734  1
  Co  Co99  1  0.74673660  0.50298385  -0.00150581  1
  Co  Co100  1  0.49770479  0.49671778  0.74858665  1
  Co  Co101  1  0.37752510  0.87655381  0.87346466  1
  Co  Co102  1  0.62481281  0.37535150  0.87459450  1
  Co  Co103  1  0.12337782  0.87133300  0.12580774  1
  Co  Co104  1  0.37975745  0.87206872  0.12408301  1
  Co  Co105  1  0.87337846  0.87667519  0.37574405  1
  Co  Co106  1  0.75289000  0.00523103  0.49975261  1
  Co  Co107  1  0.25127489  0.75041249  0.25150073  1
  Co  Co108  1  0.75384376  0.00244894  0.24762086  1
  Co  Co109  1  0.12632580  0.37669201  0.12498652  1
  Co  Co110  1  0.37293034  0.12609695  0.62505363  1
  Co  Co111  1  -0.00064815  -0.00012917  0.74831149  1
  Co  Co112  1  0.12391666  0.37704852  0.37456808  1
  Co  Co113  1  0.87258961  0.62726754  0.12365771  1
  Co  Co114  1  0.75092658  0.75166320  0.75202940  1
  Co  Co115  1  0.49989473  0.00097960  0.50412363  1
  Co  Co116  1  0.74784982  0.75000074  0.49636673  1
  Co  Co117  1  0.62791031  0.12470623  0.62782191  1
  Co  Co118  1  0.12621096  0.87592815  0.62554433  1
  Co  Co119  1  0.50010987  0.00006842  0.00019617  1
  Co  Co120  1  0.62249388  0.11933468  0.37321907  1
  Co  Co121  1  0.49864529  0.75138920  0.74654719  1
  Co  Co122  1  0.12514532  0.62391240  0.62517307  1
  Co  Co123  1  0.12547296  0.12539018  0.12577468  1
  Co  Co124  1  0.49688639  -0.00081062  0.24949078  1
  Co  Co125  1  0.87592673  0.62352704  0.37838176  1
  Co  Co126  1  0.50077043  0.74672992  -0.00140766  1
  Co  Co127  1  0.50062993  0.24992578  0.00078538  1
