# generated using pymatgen
data_Fe45Co19
_symmetry_space_group_name_H-M   'P 1'
_cell_length_a   11.41470120
_cell_length_b   11.41660830
_cell_length_c   11.41450258
_cell_angle_alpha   90.00431077
_cell_angle_beta   89.99962222
_cell_angle_gamma   89.99821191
_symmetry_Int_Tables_number   1
_chemical_formula_structural   Fe45Co19
_chemical_formula_sum   'Fe90 Co38'
_cell_volume   1487.50569547
_cell_formula_units_Z   2
loop_
 _symmetry_equiv_pos_site_id
 _symmetry_equiv_pos_as_xyz
  1  'x, y, z'
loop_
 _atom_site_type_symbol
 _atom_site_label
 _atom_site_symmetry_multiplicity
 _atom_site_fract_x
 _atom_site_fract_y
 _atom_site_fract_z
 _atom_site_occupancy
  Fe  Fe0  1  0.75202795  0.75007512  0.74747504  1
  Fe  Fe1  1  0.87330782  0.87049809  0.37697612  1
  Fe  Fe2  1  0.24972416  0.25013271  0.00164222  1
  Fe  Fe3  1  0.62487850  0.87163234  0.12705603  1
  Fe  Fe4  1  0.62352259  0.86983386  0.37703903  1
  Fe  Fe5  1  0.12477391  0.62585530  0.12475159  1
  Fe  Fe6  1  0.37513344  0.37655866  0.62352303  1
  Fe  Fe7  1  0.00112143  -0.00154035  0.00199179  1
  Fe  Fe8  1  0.24851162  0.00212572  0.25328132  1
  Fe  Fe9  1  0.87857744  0.12430503  0.62202230  1
  Fe  Fe10  1  0.37566180  0.12444656  0.12745208  1
  Fe  Fe11  1  0.62285497  0.62538427  0.62341423  1
  Fe  Fe12  1  0.37336902  0.37702307  0.12950981  1
  Fe  Fe13  1  0.37536669  0.87533700  0.12817010  1
  Fe  Fe14  1  0.87627148  0.37415886  0.87334670  1
  Fe  Fe15  1  0.00035359  0.49893033  -0.00131129  1
  Fe  Fe16  1  0.62531869  0.37617874  0.37562227  1
  Fe  Fe17  1  0.12590416  0.62598385  0.37910747  1
  Fe  Fe18  1  0.62127636  0.62670741  0.37777235  1
  Fe  Fe19  1  0.87588065  0.87511140  0.87312046  1
  Fe  Fe20  1  0.12530933  0.37556737  0.12713084  1
  Fe  Fe21  1  0.37434510  0.62554472  0.87430906  1
  Fe  Fe22  1  0.49859118  0.50004718  0.74907171  1
  Fe  Fe23  1  0.12489165  0.12546359  0.12787695  1
  Fe  Fe24  1  0.24981363  0.25340604  0.49634895  1
  Fe  Fe25  1  0.37445782  0.37384225  0.87487188  1
  Fe  Fe26  1  0.24752363  0.00006467  0.74949873  1
  Fe  Fe27  1  0.25112527  0.75076058  0.00049698  1
  Fe  Fe28  1  0.87433829  0.62658083  0.87595169  1
  Fe  Fe29  1  0.62429377  0.37389864  0.87439049  1
  Fe  Fe30  1  0.24687907  0.25047155  0.74832794  1
  Fe  Fe31  1  0.62611209  0.62815903  0.12184448  1
  Fe  Fe32  1  0.12244778  0.12399857  0.61860209  1
  Fe  Fe33  1  0.87372890  0.37701230  0.37344396  1
  Fe  Fe34  1  0.62750751  0.12631919  0.12775575  1
  Fe  Fe35  1  0.49872330  0.24888162  0.74830217  1
  Fe  Fe36  1  0.88125619  0.62717555  0.62302770  1
  Fe  Fe37  1  0.74940398  -0.00081514  0.49867594  1
  Fe  Fe38  1  0.00233104  -0.00302367  0.74703832  1
  Fe  Fe39  1  0.37432373  0.12284755  0.62104227  1
  Fe  Fe40  1  0.74857671  0.50208285  0.24872566  1
  Fe  Fe41  1  0.00098941  0.75180497  -0.00119863  1
  Fe  Fe42  1  0.87539131  0.62618792  0.37769453  1
  Fe  Fe43  1  0.62528751  0.37500413  0.62524405  1
  Fe  Fe44  1  0.37625254  0.62308314  0.12699437  1
  Fe  Fe45  1  0.24937122  0.49990678  -0.00009462  1
  Fe  Fe46  1  0.75131404  0.50155472  0.74907746  1
  Fe  Fe47  1  0.12179428  0.37961206  0.62625202  1
  Fe  Fe48  1  0.12700151  0.37555884  0.37254542  1
  Fe  Fe49  1  -0.00063028  0.74840680  0.25160601  1
  Fe  Fe50  1  0.62422840  0.12736011  0.87680021  1
  Fe  Fe51  1  0.87346778  0.62427882  0.12302073  1
  Fe  Fe52  1  0.49742817  0.74987243  0.74727577  1
  Fe  Fe53  1  0.62368177  0.12576016  0.62155627  1
  Fe  Fe54  1  0.50036263  0.50005264  0.00018972  1
  Fe  Fe55  1  0.75039011  0.50192602  0.50133858  1
  Fe  Fe56  1  0.00015002  0.25047812  0.00062535  1
  Fe  Fe57  1  0.50009399  -0.00055743  0.00028865  1
  Fe  Fe58  1  0.12402552  0.12497805  0.87575524  1
  Fe  Fe59  1  0.00000423  0.24983500  0.25169632  1
  Fe  Fe60  1  0.37363576  0.87468407  0.87299276  1
  Fe  Fe61  1  0.87641009  0.12386806  0.87377135  1
  Fe  Fe62  1  0.12606743  0.87316968  0.12816748  1
  Fe  Fe63  1  0.00137397  0.50244670  0.25153937  1
  Fe  Fe64  1  0.37500181  0.12602865  0.87513987  1
  Fe  Fe65  1  0.25275501  0.75145570  0.49926091  1
  Fe  Fe66  1  0.37275280  0.62175497  0.62204718  1
  Fe  Fe67  1  0.62569610  0.62619027  0.87694243  1
  Fe  Fe68  1  0.87412003  0.87352527  0.12799643  1
  Fe  Fe69  1  0.62366276  0.87246260  0.87480951  1
  Fe  Fe70  1  0.49784658  0.25066547  0.49676666  1
  Fe  Fe71  1  0.74976382  -0.00182766  0.00150358  1
  Fe  Fe72  1  0.50293432  0.00102336  0.25489981  1
  Fe  Fe73  1  0.62381400  0.87329822  0.62271999  1
  Fe  Fe74  1  0.62547180  0.37407884  0.12531655  1
  Fe  Fe75  1  0.12523588  0.62384578  0.87229406  1
  Fe  Fe76  1  0.74884446  0.00036913  0.74789208  1
  Fe  Fe77  1  0.75112513  0.24798583  0.74850551  1
  Fe  Fe78  1  0.75261487  0.25149350  0.00210185  1
  Fe  Fe79  1  0.24553213  0.75044196  0.74622130  1
  Fe  Fe80  1  0.75145417  0.25084007  0.49989528  1
  Fe  Fe81  1  0.49813572  0.24992316  0.25338425  1
  Fe  Fe82  1  0.87748615  0.37517831  0.62515606  1
  Fe  Fe83  1  0.24916451  -0.00343398  0.49613820  1
  Fe  Fe84  1  0.50027219  0.00133236  0.74855933  1
  Fe  Fe85  1  0.25425652  0.74675091  0.25336100  1
  Fe  Fe86  1  0.87285725  0.12448385  0.12915024  1
  Fe  Fe87  1  0.87350855  0.12629076  0.37502573  1
  Fe  Fe88  1  0.00069134  -0.00076096  0.25423701  1
  Fe  Fe89  1  0.24970356  -0.00035865  0.00079714  1
  Co  Co90  1  0.24687700  0.50424931  0.25084023  1
  Co  Co91  1  0.12351578  0.62201539  0.62277022  1
  Co  Co92  1  0.12544345  0.37594274  0.87451897  1
  Co  Co93  1  0.25140455  0.49901275  0.74936547  1
  Co  Co94  1  0.74881825  -0.00378806  0.25346781  1
  Co  Co95  1  0.49699271  0.75101207  0.00086000  1
  Co  Co96  1  0.12460228  0.12585211  0.37695658  1
  Co  Co97  1  0.62720819  0.12752617  0.37581386  1
  Co  Co98  1  0.37693275  0.87679677  0.37303430  1
  Co  Co99  1  0.75174873  0.75352584  0.00001775  1
  Co  Co100  1  0.49780387  0.74750505  0.25067806  1
  Co  Co101  1  0.37741619  0.61879033  0.37709945  1
  Co  Co102  1  0.50417054  0.50167243  0.24879667  1
  Co  Co103  1  0.00291595  0.75233284  0.74898749  1
  Co  Co104  1  0.87420337  0.87450004  0.62265971  1
  Co  Co105  1  0.74974829  0.49726868  0.00006332  1
  Co  Co106  1  0.12670891  0.87187461  0.37155289  1
  Co  Co107  1  0.12658336  0.87547473  0.87673568  1
  Co  Co108  1  -0.00051132  -0.00345808  0.49505373  1
  Co  Co109  1  0.12515299  0.87580864  0.62175945  1
  Co  Co110  1  0.37394174  0.87825762  0.62656188  1
  Co  Co111  1  0.87768961  0.37752739  0.12793047  1
  Co  Co112  1  0.74933337  0.74726410  0.50184864  1
  Co  Co113  1  0.75011213  0.25325891  0.25039644  1
  Co  Co114  1  0.49370922  0.75055638  0.50125766  1
  Co  Co115  1  0.74996726  0.74746268  0.25038084  1
  Co  Co116  1  0.37449673  0.38070230  0.37175803  1
  Co  Co117  1  0.00369432  0.75318151  0.50110972  1
  Co  Co118  1  0.50165915  -0.00090526  0.49861363  1
  Co  Co119  1  -0.00159638  0.50127687  0.75115930  1
  Co  Co120  1  0.00275375  0.24874496  0.74827279  1
  Co  Co121  1  0.25172086  0.24807689  0.25217290  1
  Co  Co122  1  0.00057829  0.25335957  0.49764480  1
  Co  Co123  1  0.00043608  0.49841249  0.49701716  1
  Co  Co124  1  0.24809486  0.49784466  0.49906842  1
  Co  Co125  1  0.50097963  0.49838509  0.50143780  1
  Co  Co126  1  0.37389583  0.12334489  0.37729569  1
  Co  Co127  1  0.49818855  0.25000187  0.00308557  1
