# generated using pymatgen
data_Fe45Co19
_symmetry_space_group_name_H-M   'P 1'
_cell_length_a   11.41533461
_cell_length_b   11.41522681
_cell_length_c   11.41470615
_cell_angle_alpha   89.99730334
_cell_angle_beta   90.00168300
_cell_angle_gamma   89.99880116
_symmetry_Int_Tables_number   1
_chemical_formula_structural   Fe45Co19
_chemical_formula_sum   'Fe90 Co38'
_cell_volume   1487.43476060
_cell_formula_units_Z   2
loop_
 _symmetry_equiv_pos_site_id
 _symmetry_equiv_pos_as_xyz
  1  'x, y, z'
loop_
 _atom_site_type_symbol
 _atom_site_label
 _atom_site_symmetry_multiplicity
 _atom_site_fract_x
 _atom_site_fract_y
 _atom_site_fract_z
 _atom_site_occupancy
  Fe  Fe0  1  0.75032635  0.00069116  0.24855388  1
  Fe  Fe1  1  0.62671340  0.12602492  0.37353933  1
  Fe  Fe2  1  -0.00158643  0.24589323  0.25517184  1
  Fe  Fe3  1  0.50076129  0.00099145  0.75154294  1
  Fe  Fe4  1  0.74895562  0.00187746  -0.00233191  1
  Fe  Fe5  1  0.75248132  0.49698950  0.49964650  1
  Fe  Fe6  1  0.62238970  0.37438375  0.37500353  1
  Fe  Fe7  1  0.75289183  0.25314279  0.49756220  1
  Fe  Fe8  1  0.62399153  0.87555440  0.62616615  1
  Fe  Fe9  1  0.00308014  0.24934307  0.74811664  1
  Fe  Fe10  1  0.12577114  0.37180680  0.87255561  1
  Fe  Fe11  1  0.87588636  0.62322355  0.12378101  1
  Fe  Fe12  1  0.12673425  0.62499806  0.37350453  1
  Fe  Fe13  1  0.12818287  0.12440229  0.62485435  1
  Fe  Fe14  1  0.37521537  0.87377617  0.12387519  1
  Fe  Fe15  1  0.87399564  0.12929997  0.12622306  1
  Fe  Fe16  1  0.24903915  0.75155625  0.50019495  1
  Fe  Fe17  1  -0.00214353  0.49688645  -0.00185096  1
  Fe  Fe18  1  0.75010323  0.75098869  0.49957334  1
  Fe  Fe19  1  0.25020650  0.00061007  0.75074588  1
  Fe  Fe20  1  0.37108430  0.12815284  0.37111760  1
  Fe  Fe21  1  0.12343388  0.87844413  0.12777167  1
  Fe  Fe22  1  0.00122194  0.49796123  0.74960538  1
  Fe  Fe23  1  0.37431355  0.37314112  0.12434691  1
  Fe  Fe24  1  0.75181768  0.75270318  0.75364630  1
  Fe  Fe25  1  0.00107549  0.00595322  0.00092071  1
  Fe  Fe26  1  0.75011610  0.49572236  0.75158785  1
  Fe  Fe27  1  0.12024465  0.37259241  0.12493283  1
  Fe  Fe28  1  0.37632654  0.87431295  0.87840104  1
  Fe  Fe29  1  0.37382238  0.62519301  0.87764887  1
  Fe  Fe30  1  0.00112266  0.00414750  0.49848212  1
  Fe  Fe31  1  0.50028049  0.74847600  0.50059197  1
  Fe  Fe32  1  0.12297118  0.62459279  0.87626399  1
  Fe  Fe33  1  0.12162246  0.37254210  0.37941297  1
  Fe  Fe34  1  0.49664511  0.25088309  0.50237920  1
  Fe  Fe35  1  0.75100981  0.75056289  -0.00235993  1
  Fe  Fe36  1  0.00059054  0.74928938  0.24887124  1
  Fe  Fe37  1  0.25213938  0.25239958  0.50285549  1
  Fe  Fe38  1  0.87647463  0.87675593  0.12356272  1
  Fe  Fe39  1  0.24882961  0.75075243  0.75116397  1
  Fe  Fe40  1  0.74961316  -0.00153061  0.75300848  1
  Fe  Fe41  1  0.37515526  0.87609168  0.62551591  1
  Fe  Fe42  1  0.12492315  0.87791489  0.37191791  1
  Fe  Fe43  1  0.62296314  0.87427751  0.37278810  1
  Fe  Fe44  1  0.37386564  0.37362992  0.87442125  1
  Fe  Fe45  1  0.87553240  0.62397756  0.37517110  1
  Fe  Fe46  1  0.50089063  0.49860868  0.75020529  1
  Fe  Fe47  1  0.50015602  0.25172590  0.74915116  1
  Fe  Fe48  1  0.24714307  0.49870124  -0.00002699  1
  Fe  Fe49  1  0.37281435  0.62319044  0.62534198  1
  Fe  Fe50  1  0.87754209  0.87673113  0.62457697  1
  Fe  Fe51  1  0.12182061  0.87910193  0.87412909  1
  Fe  Fe52  1  0.62485734  0.12625946  0.62489576  1
  Fe  Fe53  1  0.24946411  0.49778703  0.25043830  1
  Fe  Fe54  1  0.87684772  0.87703906  0.37517334  1
  Fe  Fe55  1  0.00161104  0.74930461  0.50057320  1
  Fe  Fe56  1  0.50171480  0.00509149  0.00135745  1
  Fe  Fe57  1  0.49887151  0.00159214  0.49843255  1
  Fe  Fe58  1  0.49956900  0.50080739  0.00171676  1
  Fe  Fe59  1  0.49988855  0.74955403  0.75126936  1
  Fe  Fe60  1  0.62422500  0.87509386  0.12329555  1
  Fe  Fe61  1  0.62580153  0.37327527  0.12360990  1
  Fe  Fe62  1  0.74763900  0.25413469  0.75057875  1
  Fe  Fe63  1  0.50072543  0.24896341  0.24670409  1
  Fe  Fe64  1  0.24665445  0.74961069  0.00235903  1
  Fe  Fe65  1  0.37468737  0.12732751  0.87528429  1
  Fe  Fe66  1  0.00017734  0.75196746  0.75017517  1
  Fe  Fe67  1  0.75083547  0.75015326  0.24921234  1
  Fe  Fe68  1  0.24811702  0.00370011  0.00220520  1
  Fe  Fe69  1  0.87495055  0.62349474  0.62665822  1
  Fe  Fe70  1  0.62562832  0.62359096  0.37455162  1
  Fe  Fe71  1  0.87317459  0.12621868  0.62521795  1
  Fe  Fe72  1  -0.00070442  0.49960933  0.25081089  1
  Fe  Fe73  1  0.74957685  0.25193900  -0.00210993  1
  Fe  Fe74  1  0.25158673  0.49731414  0.49938729  1
  Fe  Fe75  1  0.24679563  0.24768409  0.00157162  1
  Fe  Fe76  1  0.62691269  0.62383090  0.62522799  1
  Fe  Fe77  1  0.62574796  0.62424491  0.87727561  1
  Fe  Fe78  1  0.12663830  0.62342472  0.62554687  1
  Fe  Fe79  1  0.49930979  0.74435428  0.24583040  1
  Fe  Fe80  1  0.25163125  -0.00042673  0.49895334  1
  Fe  Fe81  1  0.75242487  0.49544609  0.24983413  1
  Fe  Fe82  1  0.37484273  0.87161653  0.37221019  1
  Fe  Fe83  1  0.49832960  0.50187542  0.24821536  1
  Fe  Fe84  1  0.74815598  -0.00144699  0.49960585  1
  Fe  Fe85  1  0.49854515  0.00350522  0.24804841  1
  Fe  Fe86  1  -0.00005873  0.74951818  0.00036462  1
  Fe  Fe87  1  0.75402762  0.49563167  -0.00115991  1
  Fe  Fe88  1  0.49725793  0.49864724  0.50006392  1
  Fe  Fe89  1  0.87638800  0.12678938  0.87379551  1
  Co  Co90  1  0.62472944  0.37472479  0.62196686  1
  Co  Co91  1  0.12342832  0.62138089  0.12473137  1
  Co  Co92  1  0.75120377  0.25315338  0.25316685  1
  Co  Co93  1  0.12545446  0.12567450  0.13080657  1
  Co  Co94  1  0.62269806  0.87501370  0.87700513  1
  Co  Co95  1  0.63018601  0.62217667  0.12347914  1
  Co  Co96  1  0.12495874  0.37463886  0.62376274  1
  Co  Co97  1  0.37179701  0.12795841  0.12598426  1
  Co  Co98  1  0.25297511  -0.00155337  0.24812661  1
  Co  Co99  1  -0.00034235  0.00310994  0.74814380  1
  Co  Co100  1  0.24729074  0.25507146  0.24783742  1
  Co  Co101  1  0.37625725  0.37268696  0.37250723  1
  Co  Co102  1  0.37305126  0.37750283  0.62929543  1
  Co  Co103  1  0.87842472  0.37044379  0.12523238  1
  Co  Co104  1  0.24812256  0.50106324  0.75263277  1
  Co  Co105  1  0.25028558  0.24871323  0.74864893  1
  Co  Co106  1  0.50151660  0.74641232  0.00281855  1
  Co  Co107  1  0.12551507  0.12406749  0.87271966  1
  Co  Co108  1  0.87792702  0.37141086  0.87288723  1
  Co  Co109  1  0.36942557  0.62342371  0.12333728  1
  Co  Co110  1  0.87972232  0.87814522  0.87666551  1
  Co  Co111  1  0.87812589  0.37479100  0.62444970  1
  Co  Co112  1  0.87049862  0.12253608  0.37554080  1
  Co  Co113  1  0.62436389  0.12757123  0.87406146  1
  Co  Co114  1  0.24826222  0.74974586  0.24663108  1
  Co  Co115  1  0.62878349  0.12764918  0.12514675  1
  Co  Co116  1  -0.00092914  0.24453287  0.49956401  1
  Co  Co117  1  0.37273118  0.62544802  0.37433796  1
  Co  Co118  1  -0.00258091  0.00409593  0.25091877  1
  Co  Co119  1  0.00051070  0.50264329  0.50163875  1
  Co  Co120  1  0.00370159  0.24710992  -0.00175380  1
  Co  Co121  1  0.62220304  0.37508493  0.87793379  1
  Co  Co122  1  0.37534718  0.12373630  0.62620156  1
  Co  Co123  1  0.12480853  0.87815757  0.62569275  1
  Co  Co124  1  0.49902596  0.24849434  0.00143910  1
  Co  Co125  1  0.87613063  0.62362366  0.87455883  1
  Co  Co126  1  0.87979869  0.37617664  0.37707317  1
  Co  Co127  1  0.13118554  0.12542264  0.37379737  1
