# generated using pymatgen
data_Fe45Co19
_symmetry_space_group_name_H-M   'P 1'
_cell_length_a   11.41580508
_cell_length_b   11.41560868
_cell_length_c   11.41492506
_cell_angle_alpha   90.00119161
_cell_angle_beta   89.99703885
_cell_angle_gamma   90.00069215
_symmetry_Int_Tables_number   1
_chemical_formula_structural   Fe45Co19
_chemical_formula_sum   'Fe90 Co38'
_cell_volume   1487.57435210
_cell_formula_units_Z   2
loop_
 _symmetry_equiv_pos_site_id
 _symmetry_equiv_pos_as_xyz
  1  'x, y, z'
loop_
 _atom_site_type_symbol
 _atom_site_label
 _atom_site_symmetry_multiplicity
 _atom_site_fract_x
 _atom_site_fract_y
 _atom_site_fract_z
 _atom_site_occupancy
  Fe  Fe0  1  0.12310623  0.37616666  0.12601198  1
  Fe  Fe1  1  0.24941883  -0.00462033  0.74742445  1
  Fe  Fe2  1  0.49958318  0.24892888  -0.00110907  1
  Fe  Fe3  1  0.75059725  0.25429885  0.00160585  1
  Fe  Fe4  1  0.12079638  0.87402098  0.87301616  1
  Fe  Fe5  1  0.62332153  0.87043303  0.62506141  1
  Fe  Fe6  1  0.75099913  0.00086674  0.25141654  1
  Fe  Fe7  1  -0.00036136  0.00058982  0.49829930  1
  Fe  Fe8  1  0.87591346  0.37598530  0.87395400  1
  Fe  Fe9  1  0.50253050  0.24883487  0.25114017  1
  Fe  Fe10  1  0.25036813  0.49883549  0.00126158  1
  Fe  Fe11  1  0.62776005  0.62452658  0.37638057  1
  Fe  Fe12  1  0.62905737  0.87033212  0.87467338  1
  Fe  Fe13  1  0.87486391  0.12676741  0.12424304  1
  Fe  Fe14  1  0.50135494  0.00064984  0.25083778  1
  Fe  Fe15  1  0.50014873  0.74770371  -0.00167453  1
  Fe  Fe16  1  0.24701571  -0.00358020  0.25177390  1
  Fe  Fe17  1  0.37414686  0.37607720  0.37765663  1
  Fe  Fe18  1  0.62542258  0.87473271  0.37554535  1
  Fe  Fe19  1  0.00144336  0.24773084  -0.00344966  1
  Fe  Fe20  1  0.37752926  0.87622536  0.12431170  1
  Fe  Fe21  1  0.37532777  0.37676369  0.87222186  1
  Fe  Fe22  1  0.24746300  0.25258367  0.25418949  1
  Fe  Fe23  1  0.50126964  0.50478245  0.74941815  1
  Fe  Fe24  1  0.37138213  0.62535439  0.87213508  1
  Fe  Fe25  1  0.87318123  0.62526957  0.37402534  1
  Fe  Fe26  1  0.75021218  0.75053578  0.24775735  1
  Fe  Fe27  1  0.50229628  -0.00107873  0.49974657  1
  Fe  Fe28  1  0.37231503  0.62538897  0.12700546  1
  Fe  Fe29  1  0.24960048  0.49902184  0.50279790  1
  Fe  Fe30  1  0.50223681  0.25065869  0.74876744  1
  Fe  Fe31  1  0.37594597  0.37443138  0.12578556  1
  Fe  Fe32  1  0.62590199  0.62363478  0.12290654  1
  Fe  Fe33  1  0.87867353  0.87254026  0.37347002  1
  Fe  Fe34  1  -0.00017990  0.50272720  0.00112051  1
  Fe  Fe35  1  0.12524835  0.12409145  0.12693341  1
  Fe  Fe36  1  0.37558337  0.87452952  0.37638355  1
  Fe  Fe37  1  0.37563968  0.87483115  0.87347162  1
  Fe  Fe38  1  0.49981310  0.50327426  0.49954981  1
  Fe  Fe39  1  -0.00139643  0.00332566  -0.00312103  1
  Fe  Fe40  1  0.62664856  0.12559753  0.12596663  1
  Fe  Fe41  1  0.75214513  0.74991599  0.50114707  1
  Fe  Fe42  1  0.37385810  0.12381991  0.37652542  1
  Fe  Fe43  1  0.00158600  0.50098616  0.74999956  1
  Fe  Fe44  1  0.12359199  0.37335786  0.62232774  1
  Fe  Fe45  1  0.62473082  0.87462302  0.12401754  1
  Fe  Fe46  1  0.12448036  0.62805019  0.62705740  1
  Fe  Fe47  1  0.75059964  0.49595432  0.24740151  1
  Fe  Fe48  1  0.24775336  -0.00100154  -0.00003153  1
  Fe  Fe49  1  0.00049667  0.50299178  0.49908978  1
  Fe  Fe50  1  0.87492377  0.37621818  0.62350978  1
  Fe  Fe51  1  0.37139497  0.62665728  0.37493130  1
  Fe  Fe52  1  0.49913891  0.50064736  0.24977446  1
  Fe  Fe53  1  0.37334112  0.12391998  0.12574588  1
  Fe  Fe54  1  -0.00195937  0.24854970  0.75021681  1
  Fe  Fe55  1  0.87897032  0.87244884  0.62762615  1
  Fe  Fe56  1  0.87669099  0.87488678  0.12600314  1
  Fe  Fe57  1  0.50178221  0.00146586  -0.00192417  1
  Fe  Fe58  1  0.62658049  0.37515864  0.37606078  1
  Fe  Fe59  1  0.74786562  0.50269148  0.74834668  1
  Fe  Fe60  1  0.49973116  0.74904691  0.25125253  1
  Fe  Fe61  1  0.87631970  0.37516440  0.37577578  1
  Fe  Fe62  1  0.24915853  0.24989986  -0.00114432  1
  Fe  Fe63  1  0.37302722  0.12365513  0.87313709  1
  Fe  Fe64  1  0.24691784  0.75591942  0.50344164  1
  Fe  Fe65  1  0.37521055  0.12356497  0.62427504  1
  Fe  Fe66  1  0.12503446  0.12548992  0.62377806  1
  Fe  Fe67  1  0.25121118  0.25185972  0.74683656  1
  Fe  Fe68  1  0.62338814  0.37903335  0.87689469  1
  Fe  Fe69  1  -0.00369127  0.00392765  0.75389017  1
  Fe  Fe70  1  0.00123566  0.24822507  0.25340241  1
  Fe  Fe71  1  -0.00406648  0.74593369  0.00039382  1
  Fe  Fe72  1  0.87162543  0.12603308  0.37707569  1
  Fe  Fe73  1  0.00227509  0.50365148  0.24960322  1
  Fe  Fe74  1  0.24645443  -0.00439516  0.50113967  1
  Fe  Fe75  1  0.87549585  0.62479036  0.62552786  1
  Fe  Fe76  1  0.50125724  0.24918867  0.50073921  1
  Fe  Fe77  1  0.75269748  0.49812097  0.00317432  1
  Fe  Fe78  1  0.86978102  0.12568897  0.62583519  1
  Fe  Fe79  1  0.24929640  0.75180854  0.00052881  1
  Fe  Fe80  1  0.50247823  -0.00146715  0.75072185  1
  Fe  Fe81  1  0.12716347  0.62528336  0.87363659  1
  Fe  Fe82  1  0.12590332  0.37537140  0.87269924  1
  Fe  Fe83  1  0.63014243  0.12585149  0.87275582  1
  Fe  Fe84  1  0.63014383  0.12336519  0.62402657  1
  Fe  Fe85  1  0.37588109  0.62968175  0.62568612  1
  Fe  Fe86  1  0.12854098  0.62822456  0.37279827  1
  Fe  Fe87  1  0.12025359  0.87313831  0.12787735  1
  Fe  Fe88  1  0.62512495  0.37796305  0.62212234  1
  Fe  Fe89  1  0.75171159  -0.00154584  -0.00194933  1
  Co  Co90  1  -0.00149466  0.74448742  0.24796971  1
  Co  Co91  1  0.25143728  0.75489404  0.24871092  1
  Co  Co92  1  0.87193967  0.62335125  0.12660199  1
  Co  Co93  1  0.62171045  0.37596521  0.12413306  1
  Co  Co94  1  0.49537113  0.50214668  0.00050026  1
  Co  Co95  1  0.24906797  0.49965083  0.74616802  1
  Co  Co96  1  0.12862340  0.12502486  0.87187174  1
  Co  Co97  1  0.62743283  0.12391008  0.37704080  1
  Co  Co98  1  0.62438918  0.62780229  0.62111578  1
  Co  Co99  1  0.12854759  0.62601773  0.12545411  1
  Co  Co100  1  0.74984281  0.25114818  0.25012354  1
  Co  Co101  1  0.75372609  0.74970585  0.00149179  1
  Co  Co102  1  0.75184043  0.50068008  0.50050296  1
  Co  Co103  1  0.24919207  0.49698886  0.24997661  1
  Co  Co104  1  0.50036305  0.74892078  0.49573875  1
  Co  Co105  1  0.25104578  0.25136584  0.49996290  1
  Co  Co106  1  -0.00141261  0.74536350  0.75302568  1
  Co  Co107  1  0.86898240  0.12771870  0.87450518  1
  Co  Co108  1  0.24834008  0.75472155  0.74774704  1
  Co  Co109  1  0.38039078  0.87355381  0.62515036  1
  Co  Co110  1  0.88097359  0.37356672  0.12644300  1
  Co  Co111  1  0.75169316  -0.00529375  0.50038237  1
  Co  Co112  1  0.37776909  0.37658961  0.62472934  1
  Co  Co113  1  0.87246835  0.62233629  0.87428431  1
  Co  Co114  1  -0.00136201  0.00320371  0.25206220  1
  Co  Co115  1  0.11933036  0.87247452  0.37290154  1
  Co  Co116  1  0.12613922  0.12438228  0.37813550  1
  Co  Co117  1  0.00014257  0.74689646  0.49926273  1
  Co  Co118  1  0.75097880  -0.00479931  0.74964269  1
  Co  Co119  1  0.11611137  0.87595145  0.62775356  1
  Co  Co120  1  0.50206412  0.74687836  0.75353242  1
  Co  Co121  1  0.75014045  0.25216786  0.50010693  1
  Co  Co122  1  -0.00236954  0.24856760  0.50094375  1
  Co  Co123  1  0.74877151  0.25512544  0.74877891  1
  Co  Co124  1  0.62880697  0.62433418  0.87989817  1
  Co  Co125  1  0.87553567  0.87303486  0.87399906  1
  Co  Co126  1  0.75097192  0.74678945  0.74771126  1
  Co  Co127  1  0.12264575  0.37679244  0.37897173  1
