# generated using pymatgen
data_Fe45Co19
_symmetry_space_group_name_H-M   'P 1'
_cell_length_a   11.41591853
_cell_length_b   11.41350237
_cell_length_c   11.41748996
_cell_angle_alpha   90.00233037
_cell_angle_beta   89.99920217
_cell_angle_gamma   89.98901043
_symmetry_Int_Tables_number   1
_chemical_formula_structural   Fe45Co19
_chemical_formula_sum   'Fe90 Co38'
_cell_volume   1487.64882849
_cell_formula_units_Z   2
loop_
 _symmetry_equiv_pos_site_id
 _symmetry_equiv_pos_as_xyz
  1  'x, y, z'
loop_
 _atom_site_type_symbol
 _atom_site_label
 _atom_site_symmetry_multiplicity
 _atom_site_fract_x
 _atom_site_fract_y
 _atom_site_fract_z
 _atom_site_occupancy
  Fe  Fe0  1  0.75061361  0.24942916  0.49984231  1
  Fe  Fe1  1  0.37816720  0.11929297  0.62486868  1
  Fe  Fe2  1  0.24790016  0.00116418  0.49989535  1
  Fe  Fe3  1  0.24922560  0.75458214  0.00297925  1
  Fe  Fe4  1  -0.00471971  0.25246356  0.24661390  1
  Fe  Fe5  1  0.50094040  -0.00040075  -0.00146447  1
  Fe  Fe6  1  0.87432565  0.62707241  0.87422614  1
  Fe  Fe7  1  0.75081418  0.49921148  0.75188560  1
  Fe  Fe8  1  0.12471538  0.62577624  0.12584438  1
  Fe  Fe9  1  0.87549889  0.62272893  0.12475444  1
  Fe  Fe10  1  0.62456519  0.37293633  0.37450028  1
  Fe  Fe11  1  0.87627297  0.87620031  0.37821352  1
  Fe  Fe12  1  0.37371139  0.12341039  0.12414834  1
  Fe  Fe13  1  0.12505486  0.87672865  0.62699666  1
  Fe  Fe14  1  0.12374856  0.12951249  0.37548498  1
  Fe  Fe15  1  0.37560232  0.62797721  0.87510687  1
  Fe  Fe16  1  -0.00368570  0.75352381  0.74936819  1
  Fe  Fe17  1  0.25299207  0.75334039  0.74646286  1
  Fe  Fe18  1  0.37597365  0.62635668  0.12600444  1
  Fe  Fe19  1  0.49785104  -0.00104705  0.25342103  1
  Fe  Fe20  1  0.49711966  0.49947015  0.25248692  1
  Fe  Fe21  1  0.62400264  0.87502350  0.12885789  1
  Fe  Fe22  1  0.37300901  0.12787530  0.37527135  1
  Fe  Fe23  1  0.87677878  0.12423658  0.62111681  1
  Fe  Fe24  1  0.62329969  0.62508093  0.37488015  1
  Fe  Fe25  1  0.74879713  0.49931967  0.49974703  1
  Fe  Fe26  1  0.12525609  0.87309905  0.37436091  1
  Fe  Fe27  1  0.00135058  -0.00142155  -0.00236538  1
  Fe  Fe28  1  0.37554084  0.62410551  0.62114732  1
  Fe  Fe29  1  0.25226796  0.24763618  0.74811271  1
  Fe  Fe30  1  0.37405753  0.12219755  0.87490413  1
  Fe  Fe31  1  0.50259572  0.74923219  0.00150915  1
  Fe  Fe32  1  0.62343026  0.88006900  0.62198575  1
  Fe  Fe33  1  0.62411352  0.37642992  0.12588546  1
  Fe  Fe34  1  0.49881956  0.49947485  0.74966388  1
  Fe  Fe35  1  0.87262641  0.12751547  0.87870884  1
  Fe  Fe36  1  0.75167230  0.75192967  0.74683864  1
  Fe  Fe37  1  0.00006278  0.75307900  -0.00099388  1
  Fe  Fe38  1  0.49814512  0.75367605  0.74630685  1
  Fe  Fe39  1  0.87574512  0.87658992  0.12474900  1
  Fe  Fe40  1  0.74898280  0.00403507  0.75030387  1
  Fe  Fe41  1  0.75539499  0.24863556  0.24754188  1
  Fe  Fe42  1  0.12180331  0.62079548  0.62797679  1
  Fe  Fe43  1  0.74819289  0.00123615  0.00109970  1
  Fe  Fe44  1  0.62406775  0.12425035  0.12841355  1
  Fe  Fe45  1  0.25013216  -0.00284732  0.24976654  1
  Fe  Fe46  1  0.50177275  0.24601554  0.74991182  1
  Fe  Fe47  1  0.62418557  0.62358259  0.62687442  1
  Fe  Fe48  1  0.00038175  0.75095169  0.50255426  1
  Fe  Fe49  1  0.75365225  0.00319491  0.25234790  1
  Fe  Fe50  1  -0.00280493  -0.00122245  0.75128382  1
  Fe  Fe51  1  0.12574489  0.62776240  0.87266313  1
  Fe  Fe52  1  -0.00283745  0.25311469  0.74947199  1
  Fe  Fe53  1  0.37326691  0.86974691  0.37874272  1
  Fe  Fe54  1  0.74743842  0.74775350  0.00192173  1
  Fe  Fe55  1  0.75103080  0.74906503  0.25083131  1
  Fe  Fe56  1  0.75034894  0.74878827  0.50095139  1
  Fe  Fe57  1  0.25165491  0.49840223  0.25062648  1
  Fe  Fe58  1  0.12466953  0.12547386  0.12499006  1
  Fe  Fe59  1  0.12338451  0.12583077  0.62499557  1
  Fe  Fe60  1  -0.00099179  0.74976896  0.24946738  1
  Fe  Fe61  1  0.12619374  0.37420369  0.12400313  1
  Fe  Fe62  1  0.62613234  0.37106104  0.87377019  1
  Fe  Fe63  1  0.12791857  0.37254557  0.87414292  1
  Fe  Fe64  1  0.74597086  0.50259858  -0.00138230  1
  Fe  Fe65  1  -0.00126427  0.00186120  0.25208816  1
  Fe  Fe66  1  0.87152287  0.37135885  0.87784478  1
  Fe  Fe67  1  0.24632674  0.49677726  0.49886675  1
  Fe  Fe68  1  0.25175806  0.49979473  0.75111520  1
  Fe  Fe69  1  0.25076990  0.49960848  -0.00069723  1
  Fe  Fe70  1  0.00087393  0.25738248  0.50129348  1
  Fe  Fe71  1  0.24805599  -0.00305927  -0.00006477  1
  Fe  Fe72  1  0.50211103  0.50235071  -0.00174516  1
  Fe  Fe73  1  0.12369571  0.62427260  0.37414024  1
  Fe  Fe74  1  0.37450505  0.62722463  0.37869098  1
  Fe  Fe75  1  0.75171428  0.49997922  0.25005834  1
  Fe  Fe76  1  0.87857869  0.62110347  0.37686482  1
  Fe  Fe77  1  0.87794986  0.62007733  0.62459355  1
  Fe  Fe78  1  0.49988669  0.24843315  0.00101498  1
  Fe  Fe79  1  0.50023268  0.24767218  0.49918476  1
  Fe  Fe80  1  0.37514956  0.37328155  0.87629786  1
  Fe  Fe81  1  0.12575777  0.12608721  0.87379184  1
  Fe  Fe82  1  0.00157089  0.49946314  -0.00224850  1
  Fe  Fe83  1  0.25340741  0.25282978  0.24782805  1
  Fe  Fe84  1  0.37488879  0.37462509  0.62232491  1
  Fe  Fe85  1  0.62580826  0.37325991  0.62602965  1
  Fe  Fe86  1  0.62611545  0.87367886  0.87449014  1
  Fe  Fe87  1  0.62486323  0.87410442  0.37506772  1
  Fe  Fe88  1  0.49678157  0.25141206  0.24887208  1
  Fe  Fe89  1  0.74851412  0.00428778  0.49628582  1
  Co  Co90  1  0.12617682  0.37121733  0.37117279  1
  Co  Co91  1  0.87903080  0.12684771  0.37924072  1
  Co  Co92  1  0.24960521  0.75022796  0.24842522  1
  Co  Co93  1  0.49989439  0.00169869  0.49254744  1
  Co  Co94  1  0.37584507  0.37654588  0.12142653  1
  Co  Co95  1  0.62704753  0.12764158  0.87706226  1
  Co  Co96  1  0.75076215  0.24553589  0.74644522  1
  Co  Co97  1  0.50002481  0.74923149  0.25211625  1
  Co  Co98  1  0.87406328  0.37936035  0.12117470  1
  Co  Co99  1  0.62244662  0.12262813  0.62264903  1
  Co  Co100  1  -0.00114550  0.49613357  0.75493403  1
  Co  Co101  1  0.37681330  0.88020207  0.62118493  1
  Co  Co102  1  0.00427349  -0.00166124  0.49911620  1
  Co  Co103  1  0.25099251  0.24833128  0.00002558  1
  Co  Co104  1  0.62410990  0.62369300  0.12953515  1
  Co  Co105  1  0.37493900  0.37420382  0.37931972  1
  Co  Co106  1  0.87278576  0.87956075  0.62185084  1
  Co  Co107  1  0.12188500  0.87643936  0.12744338  1
  Co  Co108  1  0.25003604  0.24865236  0.50330485  1
  Co  Co109  1  0.87245967  0.37752944  0.62507733  1
  Co  Co110  1  0.87655922  0.12206024  0.12149187  1
  Co  Co111  1  0.87432751  0.37708334  0.37488282  1
  Co  Co112  1  0.37739815  0.87466718  0.12543643  1
  Co  Co113  1  0.62476168  0.12881198  0.37109966  1
  Co  Co114  1  0.24945502  -0.00035667  0.74898215  1
  Co  Co115  1  0.24566866  0.74933673  0.50359224  1
  Co  Co116  1  0.62379567  0.62736452  0.86904647  1
  Co  Co117  1  0.50314664  -0.00043062  0.75421171  1
  Co  Co118  1  0.00407569  0.49451625  0.49975827  1
  Co  Co119  1  0.37476505  0.87480697  0.87552585  1
  Co  Co120  1  0.12615279  0.87317829  0.87155321  1
  Co  Co121  1  0.00103706  0.25051725  0.00087368  1
  Co  Co122  1  0.50276566  0.74949503  0.50180661  1
  Co  Co123  1  0.50253879  0.49948204  0.50010016  1
  Co  Co124  1  0.87100035  0.87519242  0.87621195  1
  Co  Co125  1  0.12765409  0.37605289  0.62941689  1
  Co  Co126  1  0.74804426  0.24891173  0.00596679  1
  Co  Co127  1  0.00128873  0.49780269  0.24840606  1
