# generated using pymatgen
data_Fe45Co19
_symmetry_space_group_name_H-M   'P 1'
_cell_length_a   11.41566487
_cell_length_b   11.41496252
_cell_length_c   11.41508719
_cell_angle_alpha   90.00668114
_cell_angle_beta   90.00130582
_cell_angle_gamma   90.00658329
_symmetry_Int_Tables_number   1
_chemical_formula_structural   Fe45Co19
_chemical_formula_sum   'Fe90 Co38'
_cell_volume   1487.49298927
_cell_formula_units_Z   2
loop_
 _symmetry_equiv_pos_site_id
 _symmetry_equiv_pos_as_xyz
  1  'x, y, z'
loop_
 _atom_site_type_symbol
 _atom_site_label
 _atom_site_symmetry_multiplicity
 _atom_site_fract_x
 _atom_site_fract_y
 _atom_site_fract_z
 _atom_site_occupancy
  Fe  Fe0  1  0.37500018  0.12605971  0.62439342  1
  Fe  Fe1  1  0.12804871  0.87878190  0.12954491  1
  Fe  Fe2  1  0.75345629  0.75365415  0.74888479  1
  Fe  Fe3  1  0.12542986  0.37535196  0.37257769  1
  Fe  Fe4  1  0.74679773  0.24688163  0.49582878  1
  Fe  Fe5  1  0.00100375  0.24970711  0.00053835  1
  Fe  Fe6  1  0.87756925  0.62576454  0.87731191  1
  Fe  Fe7  1  -0.00288397  0.50048805  0.24995046  1
  Fe  Fe8  1  0.87490190  0.37363962  0.37565553  1
  Fe  Fe9  1  0.87371305  0.87200696  0.12581748  1
  Fe  Fe10  1  0.62630804  0.37937204  0.12917551  1
  Fe  Fe11  1  0.37401696  0.37258593  0.12481309  1
  Fe  Fe12  1  0.75033111  0.24832735  0.75167911  1
  Fe  Fe13  1  0.12343490  0.62369593  0.12517489  1
  Fe  Fe14  1  0.50017229  -0.00016928  0.74516027  1
  Fe  Fe15  1  0.62695819  0.37481300  0.62552874  1
  Fe  Fe16  1  0.12402772  0.87742093  0.62713683  1
  Fe  Fe17  1  0.86949568  0.12146466  0.88162493  1
  Fe  Fe18  1  0.87396704  0.37313416  0.12579134  1
  Fe  Fe19  1  -0.00161273  -0.00075939  0.49804227  1
  Fe  Fe20  1  0.62714820  0.87702795  0.87129030  1
  Fe  Fe21  1  0.12506688  0.12277446  0.87509902  1
  Fe  Fe22  1  0.75029669  0.49888175  0.50034145  1
  Fe  Fe23  1  0.25202210  -0.00133880  0.50047233  1
  Fe  Fe24  1  0.12552628  0.62432915  0.62359150  1
  Fe  Fe25  1  0.50038818  -0.00187575  0.00053187  1
  Fe  Fe26  1  0.50305935  0.25045870  -0.00055650  1
  Fe  Fe27  1  0.87536843  0.62738066  0.12364517  1
  Fe  Fe28  1  0.25102018  0.50083926  0.00155136  1
  Fe  Fe29  1  0.24989678  0.75148991  0.00148222  1
  Fe  Fe30  1  0.12267367  0.37663799  0.87171957  1
  Fe  Fe31  1  0.12402128  0.87579009  0.87408630  1
  Fe  Fe32  1  0.74947198  0.24694567  0.25279393  1
  Fe  Fe33  1  0.00122882  0.75062317  0.25030099  1
  Fe  Fe34  1  0.25660628  0.50311021  0.25328325  1
  Fe  Fe35  1  0.87512804  0.62651491  0.62308019  1
  Fe  Fe36  1  -0.00227852  0.75135894  0.74971980  1
  Fe  Fe37  1  0.37433167  0.62716065  0.61813522  1
  Fe  Fe38  1  0.12297364  0.62498672  0.87714429  1
  Fe  Fe39  1  -0.00122644  -0.00117999  0.00437266  1
  Fe  Fe40  1  0.74739739  0.75072520  -0.00072491  1
  Fe  Fe41  1  0.24972494  0.75115074  0.74810768  1
  Fe  Fe42  1  0.50185263  0.25265101  0.25202111  1
  Fe  Fe43  1  0.75268737  0.00178908  0.24925757  1
  Fe  Fe44  1  0.37565816  0.12608720  0.12399536  1
  Fe  Fe45  1  0.62594723  0.62457638  0.62538156  1
  Fe  Fe46  1  0.74653295  0.74993923  0.49859447  1
  Fe  Fe47  1  0.24971269  0.24677168  0.25013572  1
  Fe  Fe48  1  0.24956288  0.24900697  0.75109916  1
  Fe  Fe49  1  -0.00098988  0.24521201  0.24922567  1
  Fe  Fe50  1  0.50040214  0.50145290  0.00175714  1
  Fe  Fe51  1  0.12608721  0.37562949  0.12681355  1
  Fe  Fe52  1  0.87676530  0.62577399  0.37669990  1
  Fe  Fe53  1  0.87689184  0.37673060  0.87278505  1
  Fe  Fe54  1  0.62195399  0.87183278  0.12607647  1
  Fe  Fe55  1  0.37411023  0.86897461  0.37723773  1
  Fe  Fe56  1  0.24493019  0.25039496  0.50030726  1
  Fe  Fe57  1  0.12608124  0.62496836  0.37499617  1
  Fe  Fe58  1  0.50509022  0.25026886  0.49797584  1
  Fe  Fe59  1  -0.00536786  0.00046391  0.75061079  1
  Fe  Fe60  1  0.62582536  0.12483010  0.12520586  1
  Fe  Fe61  1  0.00224406  0.49698094  0.50151974  1
  Fe  Fe62  1  0.87719166  0.37250321  0.62596315  1
  Fe  Fe63  1  0.74695042  0.74759972  0.25245254  1
  Fe  Fe64  1  0.12586855  0.87753072  0.37119213  1
  Fe  Fe65  1  0.25254651  -0.00010122  0.00166166  1
  Fe  Fe66  1  0.62557425  0.88096159  0.37866965  1
  Fe  Fe67  1  0.62178013  0.61805409  0.37272410  1
  Fe  Fe68  1  0.50055602  0.24967000  0.74997990  1
  Fe  Fe69  1  0.49585706  -0.00214460  0.25074150  1
  Fe  Fe70  1  0.37606234  0.12421552  0.87453273  1
  Fe  Fe71  1  0.62355911  0.37789299  0.87301148  1
  Fe  Fe72  1  0.12315878  0.12136011  0.37227170  1
  Fe  Fe73  1  0.49975132  0.75106014  0.74757227  1
  Fe  Fe74  1  0.37333005  0.37420177  0.62145814  1
  Fe  Fe75  1  0.37709651  0.12744444  0.37645199  1
  Fe  Fe76  1  0.87504993  0.12667816  0.62143547  1
  Fe  Fe77  1  0.37590499  0.37598194  0.87523694  1
  Fe  Fe78  1  0.37516454  0.62541322  0.87479529  1
  Fe  Fe79  1  0.12296893  0.12476198  0.62608428  1
  Fe  Fe80  1  0.62534993  0.62432103  0.87327182  1
  Fe  Fe81  1  0.24837172  0.24897702  -0.00138447  1
  Fe  Fe82  1  0.24987048  0.49995645  0.74769508  1
  Fe  Fe83  1  0.38114982  0.63207522  0.12676090  1
  Fe  Fe84  1  0.00275508  0.75183113  0.49910903  1
  Fe  Fe85  1  0.62769238  0.12228202  0.87485825  1
  Fe  Fe86  1  0.37428832  0.87598614  0.87282038  1
  Fe  Fe87  1  0.87394512  0.87540150  0.37637123  1
  Fe  Fe88  1  0.75061550  0.50038081  0.00070461  1
  Fe  Fe89  1  0.49914467  0.50050767  0.74591636  1
  Co  Co90  1  0.25713403  0.00083883  0.25173108  1
  Co  Co91  1  0.75511295  0.50303616  0.24969576  1
  Co  Co92  1  0.50180143  0.75215313  -0.00498264  1
  Co  Co93  1  0.62555646  0.12438339  0.62565183  1
  Co  Co94  1  0.75052398  0.00404966  0.50093532  1
  Co  Co95  1  0.75409385  -0.00104693  0.74594106  1
  Co  Co96  1  0.00302258  0.25071150  0.49751066  1
  Co  Co97  1  0.12216033  0.37254296  0.62975422  1
  Co  Co98  1  0.49987648  0.49782660  0.49897627  1
  Co  Co99  1  0.62257425  0.11999011  0.37306680  1
  Co  Co100  1  0.24800706  0.49792211  0.49819627  1
  Co  Co101  1  0.24475635  0.75337651  0.50110284  1
  Co  Co102  1  -0.00078567  0.49738739  0.00163282  1
  Co  Co103  1  0.37569058  0.63082591  0.38022814  1
  Co  Co104  1  0.50462341  0.75159381  0.25569577  1
  Co  Co105  1  -0.00062071  0.50393661  0.74781598  1
  Co  Co106  1  0.49273014  0.49843114  0.25228761  1
  Co  Co107  1  0.37636045  0.87101896  0.12527307  1
  Co  Co108  1  0.37359833  0.37064495  0.37821230  1
  Co  Co109  1  0.87097752  0.12698535  0.12083278  1
  Co  Co110  1  0.49625536  -0.00007523  0.50195198  1
  Co  Co111  1  -0.00324789  0.24430226  0.75343294  1
  Co  Co112  1  0.74663862  0.25484442  -0.00131621  1
  Co  Co113  1  0.75192136  0.50033017  0.74925768  1
  Co  Co114  1  0.12651350  0.12230348  0.12645499  1
  Co  Co115  1  0.37520466  0.87230683  0.62387205  1
  Co  Co116  1  0.62281065  0.62466808  0.12686449  1
  Co  Co117  1  0.62744505  0.37920983  0.37207106  1
  Co  Co118  1  0.87636307  0.12410971  0.37655906  1
  Co  Co119  1  0.87508187  0.87645901  0.87845182  1
  Co  Co120  1  0.25050816  0.00091426  0.74786560  1
  Co  Co121  1  0.00259526  0.75346041  0.00285149  1
  Co  Co122  1  0.50633064  0.75113125  0.49975714  1
  Co  Co123  1  0.62731637  0.87668860  0.62352625  1
  Co  Co124  1  0.74644994  -0.00493313  0.00461620  1
  Co  Co125  1  0.24827087  0.74795231  0.24902284  1
  Co  Co126  1  -0.00575200  0.00121357  0.24773628  1
  Co  Co127  1  0.87458686  0.87335567  0.61931421  1
