# generated using pymatgen
data_Fe45Co19
_symmetry_space_group_name_H-M   'P 1'
_cell_length_a   11.41554451
_cell_length_b   11.41562234
_cell_length_c   11.41405268
_cell_angle_alpha   89.99769209
_cell_angle_beta   90.00027359
_cell_angle_gamma   89.99643119
_symmetry_Int_Tables_number   1
_chemical_formula_structural   Fe45Co19
_chemical_formula_sum   'Fe90 Co38'
_cell_volume   1487.42849009
_cell_formula_units_Z   2
loop_
 _symmetry_equiv_pos_site_id
 _symmetry_equiv_pos_as_xyz
  1  'x, y, z'
loop_
 _atom_site_type_symbol
 _atom_site_label
 _atom_site_symmetry_multiplicity
 _atom_site_fract_x
 _atom_site_fract_y
 _atom_site_fract_z
 _atom_site_occupancy
  Fe  Fe0  1  0.75049257  0.24823121  0.24892311  1
  Fe  Fe1  1  0.50400853  0.50052189  0.49846958  1
  Fe  Fe2  1  -0.00221289  0.24897263  0.24642244  1
  Fe  Fe3  1  0.87532193  0.37533251  0.37351788  1
  Fe  Fe4  1  0.37919591  0.12285960  0.88017019  1
  Fe  Fe5  1  0.25172925  0.25012821  0.50057409  1
  Fe  Fe6  1  0.00179238  0.50310915  0.74924384  1
  Fe  Fe7  1  0.62804038  0.87355163  0.12552152  1
  Fe  Fe8  1  0.37670063  0.12196073  0.12061235  1
  Fe  Fe9  1  0.74861142  0.00184906  0.25015266  1
  Fe  Fe10  1  0.62578265  0.87406067  0.62740780  1
  Fe  Fe11  1  0.37742240  0.62399313  0.37441474  1
  Fe  Fe12  1  0.75149385  0.25266450  -0.00189559  1
  Fe  Fe13  1  0.75537771  0.74641398  0.24721516  1
  Fe  Fe14  1  0.24887294  0.00141598  0.24904374  1
  Fe  Fe15  1  0.49865130  0.75103457  0.00090504  1
  Fe  Fe16  1  0.00207097  0.49871105  0.00077263  1
  Fe  Fe17  1  0.62597024  0.37586208  0.12928282  1
  Fe  Fe18  1  0.87763278  0.12317129  0.87502771  1
  Fe  Fe19  1  0.74929863  0.50154790  0.75274281  1
  Fe  Fe20  1  0.25059171  0.74524239  0.75250521  1
  Fe  Fe21  1  0.87164702  0.37991579  0.12657321  1
  Fe  Fe22  1  0.75307096  0.75118448  0.49906245  1
  Fe  Fe23  1  0.37118975  0.87664053  0.12188295  1
  Fe  Fe24  1  0.74419725  -0.00164966  -0.00604177  1
  Fe  Fe25  1  0.49971778  0.49951759  0.00117353  1
  Fe  Fe26  1  0.37505749  0.37861373  0.62653140  1
  Fe  Fe27  1  0.62621275  0.62639949  0.62375840  1
  Fe  Fe28  1  0.37707238  0.12281493  0.37596878  1
  Fe  Fe29  1  0.37715071  0.87711717  0.37442750  1
  Fe  Fe30  1  0.12461090  0.37342380  0.37326423  1
  Fe  Fe31  1  0.74862983  0.50147790  0.49414331  1
  Fe  Fe32  1  0.62442400  0.87218046  0.37351546  1
  Fe  Fe33  1  0.25184019  0.24808691  0.24977952  1
  Fe  Fe34  1  0.62761981  0.12581322  0.62945142  1
  Fe  Fe35  1  0.50106421  -0.00037612  0.24718855  1
  Fe  Fe36  1  0.62263711  0.12635800  0.37493465  1
  Fe  Fe37  1  0.12399893  0.12502824  0.62601331  1
  Fe  Fe38  1  0.12653404  0.37555715  0.62706347  1
  Fe  Fe39  1  0.24627075  0.00204498  0.75673759  1
  Fe  Fe40  1  0.87688260  0.37644300  0.87460477  1
  Fe  Fe41  1  0.62946152  0.62272234  0.12370651  1
  Fe  Fe42  1  0.12709316  0.37483463  0.12547579  1
  Fe  Fe43  1  0.87342063  0.87903786  0.62957126  1
  Fe  Fe44  1  0.11917966  0.62973682  0.38028290  1
  Fe  Fe45  1  0.37711116  0.37808952  0.87172561  1
  Fe  Fe46  1  0.24852288  -0.00287055  0.49888956  1
  Fe  Fe47  1  0.87576767  0.87303076  0.87654767  1
  Fe  Fe48  1  0.87293178  0.37685904  0.62522873  1
  Fe  Fe49  1  0.75082922  0.24906069  0.50073864  1
  Fe  Fe50  1  0.12315867  0.12556997  0.37452044  1
  Fe  Fe51  1  0.37414380  0.87737404  0.62784766  1
  Fe  Fe52  1  0.37378548  0.62261478  0.62491048  1
  Fe  Fe53  1  0.37340032  0.38111504  0.13050381  1
  Fe  Fe54  1  0.49883726  0.24912073  0.50235490  1
  Fe  Fe55  1  0.87731542  0.12345333  0.37498414  1
  Fe  Fe56  1  0.87608349  0.62564039  0.88121165  1
  Fe  Fe57  1  0.62141663  0.37091536  0.87068127  1
  Fe  Fe58  1  0.49722343  0.74845689  0.75077031  1
  Fe  Fe59  1  0.12317391  0.87238133  0.37245798  1
  Fe  Fe60  1  0.00601911  -0.00504531  0.00006771  1
  Fe  Fe61  1  0.37701218  0.37677369  0.37220240  1
  Fe  Fe62  1  0.12471823  0.12634699  0.12293751  1
  Fe  Fe63  1  0.12768931  0.87224657  0.62784431  1
  Fe  Fe64  1  0.50452229  -0.00048128  0.75484236  1
  Fe  Fe65  1  0.74904160  -0.00067756  0.50057639  1
  Fe  Fe66  1  0.37492687  0.12076534  0.62493478  1
  Fe  Fe67  1  0.00069447  -0.00269355  0.50149992  1
  Fe  Fe68  1  0.49749501  0.75194455  0.50180141  1
  Fe  Fe69  1  0.24661513  0.50439308  0.75302315  1
  Fe  Fe70  1  0.00058377  0.74752358  0.74920921  1
  Fe  Fe71  1  0.49790620  0.74773474  0.24573408  1
  Fe  Fe72  1  0.62252736  0.12733284  0.12050225  1
  Fe  Fe73  1  0.87646143  0.62315020  0.62121843  1
  Fe  Fe74  1  0.25216000  0.25170305  -0.00028050  1
  Fe  Fe75  1  0.00046177  0.50314727  0.24900009  1
  Fe  Fe76  1  -0.00472573  0.75006562  0.24069582  1
  Fe  Fe77  1  0.25278303  0.24765040  0.75152741  1
  Fe  Fe78  1  0.75208546  0.74785425  0.75095323  1
  Fe  Fe79  1  0.25096233  0.75003080  -0.00428177  1
  Fe  Fe80  1  0.87606509  0.87604144  0.37101892  1
  Fe  Fe81  1  -0.00052281  0.25086405  0.50249767  1
  Fe  Fe82  1  0.87528599  0.12100713  0.12210779  1
  Fe  Fe83  1  0.12384592  0.37208735  0.87477042  1
  Fe  Fe84  1  -0.00288397  0.24873176  0.74817983  1
  Fe  Fe85  1  0.62407967  0.62705878  0.87657458  1
  Fe  Fe86  1  0.24692229  0.50181860  0.49759955  1
  Fe  Fe87  1  0.25141537  0.74690485  0.25195127  1
  Fe  Fe88  1  0.12904208  0.62489084  0.12074163  1
  Fe  Fe89  1  0.62586565  0.37396852  0.62766496  1
  Co  Co90  1  0.62148556  0.13237934  0.87650726  1
  Co  Co91  1  0.37430857  0.87646713  0.87533895  1
  Co  Co92  1  0.87023061  0.61776038  0.11894430  1
  Co  Co93  1  0.00094439  0.49606802  0.50067861  1
  Co  Co94  1  0.37738369  0.62331716  0.87661855  1
  Co  Co95  1  0.24588921  0.50470478  0.25431341  1
  Co  Co96  1  0.88045931  0.62660690  0.37745310  1
  Co  Co97  1  0.87080436  0.88139084  0.12192863  1
  Co  Co98  1  -0.00378726  0.75697494  0.50413852  1
  Co  Co99  1  0.12177107  0.62638733  0.87950932  1
  Co  Co100  1  0.75109919  0.75122930  0.00160636  1
  Co  Co101  1  0.74710003  0.00036462  0.75548716  1
  Co  Co102  1  0.12464426  0.62714881  0.62023723  1
  Co  Co103  1  -0.00366080  0.25266008  0.00286636  1
  Co  Co104  1  0.74599321  0.49503553  -0.00587997  1
  Co  Co105  1  0.62423105  0.63238590  0.37485268  1
  Co  Co106  1  0.12138514  0.13071662  0.87708952  1
  Co  Co107  1  0.62333531  0.37068423  0.37300494  1
  Co  Co108  1  0.25019286  0.49678992  -0.00400497  1
  Co  Co109  1  0.50300109  0.50335584  0.74942687  1
  Co  Co110  1  0.74886766  0.50353668  0.25692915  1
  Co  Co111  1  0.50323577  -0.00114633  0.50156681  1
  Co  Co112  1  0.50540615  -0.00598058  -0.00133087  1
  Co  Co113  1  -0.00135900  0.75263685  0.00631027  1
  Co  Co114  1  0.12425574  0.86961851  0.87287034  1
  Co  Co115  1  0.37071740  0.62277790  0.12282832  1
  Co  Co116  1  0.00278153  -0.00093249  0.75132445  1
  Co  Co117  1  0.75458004  0.24995698  0.75293296  1
  Co  Co118  1  0.62577632  0.86759131  0.87277729  1
  Co  Co119  1  0.24430327  0.00039557  -0.00314298  1
  Co  Co120  1  0.13122826  0.87255163  0.12627134  1
  Co  Co121  1  0.25461078  0.75139579  0.49911875  1
  Co  Co122  1  0.00198811  -0.00136339  0.24674741  1
  Co  Co123  1  0.49780805  0.24794121  0.24858667  1
  Co  Co124  1  0.49521952  0.24815229  0.74675575  1
  Co  Co125  1  0.50351091  0.50446955  0.24977969  1
  Co  Co126  1  0.49681668  0.25653627  0.00287813  1
  Co  Co127  1  0.87485703  0.12192729  0.62609315  1
