# generated using pymatgen
data_Fe45Co19
_symmetry_space_group_name_H-M   'P 1'
_cell_length_a   11.41620132
_cell_length_b   11.41622429
_cell_length_c   11.41662855
_cell_angle_alpha   90.00233230
_cell_angle_beta   89.99903857
_cell_angle_gamma   90.00085348
_symmetry_Int_Tables_number   1
_chemical_formula_structural   Fe45Co19
_chemical_formula_sum   'Fe90 Co38'
_cell_volume   1487.92822425
_cell_formula_units_Z   2
loop_
 _symmetry_equiv_pos_site_id
 _symmetry_equiv_pos_as_xyz
  1  'x, y, z'
loop_
 _atom_site_type_symbol
 _atom_site_label
 _atom_site_symmetry_multiplicity
 _atom_site_fract_x
 _atom_site_fract_y
 _atom_site_fract_z
 _atom_site_occupancy
  Fe  Fe0  1  0.25314625  0.25424739  0.00093105  1
  Fe  Fe1  1  -0.00127590  0.74718277  0.50281935  1
  Fe  Fe2  1  0.62221653  0.12357279  0.62655309  1
  Fe  Fe3  1  0.37713693  0.62447001  0.37526336  1
  Fe  Fe4  1  0.62160540  0.87761275  0.62698768  1
  Fe  Fe5  1  0.00102442  0.00275183  0.49967553  1
  Fe  Fe6  1  0.12629014  0.62509338  0.12611807  1
  Fe  Fe7  1  0.37654245  0.37559296  0.62662424  1
  Fe  Fe8  1  0.37449656  0.12498049  0.12453717  1
  Fe  Fe9  1  0.50170659  0.74530236  -0.00277268  1
  Fe  Fe10  1  0.24740807  -0.00305827  0.00253223  1
  Fe  Fe11  1  0.25296209  0.49775962  -0.00057658  1
  Fe  Fe12  1  0.62453987  0.87422150  0.12428758  1
  Fe  Fe13  1  0.74972254  -0.00192591  0.24916367  1
  Fe  Fe14  1  0.12160078  0.87341850  0.87343393  1
  Fe  Fe15  1  0.24957068  0.00193417  0.74871551  1
  Fe  Fe16  1  0.87792738  0.87449065  0.87123810  1
  Fe  Fe17  1  0.62310546  0.87558489  0.37426801  1
  Fe  Fe18  1  0.49704165  0.24612635  0.75369812  1
  Fe  Fe19  1  0.74878365  0.49601515  0.74983479  1
  Fe  Fe20  1  0.37672306  0.87373468  0.87403212  1
  Fe  Fe21  1  0.87215248  0.12658403  0.87317077  1
  Fe  Fe22  1  0.24798433  0.75077002  0.00118860  1
  Fe  Fe23  1  0.00104999  0.00116748  0.00068203  1
  Fe  Fe24  1  0.62775903  0.12715694  0.87593139  1
  Fe  Fe25  1  0.37656275  0.87812474  0.37306648  1
  Fe  Fe26  1  0.62387879  0.12308094  0.37310158  1
  Fe  Fe27  1  0.49968412  0.50432585  0.75435137  1
  Fe  Fe28  1  0.87190981  0.62333737  0.12827044  1
  Fe  Fe29  1  0.12546614  0.37435968  0.62239210  1
  Fe  Fe30  1  0.87426921  0.37376048  0.87513429  1
  Fe  Fe31  1  0.50034554  0.00192345  -0.00128715  1
  Fe  Fe32  1  0.25227115  0.24707342  0.49944156  1
  Fe  Fe33  1  0.25135115  0.00260851  0.50085455  1
  Fe  Fe34  1  0.62092263  0.37443494  0.62558982  1
  Fe  Fe35  1  0.49867971  0.24976694  0.24946790  1
  Fe  Fe36  1  0.25113874  0.24918226  0.74954063  1
  Fe  Fe37  1  0.12484614  0.37596556  0.87594014  1
  Fe  Fe38  1  0.62283635  0.37239844  0.87770848  1
  Fe  Fe39  1  0.00052644  0.24969363  0.74919127  1
  Fe  Fe40  1  0.00221181  0.50290655  0.49912875  1
  Fe  Fe41  1  0.49785391  0.24792989  0.49872833  1
  Fe  Fe42  1  0.87451022  0.12717110  0.12673725  1
  Fe  Fe43  1  0.37611560  0.62382791  0.12459653  1
  Fe  Fe44  1  0.37690089  0.87358582  0.12446067  1
  Fe  Fe45  1  0.24877688  0.25138972  0.24967845  1
  Fe  Fe46  1  0.62246090  0.37698203  0.37631796  1
  Fe  Fe47  1  0.75148437  0.75046507  0.00099227  1
  Fe  Fe48  1  0.87330144  0.62479569  0.87299559  1
  Fe  Fe49  1  0.50074575  0.74900412  0.25068563  1
  Fe  Fe50  1  0.25032561  0.50051324  0.49882914  1
  Fe  Fe51  1  -0.00070432  0.25085299  0.00077216  1
  Fe  Fe52  1  -0.00091007  0.50008568  0.00079987  1
  Fe  Fe53  1  0.87370767  0.12292678  0.62722229  1
  Fe  Fe54  1  0.87122508  0.62368124  0.37353246  1
  Fe  Fe55  1  0.12200829  0.87466935  0.62594604  1
  Fe  Fe56  1  -0.00054882  0.24703830  0.49822490  1
  Fe  Fe57  1  0.25043571  0.75002065  0.49859638  1
  Fe  Fe58  1  0.12732843  0.12580057  0.87676650  1
  Fe  Fe59  1  0.62510378  0.62484456  0.62527454  1
  Fe  Fe60  1  0.37836859  0.87644143  0.62760678  1
  Fe  Fe61  1  0.24744777  0.74873343  0.75022118  1
  Fe  Fe62  1  0.75047339  0.75090198  0.50071131  1
  Fe  Fe63  1  0.24937781  0.49921962  0.25125060  1
  Fe  Fe64  1  0.00138685  0.25252329  0.25209245  1
  Fe  Fe65  1  0.50027001  0.74942208  0.50037175  1
  Fe  Fe66  1  0.87549338  0.87529940  0.12472526  1
  Fe  Fe67  1  0.62698634  0.62315154  0.12764165  1
  Fe  Fe68  1  0.24890446  0.50091473  0.75127670  1
  Fe  Fe69  1  0.00021397  0.74843970  0.00060114  1
  Fe  Fe70  1  0.37469492  0.62529542  0.62595185  1
  Fe  Fe71  1  0.75247153  0.75207222  0.74642428  1
  Fe  Fe72  1  -0.00020828  0.74989552  0.24991278  1
  Fe  Fe73  1  0.62418307  0.87297663  0.87295516  1
  Fe  Fe74  1  0.00208548  0.50282800  0.74890898  1
  Fe  Fe75  1  0.87552318  0.37594953  0.62242959  1
  Fe  Fe76  1  0.74682254  0.49921898  0.49842039  1
  Fe  Fe77  1  0.00243798  0.00090730  0.24851214  1
  Fe  Fe78  1  0.24811255  -0.00062105  0.24747454  1
  Fe  Fe79  1  0.87486814  0.87618825  0.37588382  1
  Fe  Fe80  1  0.74937265  0.00053923  0.50034117  1
  Fe  Fe81  1  0.00090213  0.49681969  0.25173608  1
  Fe  Fe82  1  0.75104773  -0.00028880  -0.00119813  1
  Fe  Fe83  1  0.37610750  0.37528755  0.37465495  1
  Fe  Fe84  1  0.62599811  0.12633044  0.12428464  1
  Fe  Fe85  1  0.75002504  0.49775499  0.00067615  1
  Fe  Fe86  1  0.12580210  0.87371001  0.37373511  1
  Fe  Fe87  1  0.74966861  0.24913600  0.50019974  1
  Fe  Fe88  1  0.75126074  0.25442252  0.25072021  1
  Fe  Fe89  1  0.62062048  0.37586603  0.12194436  1
  Co  Co90  1  0.75148510  0.25150781  0.00196554  1
  Co  Co91  1  0.12486888  0.37578517  0.12362357  1
  Co  Co92  1  0.74942986  0.75293922  0.25061710  1
  Co  Co93  1  0.87124437  0.62122000  0.62482270  1
  Co  Co94  1  0.00012778  0.74465416  0.74666444  1
  Co  Co95  1  0.63126130  0.62661844  0.87376646  1
  Co  Co96  1  0.87384577  0.12455937  0.37274729  1
  Co  Co97  1  0.12653709  0.12468092  0.37442475  1
  Co  Co98  1  0.74988889  0.25220368  0.74735125  1
  Co  Co99  1  0.62607461  0.62518882  0.37397936  1
  Co  Co100  1  0.12400788  0.87186593  0.12646213  1
  Co  Co101  1  0.12544158  0.62496624  0.87768927  1
  Co  Co102  1  0.50059430  -0.00008210  0.24695573  1
  Co  Co103  1  0.49999356  0.50065326  0.25123971  1
  Co  Co104  1  0.12852990  0.62504193  0.62333154  1
  Co  Co105  1  0.37791650  0.12412483  0.62451768  1
  Co  Co106  1  0.12555736  0.12833902  0.12366138  1
  Co  Co107  1  0.87594234  0.37449041  0.12456383  1
  Co  Co108  1  0.37734221  0.37588591  0.87358848  1
  Co  Co109  1  0.74886192  0.49453028  0.25082315  1
  Co  Co110  1  0.00205522  0.00404357  0.75111197  1
  Co  Co111  1  0.36992074  0.12250761  0.87856133  1
  Co  Co112  1  0.37136069  0.62773344  0.87549727  1
  Co  Co113  1  0.49623603  0.24797578  -0.00067200  1
  Co  Co114  1  0.49897007  0.00327322  0.75432826  1
  Co  Co115  1  0.49887676  0.50103817  0.50061851  1
  Co  Co116  1  0.12515010  0.62693789  0.37387774  1
  Co  Co117  1  0.87522055  0.37597711  0.37900090  1
  Co  Co118  1  0.37822737  0.37671617  0.12612353  1
  Co  Co119  1  0.50025427  0.50398434  -0.00370364  1
  Co  Co120  1  0.49926594  0.00083338  0.49852459  1
  Co  Co121  1  0.87820465  0.87888512  0.62560040  1
  Co  Co122  1  0.12587502  0.37382692  0.37828621  1
  Co  Co123  1  0.12543082  0.12643717  0.62413557  1
  Co  Co124  1  0.37488489  0.12313052  0.37227191  1
  Co  Co125  1  0.25275722  0.74961274  0.25054206  1
  Co  Co126  1  0.74908518  -0.00092530  0.75075948  1
  Co  Co127  1  0.50031226  0.74618919  0.75048763  1
