# generated using pymatgen
data_Fe45Co19
_symmetry_space_group_name_H-M   'P 1'
_cell_length_a   11.41364470
_cell_length_b   11.41501576
_cell_length_c   11.41529852
_cell_angle_alpha   90.00519611
_cell_angle_beta   90.00369048
_cell_angle_gamma   89.99912493
_symmetry_Int_Tables_number   1
_chemical_formula_structural   Fe45Co19
_chemical_formula_sum   'Fe90 Co38'
_cell_volume   1487.26423704
_cell_formula_units_Z   2
loop_
 _symmetry_equiv_pos_site_id
 _symmetry_equiv_pos_as_xyz
  1  'x, y, z'
loop_
 _atom_site_type_symbol
 _atom_site_label
 _atom_site_symmetry_multiplicity
 _atom_site_fract_x
 _atom_site_fract_y
 _atom_site_fract_z
 _atom_site_occupancy
  Fe  Fe0  1  0.62340197  0.12674016  0.37425206  1
  Fe  Fe1  1  0.00186916  0.75180955  0.75039957  1
  Fe  Fe2  1  0.38040125  0.87326623  0.12381208  1
  Fe  Fe3  1  0.87554918  0.13028178  0.37319266  1
  Fe  Fe4  1  0.12305932  0.87697467  0.12131030  1
  Fe  Fe5  1  0.37611573  0.62771653  0.12758273  1
  Fe  Fe6  1  0.25165568  -0.00150835  0.50150121  1
  Fe  Fe7  1  0.00078345  0.75041671  -0.00145769  1
  Fe  Fe8  1  0.37474500  0.12361051  0.37459521  1
  Fe  Fe9  1  0.49567129  0.74731691  0.49721745  1
  Fe  Fe10  1  0.12765735  0.62517941  0.87626902  1
  Fe  Fe11  1  0.74949706  0.49955179  0.49990955  1
  Fe  Fe12  1  0.25101149  0.49988321  0.24823716  1
  Fe  Fe13  1  0.12532827  0.12153394  0.12465525  1
  Fe  Fe14  1  0.74667972  0.75100954  -0.00031537  1
  Fe  Fe15  1  0.74957784  0.49912180  0.25053487  1
  Fe  Fe16  1  0.75095650  0.00270794  0.50037910  1
  Fe  Fe17  1  0.12917525  0.62810651  0.37489684  1
  Fe  Fe18  1  0.62245864  0.37595657  0.12542370  1
  Fe  Fe19  1  0.87322357  0.36902396  0.37539089  1
  Fe  Fe20  1  0.74726194  0.24821877  0.00028372  1
  Fe  Fe21  1  0.74741705  -0.00016431  -0.00208896  1
  Fe  Fe22  1  0.00010306  0.24765096  0.00051186  1
  Fe  Fe23  1  0.87541667  0.37276721  0.62294769  1
  Fe  Fe24  1  0.62331043  0.62474677  0.62597583  1
  Fe  Fe25  1  0.12698864  0.37525765  0.12232088  1
  Fe  Fe26  1  0.37763720  0.87350643  0.62559929  1
  Fe  Fe27  1  0.37546028  0.37558543  0.62733539  1
  Fe  Fe28  1  0.38238094  0.12497778  0.87623683  1
  Fe  Fe29  1  0.87168436  0.62419079  0.87466815  1
  Fe  Fe30  1  0.37555205  0.37521389  0.87467060  1
  Fe  Fe31  1  0.12664122  0.62670278  0.12494332  1
  Fe  Fe32  1  0.49922074  0.24819487  0.50321880  1
  Fe  Fe33  1  0.87328713  0.62614120  0.12519112  1
  Fe  Fe34  1  0.62480614  0.12237724  0.62942233  1
  Fe  Fe35  1  0.74659926  0.75319410  0.74897601  1
  Fe  Fe36  1  0.00051897  0.49986550  0.75025423  1
  Fe  Fe37  1  0.25425602  0.24872172  0.00171308  1
  Fe  Fe38  1  0.49688818  0.50304329  0.49905078  1
  Fe  Fe39  1  0.25307809  0.50248916  0.50164755  1
  Fe  Fe40  1  0.87445450  0.37426595  0.12511475  1
  Fe  Fe41  1  0.62518943  0.62565811  0.37273041  1
  Fe  Fe42  1  0.25481654  -0.00374594  -0.00255783  1
  Fe  Fe43  1  0.62285806  0.37682394  0.62559307  1
  Fe  Fe44  1  0.25072411  0.24970180  0.50024549  1
  Fe  Fe45  1  0.12779597  0.87382967  0.37711695  1
  Fe  Fe46  1  0.49912450  0.00118678  0.50072158  1
  Fe  Fe47  1  0.62403323  0.37528095  0.87452013  1
  Fe  Fe48  1  -0.00124760  0.00139424  0.49807204  1
  Fe  Fe49  1  0.00008551  -0.00061804  0.75127185  1
  Fe  Fe50  1  0.87424609  0.62582794  0.62617078  1
  Fe  Fe51  1  0.62393148  0.62647047  0.12782626  1
  Fe  Fe52  1  0.12764213  0.37580419  0.87707827  1
  Fe  Fe53  1  0.87276694  0.37644670  0.87608391  1
  Fe  Fe54  1  0.62422494  0.37230678  0.37444076  1
  Fe  Fe55  1  0.12614275  0.12345555  0.62544559  1
  Fe  Fe56  1  0.00007747  0.50120782  -0.00075945  1
  Fe  Fe57  1  0.49814499  0.50117639  -0.00024928  1
  Fe  Fe58  1  0.25288842  -0.00325344  0.24899410  1
  Fe  Fe59  1  -0.00031737  0.75361370  0.25105829  1
  Fe  Fe60  1  0.37422923  0.62845145  0.87233221  1
  Fe  Fe61  1  0.87169999  0.12395393  0.87359938  1
  Fe  Fe62  1  0.62199149  0.87415689  0.12742882  1
  Fe  Fe63  1  0.12594356  0.12514394  0.37339715  1
  Fe  Fe64  1  0.00098694  0.75149569  0.50052971  1
  Fe  Fe65  1  0.25189835  0.24881203  0.24779239  1
  Fe  Fe66  1  0.87621380  0.12347850  0.12697216  1
  Fe  Fe67  1  0.00112263  0.24908938  0.75034866  1
  Fe  Fe68  1  0.62653695  0.62218843  0.87341562  1
  Fe  Fe69  1  0.25215768  0.24820243  0.75011242  1
  Fe  Fe70  1  0.24809360  0.75356292  0.74955126  1
  Fe  Fe71  1  0.87403638  0.87642216  0.62399373  1
  Fe  Fe72  1  0.74942196  -0.00036041  0.25195066  1
  Fe  Fe73  1  0.74804287  0.24977935  0.74885021  1
  Fe  Fe74  1  0.87481975  0.87627521  0.12516656  1
  Fe  Fe75  1  0.00027488  0.49876744  0.25113064  1
  Fe  Fe76  1  0.12640823  0.37483269  0.62519746  1
  Fe  Fe77  1  0.12673172  0.62557184  0.62431004  1
  Fe  Fe78  1  0.12641312  0.12258042  0.87699290  1
  Fe  Fe79  1  0.74928501  0.74966821  0.50029416  1
  Fe  Fe80  1  0.25396339  -0.00158310  0.75207938  1
  Fe  Fe81  1  0.62449660  0.87463303  0.37598859  1
  Fe  Fe82  1  -0.00013571  0.49980178  0.49881174  1
  Fe  Fe83  1  0.87533558  0.87485138  0.87562634  1
  Fe  Fe84  1  0.37616972  0.37551443  0.37315142  1
  Fe  Fe85  1  0.62095020  0.12299068  0.12324551  1
  Fe  Fe86  1  0.61922749  0.87812707  0.87329508  1
  Fe  Fe87  1  0.12588630  0.37406731  0.37514193  1
  Fe  Fe88  1  0.87434585  0.62716208  0.37374181  1
  Fe  Fe89  1  0.49744703  0.24793397  0.24694476  1
  Co  Co90  1  0.74808612  -0.00358998  0.75036866  1
  Co  Co91  1  0.87214739  0.87374104  0.37726508  1
  Co  Co92  1  0.74848041  0.50030064  0.00250252  1
  Co  Co93  1  0.25381364  0.74989695  0.50207872  1
  Co  Co94  1  0.25089315  0.75240799  0.00047411  1
  Co  Co95  1  0.37598918  0.12181653  0.12429544  1
  Co  Co96  1  0.49980269  0.24928761  0.74763128  1
  Co  Co97  1  0.50265161  0.74739488  -0.00136797  1
  Co  Co98  1  0.74687563  0.24740726  0.50393311  1
  Co  Co99  1  0.49761862  -0.00052176  0.74767589  1
  Co  Co100  1  0.24962412  0.50009924  0.75014366  1
  Co  Co101  1  0.00283968  0.24812380  0.50069195  1
  Co  Co102  1  -0.00035488  -0.00157511  0.25343169  1
  Co  Co103  1  0.25101370  0.75528787  0.24776693  1
  Co  Co104  1  0.12456201  0.87670913  0.87704443  1
  Co  Co105  1  0.50392181  0.74980521  0.74964231  1
  Co  Co106  1  0.37950384  0.87131849  0.87401682  1
  Co  Co107  1  0.74964567  0.75179173  0.24981601  1
  Co  Co108  1  0.37522136  0.87698186  0.37661605  1
  Co  Co109  1  0.37043779  0.62477880  0.37055805  1
  Co  Co110  1  0.37522397  0.37649210  0.12581948  1
  Co  Co111  1  0.37345019  0.12488796  0.62387095  1
  Co  Co112  1  0.62326032  0.87496099  0.62068469  1
  Co  Co113  1  0.25338443  0.50290898  0.00031812  1
  Co  Co114  1  0.49847636  0.75152912  0.25470860  1
  Co  Co115  1  0.37478631  0.62651465  0.62945278  1
  Co  Co116  1  0.50008245  -0.00006569  0.25174710  1
  Co  Co117  1  0.12498645  0.87776216  0.62482949  1
  Co  Co118  1  0.49906795  0.50064724  0.75109798  1
  Co  Co119  1  0.49972695  0.25174789  0.00193923  1
  Co  Co120  1  -0.00212342  0.00147439  -0.00223986  1
  Co  Co121  1  0.50006219  -0.00122904  -0.00039903  1
  Co  Co122  1  0.87529905  0.12401533  0.62699950  1
  Co  Co123  1  0.00356759  0.25029903  0.24811460  1
  Co  Co124  1  0.75018320  0.49904426  0.74679744  1
  Co  Co125  1  0.62185386  0.12450212  0.87319050  1
  Co  Co126  1  0.50029159  0.50060257  0.25082837  1
  Co  Co127  1  0.74674424  0.24865844  0.24667984  1
