# generated using pymatgen
data_Fe45Co19
_symmetry_space_group_name_H-M   'P 1'
_cell_length_a   11.41530124
_cell_length_b   11.41608366
_cell_length_c   11.41507101
_cell_angle_alpha   89.99881185
_cell_angle_beta   90.00328381
_cell_angle_gamma   90.00307975
_symmetry_Int_Tables_number   1
_chemical_formula_structural   Fe45Co19
_chemical_formula_sum   'Fe90 Co38'
_cell_volume   1487.58960585
_cell_formula_units_Z   2
loop_
 _symmetry_equiv_pos_site_id
 _symmetry_equiv_pos_as_xyz
  1  'x, y, z'
loop_
 _atom_site_type_symbol
 _atom_site_label
 _atom_site_symmetry_multiplicity
 _atom_site_fract_x
 _atom_site_fract_y
 _atom_site_fract_z
 _atom_site_occupancy
  Fe  Fe0  1  0.74780018  -0.00303289  0.49808398  1
  Fe  Fe1  1  0.00004874  0.50207174  0.75179772  1
  Fe  Fe2  1  0.87623804  0.87484456  0.87613542  1
  Fe  Fe3  1  0.37309459  0.87697950  0.87481240  1
  Fe  Fe4  1  0.75426952  0.25053893  0.00049591  1
  Fe  Fe5  1  -0.00061664  0.00214875  0.00017156  1
  Fe  Fe6  1  0.87298221  0.62198281  0.62561899  1
  Fe  Fe7  1  -0.00066963  0.74716075  0.49987603  1
  Fe  Fe8  1  0.37060754  0.12511459  0.87271058  1
  Fe  Fe9  1  0.12372625  0.37453913  0.12477991  1
  Fe  Fe10  1  -0.00052352  0.49827723  0.25203202  1
  Fe  Fe11  1  0.24892281  0.49954358  -0.00069095  1
  Fe  Fe12  1  0.62634452  0.12773121  0.37249807  1
  Fe  Fe13  1  0.62594244  0.62411730  0.62766650  1
  Fe  Fe14  1  0.24797361  0.00187261  0.24883765  1
  Fe  Fe15  1  0.37191026  0.12412597  0.12296168  1
  Fe  Fe16  1  0.00204249  0.00089120  0.75068731  1
  Fe  Fe17  1  0.25133253  0.50153596  0.24896771  1
  Fe  Fe18  1  0.25252150  0.49952302  0.50327738  1
  Fe  Fe19  1  0.12431370  0.12476698  0.62214370  1
  Fe  Fe20  1  0.74971579  0.74949667  0.24945143  1
  Fe  Fe21  1  0.50229983  0.75147421  0.50199926  1
  Fe  Fe22  1  0.87249542  0.12743975  0.37392578  1
  Fe  Fe23  1  0.62634923  0.12688328  0.87472080  1
  Fe  Fe24  1  0.49748033  0.24939136  -0.00068582  1
  Fe  Fe25  1  0.74928322  0.49919053  -0.00560534  1
  Fe  Fe26  1  0.24913259  0.24969318  0.24911040  1
  Fe  Fe27  1  0.75061739  0.49725536  0.50203939  1
  Fe  Fe28  1  0.12536094  0.37454288  0.87429206  1
  Fe  Fe29  1  -0.00131598  0.00020381  0.49865186  1
  Fe  Fe30  1  0.37478802  0.37409017  0.86776700  1
  Fe  Fe31  1  0.49922597  0.74690280  0.24736317  1
  Fe  Fe32  1  0.37659158  0.37379316  0.37348832  1
  Fe  Fe33  1  0.37442984  0.12520121  0.62816800  1
  Fe  Fe34  1  0.74945782  0.49714374  0.24877080  1
  Fe  Fe35  1  0.00065157  0.24852067  0.75083242  1
  Fe  Fe36  1  0.12506022  0.87484290  0.12411401  1
  Fe  Fe37  1  0.87445478  0.12604678  0.62499362  1
  Fe  Fe38  1  0.12899756  0.12599609  0.87845922  1
  Fe  Fe39  1  0.75097199  0.75034131  0.00021190  1
  Fe  Fe40  1  0.49940051  0.00069811  -0.00148958  1
  Fe  Fe41  1  0.50317176  -0.00154906  0.50130303  1
  Fe  Fe42  1  0.12451101  0.87427814  0.62315495  1
  Fe  Fe43  1  0.62560515  0.12388940  0.62756877  1
  Fe  Fe44  1  0.37353358  0.62360770  0.87348052  1
  Fe  Fe45  1  0.00201949  0.50397478  -0.00283052  1
  Fe  Fe46  1  0.49993451  0.25009202  0.50207466  1
  Fe  Fe47  1  0.49792196  0.49846684  0.50241275  1
  Fe  Fe48  1  0.87363045  0.87466031  0.62428436  1
  Fe  Fe49  1  0.62420239  0.87410033  0.87444832  1
  Fe  Fe50  1  0.75272471  0.25371872  0.75136982  1
  Fe  Fe51  1  0.50100646  0.00203144  0.24917323  1
  Fe  Fe52  1  0.74981976  0.25322274  0.50107052  1
  Fe  Fe53  1  0.87580180  0.62290501  0.12281104  1
  Fe  Fe54  1  0.24926435  -0.00071744  0.50034041  1
  Fe  Fe55  1  0.62327550  0.62301150  0.12205356  1
  Fe  Fe56  1  0.25160425  0.74752910  0.24705934  1
  Fe  Fe57  1  0.37509006  0.12547751  0.37578025  1
  Fe  Fe58  1  0.37589445  0.62564608  0.37683054  1
  Fe  Fe59  1  0.12363169  0.37611305  0.62438592  1
  Fe  Fe60  1  0.37568534  0.87451270  0.37366855  1
  Fe  Fe61  1  -0.00093191  0.74884882  0.24821160  1
  Fe  Fe62  1  0.87340335  0.87865424  0.12404021  1
  Fe  Fe63  1  0.87396715  0.87272298  0.37614783  1
  Fe  Fe64  1  0.62288051  0.37436338  0.12421258  1
  Fe  Fe65  1  0.24972853  0.74972951  0.74848518  1
  Fe  Fe66  1  0.75012362  -0.00077330  0.75196408  1
  Fe  Fe67  1  -0.00047503  0.74883669  0.75109714  1
  Fe  Fe68  1  0.62513422  0.87704126  0.12545980  1
  Fe  Fe69  1  0.37495659  0.87593738  0.62588729  1
  Fe  Fe70  1  0.62299540  0.37326430  0.37240320  1
  Fe  Fe71  1  0.49784083  0.75023817  0.00133218  1
  Fe  Fe72  1  0.37805582  0.37730778  0.12691626  1
  Fe  Fe73  1  0.25037733  0.74803055  0.00396633  1
  Fe  Fe74  1  0.12585951  0.62406058  0.37542287  1
  Fe  Fe75  1  0.50099949  0.49878682  -0.00486881  1
  Fe  Fe76  1  0.62588058  0.62468601  0.37631498  1
  Fe  Fe77  1  0.12576079  0.87414791  0.37557730  1
  Fe  Fe78  1  0.87363179  0.62291803  0.37667631  1
  Fe  Fe79  1  0.62985496  0.12492979  0.12601434  1
  Fe  Fe80  1  -0.00018169  0.25351927  0.49704950  1
  Fe  Fe81  1  0.75095286  0.74862412  0.75128047  1
  Fe  Fe82  1  0.49965226  0.74926992  0.74956151  1
  Fe  Fe83  1  0.25019937  0.25175463  0.50092781  1
  Fe  Fe84  1  0.62278318  0.37558428  0.63029205  1
  Fe  Fe85  1  -0.00178816  0.25120055  0.25026839  1
  Fe  Fe86  1  -0.00356297  0.24732935  0.00114083  1
  Fe  Fe87  1  0.12633129  0.62545689  0.62441576  1
  Fe  Fe88  1  0.12539212  0.87300562  0.87676084  1
  Fe  Fe89  1  0.00101763  0.00278697  0.25042734  1
  Co  Co90  1  0.24596708  0.24966591  0.74794829  1
  Co  Co91  1  0.87742900  0.37560531  0.62699504  1
  Co  Co92  1  0.87396108  0.37639505  0.37743274  1
  Co  Co93  1  0.74939111  0.00017570  -0.00348312  1
  Co  Co94  1  0.87459048  0.12498294  0.87278147  1
  Co  Co95  1  0.74915480  -0.00250594  0.25461375  1
  Co  Co96  1  0.24969157  0.75002166  0.50005830  1
  Co  Co97  1  0.62404206  0.37096484  0.87461250  1
  Co  Co98  1  -0.00060168  0.74952108  0.00155388  1
  Co  Co99  1  0.87210365  0.12182106  0.12798418  1
  Co  Co100  1  0.25301177  0.25514378  0.00029620  1
  Co  Co101  1  0.50136761  0.50189564  0.75093744  1
  Co  Co102  1  0.50053211  0.24703789  0.75073081  1
  Co  Co103  1  0.37527240  0.87719571  0.12635334  1
  Co  Co104  1  0.12357020  0.62360298  0.12535871  1
  Co  Co105  1  0.37744164  0.62064738  0.12230175  1
  Co  Co106  1  0.24881329  0.50036558  0.74740040  1
  Co  Co107  1  0.62373049  0.62788413  0.87507876  1
  Co  Co108  1  0.50010945  0.00072312  0.75181282  1
  Co  Co109  1  0.74946874  0.49812931  0.75459503  1
  Co  Co110  1  0.00073214  0.50067956  0.49971862  1
  Co  Co111  1  0.87749414  0.37881842  0.12096369  1
  Co  Co112  1  0.24659710  0.00002215  0.74893349  1
  Co  Co113  1  0.49922532  0.24744209  0.24728584  1
  Co  Co114  1  0.37709516  0.37280387  0.62963392  1
  Co  Co115  1  0.75303523  0.25577346  0.24734808  1
  Co  Co116  1  0.74875255  0.75031569  0.50020542  1
  Co  Co117  1  0.12783975  0.37663536  0.37465346  1
  Co  Co118  1  0.87516209  0.62599239  0.87617597  1
  Co  Co119  1  0.12746638  0.62756452  0.87469692  1
  Co  Co120  1  0.50167224  0.50194744  0.25189403  1
  Co  Co121  1  0.37616008  0.62645917  0.62586174  1
  Co  Co122  1  0.12580737  0.12804950  0.12251656  1
  Co  Co123  1  0.87829659  0.37576516  0.87528547  1
  Co  Co124  1  0.62197611  0.87205026  0.37262236  1
  Co  Co125  1  0.24957486  -0.00176555  0.00068929  1
  Co  Co126  1  0.62614179  0.87476120  0.62877955  1
  Co  Co127  1  0.12504634  0.12629797  0.37610582  1
