# generated using pymatgen
data_Fe45Co19
_symmetry_space_group_name_H-M   'P 1'
_cell_length_a   11.41453138
_cell_length_b   11.41647433
_cell_length_c   11.41485791
_cell_angle_alpha   90.00225678
_cell_angle_beta   89.99839652
_cell_angle_gamma   90.00712385
_symmetry_Int_Tables_number   1
_chemical_formula_structural   Fe45Co19
_chemical_formula_sum   'Fe90 Co38'
_cell_volume   1487.51240718
_cell_formula_units_Z   2
loop_
 _symmetry_equiv_pos_site_id
 _symmetry_equiv_pos_as_xyz
  1  'x, y, z'
loop_
 _atom_site_type_symbol
 _atom_site_label
 _atom_site_symmetry_multiplicity
 _atom_site_fract_x
 _atom_site_fract_y
 _atom_site_fract_z
 _atom_site_occupancy
  Fe  Fe0  1  0.37862027  0.62233950  0.37410115  1
  Fe  Fe1  1  0.24628784  0.74961041  0.25273388  1
  Fe  Fe2  1  0.87646997  0.62529843  0.87458878  1
  Fe  Fe3  1  0.12393894  0.12560781  0.12479133  1
  Fe  Fe4  1  0.12910760  0.37618207  0.62183479  1
  Fe  Fe5  1  0.62545496  0.87524693  0.87493428  1
  Fe  Fe6  1  0.49338832  0.49980325  0.00608351  1
  Fe  Fe7  1  0.37521594  0.87221207  0.12607675  1
  Fe  Fe8  1  0.87383584  0.12688466  0.12813260  1
  Fe  Fe9  1  0.24995673  0.00268118  0.50049527  1
  Fe  Fe10  1  -0.00050750  0.49873046  0.24842693  1
  Fe  Fe11  1  0.62848049  0.37747503  0.62279893  1
  Fe  Fe12  1  0.87658391  0.87200121  0.62339641  1
  Fe  Fe13  1  0.00039280  0.00223444  0.75076675  1
  Fe  Fe14  1  0.74700269  0.74735900  0.49720347  1
  Fe  Fe15  1  0.12626858  0.62190656  0.87527408  1
  Fe  Fe16  1  0.75156041  0.00027010  0.49972200  1
  Fe  Fe17  1  0.87180886  0.37461059  0.87332466  1
  Fe  Fe18  1  0.50352116  0.75334534  0.25489572  1
  Fe  Fe19  1  0.37433660  0.37581482  0.37715367  1
  Fe  Fe20  1  0.00007901  0.50163058  0.50001559  1
  Fe  Fe21  1  0.87512814  0.12642625  0.37343476  1
  Fe  Fe22  1  0.74703466  0.74701693  0.75072154  1
  Fe  Fe23  1  0.74794786  0.75197583  0.25156987  1
  Fe  Fe24  1  0.50050971  0.00055748  0.00295376  1
  Fe  Fe25  1  0.62545053  0.12488927  0.62541750  1
  Fe  Fe26  1  0.74874325  0.74853004  0.00036011  1
  Fe  Fe27  1  0.24981452  0.24988747  0.74984601  1
  Fe  Fe28  1  0.37364665  0.87662236  0.87302916  1
  Fe  Fe29  1  0.37362618  0.12296019  0.87260066  1
  Fe  Fe30  1  0.37272716  0.87471639  0.37773827  1
  Fe  Fe31  1  0.62296030  0.87244549  0.62295827  1
  Fe  Fe32  1  0.87428123  0.37491229  0.37573304  1
  Fe  Fe33  1  0.00084746  0.75009345  0.75110147  1
  Fe  Fe34  1  0.62638714  0.12194815  0.37026009  1
  Fe  Fe35  1  0.87608414  0.62542718  0.37352977  1
  Fe  Fe36  1  0.49915336  -0.00277255  0.74825493  1
  Fe  Fe37  1  0.00038964  0.49835052  0.75080463  1
  Fe  Fe38  1  0.00111830  0.25282797  0.25100457  1
  Fe  Fe39  1  0.24978011  0.00040077  0.25119758  1
  Fe  Fe40  1  0.50512272  0.25503576  0.24891105  1
  Fe  Fe41  1  0.12404172  0.87397612  0.62137087  1
  Fe  Fe42  1  0.37467605  0.12576426  0.62643243  1
  Fe  Fe43  1  0.50121456  0.25234205  0.74888678  1
  Fe  Fe44  1  0.25202762  0.74920196  0.74672524  1
  Fe  Fe45  1  0.74920482  0.24959091  0.00285555  1
  Fe  Fe46  1  0.37329152  0.37612983  0.87505178  1
  Fe  Fe47  1  0.12618640  0.37632021  0.12254089  1
  Fe  Fe48  1  0.50025163  0.25099471  0.50090452  1
  Fe  Fe49  1  0.24981384  0.74789061  0.00038233  1
  Fe  Fe50  1  0.62691377  0.12462977  0.87394426  1
  Fe  Fe51  1  0.49983236  0.75048539  -0.00141067  1
  Fe  Fe52  1  0.62241818  0.62430152  0.12762871  1
  Fe  Fe53  1  0.75052036  0.00013215  0.74834452  1
  Fe  Fe54  1  0.12265607  0.62471282  0.12408291  1
  Fe  Fe55  1  0.87759464  0.87209366  0.12365987  1
  Fe  Fe56  1  0.12393892  0.12753925  0.62289870  1
  Fe  Fe57  1  0.50130922  0.24917730  0.00085743  1
  Fe  Fe58  1  0.00039691  0.00159551  -0.00251464  1
  Fe  Fe59  1  0.87601204  0.62584645  0.62488959  1
  Fe  Fe60  1  0.74885759  0.00032784  0.00370070  1
  Fe  Fe61  1  0.62591806  0.37747422  0.87605779  1
  Fe  Fe62  1  0.12664108  0.87628358  0.87427933  1
  Fe  Fe63  1  0.49926566  -0.00048705  0.49940047  1
  Fe  Fe64  1  0.25052769  0.00102741  0.00180932  1
  Fe  Fe65  1  0.87350137  0.87482002  0.87509336  1
  Fe  Fe66  1  -0.00183388  0.25065561  -0.00080102  1
  Fe  Fe67  1  0.12813115  0.37843317  0.37783059  1
  Fe  Fe68  1  0.87580229  0.12734326  0.62507273  1
  Fe  Fe69  1  0.87797078  0.87290360  0.37794642  1
  Fe  Fe70  1  0.74717449  0.49684650  0.25103875  1
  Fe  Fe71  1  0.74984289  0.24971031  0.49829828  1
  Fe  Fe72  1  0.37685837  0.12686289  0.12765463  1
  Fe  Fe73  1  0.62140006  0.62467432  0.62238418  1
  Fe  Fe74  1  0.12194070  0.12533942  0.37784696  1
  Fe  Fe75  1  0.24680973  0.74363657  0.49971758  1
  Fe  Fe76  1  0.24802861  0.24920835  0.25220299  1
  Fe  Fe77  1  0.25135497  0.24865087  0.00030452  1
  Fe  Fe78  1  0.87745183  0.62576208  0.12603672  1
  Fe  Fe79  1  0.87177971  0.37617605  0.62526957  1
  Fe  Fe80  1  0.25390657  0.50070102  0.24583435  1
  Fe  Fe81  1  0.12395792  0.87382215  0.12557525  1
  Fe  Fe82  1  0.00022361  0.25002705  0.75139953  1
  Fe  Fe83  1  0.00037931  -0.00228521  0.25212510  1
  Fe  Fe84  1  0.62190964  0.62255582  0.87525146  1
  Fe  Fe85  1  0.37779358  0.12641223  0.37275025  1
  Fe  Fe86  1  0.49775501  0.49842334  0.74640326  1
  Fe  Fe87  1  0.12837800  0.37741870  0.87763103  1
  Fe  Fe88  1  0.75257302  0.50151392  0.00049318  1
  Fe  Fe89  1  0.37428595  0.62406784  0.87260024  1
  Co  Co90  1  0.37799974  0.63173634  0.12976751  1
  Co  Co91  1  0.62549136  0.12400752  0.13019852  1
  Co  Co92  1  0.25140634  0.24712252  0.49771942  1
  Co  Co93  1  0.62337903  0.87387112  0.12530372  1
  Co  Co94  1  0.37475086  0.87212285  0.62114945  1
  Co  Co95  1  0.12426305  0.61949317  0.37140336  1
  Co  Co96  1  0.12479724  0.87617848  0.37875286  1
  Co  Co97  1  0.37290068  0.36932406  0.12650321  1
  Co  Co98  1  0.12677534  0.12585507  0.87568594  1
  Co  Co99  1  0.62403377  0.37781842  0.37954302  1
  Co  Co100  1  0.49729310  -0.00408505  0.24948974  1
  Co  Co101  1  0.49906262  0.49525408  0.24712940  1
  Co  Co102  1  0.00216943  0.75106328  0.25211041  1
  Co  Co103  1  0.37948362  0.62772889  0.62389456  1
  Co  Co104  1  -0.00219353  0.49922934  -0.00094907  1
  Co  Co105  1  -0.00096305  0.25381406  0.49963076  1
  Co  Co106  1  0.74903220  0.50391479  0.74993379  1
  Co  Co107  1  0.37097580  0.37356925  0.62220249  1
  Co  Co108  1  0.12297371  0.62295472  0.62794944  1
  Co  Co109  1  0.00359103  0.74469971  0.49752491  1
  Co  Co110  1  0.74795249  0.25020391  0.74895265  1
  Co  Co111  1  0.25503788  0.50291291  0.00471302  1
  Co  Co112  1  0.50185396  0.75036090  0.49515212  1
  Co  Co113  1  0.62237757  0.61999239  0.37439358  1
  Co  Co114  1  0.25202876  0.50073022  0.74751277  1
  Co  Co115  1  0.75238521  0.50270856  0.49869430  1
  Co  Co116  1  -0.00143109  0.00096414  0.50061354  1
  Co  Co117  1  0.49971569  0.75072182  0.75165655  1
  Co  Co118  1  0.74757243  0.25477668  0.25108116  1
  Co  Co119  1  0.87454463  0.37523186  0.12604660  1
  Co  Co120  1  0.62624608  0.37807223  0.12087136  1
  Co  Co121  1  0.62641001  0.87958914  0.37644244  1
  Co  Co122  1  0.49749070  0.49757064  0.50219761  1
  Co  Co123  1  0.75370875  -0.00492692  0.24922337  1
  Co  Co124  1  0.25201765  0.50583394  0.50194177  1
  Co  Co125  1  0.00130441  0.74945727  -0.00217737  1
  Co  Co126  1  0.24819525  -0.00016573  0.74602864  1
  Co  Co127  1  0.87192442  0.12576730  0.87479623  1
