# generated using pymatgen
data_Fe45Co19
_symmetry_space_group_name_H-M   'P 1'
_cell_length_a   11.41586887
_cell_length_b   11.41481866
_cell_length_c   11.41391436
_cell_angle_alpha   90.00687760
_cell_angle_beta   89.99968527
_cell_angle_gamma   89.99993289
_symmetry_Int_Tables_number   1
_chemical_formula_structural   Fe45Co19
_chemical_formula_sum   'Fe90 Co38'
_cell_volume   1487.34800272
_cell_formula_units_Z   2
loop_
 _symmetry_equiv_pos_site_id
 _symmetry_equiv_pos_as_xyz
  1  'x, y, z'
loop_
 _atom_site_type_symbol
 _atom_site_label
 _atom_site_symmetry_multiplicity
 _atom_site_fract_x
 _atom_site_fract_y
 _atom_site_fract_z
 _atom_site_occupancy
  Fe  Fe0  1  0.00215398  0.24612356  0.75418806  1
  Fe  Fe1  1  0.24792095  0.24690150  0.75175334  1
  Fe  Fe2  1  0.87308530  0.12376082  0.87956612  1
  Fe  Fe3  1  0.12407615  0.37223499  0.62610858  1
  Fe  Fe4  1  0.74851447  0.24812479  0.75319090  1
  Fe  Fe5  1  0.37681955  0.62216001  0.62154598  1
  Fe  Fe6  1  0.87569573  0.62656475  0.12378011  1
  Fe  Fe7  1  0.62471053  0.37201672  0.62593667  1
  Fe  Fe8  1  0.50095846  0.24863051  0.75425187  1
  Fe  Fe9  1  0.62575592  0.87428980  0.62538565  1
  Fe  Fe10  1  0.87464815  0.87464522  0.62282943  1
  Fe  Fe11  1  0.25455127  0.74984320  0.49577883  1
  Fe  Fe12  1  0.12333063  0.87173121  0.12967719  1
  Fe  Fe13  1  0.37724317  0.87259820  0.12771903  1
  Fe  Fe14  1  0.62604975  0.11850396  0.88214279  1
  Fe  Fe15  1  0.75043455  0.50177674  0.74757222  1
  Fe  Fe16  1  0.74853768  0.49778287  0.00308625  1
  Fe  Fe17  1  0.74981736  0.49805496  0.24642291  1
  Fe  Fe18  1  0.24791833  -0.00006858  0.49851556  1
  Fe  Fe19  1  0.12421275  0.37378501  0.12278050  1
  Fe  Fe20  1  0.12711979  0.37632013  0.37400199  1
  Fe  Fe21  1  0.00051610  0.50035675  0.50077509  1
  Fe  Fe22  1  0.62356405  0.12611847  0.62423950  1
  Fe  Fe23  1  0.25246848  0.25292616  0.24836519  1
  Fe  Fe24  1  0.25109517  0.50079899  0.00282169  1
  Fe  Fe25  1  0.25109708  0.25087925  0.50115231  1
  Fe  Fe26  1  0.49808971  -0.00161226  0.75212541  1
  Fe  Fe27  1  0.12765490  0.62338565  0.37338659  1
  Fe  Fe28  1  0.37465399  0.12332925  0.37413429  1
  Fe  Fe29  1  0.62372155  0.62324790  0.37392386  1
  Fe  Fe30  1  0.74719610  0.00636238  0.24432614  1
  Fe  Fe31  1  0.87421748  0.62331974  0.87722456  1
  Fe  Fe32  1  0.00118001  0.24891810  0.49696406  1
  Fe  Fe33  1  -0.00008163  0.50243198  0.75003920  1
  Fe  Fe34  1  0.50286019  0.75418355  -0.00279652  1
  Fe  Fe35  1  0.87341955  0.37446416  0.37341215  1
  Fe  Fe36  1  -0.00322546  0.75197878  0.49493080  1
  Fe  Fe37  1  0.75061047  0.00112811  0.74817678  1
  Fe  Fe38  1  0.24821764  0.00008596  0.24935874  1
  Fe  Fe39  1  0.62382826  0.62669642  0.62378987  1
  Fe  Fe40  1  0.74915895  0.74917113  0.25052466  1
  Fe  Fe41  1  0.37446360  0.87556854  0.62506671  1
  Fe  Fe42  1  0.37243745  0.38138536  0.37583970  1
  Fe  Fe43  1  0.87525507  0.36903641  0.12453739  1
  Fe  Fe44  1  0.74957719  0.00076171  0.49847120  1
  Fe  Fe45  1  0.12548338  0.87506663  0.62368622  1
  Fe  Fe46  1  0.37293318  0.12195322  0.87807905  1
  Fe  Fe47  1  0.37466754  0.12618769  0.62592852  1
  Fe  Fe48  1  0.62332368  0.62650200  0.12410006  1
  Fe  Fe49  1  -0.00016019  0.74940842  0.75231622  1
  Fe  Fe50  1  0.49845289  0.75071993  0.49411234  1
  Fe  Fe51  1  0.00251352  -0.00029183  0.49354450  1
  Fe  Fe52  1  0.74804931  0.75359498  -0.00051919  1
  Fe  Fe53  1  0.75023875  0.74890257  0.75068024  1
  Fe  Fe54  1  0.62513500  0.87678362  0.37147301  1
  Fe  Fe55  1  0.50266626  0.00334327  0.24626481  1
  Fe  Fe56  1  0.25459932  0.74793536  0.25380680  1
  Fe  Fe57  1  0.87552078  0.37291203  0.62594052  1
  Fe  Fe58  1  0.87665856  0.12625613  0.62384942  1
  Fe  Fe59  1  0.74895178  0.50032067  0.50257011  1
  Fe  Fe60  1  0.50031247  0.75171794  0.75359252  1
  Fe  Fe61  1  0.74969678  0.24818433  0.49830294  1
  Fe  Fe62  1  0.12276185  0.12843281  0.12667011  1
  Fe  Fe63  1  0.24996206  0.50072599  0.74780547  1
  Fe  Fe64  1  0.12514622  0.37714430  0.87819655  1
  Fe  Fe65  1  0.62648819  0.37418114  0.37282492  1
  Fe  Fe66  1  0.37729427  0.62662551  0.12464019  1
  Fe  Fe67  1  -0.00110701  0.00110513  0.00405189  1
  Fe  Fe68  1  0.49823809  0.25199153  0.49787693  1
  Fe  Fe69  1  0.12389656  0.62651849  0.12595822  1
  Fe  Fe70  1  0.50029434  -0.00033254  0.50027881  1
  Fe  Fe71  1  0.49886371  0.49798563  0.24645013  1
  Fe  Fe72  1  0.37365686  0.37580676  0.87688895  1
  Fe  Fe73  1  0.24890997  0.75055175  -0.00048525  1
  Fe  Fe74  1  0.25060595  0.74995063  0.75088856  1
  Fe  Fe75  1  0.62466039  0.37876789  0.87766026  1
  Fe  Fe76  1  0.37552490  0.62546556  0.87700131  1
  Fe  Fe77  1  0.00120532  0.74965205  -0.00157103  1
  Fe  Fe78  1  0.87615132  0.12549489  0.36974612  1
  Fe  Fe79  1  0.12751995  0.87834407  0.87496075  1
  Fe  Fe80  1  0.49950950  0.50006865  0.74993201  1
  Fe  Fe81  1  0.25107332  -0.00059792  0.00418594  1
  Fe  Fe82  1  0.00181472  0.00187843  0.74917579  1
  Fe  Fe83  1  0.12384749  0.62764647  0.62438045  1
  Fe  Fe84  1  0.87573331  0.37576618  0.87620078  1
  Fe  Fe85  1  -0.00045930  0.49963020  0.24776809  1
  Fe  Fe86  1  0.37879048  0.12961394  0.12327529  1
  Fe  Fe87  1  0.87740007  0.87423842  0.13056548  1
  Fe  Fe88  1  0.87280602  0.62348983  0.37535775  1
  Fe  Fe89  1  0.87369601  0.87754372  0.87571258  1
  Co  Co90  1  0.12455151  0.12490940  0.62242162  1
  Co  Co91  1  0.74640797  0.24654266  0.24920733  1
  Co  Co92  1  0.24663904  0.49957842  0.50529601  1
  Co  Co93  1  0.50339676  0.49643187  0.50087757  1
  Co  Co94  1  0.37125972  0.87580734  0.87587360  1
  Co  Co95  1  0.25012454  0.00102306  0.74764201  1
  Co  Co96  1  0.49821858  -0.00478415  0.00216109  1
  Co  Co97  1  0.12839945  0.12878862  0.37241032  1
  Co  Co98  1  0.62272376  0.12501151  0.37630605  1
  Co  Co99  1  0.87076894  0.87805022  0.36967981  1
  Co  Co100  1  0.49953500  0.50070242  0.00251954  1
  Co  Co101  1  0.62596330  0.62324349  0.87667041  1
  Co  Co102  1  0.74903762  0.25134556  -0.00134139  1
  Co  Co103  1  0.62068209  0.13193640  0.11927549  1
  Co  Co104  1  0.24908404  0.24891351  0.00024605  1
  Co  Co105  1  0.49748793  0.74807560  0.25395702  1
  Co  Co106  1  0.12611711  0.62301568  0.87614118  1
  Co  Co107  1  0.49956971  0.25173945  -0.00552748  1
  Co  Co108  1  0.37781641  0.37192069  0.12169456  1
  Co  Co109  1  0.49787805  0.25150484  0.25468408  1
  Co  Co110  1  0.00146269  0.24838001  -0.00328177  1
  Co  Co111  1  -0.00055379  0.50038381  0.00275843  1
  Co  Co112  1  0.00180465  0.25297005  0.25108518  1
  Co  Co113  1  0.25024680  0.49945759  0.24374654  1
  Co  Co114  1  0.62172510  0.36993799  0.12508581  1
  Co  Co115  1  -0.00185035  0.74708282  0.25333240  1
  Co  Co116  1  0.87825214  0.13018702  0.12654353  1
  Co  Co117  1  0.12764161  0.87176405  0.37190920  1
  Co  Co118  1  0.37653302  0.88095769  0.37171948  1
  Co  Co119  1  0.62834111  0.87921538  0.87434390  1
  Co  Co120  1  0.37478021  0.61618957  0.37602339  1
  Co  Co121  1  0.37592443  0.37347994  0.62722993  1
  Co  Co122  1  0.75219777  -0.00175517  0.00876496  1
  Co  Co123  1  0.12726941  0.11947005  0.87846025  1
  Co  Co124  1  0.74907383  0.75052532  0.49774915  1
  Co  Co125  1  0.62332855  0.87294776  0.12774164  1
  Co  Co126  1  0.00366874  0.00062964  0.25163517  1
  Co  Co127  1  0.87563461  0.62653058  0.62380943  1
