# generated using pymatgen
data_Fe45Co19
_symmetry_space_group_name_H-M   'P 1'
_cell_length_a   11.41521162
_cell_length_b   11.41529228
_cell_length_c   11.41652347
_cell_angle_alpha   90.00605464
_cell_angle_beta   90.00438799
_cell_angle_gamma   90.00476855
_symmetry_Int_Tables_number   1
_chemical_formula_structural   Fe45Co19
_chemical_formula_sum   'Fe90 Co38'
_cell_volume   1487.66406158
_cell_formula_units_Z   2
loop_
 _symmetry_equiv_pos_site_id
 _symmetry_equiv_pos_as_xyz
  1  'x, y, z'
loop_
 _atom_site_type_symbol
 _atom_site_label
 _atom_site_symmetry_multiplicity
 _atom_site_fract_x
 _atom_site_fract_y
 _atom_site_fract_z
 _atom_site_occupancy
  Fe  Fe0  1  0.87247152  0.62539445  0.87245808  1
  Fe  Fe1  1  -0.00133135  0.75111974  0.74646596  1
  Fe  Fe2  1  0.63120207  0.37272050  0.87614717  1
  Fe  Fe3  1  0.00013298  -0.00008412  0.25363922  1
  Fe  Fe4  1  0.62508852  0.12538319  0.37680325  1
  Fe  Fe5  1  0.37741246  0.37624280  0.62455720  1
  Fe  Fe6  1  0.00034177  0.74749496  0.50244566  1
  Fe  Fe7  1  0.87305489  0.61979571  0.37884350  1
  Fe  Fe8  1  0.12449880  0.87418009  0.12619257  1
  Fe  Fe9  1  0.49857564  0.50051938  0.75115999  1
  Fe  Fe10  1  0.12647099  0.87159966  0.87325810  1
  Fe  Fe11  1  0.62361475  0.12515820  0.62419995  1
  Fe  Fe12  1  0.87430899  0.12208335  0.62203041  1
  Fe  Fe13  1  -0.00170063  0.50250665  -0.00345670  1
  Fe  Fe14  1  0.12670061  0.87421894  0.37820787  1
  Fe  Fe15  1  0.75002978  -0.00160559  0.25411312  1
  Fe  Fe16  1  -0.00116213  0.24836334  0.49671898  1
  Fe  Fe17  1  0.75028619  0.25209288  0.25081229  1
  Fe  Fe18  1  0.62907269  0.12687763  0.87237363  1
  Fe  Fe19  1  0.50136826  0.75061876  0.50033191  1
  Fe  Fe20  1  -0.00298648  0.25080189  0.25119726  1
  Fe  Fe21  1  0.87488996  0.87597702  0.87404545  1
  Fe  Fe22  1  0.50251263  -0.00041724  -0.00103483  1
  Fe  Fe23  1  0.12857260  0.62565304  0.87034285  1
  Fe  Fe24  1  0.62498762  0.12293998  0.12691274  1
  Fe  Fe25  1  -0.00657182  0.25119566  0.75177880  1
  Fe  Fe26  1  0.74820317  -0.00052071  -0.00126734  1
  Fe  Fe27  1  0.87508915  0.87562109  0.12406667  1
  Fe  Fe28  1  0.75035522  0.25484230  0.50172442  1
  Fe  Fe29  1  0.49778083  -0.00359804  0.25433971  1
  Fe  Fe30  1  0.25121644  -0.00123371  0.25055508  1
  Fe  Fe31  1  -0.00176629  0.75023190  0.25232384  1
  Fe  Fe32  1  0.75192012  0.75312230  0.25176627  1
  Fe  Fe33  1  0.12178179  0.37673073  0.62684041  1
  Fe  Fe34  1  0.50247356  0.74926231  0.00329236  1
  Fe  Fe35  1  0.75036346  0.75351099  0.74591052  1
  Fe  Fe36  1  0.49673421  0.74847748  0.74981961  1
  Fe  Fe37  1  0.24961301  -0.00174594  0.74946424  1
  Fe  Fe38  1  0.49686277  0.75388234  0.24715064  1
  Fe  Fe39  1  0.00154047  0.00049444  -0.00086770  1
  Fe  Fe40  1  0.37568265  0.62591114  0.37268754  1
  Fe  Fe41  1  0.12569842  0.62553947  0.37302944  1
  Fe  Fe42  1  0.37656497  0.87625176  0.62275978  1
  Fe  Fe43  1  0.12449784  0.12764751  0.87415352  1
  Fe  Fe44  1  0.50205356  0.24823761  -0.00019279  1
  Fe  Fe45  1  0.25104375  0.50015979  0.25009639  1
  Fe  Fe46  1  0.25002080  0.25088393  0.24702339  1
  Fe  Fe47  1  0.24983872  0.50050452  -0.00081458  1
  Fe  Fe48  1  0.37566167  0.87381038  0.87734914  1
  Fe  Fe49  1  0.12497346  0.62559758  0.12667271  1
  Fe  Fe50  1  0.12412166  0.37508528  0.87436078  1
  Fe  Fe51  1  -0.00383622  0.24726256  -0.00101547  1
  Fe  Fe52  1  0.87609401  0.87739745  0.38137308  1
  Fe  Fe53  1  0.24965209  0.49967955  0.50101814  1
  Fe  Fe54  1  0.25190532  0.24933627  0.50150697  1
  Fe  Fe55  1  0.74533980  0.49671097  0.25146001  1
  Fe  Fe56  1  0.62644812  0.62638869  0.87218904  1
  Fe  Fe57  1  0.25026365  0.74746473  0.50260890  1
  Fe  Fe58  1  0.50228790  0.50050982  0.49735941  1
  Fe  Fe59  1  0.50090820  0.25063651  0.75107673  1
  Fe  Fe60  1  0.12659988  0.12610982  0.37305123  1
  Fe  Fe61  1  0.37562607  0.37544791  0.87725215  1
  Fe  Fe62  1  0.87278034  0.62424024  0.12618728  1
  Fe  Fe63  1  0.62480991  0.62641129  0.37236014  1
  Fe  Fe64  1  0.12544910  0.12643939  0.62606158  1
  Fe  Fe65  1  0.25127880  0.74840490  0.00218563  1
  Fe  Fe66  1  0.24790917  0.00304347  -0.00003741  1
  Fe  Fe67  1  0.25159481  0.25299920  0.74997265  1
  Fe  Fe68  1  0.74870445  0.75151537  0.50232607  1
  Fe  Fe69  1  0.12392054  0.37521408  0.37533720  1
  Fe  Fe70  1  0.87564633  0.12233849  0.12673409  1
  Fe  Fe71  1  0.12652397  0.62270529  0.63026920  1
  Fe  Fe72  1  0.50081023  -0.00040716  0.75041859  1
  Fe  Fe73  1  0.37609111  0.37399722  0.37475857  1
  Fe  Fe74  1  0.50157048  0.25218780  0.24882611  1
  Fe  Fe75  1  0.74829624  -0.00254347  0.74724344  1
  Fe  Fe76  1  0.37694053  0.37668345  0.12382445  1
  Fe  Fe77  1  0.62464177  0.62423297  0.62566379  1
  Fe  Fe78  1  0.50543998  0.50268322  0.00196931  1
  Fe  Fe79  1  -0.00031689  0.49916636  0.25029788  1
  Fe  Fe80  1  0.00173268  -0.00188931  0.74756481  1
  Fe  Fe81  1  0.87125320  0.37700296  0.12125704  1
  Fe  Fe82  1  0.37498275  0.12421284  0.12514858  1
  Fe  Fe83  1  0.12379829  0.37356120  0.12203156  1
  Fe  Fe84  1  0.49754311  0.24710441  0.50064703  1
  Fe  Fe85  1  0.74786116  0.75026224  0.00095174  1
  Fe  Fe86  1  0.25368891  0.00389606  0.50015257  1
  Fe  Fe87  1  0.37389124  0.12595929  0.87338107  1
  Fe  Fe88  1  0.75301820  0.49554531  0.74520582  1
  Fe  Fe89  1  -0.00106508  0.74829890  -0.00050540  1
  Co  Co90  1  0.12686728  0.87501310  0.62246937  1
  Co  Co91  1  0.75383896  0.25239846  0.74480525  1
  Co  Co92  1  -0.00388679  0.50010045  0.75332039  1
  Co  Co93  1  0.25122548  0.24887745  0.00021034  1
  Co  Co94  1  0.88092053  0.37793703  0.61911126  1
  Co  Co95  1  0.50234239  0.49790100  0.25012430  1
  Co  Co96  1  0.87149203  0.12504857  0.37745909  1
  Co  Co97  1  0.37502367  0.12870875  0.37138460  1
  Co  Co98  1  0.37719006  0.62253374  0.62244100  1
  Co  Co99  1  0.37579855  0.62253382  0.12614609  1
  Co  Co100  1  0.75118550  0.24356367  0.00165699  1
  Co  Co101  1  0.25101112  0.75070229  0.24844163  1
  Co  Co102  1  0.62665007  0.87621616  0.12672489  1
  Co  Co103  1  0.37378853  0.87729507  0.12180592  1
  Co  Co104  1  0.62033392  0.87529935  0.62461497  1
  Co  Co105  1  0.62422381  0.87261266  0.87398984  1
  Co  Co106  1  0.74499611  -0.00283223  0.50076773  1
  Co  Co107  1  0.62001439  0.37440127  0.62582926  1
  Co  Co108  1  0.00436471  0.50395909  0.49994354  1
  Co  Co109  1  0.12348112  0.12596868  0.12648332  1
  Co  Co110  1  0.37289138  0.87126627  0.37875638  1
  Co  Co111  1  0.49782939  0.00224952  0.49713561  1
  Co  Co112  1  0.87332280  0.62272240  0.62273294  1
  Co  Co113  1  0.87335729  0.12076087  0.87217308  1
  Co  Co114  1  0.87654275  0.87764259  0.62182628  1
  Co  Co115  1  0.74404655  0.49749259  0.50159058  1
  Co  Co116  1  0.87559575  0.37924953  0.37788489  1
  Co  Co117  1  0.62736754  0.37327325  0.12124578  1
  Co  Co118  1  0.62395469  0.87429398  0.37526392  1
  Co  Co119  1  0.37583587  0.12542356  0.62989667  1
  Co  Co120  1  0.25582573  0.75024585  0.74766556  1
  Co  Co121  1  0.37552680  0.62522970  0.87841998  1
  Co  Co122  1  0.62616838  0.62771240  0.13077742  1
  Co  Co123  1  0.74702767  0.50564219  0.00024288  1
  Co  Co124  1  0.86995987  0.37526337  0.87938925  1
  Co  Co125  1  0.00302265  0.00318313  0.49943411  1
  Co  Co126  1  0.25436409  0.49847793  0.74981489  1
  Co  Co127  1  0.62224844  0.37188489  0.37711791  1
