# generated using pymatgen
data_Fe45Co19
_symmetry_space_group_name_H-M   'P 1'
_cell_length_a   11.41466049
_cell_length_b   11.41614688
_cell_length_c   11.41536861
_cell_angle_alpha   90.00389416
_cell_angle_beta   90.00240389
_cell_angle_gamma   89.99679035
_symmetry_Int_Tables_number   1
_chemical_formula_structural   Fe45Co19
_chemical_formula_sum   'Fe90 Co38'
_cell_volume   1487.55312289
_cell_formula_units_Z   2
loop_
 _symmetry_equiv_pos_site_id
 _symmetry_equiv_pos_as_xyz
  1  'x, y, z'
loop_
 _atom_site_type_symbol
 _atom_site_label
 _atom_site_symmetry_multiplicity
 _atom_site_fract_x
 _atom_site_fract_y
 _atom_site_fract_z
 _atom_site_occupancy
  Fe  Fe0  1  0.50204947  0.50071469  0.49868452  1
  Fe  Fe1  1  0.12210772  0.37454827  0.87340521  1
  Fe  Fe2  1  0.62753591  0.37502096  0.37496935  1
  Fe  Fe3  1  0.12360331  0.62550289  0.37646617  1
  Fe  Fe4  1  0.50180855  -0.00182536  0.75046236  1
  Fe  Fe5  1  0.37500387  0.87801098  0.87649313  1
  Fe  Fe6  1  -0.00145071  0.74873973  0.75014613  1
  Fe  Fe7  1  0.37386519  0.62259918  0.37237546  1
  Fe  Fe8  1  0.50220590  0.74846269  0.25159802  1
  Fe  Fe9  1  0.50247860  0.00178589  0.24836584  1
  Fe  Fe10  1  0.25159149  0.24884178  0.24796311  1
  Fe  Fe11  1  0.12659671  0.12594666  0.37467198  1
  Fe  Fe12  1  0.87888524  0.87764754  0.62181668  1
  Fe  Fe13  1  0.50110035  0.74933462  0.49780411  1
  Fe  Fe14  1  0.74652446  0.50160751  0.24686424  1
  Fe  Fe15  1  0.62742741  0.12821550  0.12600529  1
  Fe  Fe16  1  0.12175144  0.37436568  0.62743661  1
  Fe  Fe17  1  0.87281637  0.37648202  0.37627302  1
  Fe  Fe18  1  0.87765273  0.62247100  0.87866503  1
  Fe  Fe19  1  0.37539453  0.37702636  0.12694885  1
  Fe  Fe20  1  0.25172823  0.25125892  0.74914403  1
  Fe  Fe21  1  0.37487632  0.62597563  0.62496773  1
  Fe  Fe22  1  0.37673481  0.12533159  0.62466699  1
  Fe  Fe23  1  0.12176822  0.62660785  0.12297417  1
  Fe  Fe24  1  0.87494998  0.12446672  0.12216873  1
  Fe  Fe25  1  0.62896018  0.12455729  0.37447791  1
  Fe  Fe26  1  0.12215556  0.62674304  0.87721375  1
  Fe  Fe27  1  0.37503745  0.62420042  0.87628183  1
  Fe  Fe28  1  0.87458890  0.37452675  0.12421710  1
  Fe  Fe29  1  0.12313366  0.37095766  0.12531891  1
  Fe  Fe30  1  0.87454473  0.87677603  0.87553949  1
  Fe  Fe31  1  0.49994714  0.24961570  -0.00084211  1
  Fe  Fe32  1  0.87469061  0.12530247  0.62767677  1
  Fe  Fe33  1  0.12643012  0.37251956  0.37468975  1
  Fe  Fe34  1  0.74822671  -0.00257301  0.74606836  1
  Fe  Fe35  1  0.74866003  0.25022196  0.50400877  1
  Fe  Fe36  1  0.24774019  0.49826555  0.00116171  1
  Fe  Fe37  1  0.00016815  0.24905660  0.50021986  1
  Fe  Fe38  1  0.62804508  0.12517328  0.87209700  1
  Fe  Fe39  1  0.75142171  0.74995818  0.24773851  1
  Fe  Fe40  1  0.87467357  0.62293418  0.37604223  1
  Fe  Fe41  1  0.75075137  0.75074577  0.00186294  1
  Fe  Fe42  1  0.37256055  0.12279043  0.12121070  1
  Fe  Fe43  1  0.24951243  0.75299192  0.00046514  1
  Fe  Fe44  1  0.12174560  0.87510463  0.12518089  1
  Fe  Fe45  1  0.00033356  0.49929016  0.24925553  1
  Fe  Fe46  1  0.50422028  -0.00015080  0.50091575  1
  Fe  Fe47  1  0.50002588  0.25061204  0.25039778  1
  Fe  Fe48  1  0.37064712  0.12281166  0.87701529  1
  Fe  Fe49  1  0.74607746  -0.00219299  0.00194869  1
  Fe  Fe50  1  -0.00017980  0.24624717  -0.00644308  1
  Fe  Fe51  1  0.24843922  0.50148424  0.75057877  1
  Fe  Fe52  1  0.12124719  0.87628907  0.62626506  1
  Fe  Fe53  1  0.87717356  0.62160493  0.62238323  1
  Fe  Fe54  1  0.37657515  0.62346514  0.12639977  1
  Fe  Fe55  1  0.75120862  0.25304865  -0.00456722  1
  Fe  Fe56  1  0.37831455  0.87347930  0.62465575  1
  Fe  Fe57  1  0.37249996  0.37658856  0.37381896  1
  Fe  Fe58  1  -0.00429387  0.24804843  0.25117322  1
  Fe  Fe59  1  0.50172855  0.75216718  -0.00248198  1
  Fe  Fe60  1  0.50152508  0.25070632  0.75108814  1
  Fe  Fe61  1  0.37316874  0.12465572  0.37666497  1
  Fe  Fe62  1  0.50128867  0.50137793  0.74979134  1
  Fe  Fe63  1  0.74973744  0.49723119  0.75056548  1
  Fe  Fe64  1  0.24737549  0.49971150  0.50067992  1
  Fe  Fe65  1  0.74916080  0.49824313  0.00065267  1
  Fe  Fe66  1  0.87664317  0.87662904  0.12458507  1
  Fe  Fe67  1  0.37464347  0.87677845  0.37454232  1
  Fe  Fe68  1  0.12207603  0.87538919  0.37652303  1
  Fe  Fe69  1  0.75206458  0.75100521  0.50051712  1
  Fe  Fe70  1  0.25075755  0.74989297  0.74989745  1
  Fe  Fe71  1  0.87099909  0.12255401  0.37756219  1
  Fe  Fe72  1  0.37613914  0.37580155  0.62378170  1
  Fe  Fe73  1  0.50128706  0.25049031  0.49936917  1
  Fe  Fe74  1  0.62597149  0.62617259  0.87475246  1
  Fe  Fe75  1  0.62506704  0.62666200  0.62491904  1
  Fe  Fe76  1  0.12385742  0.12389803  0.62940181  1
  Fe  Fe77  1  -0.00365730  0.74980028  0.25106039  1
  Fe  Fe78  1  0.24909508  0.00068710  0.50240155  1
  Fe  Fe79  1  0.37570877  0.37566309  0.87530691  1
  Fe  Fe80  1  0.00409497  0.00206170  -0.00609429  1
  Fe  Fe81  1  0.24884399  0.75081265  0.50036169  1
  Fe  Fe82  1  0.24992923  0.75029903  0.24924857  1
  Fe  Fe83  1  0.87757667  0.37509589  0.62759919  1
  Fe  Fe84  1  0.24867888  -0.00030892  0.24776408  1
  Fe  Fe85  1  0.50281982  0.49872711  0.00181170  1
  Fe  Fe86  1  -0.00233359  0.00229257  0.25212675  1
  Fe  Fe87  1  0.37769510  0.87735215  0.12381594  1
  Fe  Fe88  1  0.62942266  0.87656038  0.37427153  1
  Fe  Fe89  1  0.75203428  0.75016920  0.74938924  1
  Co  Co90  1  0.24916514  0.24914865  0.50309397  1
  Co  Co91  1  0.87623588  0.62377622  0.12368214  1
  Co  Co92  1  0.50508675  0.00151245  -0.00113224  1
  Co  Co93  1  0.50538398  0.49972324  0.25075526  1
  Co  Co94  1  0.00032106  0.00352192  0.49846998  1
  Co  Co95  1  0.62839380  0.62579659  0.37720204  1
  Co  Co96  1  0.13221063  0.12475340  0.87056105  1
  Co  Co97  1  0.75023398  0.25462928  0.75079046  1
  Co  Co98  1  0.62374446  0.87044434  0.62551949  1
  Co  Co99  1  0.87361692  0.87642378  0.37668406  1
  Co  Co100  1  0.62451515  0.12703199  0.62776456  1
  Co  Co101  1  0.75001114  0.49890748  0.50284520  1
  Co  Co102  1  -0.00249053  0.00165956  0.75452566  1
  Co  Co103  1  0.24598199  0.50087189  0.24777796  1
  Co  Co104  1  -0.00233247  0.75290136  -0.00125351  1
  Co  Co105  1  0.24938169  0.25228838  -0.00046689  1
  Co  Co106  1  -0.00154983  0.74862317  0.50039717  1
  Co  Co107  1  0.62353001  0.37536852  0.62544655  1
  Co  Co108  1  0.00136068  0.49824669  0.49920181  1
  Co  Co109  1  0.12364606  0.12677622  0.12543623  1
  Co  Co110  1  0.25302576  -0.00295914  0.74751241  1
  Co  Co111  1  0.62330933  0.87335951  0.12656130  1
  Co  Co112  1  0.00016684  0.50365478  0.74995504  1
  Co  Co113  1  0.62332569  0.62740150  0.12228300  1
  Co  Co114  1  0.87834863  0.37787124  0.87354237  1
  Co  Co115  1  0.75298249  0.24930576  0.25028780  1
  Co  Co116  1  0.86779927  0.12197264  0.87338001  1
  Co  Co117  1  0.62718469  0.87363810  0.87298356  1
  Co  Co118  1  0.62307842  0.37539991  0.87448207  1
  Co  Co119  1  0.12423335  0.87324229  0.87108259  1
  Co  Co120  1  -0.00275613  0.24548725  0.75501359  1
  Co  Co121  1  0.12481823  0.62574970  0.62457224  1
  Co  Co122  1  0.49904283  0.74963727  0.75303668  1
  Co  Co123  1  0.00066711  0.49740778  0.00232904  1
  Co  Co124  1  0.75158994  -0.00011764  0.24710742  1
  Co  Co125  1  0.24453493  -0.00263441  0.00112824  1
  Co  Co126  1  0.74809207  -0.00008871  0.50452178  1
  Co  Co127  1  0.62642201  0.37105517  0.12528102  1
