# generated using pymatgen
data_Fe45Co19
_symmetry_space_group_name_H-M   'P 1'
_cell_length_a   11.41453402
_cell_length_b   11.41474442
_cell_length_c   11.41449435
_cell_angle_alpha   89.99781673
_cell_angle_beta   90.00210615
_cell_angle_gamma   89.99601279
_symmetry_Int_Tables_number   1
_chemical_formula_structural   Fe45Co19
_chemical_formula_sum   'Fe90 Co38'
_cell_volume   1487.23998962
_cell_formula_units_Z   2
loop_
 _symmetry_equiv_pos_site_id
 _symmetry_equiv_pos_as_xyz
  1  'x, y, z'
loop_
 _atom_site_type_symbol
 _atom_site_label
 _atom_site_symmetry_multiplicity
 _atom_site_fract_x
 _atom_site_fract_y
 _atom_site_fract_z
 _atom_site_occupancy
  Fe  Fe0  1  0.74657463  0.49816593  0.49719872  1
  Fe  Fe1  1  0.25196514  0.24866095  0.74956778  1
  Fe  Fe2  1  0.12465284  0.12485761  0.37642035  1
  Fe  Fe3  1  0.25014413  0.00043431  0.50129531  1
  Fe  Fe4  1  0.25251555  0.49747771  -0.00182876  1
  Fe  Fe5  1  0.50026950  -0.00280589  0.50120604  1
  Fe  Fe6  1  0.12450698  0.37236200  0.87554642  1
  Fe  Fe7  1  0.37339523  0.87860045  0.37208591  1
  Fe  Fe8  1  0.87414600  0.62624929  0.37484355  1
  Fe  Fe9  1  0.74767981  0.74842588  0.75034855  1
  Fe  Fe10  1  -0.00167901  0.00062584  0.50019528  1
  Fe  Fe11  1  0.50023784  0.49592343  0.00012098  1
  Fe  Fe12  1  0.37652820  0.37366602  0.12892891  1
  Fe  Fe13  1  0.12557432  0.62505674  0.87655690  1
  Fe  Fe14  1  -0.00173465  0.24867908  0.24904842  1
  Fe  Fe15  1  0.87371258  0.37467013  0.87421285  1
  Fe  Fe16  1  0.87404670  0.87577230  0.62742348  1
  Fe  Fe17  1  0.49922937  0.25485440  0.50041825  1
  Fe  Fe18  1  0.37940083  0.87612110  0.87056326  1
  Fe  Fe19  1  0.75041401  0.24501754  0.24905231  1
  Fe  Fe20  1  0.12538477  0.87391090  0.87229324  1
  Fe  Fe21  1  0.12500383  0.87710812  0.37272967  1
  Fe  Fe22  1  0.62531643  0.87900700  0.12716604  1
  Fe  Fe23  1  0.49621678  0.50037166  0.75087796  1
  Fe  Fe24  1  0.87691346  0.12372471  0.12126957  1
  Fe  Fe25  1  0.75153230  0.75202565  0.49988229  1
  Fe  Fe26  1  0.62514595  0.37283479  0.12812864  1
  Fe  Fe27  1  0.37710981  0.12323263  0.12300812  1
  Fe  Fe28  1  0.87324360  0.87506080  0.87347345  1
  Fe  Fe29  1  0.25174044  0.24532832  0.24965415  1
  Fe  Fe30  1  -0.00143228  0.50259317  0.74976547  1
  Fe  Fe31  1  0.62204110  0.62502661  0.62152453  1
  Fe  Fe32  1  0.25104833  0.00343820  0.75068281  1
  Fe  Fe33  1  0.25096815  -0.00014786  -0.00190762  1
  Fe  Fe34  1  0.87434127  0.37659437  0.62451788  1
  Fe  Fe35  1  0.74895736  0.49840983  -0.00030484  1
  Fe  Fe36  1  0.25222829  0.75062109  0.50170222  1
  Fe  Fe37  1  0.50073250  0.00098556  -0.00175362  1
  Fe  Fe38  1  -0.00062555  0.75171198  0.00024119  1
  Fe  Fe39  1  0.50034952  0.24451090  0.25145004  1
  Fe  Fe40  1  0.87480041  0.62525603  0.12587932  1
  Fe  Fe41  1  0.12605756  0.87581308  0.62694692  1
  Fe  Fe42  1  0.74885986  0.75035127  0.00108982  1
  Fe  Fe43  1  0.87278282  0.37180272  0.37509183  1
  Fe  Fe44  1  0.37606853  0.62421286  0.12533338  1
  Fe  Fe45  1  0.50180564  0.50114927  0.25666088  1
  Fe  Fe46  1  0.49546000  0.75157757  0.50195570  1
  Fe  Fe47  1  -0.00197921  0.49732997  0.00081975  1
  Fe  Fe48  1  0.00117264  0.50001260  0.49999208  1
  Fe  Fe49  1  0.12325902  0.87787139  0.12723288  1
  Fe  Fe50  1  0.12566495  0.37265594  0.12416727  1
  Fe  Fe51  1  0.00015927  0.74980141  0.50121111  1
  Fe  Fe52  1  0.25252147  0.75195392  0.00013348  1
  Fe  Fe53  1  0.62798512  0.12422492  0.37891617  1
  Fe  Fe54  1  0.62502856  0.12497037  0.62182244  1
  Fe  Fe55  1  -0.00075850  0.49890969  0.24994487  1
  Fe  Fe56  1  0.37742017  0.12400059  0.62556887  1
  Fe  Fe57  1  0.25076815  0.50079730  0.25192518  1
  Fe  Fe58  1  0.12319173  0.12432428  0.12112591  1
  Fe  Fe59  1  0.74428693  -0.00095284  0.74981101  1
  Fe  Fe60  1  0.25177538  0.25010752  0.50074728  1
  Fe  Fe61  1  0.12594449  0.62615577  0.37449967  1
  Fe  Fe62  1  -0.00204893  0.74617726  0.74862561  1
  Fe  Fe63  1  -0.00107240  0.24828944  0.74931254  1
  Fe  Fe64  1  0.62145537  0.12864430  0.87563341  1
  Fe  Fe65  1  0.12553841  0.62494179  0.12360477  1
  Fe  Fe66  1  0.74767059  0.50161347  0.25236290  1
  Fe  Fe67  1  0.87608785  0.87716630  0.12763494  1
  Fe  Fe68  1  0.74881057  0.25177860  -0.00059909  1
  Fe  Fe69  1  0.12654675  0.37274262  0.37419126  1
  Fe  Fe70  1  0.62322775  0.37758606  0.62631858  1
  Fe  Fe71  1  0.62406904  0.62485933  0.12616886  1
  Fe  Fe72  1  0.87254693  0.12405661  0.62423308  1
  Fe  Fe73  1  0.75074728  0.50251633  0.75048479  1
  Fe  Fe74  1  -0.00052852  0.25000492  0.50258166  1
  Fe  Fe75  1  0.12387952  0.12724231  0.87787841  1
  Fe  Fe76  1  0.74800584  0.25036365  0.74876189  1
  Fe  Fe77  1  0.25019196  0.75040995  0.24878639  1
  Fe  Fe78  1  0.87521010  0.87585744  0.37090222  1
  Fe  Fe79  1  0.62249104  0.62552902  0.87579122  1
  Fe  Fe80  1  0.12868161  0.37710578  0.62645115  1
  Fe  Fe81  1  0.12963573  0.62192752  0.62536206  1
  Fe  Fe82  1  0.74931940  0.00029709  -0.00159680  1
  Fe  Fe83  1  0.50071963  0.75089728  0.25075884  1
  Fe  Fe84  1  0.37740358  0.36965442  0.87474132  1
  Fe  Fe85  1  0.37675828  0.87892376  0.12783868  1
  Fe  Fe86  1  -0.00000979  0.00221710  0.75121566  1
  Fe  Fe87  1  0.25586988  0.74605690  0.74931441  1
  Fe  Fe88  1  0.50007328  0.75132929  0.00062552  1
  Fe  Fe89  1  0.62701930  0.87631718  0.37362165  1
  Co  Co90  1  0.37246059  0.37829305  0.62404321  1
  Co  Co91  1  0.37371898  0.87860019  0.62867231  1
  Co  Co92  1  0.50025332  0.25077329  0.74611559  1
  Co  Co93  1  0.87294092  0.12787928  0.37944708  1
  Co  Co94  1  0.62673585  0.36898836  0.37122748  1
  Co  Co95  1  0.62406361  0.12418419  0.12204042  1
  Co  Co96  1  0.75172423  -0.00316098  0.50009761  1
  Co  Co97  1  -0.00120252  0.00415877  0.25194674  1
  Co  Co98  1  0.24938922  0.00365329  0.24918241  1
  Co  Co99  1  0.87435693  0.62538994  0.87792788  1
  Co  Co100  1  0.00105038  0.74894162  0.24959712  1
  Co  Co101  1  0.37491511  0.61860463  0.62100766  1
  Co  Co102  1  0.74843441  0.25356172  0.50379117  1
  Co  Co103  1  0.37486928  0.62630062  0.37527425  1
  Co  Co104  1  0.50258350  0.00322970  0.25204493  1
  Co  Co105  1  0.74833332  0.75036794  0.24831258  1
  Co  Co106  1  0.37937063  0.12558796  0.87380735  1
  Co  Co107  1  0.12552350  0.12436515  0.62444940  1
  Co  Co108  1  0.37365449  0.37262451  0.37252186  1
  Co  Co109  1  0.25050123  0.49824813  0.49501718  1
  Co  Co110  1  -0.00351032  0.25219246  -0.00044272  1
  Co  Co111  1  0.75070436  0.00381988  0.25010185  1
  Co  Co112  1  0.50150167  0.49570632  0.49401164  1
  Co  Co113  1  0.62279178  0.87292537  0.87632657  1
  Co  Co114  1  -0.00004306  -0.00202595  -0.00355288  1
  Co  Co115  1  0.87241132  0.12516333  0.87406717  1
  Co  Co116  1  0.37855917  0.62648107  0.87849196  1
  Co  Co117  1  0.62478135  0.37476747  0.87340412  1
  Co  Co118  1  0.25333875  0.24993602  0.00084746  1
  Co  Co119  1  0.87150748  0.37459630  0.12687543  1
  Co  Co120  1  0.25280888  0.49964716  0.75635705  1
  Co  Co121  1  0.62548195  0.87174864  0.62296972  1
  Co  Co122  1  0.50554154  -0.00000405  0.74787291  1
  Co  Co123  1  0.37587263  0.12324838  0.37838810  1
  Co  Co124  1  0.62403971  0.63024977  0.37801504  1
  Co  Co125  1  0.87239999  0.62423859  0.62164359  1
  Co  Co126  1  0.49908090  0.74855043  0.74649486  1
  Co  Co127  1  0.50068384  0.25217284  0.00211647  1
