# generated using pymatgen
data_Fe45Co19
_symmetry_space_group_name_H-M   'P 1'
_cell_length_a   11.41620755
_cell_length_b   11.41525426
_cell_length_c   11.41562831
_cell_angle_alpha   90.00271692
_cell_angle_beta   90.00774134
_cell_angle_gamma   89.99792180
_symmetry_Int_Tables_number   1
_chemical_formula_structural   Fe45Co19
_chemical_formula_sum   'Fe90 Co38'
_cell_volume   1487.67224366
_cell_formula_units_Z   2
loop_
 _symmetry_equiv_pos_site_id
 _symmetry_equiv_pos_as_xyz
  1  'x, y, z'
loop_
 _atom_site_type_symbol
 _atom_site_label
 _atom_site_symmetry_multiplicity
 _atom_site_fract_x
 _atom_site_fract_y
 _atom_site_fract_z
 _atom_site_occupancy
  Fe  Fe0  1  0.50017554  -0.00189873  0.75244863  1
  Fe  Fe1  1  0.37719760  0.12602740  0.37717752  1
  Fe  Fe2  1  0.62855059  0.12362677  0.62230614  1
  Fe  Fe3  1  0.87582826  0.87584184  0.62538815  1
  Fe  Fe4  1  0.00057802  0.25089089  -0.00063193  1
  Fe  Fe5  1  0.62492253  0.37554719  0.62708769  1
  Fe  Fe6  1  0.49857131  0.50682235  0.75104618  1
  Fe  Fe7  1  0.50247922  0.24826819  0.24852569  1
  Fe  Fe8  1  0.37577946  0.12454272  0.62361752  1
  Fe  Fe9  1  0.37629526  0.37418460  0.12304822  1
  Fe  Fe10  1  0.62787837  0.86855604  0.87368300  1
  Fe  Fe11  1  0.37747119  0.37340574  0.87456540  1
  Fe  Fe12  1  0.50067520  0.49953375  0.24934301  1
  Fe  Fe13  1  0.37464165  0.87438829  0.12457106  1
  Fe  Fe14  1  0.87841493  0.37332108  0.37748912  1
  Fe  Fe15  1  0.12501992  0.12265850  0.12547747  1
  Fe  Fe16  1  0.12636135  0.62339358  0.62489387  1
  Fe  Fe17  1  0.87488498  0.62451726  0.12687664  1
  Fe  Fe18  1  -0.00163899  0.49922503  -0.00077745  1
  Fe  Fe19  1  0.62473965  0.87334753  0.62680260  1
  Fe  Fe20  1  0.62328331  0.62815814  0.62377572  1
  Fe  Fe21  1  0.74947957  0.49954199  0.25178038  1
  Fe  Fe22  1  0.12478300  0.37549701  0.12632431  1
  Fe  Fe23  1  -0.00500240  0.00152869  0.49844736  1
  Fe  Fe24  1  0.87608659  0.62519652  0.62319446  1
  Fe  Fe25  1  0.62658017  0.12542927  0.12108645  1
  Fe  Fe26  1  0.12599364  0.62639461  0.87396786  1
  Fe  Fe27  1  0.37565393  0.37192820  0.37674050  1
  Fe  Fe28  1  0.62345841  0.37347579  0.37571757  1
  Fe  Fe29  1  0.75016992  0.50201849  0.75075208  1
  Fe  Fe30  1  0.37118048  0.63084295  0.87669198  1
  Fe  Fe31  1  0.74659056  0.25377582  -0.00527603  1
  Fe  Fe32  1  -0.00000352  0.75067978  0.74936436  1
  Fe  Fe33  1  -0.00142992  0.50057505  0.75024293  1
  Fe  Fe34  1  0.49964028  0.49889704  0.50109855  1
  Fe  Fe35  1  0.00011905  0.75112583  0.49843454  1
  Fe  Fe36  1  0.25162834  -0.00001229  0.50011994  1
  Fe  Fe37  1  0.50196238  -0.00110990  0.50010321  1
  Fe  Fe38  1  0.74906902  0.24710919  0.25198798  1
  Fe  Fe39  1  0.87650184  0.37404018  0.62378005  1
  Fe  Fe40  1  0.24899386  0.49888379  0.25252812  1
  Fe  Fe41  1  0.87609387  0.62690540  0.37544531  1
  Fe  Fe42  1  0.75002377  0.75238726  0.49898374  1
  Fe  Fe43  1  0.75357274  -0.00054850  0.75136199  1
  Fe  Fe44  1  0.12605851  0.12410733  0.37505812  1
  Fe  Fe45  1  0.50139509  0.00195609  0.24928958  1
  Fe  Fe46  1  0.24993274  0.24915977  0.25026387  1
  Fe  Fe47  1  0.12220260  0.87776398  0.37210619  1
  Fe  Fe48  1  0.50217870  0.74963604  0.25020571  1
  Fe  Fe49  1  0.62627630  0.62537089  0.12332815  1
  Fe  Fe50  1  0.24909943  0.24944224  -0.00112995  1
  Fe  Fe51  1  -0.00236141  0.24540285  0.25037014  1
  Fe  Fe52  1  0.12375832  0.87840364  0.12939005  1
  Fe  Fe53  1  0.75081421  0.49872017  0.50038612  1
  Fe  Fe54  1  0.50253856  0.50072501  -0.00149627  1
  Fe  Fe55  1  -0.00060987  0.75201783  0.00167047  1
  Fe  Fe56  1  0.75239533  -0.00334406  -0.00074838  1
  Fe  Fe57  1  0.37572845  0.87496170  0.37390940  1
  Fe  Fe58  1  0.50066613  -0.00389292  -0.00211947  1
  Fe  Fe59  1  0.00196387  0.50089871  0.25313100  1
  Fe  Fe60  1  0.62907406  0.87830247  0.37240696  1
  Fe  Fe61  1  0.12401045  0.37573277  0.87311968  1
  Fe  Fe62  1  0.12451342  0.12187475  0.62596076  1
  Fe  Fe63  1  -0.00365526  -0.00142954  0.00061291  1
  Fe  Fe64  1  0.25033645  -0.00111441  -0.00069776  1
  Fe  Fe65  1  -0.00248052  0.24698106  0.74946253  1
  Fe  Fe66  1  0.12531928  0.62410794  0.12522997  1
  Fe  Fe67  1  0.37664011  0.87327815  0.62664331  1
  Fe  Fe68  1  0.24908487  0.49897470  -0.00164166  1
  Fe  Fe69  1  0.87315783  0.62838258  0.87512367  1
  Fe  Fe70  1  0.87423012  0.87413359  0.13278360  1
  Fe  Fe71  1  0.12309759  0.12147485  0.87331154  1
  Fe  Fe72  1  0.87394047  0.37380410  0.12527096  1
  Fe  Fe73  1  0.50245569  0.24727794  0.74985026  1
  Fe  Fe74  1  0.12590503  0.87696068  0.87161839  1
  Fe  Fe75  1  0.62395192  0.62517211  0.37742554  1
  Fe  Fe76  1  0.24850475  0.75243204  0.50125553  1
  Fe  Fe77  1  0.12332950  0.37570152  0.62393502  1
  Fe  Fe78  1  0.37433943  0.62667631  0.12405206  1
  Fe  Fe79  1  0.12405574  0.87899811  0.62735359  1
  Fe  Fe80  1  0.74995395  0.24924479  0.75264677  1
  Fe  Fe81  1  0.74904217  0.49770652  -0.00247375  1
  Fe  Fe82  1  0.37471032  0.37493031  0.62570725  1
  Fe  Fe83  1  0.62719903  0.87416714  0.12701604  1
  Fe  Fe84  1  0.24824210  0.75086527  0.24933387  1
  Fe  Fe85  1  0.37671143  0.12417329  0.87602331  1
  Fe  Fe86  1  0.24789130  0.49783668  0.49878062  1
  Fe  Fe87  1  0.37505214  0.62700617  0.37746812  1
  Fe  Fe88  1  0.24956195  0.24862444  0.74944352  1
  Fe  Fe89  1  0.37584710  0.12452460  0.12284052  1
  Co  Co90  1  0.75221405  0.74957834  0.74550943  1
  Co  Co91  1  0.49787312  0.74786412  0.75137360  1
  Co  Co92  1  0.62960459  0.62959383  0.87585416  1
  Co  Co93  1  0.37404745  0.62639111  0.62010622  1
  Co  Co94  1  0.87461575  0.87229600  0.87298335  1
  Co  Co95  1  0.25339181  0.00040770  0.74957819  1
  Co  Co96  1  0.25140024  0.50031763  0.75069922  1
  Co  Co97  1  0.24964135  0.75075831  0.74633585  1
  Co  Co98  1  0.37205767  0.87230079  0.87473303  1
  Co  Co99  1  0.00014505  0.24537912  0.50137035  1
  Co  Co100  1  0.62577594  0.12170265  0.87596966  1
  Co  Co101  1  0.50238464  0.25053637  0.50304181  1
  Co  Co102  1  0.87517717  0.12483460  0.87742299  1
  Co  Co103  1  0.62587977  0.37492541  0.12557282  1
  Co  Co104  1  0.87170436  0.12808105  0.11823098  1
  Co  Co105  1  0.24903395  0.24911192  0.50201234  1
  Co  Co106  1  0.50114359  0.75120465  -0.00002675  1
  Co  Co107  1  0.50249002  0.25040168  -0.00044748  1
  Co  Co108  1  0.74909596  0.25353798  0.49994334  1
  Co  Co109  1  0.62104366  0.37741634  0.87089461  1
  Co  Co110  1  0.25270728  0.00099804  0.25060221  1
  Co  Co111  1  0.87061260  0.12555956  0.62439243  1
  Co  Co112  1  0.12212571  0.37136714  0.37553873  1
  Co  Co113  1  -0.00532596  0.00124228  0.74979396  1
  Co  Co114  1  0.86994307  0.12440851  0.38042845  1
  Co  Co115  1  0.12704514  0.62716205  0.37636750  1
  Co  Co116  1  0.00189185  0.74789850  0.25036909  1
  Co  Co117  1  0.24579121  0.75277237  0.00248933  1
  Co  Co118  1  0.62500390  0.12370217  0.37946693  1
  Co  Co119  1  0.75127639  0.00646446  0.24830918  1
  Co  Co120  1  0.87412862  0.87457676  0.37020958  1
  Co  Co121  1  0.50220046  0.75343169  0.49867921  1
  Co  Co122  1  -0.00565411  0.00673623  0.25031666  1
  Co  Co123  1  0.75353322  0.75171318  0.00427045  1
  Co  Co124  1  0.87625281  0.37483057  0.87369195  1
  Co  Co125  1  0.00093732  0.50175361  0.49857551  1
  Co  Co126  1  0.74791250  0.74621107  0.25113843  1
  Co  Co127  1  0.75158353  -0.00451834  0.50113301  1
