# generated using pymatgen
data_Fe45Co19
_symmetry_space_group_name_H-M   'P 1'
_cell_length_a   11.41527726
_cell_length_b   11.41490015
_cell_length_c   11.41611938
_cell_angle_alpha   90.00083877
_cell_angle_beta   89.99744702
_cell_angle_gamma   90.00440199
_symmetry_Int_Tables_number   1
_chemical_formula_structural   Fe45Co19
_chemical_formula_sum   'Fe90 Co38'
_cell_volume   1487.56886933
_cell_formula_units_Z   2
loop_
 _symmetry_equiv_pos_site_id
 _symmetry_equiv_pos_as_xyz
  1  'x, y, z'
loop_
 _atom_site_type_symbol
 _atom_site_label
 _atom_site_symmetry_multiplicity
 _atom_site_fract_x
 _atom_site_fract_y
 _atom_site_fract_z
 _atom_site_occupancy
  Fe  Fe0  1  0.12318725  0.87322442  0.62709679  1
  Fe  Fe1  1  0.12550403  0.87687103  0.12718238  1
  Fe  Fe2  1  0.24975262  -0.00107488  0.50133894  1
  Fe  Fe3  1  0.24994354  0.49693220  0.50240104  1
  Fe  Fe4  1  0.62097112  0.62706819  0.87774571  1
  Fe  Fe5  1  -0.00256425  0.49932149  0.24883984  1
  Fe  Fe6  1  0.87270655  0.87370064  0.87588496  1
  Fe  Fe7  1  0.62518907  0.12368215  0.87618803  1
  Fe  Fe8  1  0.00165464  0.49569821  0.49955195  1
  Fe  Fe9  1  0.49919270  -0.00365453  0.00219579  1
  Fe  Fe10  1  0.12523755  0.62145988  0.87529874  1
  Fe  Fe11  1  0.75251230  0.00402171  0.74776984  1
  Fe  Fe12  1  0.74566305  0.75070114  0.00357241  1
  Fe  Fe13  1  0.00101279  0.00112037  -0.00274210  1
  Fe  Fe14  1  0.74862616  0.00177338  0.49984338  1
  Fe  Fe15  1  0.24927212  0.25254325  0.74897220  1
  Fe  Fe16  1  -0.00102309  0.74959585  0.25024793  1
  Fe  Fe17  1  0.37684502  0.12793747  0.62424250  1
  Fe  Fe18  1  0.62402631  0.37539114  0.62717619  1
  Fe  Fe19  1  0.37636984  0.87357188  0.62606231  1
  Fe  Fe20  1  -0.00230103  0.00321318  0.75190525  1
  Fe  Fe21  1  0.24815059  0.25405985  0.50128768  1
  Fe  Fe22  1  0.62414891  0.87458998  0.87237546  1
  Fe  Fe23  1  0.37395060  0.62312421  0.37806866  1
  Fe  Fe24  1  0.12186004  0.62420856  0.62449577  1
  Fe  Fe25  1  0.75354771  0.50431817  0.74899842  1
  Fe  Fe26  1  -0.00289731  0.74515312  0.75190092  1
  Fe  Fe27  1  0.37391454  0.12666842  0.87576341  1
  Fe  Fe28  1  0.74950975  0.24494991  0.74701507  1
  Fe  Fe29  1  0.74964275  0.49785683  0.50060571  1
  Fe  Fe30  1  0.75230570  0.49955212  0.24870338  1
  Fe  Fe31  1  0.25245074  0.49851887  0.74965590  1
  Fe  Fe32  1  0.50164881  0.25241789  0.50051237  1
  Fe  Fe33  1  0.62566739  0.37497322  0.37288537  1
  Fe  Fe34  1  0.12545197  0.87548311  0.87296074  1
  Fe  Fe35  1  0.49777644  0.49970360  0.75259203  1
  Fe  Fe36  1  0.24947629  0.00468265  0.25000376  1
  Fe  Fe37  1  0.62410273  0.12541015  0.12602264  1
  Fe  Fe38  1  0.25021129  0.00109862  0.74870494  1
  Fe  Fe39  1  0.13034621  0.37655451  0.36857240  1
  Fe  Fe40  1  0.87263228  0.87494930  0.37356322  1
  Fe  Fe41  1  0.50006188  0.49784386  0.49943122  1
  Fe  Fe42  1  0.00340839  0.25087730  -0.00044279  1
  Fe  Fe43  1  0.74836613  -0.00081513  0.00272756  1
  Fe  Fe44  1  0.87594867  0.62423439  0.37819236  1
  Fe  Fe45  1  0.12266923  0.12627837  0.62311243  1
  Fe  Fe46  1  0.87583263  0.12901335  0.37856316  1
  Fe  Fe47  1  0.37523608  0.87475075  0.37161303  1
  Fe  Fe48  1  0.74755335  0.49939112  0.00096819  1
  Fe  Fe49  1  0.49710049  0.49976044  0.24991154  1
  Fe  Fe50  1  0.25216480  0.49589305  0.00000562  1
  Fe  Fe51  1  0.87523716  0.87685253  0.12714999  1
  Fe  Fe52  1  0.62314437  0.87405988  0.13579729  1
  Fe  Fe53  1  0.24688006  0.25309139  0.00254606  1
  Fe  Fe54  1  0.24827633  0.75049808  0.50051348  1
  Fe  Fe55  1  -0.00074558  0.49787622  -0.00054478  1
  Fe  Fe56  1  0.87425777  0.37453905  0.87566374  1
  Fe  Fe57  1  0.62463454  0.37571367  0.12726047  1
  Fe  Fe58  1  0.37487562  0.12552910  0.12382199  1
  Fe  Fe59  1  0.00047730  0.24911716  0.75261407  1
  Fe  Fe60  1  0.74757674  0.74897807  0.49967351  1
  Fe  Fe61  1  0.12564875  0.62325374  0.12378796  1
  Fe  Fe62  1  0.62563731  0.12547619  0.37517214  1
  Fe  Fe63  1  0.12707019  0.87513700  0.37216460  1
  Fe  Fe64  1  0.12503277  0.62341010  0.37476882  1
  Fe  Fe65  1  0.50018275  0.25344547  -0.00143033  1
  Fe  Fe66  1  0.49932365  0.00228424  0.74994712  1
  Fe  Fe67  1  0.25250400  0.74791994  0.75167994  1
  Fe  Fe68  1  0.37962105  0.62402148  0.11935101  1
  Fe  Fe69  1  0.00181335  -0.00119648  0.49805326  1
  Fe  Fe70  1  0.87582078  0.87331914  0.62410113  1
  Fe  Fe71  1  0.62571772  0.62524117  0.37253079  1
  Fe  Fe72  1  0.75160546  0.25010088  0.24947510  1
  Fe  Fe73  1  0.87616761  0.37192906  0.62325389  1
  Fe  Fe74  1  0.00274914  0.24968372  0.24997019  1
  Fe  Fe75  1  0.37293967  0.12801619  0.37643491  1
  Fe  Fe76  1  0.74909592  0.25042079  0.00096630  1
  Fe  Fe77  1  0.49752303  0.25027218  0.25033682  1
  Fe  Fe78  1  0.62408901  0.87488533  0.62551015  1
  Fe  Fe79  1  0.37656268  0.62485660  0.62382640  1
  Fe  Fe80  1  0.87363078  0.62491884  0.12237709  1
  Fe  Fe81  1  0.50204394  0.75061039  0.49834249  1
  Fe  Fe82  1  0.00117161  0.75031212  -0.00041592  1
  Fe  Fe83  1  0.62635688  0.37393864  0.87230114  1
  Fe  Fe84  1  0.25178618  0.74592962  0.24896055  1
  Fe  Fe85  1  0.50054009  -0.00118392  0.49720863  1
  Fe  Fe86  1  0.75079097  0.74564976  0.74799764  1
  Fe  Fe87  1  0.87686337  0.12490734  0.12370832  1
  Fe  Fe88  1  0.25352890  0.75287236  -0.00144015  1
  Fe  Fe89  1  0.25039800  -0.00165700  -0.00080541  1
  Co  Co90  1  0.62231941  0.62376881  0.12535182  1
  Co  Co91  1  0.37848589  0.37407183  0.62545288  1
  Co  Co92  1  0.62231043  0.12339399  0.62331986  1
  Co  Co93  1  0.49592680  0.74564939  0.25066424  1
  Co  Co94  1  0.25482403  0.50364997  0.24722980  1
  Co  Co95  1  0.37563496  0.87647921  0.87158622  1
  Co  Co96  1  0.00591414  0.25503075  0.49611124  1
  Co  Co97  1  0.75125171  0.00505044  0.25076880  1
  Co  Co98  1  0.74544931  0.25114223  0.50188897  1
  Co  Co99  1  0.50181625  0.49345460  -0.00172219  1
  Co  Co100  1  0.62546344  0.87444399  0.37011714  1
  Co  Co101  1  0.87928296  0.12810788  0.61941332  1
  Co  Co102  1  0.00228288  0.75271727  0.49721143  1
  Co  Co103  1  0.12558131  0.37785216  0.12832170  1
  Co  Co104  1  0.62278921  0.62343207  0.62477822  1
  Co  Co105  1  0.49862379  0.74810449  0.74990812  1
  Co  Co106  1  0.49941568  0.75728603  0.00191199  1
  Co  Co107  1  0.87528761  0.37369835  0.12342642  1
  Co  Co108  1  0.49841104  0.00486997  0.25183084  1
  Co  Co109  1  0.37377918  0.37233290  0.87424159  1
  Co  Co110  1  0.37757192  0.62430690  0.87897124  1
  Co  Co111  1  0.37256244  0.37431548  0.37399992  1
  Co  Co112  1  -0.00070484  0.00171161  0.25319592  1
  Co  Co113  1  0.12440571  0.37786541  0.87426432  1
  Co  Co114  1  0.12235154  0.37603506  0.62878093  1
  Co  Co115  1  0.50210017  0.24859980  0.75157664  1
  Co  Co116  1  0.12380781  0.12225136  0.12396639  1
  Co  Co117  1  0.87766266  0.62525828  0.61827139  1
  Co  Co118  1  0.24936618  0.24727458  0.24703269  1
  Co  Co119  1  0.37357014  0.87724680  0.13099491  1
  Co  Co120  1  0.87277026  0.12552511  0.87883755  1
  Co  Co121  1  0.75339731  0.74613428  0.25000810  1
  Co  Co122  1  0.87352771  0.37276096  0.37567503  1
  Co  Co123  1  0.37514508  0.37412691  0.12687530  1
  Co  Co124  1  0.12804717  0.12534043  0.87491989  1
  Co  Co125  1  0.12708404  0.12534037  0.37730871  1
  Co  Co126  1  -0.00513842  0.50202206  0.75042731  1
  Co  Co127  1  0.87277586  0.62571943  0.88090665  1
