# generated using pymatgen
data_Fe45Co19
_symmetry_space_group_name_H-M   'P 1'
_cell_length_a   11.41463552
_cell_length_b   11.41351362
_cell_length_c   11.41293418
_cell_angle_alpha   89.99132515
_cell_angle_beta   89.99940740
_cell_angle_gamma   89.99580845
_symmetry_Int_Tables_number   1
_chemical_formula_structural   Fe45Co19
_chemical_formula_sum   'Fe90 Co38'
_cell_volume   1486.88957482
_cell_formula_units_Z   2
loop_
 _symmetry_equiv_pos_site_id
 _symmetry_equiv_pos_as_xyz
  1  'x, y, z'
loop_
 _atom_site_type_symbol
 _atom_site_label
 _atom_site_symmetry_multiplicity
 _atom_site_fract_x
 _atom_site_fract_y
 _atom_site_fract_z
 _atom_site_occupancy
  Fe  Fe0  1  0.87657938  0.12430118  0.62437452  1
  Fe  Fe1  1  0.50175829  0.49900898  0.49931641  1
  Fe  Fe2  1  0.37478307  0.37402207  0.12245435  1
  Fe  Fe3  1  0.37563398  0.62322655  0.87640796  1
  Fe  Fe4  1  0.50051021  0.75113727  0.75390148  1
  Fe  Fe5  1  0.87576166  0.37736929  0.12345507  1
  Fe  Fe6  1  -0.00003415  0.49990498  0.24927223  1
  Fe  Fe7  1  0.50023975  0.25216823  -0.00556176  1
  Fe  Fe8  1  0.62473294  0.86988636  0.12648171  1
  Fe  Fe9  1  0.12055736  0.12483435  0.12529730  1
  Fe  Fe10  1  0.75199007  0.25023530  0.00013188  1
  Fe  Fe11  1  -0.00084293  0.49902810  0.49726130  1
  Fe  Fe12  1  0.24916565  -0.00108013  0.50063444  1
  Fe  Fe13  1  0.37395441  0.87989318  0.88009469  1
  Fe  Fe14  1  0.12333530  0.12219723  0.87371102  1
  Fe  Fe15  1  0.37711425  0.62547334  0.62513180  1
  Fe  Fe16  1  0.50109095  -0.00157902  0.24750620  1
  Fe  Fe17  1  0.62421680  0.62618353  0.62484206  1
  Fe  Fe18  1  0.25255155  0.24807306  0.75217282  1
  Fe  Fe19  1  0.75272900  -0.00054948  0.74631231  1
  Fe  Fe20  1  0.74814044  -0.00017776  0.24781531  1
  Fe  Fe21  1  0.12299925  0.87282117  0.12616461  1
  Fe  Fe22  1  0.25227780  0.75012599  0.75098778  1
  Fe  Fe23  1  0.25005255  0.50141236  0.24799054  1
  Fe  Fe24  1  0.75301781  0.74753853  0.00452467  1
  Fe  Fe25  1  0.62523405  0.37151600  0.62922265  1
  Fe  Fe26  1  0.62819492  0.87240167  0.62550531  1
  Fe  Fe27  1  0.62571573  0.37594720  0.12203543  1
  Fe  Fe28  1  0.12414961  0.12449601  0.37424456  1
  Fe  Fe29  1  0.24697733  0.50296371  0.00206992  1
  Fe  Fe30  1  0.62584477  0.12424586  0.37378805  1
  Fe  Fe31  1  0.50046818  0.25113080  0.25091561  1
  Fe  Fe32  1  0.74578036  0.00139751  0.00345399  1
  Fe  Fe33  1  0.37443334  0.37646372  0.37467109  1
  Fe  Fe34  1  0.50093935  0.50207668  0.24827053  1
  Fe  Fe35  1  0.25036403  0.00043582  0.74962699  1
  Fe  Fe36  1  0.12179504  0.12467839  0.62599939  1
  Fe  Fe37  1  0.25015396  0.74988149  0.49887454  1
  Fe  Fe38  1  -0.00156542  0.25157805  0.25134450  1
  Fe  Fe39  1  0.75132706  0.50230397  0.75030850  1
  Fe  Fe40  1  0.75084982  0.24958121  0.24773580  1
  Fe  Fe41  1  0.12380234  0.62588365  0.37299621  1
  Fe  Fe42  1  0.12388621  0.37574258  0.87500436  1
  Fe  Fe43  1  -0.00144416  -0.00388236  0.50017475  1
  Fe  Fe44  1  0.87142772  0.87526211  0.37431397  1
  Fe  Fe45  1  0.50165006  -0.00131568  0.75178932  1
  Fe  Fe46  1  0.50113357  0.49753220  0.75391086  1
  Fe  Fe47  1  0.37858581  0.12233709  0.11963899  1
  Fe  Fe48  1  0.37628761  0.37363780  0.62608767  1
  Fe  Fe49  1  0.87570356  0.37834723  0.87701572  1
  Fe  Fe50  1  0.87518080  0.37518527  0.62561770  1
  Fe  Fe51  1  0.37829274  0.12671051  0.62484789  1
  Fe  Fe52  1  0.12359072  0.87422945  0.62800281  1
  Fe  Fe53  1  -0.00093909  0.25257668  0.49586615  1
  Fe  Fe54  1  -0.00660743  0.74896573  0.24722517  1
  Fe  Fe55  1  0.12322673  0.37435868  0.62597030  1
  Fe  Fe56  1  0.49997804  0.75058219  0.49623403  1
  Fe  Fe57  1  0.25428409  0.75146416  0.25044532  1
  Fe  Fe58  1  0.63062237  0.87283729  0.87465781  1
  Fe  Fe59  1  0.24998190  0.25047002  0.49851717  1
  Fe  Fe60  1  0.37601709  0.87405644  0.62434571  1
  Fe  Fe61  1  0.24927240  0.75147492  0.00083954  1
  Fe  Fe62  1  0.12131522  0.62831211  0.87548112  1
  Fe  Fe63  1  0.37810752  0.62753043  0.12289388  1
  Fe  Fe64  1  -0.00219769  0.24976885  0.75272132  1
  Fe  Fe65  1  0.50347856  -0.00103222  0.50012629  1
  Fe  Fe66  1  0.24853264  0.50135129  0.50075996  1
  Fe  Fe67  1  0.62507857  0.62351938  0.87919983  1
  Fe  Fe68  1  0.49996573  0.74910641  0.25407147  1
  Fe  Fe69  1  0.24902744  0.24705472  -0.00139658  1
  Fe  Fe70  1  0.87750183  0.62412625  0.87984799  1
  Fe  Fe71  1  0.24777238  0.50183294  0.74911256  1
  Fe  Fe72  1  0.87500947  0.12180398  0.87637860  1
  Fe  Fe73  1  -0.00535910  0.75496881  0.75276242  1
  Fe  Fe74  1  0.74955479  0.25012051  0.49977689  1
  Fe  Fe75  1  0.74953819  0.50616138  0.24716504  1
  Fe  Fe76  1  0.87638452  0.62771242  0.62254470  1
  Fe  Fe77  1  0.00136246  -0.00544728  -0.00206041  1
  Fe  Fe78  1  0.62673877  0.12769180  0.87243504  1
  Fe  Fe79  1  0.87713040  0.12234434  0.12466406  1
  Fe  Fe80  1  0.62407697  0.12886176  0.62771006  1
  Fe  Fe81  1  0.12501386  0.87438255  0.37254085  1
  Fe  Fe82  1  0.25142611  -0.00030092  0.24663178  1
  Fe  Fe83  1  0.25057092  0.24781107  0.24965955  1
  Fe  Fe84  1  0.37663727  0.12299516  0.37552653  1
  Fe  Fe85  1  0.87358917  0.12387899  0.37360892  1
  Fe  Fe86  1  0.74872573  0.74885203  0.49641483  1
  Fe  Fe87  1  0.62878218  0.37751754  0.37464774  1
  Fe  Fe88  1  0.12148700  0.62783771  0.62610146  1
  Fe  Fe89  1  0.12440197  0.37314636  0.12488283  1
  Co  Co90  1  0.50241034  0.25097708  0.49689451  1
  Co  Co91  1  0.12725928  0.37590801  0.37302484  1
  Co  Co92  1  0.75573274  0.25000517  0.75078445  1
  Co  Co93  1  0.75284787  0.74633350  0.24797542  1
  Co  Co94  1  0.86853591  0.87579661  0.87789685  1
  Co  Co95  1  0.37526315  0.87808008  0.37605670  1
  Co  Co96  1  0.74952496  0.00153880  0.50146919  1
  Co  Co97  1  0.12418368  0.62935448  0.12731146  1
  Co  Co98  1  -0.00425695  -0.00443148  0.75056897  1
  Co  Co99  1  0.36952144  0.37850620  0.87619286  1
  Co  Co100  1  0.00058155  0.75331142  0.49845302  1
  Co  Co101  1  0.87044660  0.37726548  0.37305015  1
  Co  Co102  1  0.62322787  0.12932848  0.12504627  1
  Co  Co103  1  0.50842904  -0.00129307  -0.00022575  1
  Co  Co104  1  0.49509272  0.25098039  0.75640487  1
  Co  Co105  1  0.62172831  0.62715519  0.12267149  1
  Co  Co106  1  0.37845273  0.87525468  0.12187198  1
  Co  Co107  1  0.74891406  0.50028603  0.00000686  1
  Co  Co108  1  -0.00134322  0.50130790  0.75001482  1
  Co  Co109  1  0.50012861  0.75175494  -0.00435995  1
  Co  Co110  1  -0.00039310  -0.00100548  0.25157993  1
  Co  Co111  1  0.75016330  0.50018739  0.50447269  1
  Co  Co112  1  0.62715783  0.62327278  0.37557527  1
  Co  Co113  1  0.87098669  0.87158438  0.62357363  1
  Co  Co114  1  -0.00156389  0.24999224  -0.00059422  1
  Co  Co115  1  0.62780308  0.87553279  0.37314822  1
  Co  Co116  1  0.87662150  0.62136409  0.12175081  1
  Co  Co117  1  0.00499651  0.50062203  0.00251971  1
  Co  Co118  1  0.37490702  0.11818412  0.87919850  1
  Co  Co119  1  0.87476942  0.62447097  0.37667237  1
  Co  Co120  1  -0.00198414  0.75349245  0.00169935  1
  Co  Co121  1  0.12668860  0.87330987  0.87301910  1
  Co  Co122  1  0.49985738  0.49754733  -0.00026409  1
  Co  Co123  1  0.37431713  0.62277117  0.37604135  1
  Co  Co124  1  0.75143514  0.74442160  0.75151746  1
  Co  Co125  1  0.24393607  -0.00127734  0.00429970  1
  Co  Co126  1  0.87326058  0.87944230  0.12450153  1
  Co  Co127  1  0.62979672  0.37375036  0.87372187  1
