# generated using pymatgen
data_Fe45Co19
_symmetry_space_group_name_H-M   'P 1'
_cell_length_a   11.41452126
_cell_length_b   11.41486120
_cell_length_c   11.41568601
_cell_angle_alpha   89.99380280
_cell_angle_beta   89.99991278
_cell_angle_gamma   90.00602471
_symmetry_Int_Tables_number   1
_chemical_formula_structural   Fe45Co19
_chemical_formula_sum   'Fe90 Co38'
_cell_volume   1487.40879904
_cell_formula_units_Z   2
loop_
 _symmetry_equiv_pos_site_id
 _symmetry_equiv_pos_as_xyz
  1  'x, y, z'
loop_
 _atom_site_type_symbol
 _atom_site_label
 _atom_site_symmetry_multiplicity
 _atom_site_fract_x
 _atom_site_fract_y
 _atom_site_fract_z
 _atom_site_occupancy
  Fe  Fe0  1  0.24769740  -0.00077679  -0.00450532  1
  Fe  Fe1  1  0.37848562  0.62268246  0.37650285  1
  Fe  Fe2  1  0.62369953  0.87398355  0.87400840  1
  Fe  Fe3  1  0.74596191  0.75300435  0.50084894  1
  Fe  Fe4  1  0.62343100  0.37649854  0.87087287  1
  Fe  Fe5  1  0.24917462  0.49853763  0.25041754  1
  Fe  Fe6  1  0.00001976  0.74887938  0.24953938  1
  Fe  Fe7  1  0.24796911  0.49852126  -0.00092521  1
  Fe  Fe8  1  0.24888396  0.24801137  0.25304365  1
  Fe  Fe9  1  0.00105494  0.74655537  0.00240451  1
  Fe  Fe10  1  0.62585689  0.62485846  0.12449996  1
  Fe  Fe11  1  0.25207697  0.49663500  0.49942077  1
  Fe  Fe12  1  0.37696139  0.87478321  0.62653576  1
  Fe  Fe13  1  0.50035524  0.24834656  -0.00095966  1
  Fe  Fe14  1  0.62370530  0.37842635  0.62900913  1
  Fe  Fe15  1  0.00066709  0.00130265  0.25107232  1
  Fe  Fe16  1  0.87334201  0.62146280  0.12387089  1
  Fe  Fe17  1  0.24720512  -0.00442793  0.75169993  1
  Fe  Fe18  1  0.49958174  0.24967977  0.50140300  1
  Fe  Fe19  1  -0.00021552  -0.00152878  0.74729597  1
  Fe  Fe20  1  0.87844245  0.37674012  0.12270709  1
  Fe  Fe21  1  0.87269700  0.62295245  0.87779268  1
  Fe  Fe22  1  0.00215581  0.00453776  -0.00156402  1
  Fe  Fe23  1  0.12318894  0.37178166  0.37962255  1
  Fe  Fe24  1  0.74885835  -0.00009815  -0.00076572  1
  Fe  Fe25  1  0.25276768  0.75181421  0.49966201  1
  Fe  Fe26  1  0.75126673  0.25298247  0.50064535  1
  Fe  Fe27  1  0.50230802  0.00422559  0.24805119  1
  Fe  Fe28  1  0.00002115  0.24684458  0.25123964  1
  Fe  Fe29  1  0.62905888  0.12653323  0.37300438  1
  Fe  Fe30  1  -0.00334833  0.24991308  0.74760386  1
  Fe  Fe31  1  0.74680308  0.74790606  0.74856281  1
  Fe  Fe32  1  0.12541559  0.87650570  0.12476769  1
  Fe  Fe33  1  0.50298457  0.00125869  0.50121941  1
  Fe  Fe34  1  0.37463372  0.62602737  0.87570531  1
  Fe  Fe35  1  -0.00473336  0.00022386  0.50286434  1
  Fe  Fe36  1  0.62466205  0.87596506  0.12551570  1
  Fe  Fe37  1  0.12338494  0.87649941  0.37709623  1
  Fe  Fe38  1  0.37377378  0.12558458  0.37601987  1
  Fe  Fe39  1  0.87700122  0.87352417  0.87423671  1
  Fe  Fe40  1  0.37385987  0.12604347  0.87298733  1
  Fe  Fe41  1  0.12279989  0.37379739  0.62220598  1
  Fe  Fe42  1  0.87819732  0.37742949  0.37682742  1
  Fe  Fe43  1  0.87306299  0.12556428  0.87126930  1
  Fe  Fe44  1  0.24755602  0.24848520  -0.00182463  1
  Fe  Fe45  1  0.25082467  0.25156640  0.74869223  1
  Fe  Fe46  1  0.62015922  0.37391330  0.37142334  1
  Fe  Fe47  1  0.87113472  0.12551815  0.12628560  1
  Fe  Fe48  1  0.37593159  0.37365679  0.12663864  1
  Fe  Fe49  1  0.24979817  0.75368828  -0.00203227  1
  Fe  Fe50  1  0.62240918  0.37150316  0.12868003  1
  Fe  Fe51  1  0.37346929  0.62464347  0.12465915  1
  Fe  Fe52  1  -0.00043112  0.75034588  0.50117213  1
  Fe  Fe53  1  0.37431288  0.12485590  0.62630297  1
  Fe  Fe54  1  0.62808353  0.12781457  0.87244914  1
  Fe  Fe55  1  0.50150086  0.00256063  -0.00014099  1
  Fe  Fe56  1  0.12837036  0.62498359  0.62440974  1
  Fe  Fe57  1  0.37511240  0.87762653  0.12576336  1
  Fe  Fe58  1  0.87667988  0.37836306  0.87749137  1
  Fe  Fe59  1  0.50013559  0.75028800  -0.00016672  1
  Fe  Fe60  1  0.12183007  0.37260123  0.12345109  1
  Fe  Fe61  1  0.37671766  0.62475872  0.62300022  1
  Fe  Fe62  1  0.25062689  0.75196064  0.25150258  1
  Fe  Fe63  1  0.37815978  0.87729673  0.37464593  1
  Fe  Fe64  1  0.87138993  0.62329893  0.62143864  1
  Fe  Fe65  1  0.25206382  0.49855076  0.75125350  1
  Fe  Fe66  1  0.37853643  0.37525263  0.62648101  1
  Fe  Fe67  1  0.37214385  0.12418578  0.12477473  1
  Fe  Fe68  1  0.74984154  0.75074136  0.00014624  1
  Fe  Fe69  1  0.25048693  -0.00060322  0.50049430  1
  Fe  Fe70  1  0.87146703  0.12347061  0.37538782  1
  Fe  Fe71  1  0.87576368  0.87675615  0.12482241  1
  Fe  Fe72  1  0.00097511  0.74972372  0.74684967  1
  Fe  Fe73  1  0.87270406  0.62453990  0.37709960  1
  Fe  Fe74  1  0.50203717  0.00144491  0.75049214  1
  Fe  Fe75  1  0.62526923  0.87634992  0.37438968  1
  Fe  Fe76  1  0.00261413  0.50245728  0.25029004  1
  Fe  Fe77  1  0.50065412  0.49921694  -0.00061223  1
  Fe  Fe78  1  0.12505279  0.12669604  0.62292927  1
  Fe  Fe79  1  0.12209097  0.37279485  0.87540316  1
  Fe  Fe80  1  0.12642412  0.62528822  0.37630610  1
  Fe  Fe81  1  0.75021093  0.75089374  0.25043572  1
  Fe  Fe82  1  0.50053226  0.74826542  0.25119097  1
  Fe  Fe83  1  0.63139561  0.12492089  0.62760323  1
  Fe  Fe84  1  0.87542629  0.37815879  0.62224562  1
  Fe  Fe85  1  0.50206225  0.74677793  0.74806184  1
  Fe  Fe86  1  0.75068509  0.25252000  -0.00039279  1
  Fe  Fe87  1  0.12629758  0.62676132  0.87391847  1
  Fe  Fe88  1  0.74808890  0.49923665  0.25105725  1
  Fe  Fe89  1  -0.00062492  0.50206883  0.74944451  1
  Co  Co90  1  0.12017603  0.87256623  0.87546213  1
  Co  Co91  1  0.62470758  0.62485922  0.37818750  1
  Co  Co92  1  0.37885362  0.87519208  0.87264041  1
  Co  Co93  1  0.25402330  0.25148874  0.50043502  1
  Co  Co94  1  0.75203148  0.50181328  0.74979941  1
  Co  Co95  1  0.86897851  0.12364376  0.62741669  1
  Co  Co96  1  0.49933479  0.24819964  0.74935884  1
  Co  Co97  1  0.00397634  0.50395124  0.00003364  1
  Co  Co98  1  0.24877250  0.00034019  0.25252804  1
  Co  Co99  1  0.37593191  0.37300977  0.87566676  1
  Co  Co100  1  0.37781563  0.37449679  0.37188595  1
  Co  Co101  1  0.62939145  0.12841746  0.12617623  1
  Co  Co102  1  0.12489651  0.12473601  0.38026561  1
  Co  Co103  1  0.50005423  0.49591376  0.49860830  1
  Co  Co104  1  0.75061061  -0.00249219  0.49989118  1
  Co  Co105  1  0.75285965  0.25547305  0.74981875  1
  Co  Co106  1  0.74579075  0.49665489  0.00126862  1
  Co  Co107  1  0.75032800  -0.00398833  0.75283261  1
  Co  Co108  1  0.00200024  0.50356254  0.50049077  1
  Co  Co109  1  0.75412353  0.25420236  0.25084192  1
  Co  Co110  1  0.25058686  0.75218830  0.74976559  1
  Co  Co111  1  0.12863841  0.62657391  0.12558225  1
  Co  Co112  1  0.74923980  -0.00261131  0.24902013  1
  Co  Co113  1  0.49665474  0.24384765  0.25012117  1
  Co  Co114  1  0.62456328  0.87747781  0.62645474  1
  Co  Co115  1  0.62611495  0.62373753  0.87633082  1
  Co  Co116  1  0.50032168  0.50343905  0.24856944  1
  Co  Co117  1  -0.00152033  0.24484396  -0.00040169  1
  Co  Co118  1  0.87205526  0.87361324  0.62648070  1
  Co  Co119  1  0.74730164  0.49569929  0.49765023  1
  Co  Co120  1  0.50187627  0.75285945  0.50093648  1
  Co  Co121  1  0.87519528  0.87438524  0.37503930  1
  Co  Co122  1  0.49732517  0.50321394  0.75261110  1
  Co  Co123  1  0.62377237  0.62014417  0.62148684  1
  Co  Co124  1  0.12656128  0.12487664  0.12606656  1
  Co  Co125  1  0.12596854  0.87406956  0.62223338  1
  Co  Co126  1  -0.00515178  0.24587565  0.50140685  1
  Co  Co127  1  0.12469293  0.12753509  0.86979113  1
