# generated using pymatgen
data_Fe45Co19
_symmetry_space_group_name_H-M   'P 1'
_cell_length_a   11.41619329
_cell_length_b   11.41520688
_cell_length_c   11.41525092
_cell_angle_alpha   89.99934917
_cell_angle_beta   89.99867691
_cell_angle_gamma   90.00840645
_symmetry_Int_Tables_number   1
_chemical_formula_structural   Fe45Co19
_chemical_formula_sum   'Fe90 Co38'
_cell_volume   1487.61502813
_cell_formula_units_Z   2
loop_
 _symmetry_equiv_pos_site_id
 _symmetry_equiv_pos_as_xyz
  1  'x, y, z'
loop_
 _atom_site_type_symbol
 _atom_site_label
 _atom_site_symmetry_multiplicity
 _atom_site_fract_x
 _atom_site_fract_y
 _atom_site_fract_z
 _atom_site_occupancy
  Fe  Fe0  1  0.25070877  0.24993624  0.00075145  1
  Fe  Fe1  1  0.50107729  0.50128842  0.50343881  1
  Fe  Fe2  1  0.49857255  0.24884849  0.75038893  1
  Fe  Fe3  1  0.62647578  0.87485651  0.37534986  1
  Fe  Fe4  1  -0.00147307  -0.00061278  0.25218144  1
  Fe  Fe5  1  0.75302317  0.00049959  0.74813877  1
  Fe  Fe6  1  0.74626655  0.74731289  0.24805129  1
  Fe  Fe7  1  0.37754039  0.87030557  0.12496505  1
  Fe  Fe8  1  0.37392288  0.37428741  0.87471065  1
  Fe  Fe9  1  0.74785254  0.25276982  0.24914886  1
  Fe  Fe10  1  0.87217395  0.62468266  0.12395692  1
  Fe  Fe11  1  -0.00071069  0.50115187  -0.00108763  1
  Fe  Fe12  1  -0.00219330  0.50200035  0.24914557  1
  Fe  Fe13  1  0.24867811  0.75071932  0.50117664  1
  Fe  Fe14  1  0.00013289  0.74826559  -0.00104677  1
  Fe  Fe15  1  0.37377558  0.87519554  0.87651320  1
  Fe  Fe16  1  0.88291250  0.87176292  0.62666823  1
  Fe  Fe17  1  0.75007330  0.00246591  -0.00066423  1
  Fe  Fe18  1  0.25038240  -0.00258938  0.24986894  1
  Fe  Fe19  1  0.37575101  0.37792540  0.37536920  1
  Fe  Fe20  1  0.25384850  0.50203422  0.00107104  1
  Fe  Fe21  1  0.25041522  0.00031330  0.00011681  1
  Fe  Fe22  1  0.87439328  0.87453775  0.12546323  1
  Fe  Fe23  1  0.24671763  0.75340721  0.74820398  1
  Fe  Fe24  1  0.75241217  -0.00180841  0.50194078  1
  Fe  Fe25  1  0.75050797  0.25274308  0.50281647  1
  Fe  Fe26  1  0.49810253  0.49809884  0.74783457  1
  Fe  Fe27  1  0.75028523  0.24911854  0.74981520  1
  Fe  Fe28  1  0.62357109  0.87427780  0.12385580  1
  Fe  Fe29  1  0.62425478  0.87905726  0.87496223  1
  Fe  Fe30  1  0.12707114  0.62391424  0.37434783  1
  Fe  Fe31  1  0.00065760  0.24961652  -0.00120084  1
  Fe  Fe32  1  0.74889551  0.75032225  0.74997598  1
  Fe  Fe33  1  0.87404811  0.87146597  0.37395159  1
  Fe  Fe34  1  0.12292894  0.37607415  0.62276178  1
  Fe  Fe35  1  0.37493468  0.12530364  0.37353405  1
  Fe  Fe36  1  0.87801907  0.87514930  0.87350643  1
  Fe  Fe37  1  0.37710521  0.37429109  0.12717739  1
  Fe  Fe38  1  0.62423896  0.12401423  0.12593831  1
  Fe  Fe39  1  0.25001245  -0.00360292  0.49989606  1
  Fe  Fe40  1  0.12219763  0.87301687  0.37476591  1
  Fe  Fe41  1  0.12540331  0.62645476  0.12539175  1
  Fe  Fe42  1  0.12511506  0.37734013  0.12551385  1
  Fe  Fe43  1  0.86966432  0.62403741  0.37634572  1
  Fe  Fe44  1  0.75029049  0.49917785  0.74481384  1
  Fe  Fe45  1  0.50225348  0.50440693  0.25112950  1
  Fe  Fe46  1  0.62463260  0.37970885  0.12187934  1
  Fe  Fe47  1  0.87445586  0.12598936  0.12579670  1
  Fe  Fe48  1  0.62458278  0.12474870  0.62501613  1
  Fe  Fe49  1  0.74925712  0.74941540  0.50411691  1
  Fe  Fe50  1  0.87451985  0.37510709  0.12361782  1
  Fe  Fe51  1  0.24662697  -0.00251937  0.74936187  1
  Fe  Fe52  1  0.12828863  0.62498802  0.87528242  1
  Fe  Fe53  1  0.62539451  0.37635544  0.87599767  1
  Fe  Fe54  1  0.37378546  0.62601953  0.62519663  1
  Fe  Fe55  1  0.24780023  0.25228953  0.25327447  1
  Fe  Fe56  1  0.62357782  0.62173377  0.87560626  1
  Fe  Fe57  1  0.25073211  0.49816059  0.74778129  1
  Fe  Fe58  1  0.24876551  0.25051181  0.74878173  1
  Fe  Fe59  1  0.50058679  -0.00136777  0.25078092  1
  Fe  Fe60  1  0.24699973  0.25304797  0.49663648  1
  Fe  Fe61  1  0.87430500  0.62536822  0.87258267  1
  Fe  Fe62  1  0.00060953  0.50250877  0.74895870  1
  Fe  Fe63  1  0.49925626  -0.00027059  0.50046780  1
  Fe  Fe64  1  0.37275260  0.12510197  0.62383534  1
  Fe  Fe65  1  0.62653237  0.12436323  0.37547898  1
  Fe  Fe66  1  0.50072069  0.74872660  0.49914630  1
  Fe  Fe67  1  -0.00140476  0.50332055  0.50343955  1
  Fe  Fe68  1  0.87892797  0.12561686  0.62340224  1
  Fe  Fe69  1  0.62672729  0.37871727  0.37712370  1
  Fe  Fe70  1  0.12438018  0.87153785  0.12518061  1
  Fe  Fe71  1  0.00171372  0.24766070  0.75108166  1
  Fe  Fe72  1  0.87431054  0.37417209  0.87450141  1
  Fe  Fe73  1  0.00283202  0.25114076  0.25342541  1
  Fe  Fe74  1  0.49945846  0.75053721  0.75198443  1
  Fe  Fe75  1  0.74810642  0.74893835  -0.00231070  1
  Fe  Fe76  1  0.87489506  0.37728644  0.37785349  1
  Fe  Fe77  1  0.25251880  0.50233565  0.24946715  1
  Fe  Fe78  1  0.50076584  0.24821153  -0.00177273  1
  Fe  Fe79  1  0.00102269  0.00186247  -0.00261368  1
  Fe  Fe80  1  0.37630715  0.87184929  0.37381906  1
  Fe  Fe81  1  0.12334414  0.12162369  0.62130495  1
  Fe  Fe82  1  0.87349740  0.12630448  0.37470521  1
  Fe  Fe83  1  0.49961491  0.25027127  0.49963495  1
  Fe  Fe84  1  0.12527367  0.12520096  0.12681695  1
  Fe  Fe85  1  0.62285020  0.87495545  0.62576986  1
  Fe  Fe86  1  0.37649074  0.12646541  0.12759049  1
  Fe  Fe87  1  0.12586926  0.37561796  0.87670750  1
  Fe  Fe88  1  0.49744976  0.00130447  0.74990897  1
  Fe  Fe89  1  0.37860474  0.63052626  0.12549235  1
  Co  Co90  1  0.74980467  -0.00021453  0.25046346  1
  Co  Co91  1  -0.00333281  -0.00047184  0.49555707  1
  Co  Co92  1  0.37695627  0.87384676  0.62501207  1
  Co  Co93  1  0.00177999  0.00232729  0.75325356  1
  Co  Co94  1  0.12707589  0.12111619  0.37470108  1
  Co  Co95  1  0.50145012  0.74929122  -0.00432099  1
  Co  Co96  1  0.75311705  0.50014898  -0.00189597  1
  Co  Co97  1  0.50320712  0.25173541  0.25126579  1
  Co  Co98  1  0.00351293  0.25001861  0.49658234  1
  Co  Co99  1  0.24968746  0.74958065  0.25174113  1
  Co  Co100  1  0.37442028  0.37340667  0.62299268  1
  Co  Co101  1  0.12355297  0.87364497  0.87732297  1
  Co  Co102  1  0.37268427  0.12445820  0.87371793  1
  Co  Co103  1  0.62317264  0.62725891  0.62678343  1
  Co  Co104  1  0.87379826  0.12595590  0.87597080  1
  Co  Co105  1  0.74952702  0.49940592  0.24787458  1
  Co  Co106  1  0.25025707  0.49933184  0.50163006  1
  Co  Co107  1  0.49811135  0.00108856  0.00036133  1
  Co  Co108  1  0.37431014  0.62537138  0.37770221  1
  Co  Co109  1  0.11752056  0.87625881  0.62271735  1
  Co  Co110  1  0.12780028  0.62537233  0.62524678  1
  Co  Co111  1  0.49442018  0.50116200  -0.00143723  1
  Co  Co112  1  0.62380254  0.37211583  0.62622773  1
  Co  Co113  1  -0.00181097  0.74774107  0.24984721  1
  Co  Co114  1  0.00396442  0.74717197  0.75175368  1
  Co  Co115  1  0.50479256  0.74756217  0.25291162  1
  Co  Co116  1  0.74745561  0.24951678  0.00058083  1
  Co  Co117  1  0.75033207  0.49866600  0.50841270  1
  Co  Co118  1  0.25085388  0.74880140  -0.00056381  1
  Co  Co119  1  0.87892071  0.37342712  0.62560557  1
  Co  Co120  1  0.62563439  0.12239073  0.87302724  1
  Co  Co121  1  0.87427421  0.62866616  0.62720866  1
  Co  Co122  1  0.12372018  0.38209867  0.37427819  1
  Co  Co123  1  0.00044936  0.74493302  0.49829845  1
  Co  Co124  1  0.12748914  0.12600636  0.87644587  1
  Co  Co125  1  0.62962935  0.62264785  0.37870363  1
  Co  Co126  1  0.37292629  0.62587858  0.87056934  1
  Co  Co127  1  0.62470694  0.62300369  0.12038692  1
