# generated using pymatgen
data_Fe45Co19
_symmetry_space_group_name_H-M   'P 1'
_cell_length_a   11.41563158
_cell_length_b   11.41453771
_cell_length_c   11.41491101
_cell_angle_alpha   90.00655851
_cell_angle_beta   90.00054198
_cell_angle_gamma   89.99849381
_symmetry_Int_Tables_number   1
_chemical_formula_structural   Fe45Co19
_chemical_formula_sum   'Fe90 Co38'
_cell_volume   1487.41034710
_cell_formula_units_Z   2
loop_
 _symmetry_equiv_pos_site_id
 _symmetry_equiv_pos_as_xyz
  1  'x, y, z'
loop_
 _atom_site_type_symbol
 _atom_site_label
 _atom_site_symmetry_multiplicity
 _atom_site_fract_x
 _atom_site_fract_y
 _atom_site_fract_z
 _atom_site_occupancy
  Fe  Fe0  1  0.50153069  -0.00211559  0.25044918  1
  Fe  Fe1  1  0.24863511  0.00187169  0.50048813  1
  Fe  Fe2  1  0.00131412  0.25407855  0.75078065  1
  Fe  Fe3  1  0.24949502  0.24895185  0.49878881  1
  Fe  Fe4  1  0.87450055  0.12622868  0.87498015  1
  Fe  Fe5  1  0.25021778  0.74781240  -0.00176289  1
  Fe  Fe6  1  0.37515607  0.12677776  0.12622486  1
  Fe  Fe7  1  0.49957029  0.74950524  0.25162298  1
  Fe  Fe8  1  0.87649257  0.62322672  0.37655577  1
  Fe  Fe9  1  0.50055352  0.74688070  0.50085813  1
  Fe  Fe10  1  0.62281546  0.87671731  0.87441428  1
  Fe  Fe11  1  0.87652796  0.37504157  0.87743773  1
  Fe  Fe12  1  0.12531188  0.62519549  0.12782019  1
  Fe  Fe13  1  0.87178155  0.12570705  0.37026901  1
  Fe  Fe14  1  0.50069920  0.25041171  0.74866553  1
  Fe  Fe15  1  0.62651388  0.37581143  0.62371242  1
  Fe  Fe16  1  0.49921511  0.74802098  -0.00148814  1
  Fe  Fe17  1  0.75101853  0.49895017  -0.00013130  1
  Fe  Fe18  1  0.24806994  0.25488981  0.75068692  1
  Fe  Fe19  1  0.75025021  0.75089074  0.25176088  1
  Fe  Fe20  1  0.74991381  0.00082793  0.49871403  1
  Fe  Fe21  1  0.00001949  0.50248847  0.00000924  1
  Fe  Fe22  1  0.00048833  0.00396781  0.24668647  1
  Fe  Fe23  1  0.62528189  0.62402279  0.37447308  1
  Fe  Fe24  1  0.12896591  0.62054053  0.86948682  1
  Fe  Fe25  1  0.50077520  0.50135185  0.49914771  1
  Fe  Fe26  1  0.25112955  0.75032940  0.25197231  1
  Fe  Fe27  1  0.37465284  0.37363908  0.62190077  1
  Fe  Fe28  1  0.12509952  0.37387138  0.37489682  1
  Fe  Fe29  1  0.00085576  0.74879793  0.74609542  1
  Fe  Fe30  1  0.50007068  0.49706413  0.75027690  1
  Fe  Fe31  1  0.24894152  0.00090249  0.24937378  1
  Fe  Fe32  1  -0.00022887  0.00382272  0.00237309  1
  Fe  Fe33  1  0.37825650  0.12531857  0.87384526  1
  Fe  Fe34  1  0.12382698  0.87492624  0.87480184  1
  Fe  Fe35  1  0.12300738  0.37135234  0.12380775  1
  Fe  Fe36  1  0.87526242  0.87430190  0.12403593  1
  Fe  Fe37  1  0.37481689  0.87426460  0.12390562  1
  Fe  Fe38  1  0.74961721  0.25206170  0.00324187  1
  Fe  Fe39  1  0.25035500  0.00119862  0.00050807  1
  Fe  Fe40  1  0.12456192  0.12677350  0.62527133  1
  Fe  Fe41  1  0.62376835  0.12578604  0.87430463  1
  Fe  Fe42  1  0.49943280  0.49647569  -0.00222261  1
  Fe  Fe43  1  0.87660991  0.87480032  0.87482615  1
  Fe  Fe44  1  0.37099612  0.62447028  0.62713549  1
  Fe  Fe45  1  0.75010992  0.00095952  0.00138672  1
  Fe  Fe46  1  0.37511523  0.12632347  0.37432908  1
  Fe  Fe47  1  0.25289403  0.49664680  0.25026810  1
  Fe  Fe48  1  0.87707459  0.37967311  0.62174273  1
  Fe  Fe49  1  0.12401947  0.12737993  0.87630017  1
  Fe  Fe50  1  -0.00070206  0.49839965  0.24960338  1
  Fe  Fe51  1  0.00072126  0.00212746  0.74879911  1
  Fe  Fe52  1  0.24650241  0.50160240  0.50005219  1
  Fe  Fe53  1  0.12474608  0.87353138  0.12381712  1
  Fe  Fe54  1  0.37360171  0.87510765  0.62471769  1
  Fe  Fe55  1  0.49730546  0.49751806  0.25345186  1
  Fe  Fe56  1  0.87375011  0.62436272  0.86959391  1
  Fe  Fe57  1  0.87888314  0.87527433  0.62223157  1
  Fe  Fe58  1  0.24925352  -0.00046374  0.74967369  1
  Fe  Fe59  1  0.87414880  0.12629859  0.62586079  1
  Fe  Fe60  1  0.37628815  0.87393422  0.37793704  1
  Fe  Fe61  1  0.37522854  0.62359464  0.12507217  1
  Fe  Fe62  1  0.37072831  0.61991611  0.87306662  1
  Fe  Fe63  1  0.00051536  0.74590464  -0.00070722  1
  Fe  Fe64  1  0.75032969  0.49615789  0.24991591  1
  Fe  Fe65  1  0.62447159  0.87577159  0.62448528  1
  Fe  Fe66  1  0.62986122  0.62322380  0.62847571  1
  Fe  Fe67  1  0.49879476  0.25513685  0.25112333  1
  Fe  Fe68  1  0.49911782  0.74917883  0.75069225  1
  Fe  Fe69  1  0.74982341  0.25181089  0.49906338  1
  Fe  Fe70  1  -0.00137812  0.74935342  0.25038304  1
  Fe  Fe71  1  0.62567793  0.12690911  0.12738670  1
  Fe  Fe72  1  0.87778311  0.87626509  0.37725891  1
  Fe  Fe73  1  0.12501142  0.12622310  0.37308106  1
  Fe  Fe74  1  0.24415264  0.74749520  0.50051945  1
  Fe  Fe75  1  0.75084932  0.74832014  -0.00142062  1
  Fe  Fe76  1  0.75009200  -0.00129319  0.74960879  1
  Fe  Fe77  1  0.62719380  0.12677535  0.37296601  1
  Fe  Fe78  1  0.62762428  0.62353868  0.87240009  1
  Fe  Fe79  1  0.75176340  0.74788081  0.50116210  1
  Fe  Fe80  1  0.87526680  0.37573598  0.37554614  1
  Fe  Fe81  1  0.75042472  0.25368207  0.74943041  1
  Fe  Fe82  1  0.62530692  0.87325423  0.12440338  1
  Fe  Fe83  1  0.62536370  0.62243333  0.12548977  1
  Fe  Fe84  1  0.12170356  0.87586589  0.37714789  1
  Fe  Fe85  1  0.50040145  0.00404338  0.50286257  1
  Fe  Fe86  1  0.25256932  0.25211321  -0.00047192  1
  Fe  Fe87  1  0.37747026  0.87744824  0.87490292  1
  Fe  Fe88  1  0.50134606  0.24779210  0.50097986  1
  Fe  Fe89  1  -0.00120059  0.24863505  0.49793483  1
  Co  Co90  1  0.12342734  0.87733642  0.62354927  1
  Co  Co91  1  0.74857972  -0.00383030  0.25041073  1
  Co  Co92  1  0.12718892  0.12949269  0.12369175  1
  Co  Co93  1  0.87858273  0.37502692  0.12359088  1
  Co  Co94  1  0.00372913  0.50318147  0.49911108  1
  Co  Co95  1  0.37356187  0.62552209  0.37642280  1
  Co  Co96  1  0.37461623  0.37569490  0.87493395  1
  Co  Co97  1  0.62273709  0.37758314  0.12457851  1
  Co  Co98  1  -0.00050691  0.24837826  0.25052819  1
  Co  Co99  1  0.74972953  0.25688274  0.24782271  1
  Co  Co100  1  0.87156010  0.12642314  0.12757082  1
  Co  Co101  1  0.50037858  0.00234829  0.74594212  1
  Co  Co102  1  0.50053358  0.00162999  0.00323295  1
  Co  Co103  1  -0.00062462  0.00587024  0.49994653  1
  Co  Co104  1  0.75066935  0.49536406  0.75147091  1
  Co  Co105  1  0.25045026  0.75281665  0.75062064  1
  Co  Co106  1  0.12314465  0.37333524  0.62062109  1
  Co  Co107  1  0.00084134  0.49556732  0.75034379  1
  Co  Co108  1  0.75088069  0.75309828  0.74865086  1
  Co  Co109  1  0.37435991  0.37470479  0.38046881  1
  Co  Co110  1  0.62502716  0.37286120  0.87549190  1
  Co  Co111  1  0.12517623  0.62225189  0.63092894  1
  Co  Co112  1  0.62989450  0.12627791  0.62593990  1
  Co  Co113  1  0.25183309  0.25214923  0.25095757  1
  Co  Co114  1  0.12443447  0.37654334  0.87977378  1
  Co  Co115  1  0.24873004  0.49909779  0.00379571  1
  Co  Co116  1  0.00242393  0.74384088  0.50159920  1
  Co  Co117  1  0.12480051  0.62398955  0.36987166  1
  Co  Co118  1  0.74887388  0.50027447  0.49834029  1
  Co  Co119  1  -0.00199171  0.24765203  0.00015206  1
  Co  Co120  1  0.24957956  0.49145584  0.74638035  1
  Co  Co121  1  0.37589828  0.37489557  0.12343823  1
  Co  Co122  1  0.87380253  0.62491848  0.12658289  1
  Co  Co123  1  0.62402299  0.37477899  0.37714965  1
  Co  Co124  1  0.87401843  0.62038927  0.62658886  1
  Co  Co125  1  0.49986707  0.25087937  0.00056416  1
  Co  Co126  1  0.37066033  0.12707268  0.62674494  1
  Co  Co127  1  0.62295815  0.87419259  0.37866653  1
