# generated using pymatgen
data_Fe45Co19
_symmetry_space_group_name_H-M   'P 1'
_cell_length_a   11.41462629
_cell_length_b   11.41564741
_cell_length_c   11.41491212
_cell_angle_alpha   90.00278383
_cell_angle_beta   90.00038733
_cell_angle_gamma   89.99421530
_symmetry_Int_Tables_number   1
_chemical_formula_structural   Fe45Co19
_chemical_formula_sum   'Fe90 Co38'
_cell_volume   1487.42409790
_cell_formula_units_Z   2
loop_
 _symmetry_equiv_pos_site_id
 _symmetry_equiv_pos_as_xyz
  1  'x, y, z'
loop_
 _atom_site_type_symbol
 _atom_site_label
 _atom_site_symmetry_multiplicity
 _atom_site_fract_x
 _atom_site_fract_y
 _atom_site_fract_z
 _atom_site_occupancy
  Fe  Fe0  1  0.75075568  -0.00265779  0.00041998  1
  Fe  Fe1  1  0.25047134  0.24770629  0.24707739  1
  Fe  Fe2  1  0.62439022  0.37334278  0.12351765  1
  Fe  Fe3  1  0.12531245  0.37653943  0.62549674  1
  Fe  Fe4  1  0.87411583  0.12426759  0.37591602  1
  Fe  Fe5  1  0.12549783  0.87543361  0.11982563  1
  Fe  Fe6  1  -0.00376827  0.25157669  -0.00255296  1
  Fe  Fe7  1  0.62918247  0.37391732  0.87719166  1
  Fe  Fe8  1  0.87319787  0.37840721  0.12191853  1
  Fe  Fe9  1  0.38157211  0.12520530  0.62916639  1
  Fe  Fe10  1  0.62543206  0.12563782  0.37575202  1
  Fe  Fe11  1  0.49851585  0.75251579  0.25448235  1
  Fe  Fe12  1  0.86875510  0.87508146  0.37162436  1
  Fe  Fe13  1  0.25262986  -0.00370662  0.75367148  1
  Fe  Fe14  1  0.74886825  0.74542756  0.74864681  1
  Fe  Fe15  1  0.62552330  0.87222223  0.87485367  1
  Fe  Fe16  1  -0.00163425  -0.00206267  0.50003801  1
  Fe  Fe17  1  0.12600243  0.37413495  0.37527181  1
  Fe  Fe18  1  0.50358969  0.50084187  0.25240765  1
  Fe  Fe19  1  0.50442519  -0.00397132  0.25395646  1
  Fe  Fe20  1  0.74467309  0.50259170  0.50664163  1
  Fe  Fe21  1  0.24700503  0.00282039  0.24448460  1
  Fe  Fe22  1  0.37640954  0.12243115  0.37321528  1
  Fe  Fe23  1  -0.00036156  0.49996287  0.24869761  1
  Fe  Fe24  1  0.87179925  0.12325502  0.87366909  1
  Fe  Fe25  1  0.37780097  0.87818713  0.62368040  1
  Fe  Fe26  1  0.87398212  0.62394722  0.37746435  1
  Fe  Fe27  1  0.00094334  0.75004486  0.75332658  1
  Fe  Fe28  1  -0.00218951  0.75165998  -0.00429619  1
  Fe  Fe29  1  0.61896801  0.12749594  0.62721095  1
  Fe  Fe30  1  0.12656055  0.62539037  0.37529990  1
  Fe  Fe31  1  0.25104980  0.25245633  0.74862286  1
  Fe  Fe32  1  0.12276042  0.62566854  0.12307176  1
  Fe  Fe33  1  0.62210162  0.12598819  0.12106594  1
  Fe  Fe34  1  0.37743745  0.62388810  0.12670378  1
  Fe  Fe35  1  0.87695707  0.12239920  0.12396928  1
  Fe  Fe36  1  0.74745830  -0.00102267  0.50193190  1
  Fe  Fe37  1  0.50446171  0.49925412  0.75171417  1
  Fe  Fe38  1  0.12361813  0.12618874  0.37581465  1
  Fe  Fe39  1  0.87502423  0.87448056  0.62850608  1
  Fe  Fe40  1  0.12509180  0.37396138  0.12277699  1
  Fe  Fe41  1  0.12468061  0.12385384  0.62644398  1
  Fe  Fe42  1  0.74496914  -0.00045399  0.74824651  1
  Fe  Fe43  1  0.37406912  0.37462008  0.87711453  1
  Fe  Fe44  1  0.87050110  0.37770276  0.37598216  1
  Fe  Fe45  1  0.50082692  0.25185037  0.25204879  1
  Fe  Fe46  1  0.25139167  0.00234662  0.50136866  1
  Fe  Fe47  1  0.50175934  0.50026225  -0.00159718  1
  Fe  Fe48  1  -0.00120586  0.25117086  0.50202210  1
  Fe  Fe49  1  0.49725933  0.00171292  -0.00624715  1
  Fe  Fe50  1  0.25426783  0.74781248  0.50079270  1
  Fe  Fe51  1  0.87389701  0.62604782  0.12108073  1
  Fe  Fe52  1  -0.00204525  0.75094521  0.50035072  1
  Fe  Fe53  1  0.62191049  0.87012797  0.62068339  1
  Fe  Fe54  1  0.75053117  0.24796331  0.24709456  1
  Fe  Fe55  1  0.12645808  0.62454934  0.62810592  1
  Fe  Fe56  1  0.00118756  0.49987169  0.50099372  1
  Fe  Fe57  1  0.12727986  0.12392499  0.87584359  1
  Fe  Fe58  1  0.87486614  0.12436432  0.62588232  1
  Fe  Fe59  1  0.62433657  0.63045817  0.38007549  1
  Fe  Fe60  1  0.74923211  0.25001083  0.75144055  1
  Fe  Fe61  1  0.24988490  0.50351138  -0.00017540  1
  Fe  Fe62  1  0.00133197  -0.00132837  0.75195341  1
  Fe  Fe63  1  0.87043440  0.62106638  0.87579236  1
  Fe  Fe64  1  0.38046590  0.37594276  0.62325610  1
  Fe  Fe65  1  0.49690530  0.75155249  0.75043791  1
  Fe  Fe66  1  0.25474443  0.24353837  0.00331913  1
  Fe  Fe67  1  -0.00254213  -0.00469919  -0.00359779  1
  Fe  Fe68  1  0.49981237  0.74972201  0.00054868  1
  Fe  Fe69  1  0.62737270  0.87345545  0.12565116  1
  Fe  Fe70  1  0.37827386  0.62045609  0.62360363  1
  Fe  Fe71  1  0.37400715  0.62689531  0.87380739  1
  Fe  Fe72  1  0.12852698  0.87429921  0.37562783  1
  Fe  Fe73  1  0.00014556  -0.00163158  0.25050820  1
  Fe  Fe74  1  0.12516781  0.87437013  0.62581352  1
  Fe  Fe75  1  0.74770772  0.50392278  0.24825983  1
  Fe  Fe76  1  0.74787085  0.25099438  0.50187191  1
  Fe  Fe77  1  0.12701194  0.37509813  0.87727842  1
  Fe  Fe78  1  0.37559074  0.37848330  0.37631695  1
  Fe  Fe79  1  0.37745180  0.37580170  0.12485092  1
  Fe  Fe80  1  0.00131124  0.49965710  0.75453548  1
  Fe  Fe81  1  0.62451756  0.62777219  0.12188328  1
  Fe  Fe82  1  0.25289438  0.24935939  0.50175650  1
  Fe  Fe83  1  -0.00127203  0.25002163  0.75129405  1
  Fe  Fe84  1  -0.00203002  0.25154911  0.24989371  1
  Fe  Fe85  1  -0.00181667  0.75033611  0.25051869  1
  Fe  Fe86  1  0.37474599  0.87714058  0.12319103  1
  Fe  Fe87  1  0.87283708  0.37781007  0.62872783  1
  Fe  Fe88  1  0.25251814  0.74966228  0.24850322  1
  Fe  Fe89  1  0.24832679  0.50061781  0.24896944  1
  Co  Co90  1  0.75189162  0.24912400  0.00128736  1
  Co  Co91  1  0.75088089  0.75234429  -0.00102225  1
  Co  Co92  1  0.74550697  0.50095311  0.00144028  1
  Co  Co93  1  0.13132572  0.87331034  0.87750579  1
  Co  Co94  1  0.25138965  0.74583813  0.00322561  1
  Co  Co95  1  0.62261726  0.37160362  0.62648211  1
  Co  Co96  1  0.50242701  -0.00094524  0.49791700  1
  Co  Co97  1  0.37003857  0.88024595  0.37257559  1
  Co  Co98  1  0.63066783  0.87052584  0.37738860  1
  Co  Co99  1  0.00208034  0.50098810  -0.00223599  1
  Co  Co100  1  0.87045639  0.37904027  0.87349683  1
  Co  Co101  1  0.50143513  -0.00437084  0.75347871  1
  Co  Co102  1  0.24864775  0.49991958  0.50125021  1
  Co  Co103  1  0.49955426  0.24987742  0.49648345  1
  Co  Co104  1  0.25215207  0.49755781  0.75031006  1
  Co  Co105  1  0.49138908  0.75386067  0.49431466  1
  Co  Co106  1  0.62371900  0.62832704  0.87637752  1
  Co  Co107  1  0.11904281  0.12492491  0.12211788  1
  Co  Co108  1  0.37545568  0.12665453  0.86828307  1
  Co  Co109  1  0.75583529  0.74908606  0.50403567  1
  Co  Co110  1  0.37504456  0.61995268  0.37411917  1
  Co  Co111  1  0.25410367  0.75182428  0.74523441  1
  Co  Co112  1  0.87290521  0.87334664  0.12857072  1
  Co  Co113  1  0.74715106  0.00327272  0.24784888  1
  Co  Co114  1  0.74904744  0.74572775  0.24834085  1
  Co  Co115  1  0.87067019  0.87522097  0.86930340  1
  Co  Co116  1  0.25507955  0.00580192  0.00036749  1
  Co  Co117  1  0.74270513  0.50409944  0.74630334  1
  Co  Co118  1  0.12964584  0.62705977  0.87254123  1
  Co  Co119  1  0.62686278  0.12539378  0.87563847  1
  Co  Co120  1  0.62919415  0.37487984  0.37345787  1
  Co  Co121  1  0.50630660  0.49778981  0.49851263  1
  Co  Co122  1  0.38293314  0.12324512  0.12898853  1
  Co  Co123  1  0.50210204  0.25352330  0.75589628  1
  Co  Co124  1  0.37252123  0.87078472  0.87972664  1
  Co  Co125  1  0.49813655  0.24897224  -0.00310340  1
  Co  Co126  1  0.61784333  0.63171701  0.62169211  1
  Co  Co127  1  0.87847821  0.62309490  0.62747249  1
