# generated using pymatgen
data_Fe45Co19
_symmetry_space_group_name_H-M   'P 1'
_cell_length_a   11.41531694
_cell_length_b   11.41534522
_cell_length_c   11.41658867
_cell_angle_alpha   89.99910446
_cell_angle_beta   89.99987004
_cell_angle_gamma   89.99322213
_symmetry_Int_Tables_number   1
_chemical_formula_structural   Fe45Co19
_chemical_formula_sum   'Fe90 Co38'
_cell_volume   1487.69318910
_cell_formula_units_Z   2
loop_
 _symmetry_equiv_pos_site_id
 _symmetry_equiv_pos_as_xyz
  1  'x, y, z'
loop_
 _atom_site_type_symbol
 _atom_site_label
 _atom_site_symmetry_multiplicity
 _atom_site_fract_x
 _atom_site_fract_y
 _atom_site_fract_z
 _atom_site_occupancy
  Fe  Fe0  1  0.24962899  0.25031448  0.75069858  1
  Fe  Fe1  1  0.37340978  0.62795935  0.12651957  1
  Fe  Fe2  1  0.50417241  -0.00061105  0.25153800  1
  Fe  Fe3  1  0.50052673  0.75056761  0.75244313  1
  Fe  Fe4  1  0.87451568  0.37707385  0.62573463  1
  Fe  Fe5  1  -0.00081905  0.25317431  0.49591037  1
  Fe  Fe6  1  0.50559329  0.24888142  0.25321954  1
  Fe  Fe7  1  0.62904360  0.37309622  0.12665242  1
  Fe  Fe8  1  0.37200586  0.62884981  0.62431591  1
  Fe  Fe9  1  0.25110519  -0.00022908  0.75043876  1
  Fe  Fe10  1  0.75157023  0.50488994  0.75200160  1
  Fe  Fe11  1  0.49927697  0.49907819  0.00055023  1
  Fe  Fe12  1  0.87748004  0.86994995  0.62664861  1
  Fe  Fe13  1  0.49784195  -0.00033190  0.75132812  1
  Fe  Fe14  1  0.24785241  0.75188147  0.00205922  1
  Fe  Fe15  1  0.25126168  -0.00223677  0.50064774  1
  Fe  Fe16  1  0.62488546  0.12424972  0.62368554  1
  Fe  Fe17  1  0.49670650  0.50015933  0.75061193  1
  Fe  Fe18  1  0.12308598  0.37856186  0.62120310  1
  Fe  Fe19  1  0.87144064  0.37926924  0.37157948  1
  Fe  Fe20  1  0.62593510  0.62478992  0.12281277  1
  Fe  Fe21  1  0.87622100  0.12630852  0.62132010  1
  Fe  Fe22  1  0.24842318  -0.00029847  0.24825372  1
  Fe  Fe23  1  0.49959787  -0.00165110  0.49871997  1
  Fe  Fe24  1  0.00356367  0.74805397  0.24994172  1
  Fe  Fe25  1  -0.00397297  0.49564085  -0.00012756  1
  Fe  Fe26  1  0.50414886  0.24791475  -0.00297898  1
  Fe  Fe27  1  0.74996057  0.24837175  0.75047229  1
  Fe  Fe28  1  0.37401753  0.62584719  0.87698664  1
  Fe  Fe29  1  0.24764861  0.75248734  0.74950539  1
  Fe  Fe30  1  0.75347477  0.00008839  0.74845630  1
  Fe  Fe31  1  0.12333116  0.87625297  0.37449435  1
  Fe  Fe32  1  0.12326319  0.12354099  0.62286502  1
  Fe  Fe33  1  0.87676956  0.87217906  0.87382919  1
  Fe  Fe34  1  0.37591823  0.37158298  0.12474627  1
  Fe  Fe35  1  0.74791705  0.74868644  0.25009246  1
  Fe  Fe36  1  0.87507472  0.87281602  0.12610929  1
  Fe  Fe37  1  -0.00264938  0.00132637  0.24809227  1
  Fe  Fe38  1  0.24765776  0.25043517  0.25057633  1
  Fe  Fe39  1  0.62637642  0.37670895  0.87334021  1
  Fe  Fe40  1  0.00184901  0.75059991  0.00047879  1
  Fe  Fe41  1  0.12423337  0.12383428  0.37627584  1
  Fe  Fe42  1  0.12040080  0.12601351  0.12311058  1
  Fe  Fe43  1  0.37509600  0.87262855  0.12773837  1
  Fe  Fe44  1  0.75445719  0.49756543  -0.00082697  1
  Fe  Fe45  1  0.37467696  0.37555979  0.37357391  1
  Fe  Fe46  1  0.00152816  0.74413930  0.50095885  1
  Fe  Fe47  1  0.00123878  0.24813308  0.74985809  1
  Fe  Fe48  1  0.62494758  0.87381499  0.62505280  1
  Fe  Fe49  1  0.62636654  0.87651627  0.87471762  1
  Fe  Fe50  1  0.74932869  0.74781037  -0.00285713  1
  Fe  Fe51  1  0.12391443  0.37619089  0.87321591  1
  Fe  Fe52  1  0.62602805  0.87566151  0.12611670  1
  Fe  Fe53  1  -0.00148476  0.50462173  0.74822875  1
  Fe  Fe54  1  0.25335453  0.49788728  0.74831657  1
  Fe  Fe55  1  0.25094917  0.49741618  0.00235475  1
  Fe  Fe56  1  0.50070630  0.75051534  -0.00062070  1
  Fe  Fe57  1  -0.00008575  0.49935773  0.25143963  1
  Fe  Fe58  1  0.37397193  0.87185382  0.37230627  1
  Fe  Fe59  1  0.87571118  0.87255117  0.37368061  1
  Fe  Fe60  1  0.62606842  0.62537715  0.62567098  1
  Fe  Fe61  1  0.37731397  0.12628477  0.12569843  1
  Fe  Fe62  1  0.87598465  0.62507284  0.12535433  1
  Fe  Fe63  1  0.12500567  0.62336284  0.87550313  1
  Fe  Fe64  1  0.87344723  0.13241790  0.12583230  1
  Fe  Fe65  1  0.75182471  -0.00333174  0.50059355  1
  Fe  Fe66  1  0.37532908  0.12581818  0.62497588  1
  Fe  Fe67  1  0.49935059  0.75031742  0.49788496  1
  Fe  Fe68  1  0.62649613  0.62256239  0.37537291  1
  Fe  Fe69  1  0.37468900  0.12501438  0.37454782  1
  Fe  Fe70  1  0.12173843  0.37324735  0.12777934  1
  Fe  Fe71  1  0.74773075  0.25310565  0.49751039  1
  Fe  Fe72  1  0.87240284  0.12417834  0.37502737  1
  Fe  Fe73  1  0.50265925  0.25084933  0.49783832  1
  Fe  Fe74  1  0.24993096  0.25248132  0.49995360  1
  Fe  Fe75  1  0.12470431  0.62297868  0.12482495  1
  Fe  Fe76  1  0.62568336  0.37720525  0.62526083  1
  Fe  Fe77  1  0.24766711  0.24980697  -0.00167691  1
  Fe  Fe78  1  0.12169282  0.87932002  0.87628316  1
  Fe  Fe79  1  0.12970450  0.61958990  0.37824102  1
  Fe  Fe80  1  0.12172040  0.87658810  0.62445193  1
  Fe  Fe81  1  0.75088322  0.74767524  0.49991403  1
  Fe  Fe82  1  0.37115979  0.62597919  0.37250215  1
  Fe  Fe83  1  0.25115019  0.00058881  0.00076142  1
  Fe  Fe84  1  0.87710237  0.12731804  0.87624814  1
  Fe  Fe85  1  0.49737611  0.49993690  0.50157253  1
  Fe  Fe86  1  0.75151072  0.00273262  0.00104692  1
  Fe  Fe87  1  0.50000350  0.00158821  -0.00103547  1
  Fe  Fe88  1  0.49987222  0.50122964  0.24799897  1
  Fe  Fe89  1  0.49950942  0.24958668  0.75238019  1
  Co  Co90  1  -0.00356569  0.00225297  0.74912989  1
  Co  Co91  1  0.12679004  0.37924706  0.37693156  1
  Co  Co92  1  0.62700572  0.12561248  0.12564667  1
  Co  Co93  1  0.12318680  0.87809465  0.12417952  1
  Co  Co94  1  0.24843564  0.75313167  0.50022215  1
  Co  Co95  1  0.62539668  0.38160968  0.37579840  1
  Co  Co96  1  0.12348949  0.12274971  0.87624554  1
  Co  Co97  1  0.37745814  0.37107858  0.62464531  1
  Co  Co98  1  0.37502260  0.37392278  0.87754997  1
  Co  Co99  1  0.87378249  0.37100280  0.13063824  1
  Co  Co100  1  0.62679623  0.12285201  0.87321112  1
  Co  Co101  1  -0.00497346  0.00122084  0.00216043  1
  Co  Co102  1  0.75168951  -0.00044750  0.24879178  1
  Co  Co103  1  -0.00222945  -0.00026604  0.49955979  1
  Co  Co104  1  0.74579377  0.24926662  0.25527019  1
  Co  Co105  1  0.62786681  0.87421279  0.37554737  1
  Co  Co106  1  0.87555256  0.37451227  0.86983785  1
  Co  Co107  1  0.12891599  0.62118880  0.62257135  1
  Co  Co108  1  0.50380404  0.74846239  0.25043539  1
  Co  Co109  1  0.74758488  0.74871277  0.75266724  1
  Co  Co110  1  0.24489627  0.75001279  0.24884747  1
  Co  Co111  1  0.37443130  0.87403644  0.87660497  1
  Co  Co112  1  0.87781646  0.62793166  0.87616811  1
  Co  Co113  1  0.75248376  0.50192216  0.50218289  1
  Co  Co114  1  0.25127467  0.49806630  0.24619948  1
  Co  Co115  1  0.25566095  0.49643342  0.50299703  1
  Co  Co116  1  0.62315100  0.62257059  0.87649037  1
  Co  Co117  1  0.87356812  0.62533132  0.37198459  1
  Co  Co118  1  0.37683915  0.87387817  0.62447422  1
  Co  Co119  1  0.62786401  0.12038039  0.37787136  1
  Co  Co120  1  -0.00562423  0.50240805  0.49980035  1
  Co  Co121  1  0.74985644  0.25242052  -0.00340962  1
  Co  Co122  1  -0.00090949  0.25463076  -0.00279006  1
  Co  Co123  1  0.00083013  0.25000461  0.25577201  1
  Co  Co124  1  0.87332354  0.62777083  0.62787181  1
  Co  Co125  1  0.74860675  0.50277234  0.24680828  1
  Co  Co126  1  0.37378202  0.12636727  0.87529438  1
  Co  Co127  1  0.00418521  0.74746158  0.74906200  1
