# generated using pymatgen
data_Fe45Co19
_symmetry_space_group_name_H-M   'P 1'
_cell_length_a   11.40740316
_cell_length_b   11.40613733
_cell_length_c   11.40758980
_cell_angle_alpha   90.00930173
_cell_angle_beta   90.00994320
_cell_angle_gamma   90.00903855
_symmetry_Int_Tables_number   1
_chemical_formula_structural   Fe45Co19
_chemical_formula_sum   'Fe90 Co38'
_cell_volume   1484.29172302
_cell_formula_units_Z   2
loop_
 _symmetry_equiv_pos_site_id
 _symmetry_equiv_pos_as_xyz
  1  'x, y, z'
loop_
 _atom_site_type_symbol
 _atom_site_label
 _atom_site_symmetry_multiplicity
 _atom_site_fract_x
 _atom_site_fract_y
 _atom_site_fract_z
 _atom_site_occupancy
  Fe  Fe0  1  0.75470665  0.00245909  -0.00179895  1
  Fe  Fe1  1  0.87719295  0.87525416  0.87403606  1
  Fe  Fe2  1  0.12046562  0.37496182  0.87383675  1
  Fe  Fe3  1  0.75165987  0.50227076  0.25356445  1
  Fe  Fe4  1  0.24853161  0.75064609  0.75202255  1
  Fe  Fe5  1  0.12191151  0.63063722  0.37455510  1
  Fe  Fe6  1  0.37290897  0.12454344  0.12724446  1
  Fe  Fe7  1  0.50170762  0.25013930  0.50182337  1
  Fe  Fe8  1  0.49856440  0.49572737  0.74813872  1
  Fe  Fe9  1  0.49936066  0.00167218  0.00106604  1
  Fe  Fe10  1  0.62227664  0.62388353  0.87472743  1
  Fe  Fe11  1  0.87876558  0.37307362  0.87423175  1
  Fe  Fe12  1  0.00417836  0.75522460  0.00219509  1
  Fe  Fe13  1  0.74739210  0.75207926  0.75018746  1
  Fe  Fe14  1  0.75180483  0.50202180  -0.00179452  1
  Fe  Fe15  1  0.37761543  0.12826610  0.87315439  1
  Fe  Fe16  1  0.62392744  0.87700174  0.87739829  1
  Fe  Fe17  1  0.74996996  0.24795374  0.75108277  1
  Fe  Fe18  1  0.00227056  0.75326065  0.74695042  1
  Fe  Fe19  1  0.62755287  0.37779186  0.12396814  1
  Fe  Fe20  1  0.75284163  0.24651948  -0.00035493  1
  Fe  Fe21  1  0.62901585  0.37697163  0.62161221  1
  Fe  Fe22  1  0.87849755  0.63393546  0.37280974  1
  Fe  Fe23  1  -0.00017950  0.50002026  0.25116627  1
  Fe  Fe24  1  0.00003232  0.50115321  0.00094576  1
  Fe  Fe25  1  0.62781901  0.12350418  0.62504506  1
  Fe  Fe26  1  0.87913128  0.62765065  0.87397118  1
  Fe  Fe27  1  0.12111633  0.11967761  0.12799284  1
  Fe  Fe28  1  0.62869454  0.12176807  0.12709760  1
  Fe  Fe29  1  -0.00249522  -0.00024335  0.50009031  1
  Fe  Fe30  1  0.24768621  0.74991826  -0.00289822  1
  Fe  Fe31  1  0.75210996  0.50059648  0.75209349  1
  Fe  Fe32  1  0.86995759  0.87684538  0.62244833  1
  Fe  Fe33  1  0.62645106  0.37633036  0.37764404  1
  Fe  Fe34  1  0.12951301  0.87955391  0.62494352  1
  Fe  Fe35  1  0.62430569  0.62054829  0.62408748  1
  Fe  Fe36  1  0.37734818  0.62532491  0.87485206  1
  Fe  Fe37  1  0.25028408  0.49919079  0.49671621  1
  Fe  Fe38  1  0.50186694  -0.00459503  0.24992882  1
  Fe  Fe39  1  0.12550778  0.37539032  0.12576775  1
  Fe  Fe40  1  0.62415218  0.37396245  0.87612721  1
  Fe  Fe41  1  0.50159122  0.24894942  0.00292498  1
  Fe  Fe42  1  0.24526884  0.24823587  0.75052726  1
  Fe  Fe43  1  0.37814319  0.12771337  0.37296440  1
  Fe  Fe44  1  0.50041156  0.75077379  0.00365253  1
  Fe  Fe45  1  0.25292437  0.00181884  0.49764868  1
  Fe  Fe46  1  0.50180878  0.75114033  0.74702243  1
  Fe  Fe47  1  0.24969288  0.49938932  0.75276032  1
  Fe  Fe48  1  0.12643652  0.62720170  0.12701685  1
  Fe  Fe49  1  0.24778905  0.24915123  0.49835186  1
  Fe  Fe50  1  0.75479893  -0.00507396  0.25543245  1
  Fe  Fe51  1  0.37104793  0.87473779  0.12480556  1
  Fe  Fe52  1  0.37487245  0.62292191  0.62473610  1
  Fe  Fe53  1  0.12107237  0.12435725  0.37403660  1
  Fe  Fe54  1  0.24829454  0.49984752  0.25314319  1
  Fe  Fe55  1  0.37190703  0.37555005  0.12484307  1
  Fe  Fe56  1  0.12557153  0.37696023  0.62411686  1
  Fe  Fe57  1  0.87446945  0.37428636  0.12426440  1
  Fe  Fe58  1  0.87592097  0.37250125  0.37769098  1
  Fe  Fe59  1  0.62320771  0.62248480  0.12688431  1
  Fe  Fe60  1  0.37467063  0.37304887  0.37440067  1
  Fe  Fe61  1  0.75042547  0.24893994  0.25201339  1
  Fe  Fe62  1  0.87423260  0.62600296  0.62621846  1
  Fe  Fe63  1  0.37560737  0.87672782  0.62473107  1
  Fe  Fe64  1  -0.00094301  0.24617037  0.50529998  1
  Fe  Fe65  1  0.62518255  0.87908520  0.62044644  1
  Fe  Fe66  1  0.74660684  0.74740290  0.49854565  1
  Fe  Fe67  1  0.25107711  0.74953040  0.49938087  1
  Fe  Fe68  1  0.24546634  0.24691394  0.00034105  1
  Fe  Fe69  1  0.37565691  0.87488191  0.87418828  1
  Fe  Fe70  1  0.11834995  0.12021482  0.87150989  1
  Fe  Fe71  1  0.12624863  0.62301432  0.62634727  1
  Fe  Fe72  1  0.24850232  -0.00261055  0.25484426  1
  Fe  Fe73  1  0.24953624  0.50120827  -0.00245866  1
  Fe  Fe74  1  0.37995117  0.62699406  0.37334825  1
  Fe  Fe75  1  0.74820162  0.74885296  0.00048128  1
  Fe  Fe76  1  0.37418540  0.12773415  0.62654849  1
  Fe  Fe77  1  0.87511260  0.62996318  0.12790760  1
  Fe  Fe78  1  -0.00160844  0.50206627  0.50007582  1
  Fe  Fe79  1  0.61917931  0.62537620  0.37474221  1
  Fe  Fe80  1  0.88063722  0.12399927  0.87120429  1
  Fe  Fe81  1  0.37979049  0.87218900  0.37702040  1
  Fe  Fe82  1  0.50145322  0.25227491  0.24720934  1
  Fe  Fe83  1  0.37622159  0.37106393  0.87467442  1
  Fe  Fe84  1  0.24877272  0.00114247  -0.00414493  1
  Fe  Fe85  1  0.75077028  0.00460667  0.49232633  1
  Fe  Fe86  1  0.50099332  0.00182923  0.74981262  1
  Fe  Fe87  1  0.87207443  0.37461144  0.62323367  1
  Fe  Fe88  1  0.37607753  0.62404831  0.12765243  1
  Fe  Fe89  1  0.00055032  0.25083891  0.24791994  1
  Co  Co90  1  0.12383058  0.87346464  0.37899554  1
  Co  Co91  1  0.00048652  0.24839983  0.74389892  1
  Co  Co92  1  0.25367334  0.00187846  0.75179003  1
  Co  Co93  1  0.74361085  0.75253570  0.25166904  1
  Co  Co94  1  0.87598016  0.86728732  0.37914047  1
  Co  Co95  1  0.62406139  0.12507101  0.87630000  1
  Co  Co96  1  0.74850465  -0.00068536  0.75374474  1
  Co  Co97  1  -0.00327176  -0.00835915  0.25150464  1
  Co  Co98  1  -0.00214632  -0.00295972  0.00369612  1
  Co  Co99  1  0.00354190  0.75851609  0.24534803  1
  Co  Co100  1  0.12186277  0.37287261  0.37642790  1
  Co  Co101  1  0.49697101  0.49705908  0.50121576  1
  Co  Co102  1  0.37059607  0.37240995  0.62536574  1
  Co  Co103  1  0.12811791  0.12090763  0.62413246  1
  Co  Co104  1  0.86983392  0.87222560  0.12372868  1
  Co  Co105  1  0.50394476  0.25049597  0.74668717  1
  Co  Co106  1  0.86944593  0.12269958  0.62659194  1
  Co  Co107  1  0.50010918  0.74879903  0.50418792  1
  Co  Co108  1  0.74946950  0.24478604  0.49718543  1
  Co  Co109  1  0.50268500  0.75510966  0.24571397  1
  Co  Co110  1  0.87958548  0.12799985  0.37204006  1
  Co  Co111  1  0.75381022  0.50496467  0.49587654  1
  Co  Co112  1  0.62196109  0.87436072  0.38009016  1
  Co  Co113  1  0.12404228  0.87870239  0.87281402  1
  Co  Co114  1  0.49872220  0.49810825  -0.00013983  1
  Co  Co115  1  0.00084811  0.24778779  0.00232998  1
  Co  Co116  1  0.25072199  0.75126432  0.25277974  1
  Co  Co117  1  0.87592057  0.12420089  0.12900923  1
  Co  Co118  1  -0.00185794  -0.00222143  0.74354754  1
  Co  Co119  1  0.49801394  0.00480217  0.50066485  1
  Co  Co120  1  0.24764152  0.24924998  0.24959830  1
  Co  Co121  1  0.62953275  0.87920905  0.12162534  1
  Co  Co122  1  0.62191628  0.12477672  0.37102531  1
  Co  Co123  1  0.00216682  0.75125385  0.50760568  1
  Co  Co124  1  -0.00193030  0.49979687  0.74779771  1
  Co  Co125  1  0.13154649  0.87820131  0.12432024  1
  Co  Co126  1  0.12175611  0.62495500  0.87383387  1
  Co  Co127  1  0.49966289  0.49611274  0.25053668  1
