# generated using pymatgen
data_Fe45Co19
_symmetry_space_group_name_H-M   'P 1'
_cell_length_a   11.41505299
_cell_length_b   11.41456141
_cell_length_c   11.41477937
_cell_angle_alpha   89.99965915
_cell_angle_beta   89.99644162
_cell_angle_gamma   90.00324381
_symmetry_Int_Tables_number   1
_chemical_formula_structural   Fe45Co19
_chemical_formula_sum   'Fe90 Co38'
_cell_volume   1487.32090105
_cell_formula_units_Z   2
loop_
 _symmetry_equiv_pos_site_id
 _symmetry_equiv_pos_as_xyz
  1  'x, y, z'
loop_
 _atom_site_type_symbol
 _atom_site_label
 _atom_site_symmetry_multiplicity
 _atom_site_fract_x
 _atom_site_fract_y
 _atom_site_fract_z
 _atom_site_occupancy
  Fe  Fe0  1  0.49964373  0.75107419  0.25063247  1
  Fe  Fe1  1  0.50127245  0.75336708  0.75018641  1
  Fe  Fe2  1  0.12375612  0.12371524  0.12802864  1
  Fe  Fe3  1  0.00147216  0.50098500  0.75162562  1
  Fe  Fe4  1  0.12759724  0.37609179  0.12451296  1
  Fe  Fe5  1  0.62265170  0.12189666  0.62712410  1
  Fe  Fe6  1  0.00079763  0.25274130  0.74807074  1
  Fe  Fe7  1  0.37217901  0.37502061  0.12584650  1
  Fe  Fe8  1  0.62502232  0.37385044  0.12383847  1
  Fe  Fe9  1  0.24734889  0.50095384  0.75010909  1
  Fe  Fe10  1  0.00099195  0.00030897  0.49646392  1
  Fe  Fe11  1  0.12803226  0.87123381  0.37756663  1
  Fe  Fe12  1  0.87673444  0.87592819  0.12489668  1
  Fe  Fe13  1  0.24921701  0.25008590  0.49981294  1
  Fe  Fe14  1  0.75148555  0.00466607  0.00021347  1
  Fe  Fe15  1  0.50080349  0.49988187  0.25124491  1
  Fe  Fe16  1  0.62647546  0.87233605  0.37650883  1
  Fe  Fe17  1  0.74954467  0.50129380  0.24802142  1
  Fe  Fe18  1  0.00095775  0.49942362  0.25253468  1
  Fe  Fe19  1  0.49966995  -0.00224262  0.49851243  1
  Fe  Fe20  1  0.87497074  0.37589861  0.12449523  1
  Fe  Fe21  1  0.50169430  0.49814118  0.74910547  1
  Fe  Fe22  1  0.00180360  0.50017707  -0.00379106  1
  Fe  Fe23  1  0.62701602  0.62665064  0.37627035  1
  Fe  Fe24  1  0.62568163  0.12638655  0.37271322  1
  Fe  Fe25  1  0.50010852  0.25162528  0.74980600  1
  Fe  Fe26  1  0.75241149  -0.00249178  0.75024953  1
  Fe  Fe27  1  0.37491825  0.12482443  0.62389690  1
  Fe  Fe28  1  0.37429653  0.62329108  0.12810462  1
  Fe  Fe29  1  0.37558680  0.87318703  0.62293244  1
  Fe  Fe30  1  0.62600620  0.37328518  0.87707034  1
  Fe  Fe31  1  0.62592103  0.62571401  0.87399136  1
  Fe  Fe32  1  0.00096803  0.25337783  0.25203889  1
  Fe  Fe33  1  0.00009533  0.24926231  -0.00074563  1
  Fe  Fe34  1  0.50030758  0.74891634  -0.00083454  1
  Fe  Fe35  1  0.37342054  0.37514118  0.37483690  1
  Fe  Fe36  1  0.25444578  0.50452064  0.50105298  1
  Fe  Fe37  1  0.87444203  0.37336066  0.87434384  1
  Fe  Fe38  1  0.50032385  0.25018604  0.50060609  1
  Fe  Fe39  1  0.49890600  0.24884354  0.24754037  1
  Fe  Fe40  1  0.87416890  0.12668109  0.37298247  1
  Fe  Fe41  1  0.74935828  0.74783376  0.00288649  1
  Fe  Fe42  1  0.87133240  0.37509171  0.37847870  1
  Fe  Fe43  1  0.37365353  0.12504083  0.37446949  1
  Fe  Fe44  1  0.12398371  0.12520459  0.87278353  1
  Fe  Fe45  1  0.75080516  0.00141361  0.24820441  1
  Fe  Fe46  1  0.12315005  0.87703789  0.12558154  1
  Fe  Fe47  1  0.12883055  0.62585205  0.37543397  1
  Fe  Fe48  1  0.12515497  0.87310415  0.87576604  1
  Fe  Fe49  1  0.37668105  0.87760381  0.12505321  1
  Fe  Fe50  1  0.75047896  0.49917802  0.74710881  1
  Fe  Fe51  1  0.24745008  0.74969608  0.74796475  1
  Fe  Fe52  1  0.37394009  0.62569378  0.87327055  1
  Fe  Fe53  1  0.37360726  0.37527219  0.87482824  1
  Fe  Fe54  1  0.12522905  0.12262686  0.62523515  1
  Fe  Fe55  1  -0.00191292  -0.00404935  0.75231648  1
  Fe  Fe56  1  0.74987651  0.24479348  0.00191113  1
  Fe  Fe57  1  -0.00221220  0.00158638  -0.00223441  1
  Fe  Fe58  1  0.62363217  0.87686123  0.12558913  1
  Fe  Fe59  1  0.12499726  0.37774123  0.62148963  1
  Fe  Fe60  1  0.87660532  0.12312187  0.62542469  1
  Fe  Fe61  1  0.49800028  0.50328793  0.50024923  1
  Fe  Fe62  1  0.37651874  0.12570386  0.87444377  1
  Fe  Fe63  1  0.75063450  0.24987151  0.74731230  1
  Fe  Fe64  1  0.25164944  -0.00232289  0.74980667  1
  Fe  Fe65  1  -0.00439727  0.50469824  0.49963950  1
  Fe  Fe66  1  0.25012511  0.24869722  0.00061624  1
  Fe  Fe67  1  0.62538170  0.87769097  0.87504625  1
  Fe  Fe68  1  -0.00019341  0.74923384  -0.00086303  1
  Fe  Fe69  1  0.12248921  0.87271286  0.62112789  1
  Fe  Fe70  1  0.24906103  0.25140193  0.74845513  1
  Fe  Fe71  1  0.62490285  0.62809921  0.62373011  1
  Fe  Fe72  1  0.00039584  0.74928736  0.25145768  1
  Fe  Fe73  1  0.62800055  0.37405361  0.37702123  1
  Fe  Fe74  1  0.49942258  0.50036585  -0.00081473  1
  Fe  Fe75  1  0.87410542  0.87308520  0.37600865  1
  Fe  Fe76  1  -0.00088338  0.24955933  0.50039134  1
  Fe  Fe77  1  0.75121358  0.74742093  0.24630640  1
  Fe  Fe78  1  0.12548473  0.62316657  0.12477273  1
  Fe  Fe79  1  0.74948872  -0.00030280  0.50098275  1
  Fe  Fe80  1  0.62580149  0.37465795  0.62137939  1
  Fe  Fe81  1  0.87468590  0.62767305  0.87352470  1
  Fe  Fe82  1  0.25011373  -0.00113963  0.25128428  1
  Fe  Fe83  1  0.50025469  0.00258657  -0.00186736  1
  Fe  Fe84  1  0.37195028  0.87149987  0.37702384  1
  Fe  Fe85  1  0.25020489  -0.00004645  -0.00163806  1
  Fe  Fe86  1  0.74994945  0.50331244  0.00131813  1
  Fe  Fe87  1  0.75239357  0.75525980  0.74650655  1
  Fe  Fe88  1  0.25083486  0.74973906  0.00215680  1
  Fe  Fe89  1  0.12614062  0.12544198  0.37375619  1
  Co  Co90  1  0.37429867  0.12251818  0.12604677  1
  Co  Co91  1  0.49588200  -0.00253969  0.74989981  1
  Co  Co92  1  0.62122513  0.62488317  0.12612686  1
  Co  Co93  1  0.12619921  0.62815662  0.87631719  1
  Co  Co94  1  0.37400006  0.62701930  0.37061301  1
  Co  Co95  1  0.75241046  0.75011526  0.50325160  1
  Co  Co96  1  0.75003894  0.24712316  0.50285110  1
  Co  Co97  1  0.12220764  0.62491211  0.62315757  1
  Co  Co98  1  0.24809138  0.25033552  0.25138385  1
  Co  Co99  1  0.87934369  0.62369416  0.12516815  1
  Co  Co100  1  0.12622182  0.37296555  0.87502493  1
  Co  Co101  1  0.62194880  0.12332275  0.12794423  1
  Co  Co102  1  0.24967049  0.00020724  0.50016628  1
  Co  Co103  1  0.87044775  0.62501270  0.37263407  1
  Co  Co104  1  0.87638891  0.12722778  0.87197049  1
  Co  Co105  1  0.87926193  0.12428146  0.12873746  1
  Co  Co106  1  0.87618450  0.37600055  0.62336828  1
  Co  Co107  1  0.00078859  -0.00225748  0.25426565  1
  Co  Co108  1  0.87981500  0.87588797  0.62019963  1
  Co  Co109  1  0.25243836  0.74484006  0.50376343  1
  Co  Co110  1  0.37465216  0.87247132  0.87572908  1
  Co  Co111  1  0.24803529  0.49857359  0.25170835  1
  Co  Co112  1  -0.00253997  0.74614748  0.49694632  1
  Co  Co113  1  0.37816484  0.62596535  0.63029019  1
  Co  Co114  1  0.37402107  0.37554847  0.62421030  1
  Co  Co115  1  0.87394700  0.87291191  0.87910065  1
  Co  Co116  1  0.25039647  0.50083609  -0.00152215  1
  Co  Co117  1  0.62393063  0.12438936  0.87160988  1
  Co  Co118  1  0.87547503  0.62705399  0.62853519  1
  Co  Co119  1  0.49959925  0.24991707  0.00126773  1
  Co  Co120  1  0.75016591  0.50263219  0.50304673  1
  Co  Co121  1  0.24907796  0.75172274  0.24615819  1
  Co  Co122  1  -0.00007015  0.75149779  0.75088736  1
  Co  Co123  1  0.62297450  0.87616529  0.62345260  1
  Co  Co124  1  0.75073454  0.25055130  0.24767038  1
  Co  Co125  1  0.12598762  0.37784900  0.38093206  1
  Co  Co126  1  0.49838135  0.74869128  0.49962354  1
  Co  Co127  1  0.49868523  -0.00162093  0.25435050  1
