# generated using pymatgen
data_Fe45Co19
_symmetry_space_group_name_H-M   'P 1'
_cell_length_a   11.41530401
_cell_length_b   11.41598901
_cell_length_c   11.41475066
_cell_angle_alpha   89.98509279
_cell_angle_beta   90.00694059
_cell_angle_gamma   89.99384889
_symmetry_Int_Tables_number   1
_chemical_formula_structural   Fe45Co19
_chemical_formula_sum   'Fe90 Co38'
_cell_volume   1487.53582061
_cell_formula_units_Z   2
loop_
 _symmetry_equiv_pos_site_id
 _symmetry_equiv_pos_as_xyz
  1  'x, y, z'
loop_
 _atom_site_type_symbol
 _atom_site_label
 _atom_site_symmetry_multiplicity
 _atom_site_fract_x
 _atom_site_fract_y
 _atom_site_fract_z
 _atom_site_occupancy
  Fe  Fe0  1  0.12687281  0.37284595  0.37667845  1
  Fe  Fe1  1  -0.00035763  0.75075550  0.25229195  1
  Fe  Fe2  1  0.37474213  0.62337769  0.87379375  1
  Fe  Fe3  1  0.37768384  0.87513047  0.37892311  1
  Fe  Fe4  1  0.74465452  -0.00158810  0.24648111  1
  Fe  Fe5  1  0.00174722  0.74919571  0.49773016  1
  Fe  Fe6  1  0.12629831  0.36854191  0.12084348  1
  Fe  Fe7  1  0.25009977  0.49759228  0.24867122  1
  Fe  Fe8  1  0.74936875  0.25056223  0.49681136  1
  Fe  Fe9  1  0.12524814  0.87549465  0.37745761  1
  Fe  Fe10  1  0.62380965  0.62513991  0.87531905  1
  Fe  Fe11  1  0.87435692  0.12260294  0.87312190  1
  Fe  Fe12  1  0.12650935  0.62570919  0.62728655  1
  Fe  Fe13  1  0.37550218  0.62588852  0.37485115  1
  Fe  Fe14  1  0.74840474  0.49705101  0.24928744  1
  Fe  Fe15  1  0.25106265  0.75134287  0.25270332  1
  Fe  Fe16  1  0.12794410  0.12681453  0.37475473  1
  Fe  Fe17  1  0.87330757  0.12366554  0.62388759  1
  Fe  Fe18  1  0.62332709  0.12415457  0.37440856  1
  Fe  Fe19  1  0.75195275  0.75048630  0.75520054  1
  Fe  Fe20  1  0.49947084  0.50451334  0.00313541  1
  Fe  Fe21  1  0.49238083  0.24446970  0.00039631  1
  Fe  Fe22  1  0.74622154  0.75039664  0.49277839  1
  Fe  Fe23  1  0.37864786  0.88117306  0.87661799  1
  Fe  Fe24  1  0.37639044  0.87431960  0.12322291  1
  Fe  Fe25  1  0.87121455  0.87406724  0.12375676  1
  Fe  Fe26  1  0.74759839  0.49807414  0.49908167  1
  Fe  Fe27  1  0.74829257  0.49903156  0.75080543  1
  Fe  Fe28  1  0.50186661  0.74971541  0.25008484  1
  Fe  Fe29  1  0.87255124  0.12786641  0.12773722  1
  Fe  Fe30  1  0.87488227  0.62133279  0.37348453  1
  Fe  Fe31  1  -0.00191527  0.74837616  -0.00009512  1
  Fe  Fe32  1  -0.00041134  0.24990533  0.75094156  1
  Fe  Fe33  1  0.62244166  0.37241584  0.62718704  1
  Fe  Fe34  1  0.00097969  0.50009864  0.50057945  1
  Fe  Fe35  1  0.24845240  0.49925832  -0.00171201  1
  Fe  Fe36  1  0.62270587  0.37083239  0.12384771  1
  Fe  Fe37  1  0.49937820  0.75325969  0.74971115  1
  Fe  Fe38  1  0.87913938  0.37756543  0.87580212  1
  Fe  Fe39  1  -0.00146576  0.75037069  0.74981906  1
  Fe  Fe40  1  0.62128071  0.37556480  0.87685153  1
  Fe  Fe41  1  0.12516340  0.87391584  0.12367986  1
  Fe  Fe42  1  0.24850471  -0.00190001  0.74947508  1
  Fe  Fe43  1  0.87327093  0.62627545  0.12708973  1
  Fe  Fe44  1  0.62344570  0.87671522  0.88216718  1
  Fe  Fe45  1  0.74872818  0.25135758  0.75198531  1
  Fe  Fe46  1  0.87519420  0.87944878  0.87712439  1
  Fe  Fe47  1  0.50441933  -0.00334746  0.50707404  1
  Fe  Fe48  1  0.50035792  0.50156037  0.50228275  1
  Fe  Fe49  1  0.12720614  0.62718011  0.12523355  1
  Fe  Fe50  1  0.62063871  0.12338788  0.87389397  1
  Fe  Fe51  1  0.37481103  0.62670410  0.62576998  1
  Fe  Fe52  1  0.00169557  -0.00001592  0.74861413  1
  Fe  Fe53  1  0.49716547  0.25071172  0.50186838  1
  Fe  Fe54  1  0.87471700  0.37489085  0.62554555  1
  Fe  Fe55  1  0.00177189  0.49694719  0.24828608  1
  Fe  Fe56  1  0.12544397  0.87436362  0.62257090  1
  Fe  Fe57  1  0.75075739  0.24892186  -0.00251505  1
  Fe  Fe58  1  0.87541793  0.37081506  0.12562325  1
  Fe  Fe59  1  0.25035879  0.00124157  0.50138002  1
  Fe  Fe60  1  0.00226889  0.00172360  0.24839068  1
  Fe  Fe61  1  0.87286550  0.87631518  0.62194487  1
  Fe  Fe62  1  0.49922917  0.50116450  0.24728910  1
  Fe  Fe63  1  0.25040498  -0.00217425  0.25041769  1
  Fe  Fe64  1  0.74969754  0.50029168  0.00136045  1
  Fe  Fe65  1  0.87384850  0.12353478  0.37400543  1
  Fe  Fe66  1  0.87455608  0.87938797  0.37562349  1
  Fe  Fe67  1  0.12718083  0.37431640  0.62588508  1
  Fe  Fe68  1  0.62209034  0.37521507  0.37343701  1
  Fe  Fe69  1  0.37441798  0.37473038  0.37569314  1
  Fe  Fe70  1  0.25411140  0.25278608  0.75135686  1
  Fe  Fe71  1  0.25065562  0.75126525  0.75178200  1
  Fe  Fe72  1  0.25078870  0.50135875  0.50073574  1
  Fe  Fe73  1  0.50247290  0.00029538  0.24226211  1
  Fe  Fe74  1  0.00090486  0.00357264  0.00175242  1
  Fe  Fe75  1  0.13135378  0.12895099  0.12300181  1
  Fe  Fe76  1  0.62773009  0.63005919  0.12519783  1
  Fe  Fe77  1  0.87942958  0.61987402  0.87503262  1
  Fe  Fe78  1  0.12901003  0.12787794  0.87781417  1
  Fe  Fe79  1  0.37845376  0.37967827  0.87253690  1
  Fe  Fe80  1  0.12496667  0.12620245  0.62491070  1
  Fe  Fe81  1  0.49552459  0.24847993  0.24745782  1
  Fe  Fe82  1  0.37765229  0.12349798  0.62932760  1
  Fe  Fe83  1  -0.00061794  0.24919014  0.49795304  1
  Fe  Fe84  1  0.87285544  0.62565662  0.62395728  1
  Fe  Fe85  1  0.62595249  0.62814211  0.62601418  1
  Fe  Fe86  1  0.74553680  -0.00012866  0.74774344  1
  Fe  Fe87  1  0.25204062  0.75077875  -0.00170113  1
  Fe  Fe88  1  0.37590859  0.12286682  0.37467684  1
  Fe  Fe89  1  0.12294016  0.87464738  0.87656384  1
  Co  Co90  1  0.62667849  0.86848615  0.11864043  1
  Co  Co91  1  0.12327260  0.62587759  0.87534172  1
  Co  Co92  1  0.74842462  0.00392080  0.00271655  1
  Co  Co93  1  0.37629421  0.37678988  0.12457171  1
  Co  Co94  1  0.62327712  0.62141964  0.37302791  1
  Co  Co95  1  0.37152141  0.62546617  0.12631570  1
  Co  Co96  1  0.36653124  0.12291527  0.12624056  1
  Co  Co97  1  0.75442741  0.74674701  -0.00483666  1
  Co  Co98  1  0.62105715  0.87921344  0.37370012  1
  Co  Co99  1  0.50046789  0.00499552  0.00712144  1
  Co  Co100  1  0.00209968  0.50029255  0.00451478  1
  Co  Co101  1  0.49617396  0.74687203  -0.00055352  1
  Co  Co102  1  0.25344455  0.25201201  0.25100696  1
  Co  Co103  1  0.50208889  0.75028636  0.49996599  1
  Co  Co104  1  0.25380339  0.24832028  0.50267288  1
  Co  Co105  1  0.37176216  0.87364565  0.62298565  1
  Co  Co106  1  0.25006029  -0.00254607  0.00031855  1
  Co  Co107  1  0.00156319  0.49981819  0.74716939  1
  Co  Co108  1  0.87611619  0.37667514  0.37424227  1
  Co  Co109  1  0.37574046  0.37767893  0.62603362  1
  Co  Co110  1  0.12525524  0.62294407  0.37177225  1
  Co  Co111  1  0.00238385  0.24903708  0.25163363  1
  Co  Co112  1  0.50499852  -0.00516515  0.74461482  1
  Co  Co113  1  0.12158225  0.37286621  0.87608368  1
  Co  Co114  1  0.63086956  0.86865662  0.62531530  1
  Co  Co115  1  0.49725828  0.25110275  0.75217817  1
  Co  Co116  1  0.62473563  0.13084104  0.62593318  1
  Co  Co117  1  0.74837487  0.75238611  0.25549704  1
  Co  Co118  1  0.74517697  0.00169856  0.50115229  1
  Co  Co119  1  0.50223399  0.50232258  0.74741727  1
  Co  Co120  1  0.74843139  0.25187371  0.25403505  1
  Co  Co121  1  -0.00313009  0.24582836  -0.00114336  1
  Co  Co122  1  0.25896997  0.25323596  -0.00481689  1
  Co  Co123  1  0.24853667  0.49907903  0.75185848  1
  Co  Co124  1  0.37610616  0.11710882  0.87056973  1
  Co  Co125  1  0.24865800  0.74789859  0.49807183  1
  Co  Co126  1  0.62691347  0.13172601  0.12483727  1
  Co  Co127  1  0.00190430  0.00157109  0.49968511  1
