# generated using pymatgen
data_Fe45Co19
_symmetry_space_group_name_H-M   'P 1'
_cell_length_a   11.41370564
_cell_length_b   11.41507521
_cell_length_c   11.41390088
_cell_angle_alpha   89.99240885
_cell_angle_beta   90.00305155
_cell_angle_gamma   90.00217142
_symmetry_Int_Tables_number   1
_chemical_formula_structural   Fe45Co19
_chemical_formula_sum   'Fe90 Co38'
_cell_volume   1487.09782093
_cell_formula_units_Z   2
loop_
 _symmetry_equiv_pos_site_id
 _symmetry_equiv_pos_as_xyz
  1  'x, y, z'
loop_
 _atom_site_type_symbol
 _atom_site_label
 _atom_site_symmetry_multiplicity
 _atom_site_fract_x
 _atom_site_fract_y
 _atom_site_fract_z
 _atom_site_occupancy
  Fe  Fe0  1  -0.00023262  0.74939091  0.24856488  1
  Fe  Fe1  1  0.62430312  0.87627516  0.12530288  1
  Fe  Fe2  1  0.50007210  0.49794511  0.24939900  1
  Fe  Fe3  1  0.49729706  0.00225232  0.49763188  1
  Fe  Fe4  1  0.37562097  0.12490865  0.87601510  1
  Fe  Fe5  1  0.62288052  0.12909520  0.62513597  1
  Fe  Fe6  1  0.00032198  0.24994578  0.74742849  1
  Fe  Fe7  1  0.12450510  0.87619992  0.62430906  1
  Fe  Fe8  1  0.49849648  0.75019421  0.24770840  1
  Fe  Fe9  1  0.62283396  0.62275015  0.12248889  1
  Fe  Fe10  1  0.75087588  0.00012447  0.50162498  1
  Fe  Fe11  1  0.87105838  0.37888614  0.62373524  1
  Fe  Fe12  1  0.62675040  0.37590182  0.12409694  1
  Fe  Fe13  1  0.50362685  0.50083533  0.74486646  1
  Fe  Fe14  1  0.62556665  0.37176121  0.37655333  1
  Fe  Fe15  1  0.12505298  0.62238537  0.12134792  1
  Fe  Fe16  1  0.24643208  0.24930797  0.24736838  1
  Fe  Fe17  1  0.12766436  0.62283268  0.62559575  1
  Fe  Fe18  1  0.00158724  0.25076640  0.24809361  1
  Fe  Fe19  1  0.00181597  0.00103640  0.25063671  1
  Fe  Fe20  1  0.00090818  0.00074934  0.74879073  1
  Fe  Fe21  1  0.24958558  0.75158313  -0.00287448  1
  Fe  Fe22  1  0.62572180  0.87414712  0.62532269  1
  Fe  Fe23  1  0.49834438  0.25081970  0.00002990  1
  Fe  Fe24  1  0.12729481  0.87743133  0.12501356  1
  Fe  Fe25  1  0.25333520  0.00202004  0.49821923  1
  Fe  Fe26  1  0.37230883  0.37501772  0.12655366  1
  Fe  Fe27  1  0.87349852  0.87552457  0.12450997  1
  Fe  Fe28  1  0.25178925  0.49926666  0.50021961  1
  Fe  Fe29  1  0.87513679  0.37465622  0.87396902  1
  Fe  Fe30  1  0.49923168  0.74901803  0.50413418  1
  Fe  Fe31  1  0.37718824  0.87544762  0.87475977  1
  Fe  Fe32  1  0.62375713  0.37368233  0.87287998  1
  Fe  Fe33  1  0.12794367  0.37580136  0.62626506  1
  Fe  Fe34  1  0.49666718  0.00121214  0.25162902  1
  Fe  Fe35  1  0.87474949  0.87412894  0.87272493  1
  Fe  Fe36  1  0.25128465  0.75000446  0.50118604  1
  Fe  Fe37  1  0.12487413  0.87499018  0.37662490  1
  Fe  Fe38  1  0.74933264  0.00110079  0.25173531  1
  Fe  Fe39  1  0.62445490  0.12555934  0.12429389  1
  Fe  Fe40  1  0.37945448  0.62476891  0.87405132  1
  Fe  Fe41  1  0.87498723  0.62029423  0.37582537  1
  Fe  Fe42  1  0.12542713  0.37524868  0.37585222  1
  Fe  Fe43  1  0.24809262  0.00157211  0.75025520  1
  Fe  Fe44  1  0.75032153  0.24909810  0.74943470  1
  Fe  Fe45  1  0.37569304  0.37601811  0.87104688  1
  Fe  Fe46  1  0.12482242  0.62361581  0.37573399  1
  Fe  Fe47  1  0.62367436  0.62507943  0.37501718  1
  Fe  Fe48  1  0.25072646  0.74802759  0.75130924  1
  Fe  Fe49  1  0.37489828  0.62297642  0.12386771  1
  Fe  Fe50  1  0.12528283  0.12490163  0.37780795  1
  Fe  Fe51  1  0.25191813  0.24812414  0.74822304  1
  Fe  Fe52  1  0.00275286  0.25181664  0.00264249  1
  Fe  Fe53  1  0.62337414  0.87388194  0.37454192  1
  Fe  Fe54  1  -0.00146158  0.25202240  0.50158179  1
  Fe  Fe55  1  0.74995375  0.74773133  0.24950879  1
  Fe  Fe56  1  0.50210500  0.49768178  0.50397979  1
  Fe  Fe57  1  0.87645556  0.62373079  0.12118559  1
  Fe  Fe58  1  0.00106706  0.49817213  0.24965982  1
  Fe  Fe59  1  0.25074026  0.74890261  0.25089552  1
  Fe  Fe60  1  0.37512185  0.37263238  0.37367875  1
  Fe  Fe61  1  0.12588617  0.37439725  0.87370972  1
  Fe  Fe62  1  0.62235517  0.12899444  0.37607265  1
  Fe  Fe63  1  -0.00129844  0.74892548  0.50216208  1
  Fe  Fe64  1  0.00054926  0.50099546  0.75099219  1
  Fe  Fe65  1  0.25057151  0.49830079  -0.00293056  1
  Fe  Fe66  1  0.74978228  0.50169695  -0.00498045  1
  Fe  Fe67  1  0.37676786  0.62554237  0.37661117  1
  Fe  Fe68  1  0.87464160  0.12495599  0.87478819  1
  Fe  Fe69  1  0.37557279  0.87641486  0.62585339  1
  Fe  Fe70  1  0.25439952  0.24836003  0.50488748  1
  Fe  Fe71  1  0.37160684  0.12457186  0.12398577  1
  Fe  Fe72  1  0.74789486  0.74668201  0.75246254  1
  Fe  Fe73  1  0.87618936  0.12557533  0.37577826  1
  Fe  Fe74  1  0.00174473  -0.00171220  -0.00209581  1
  Fe  Fe75  1  0.12514017  0.12680552  0.87600571  1
  Fe  Fe76  1  0.87170051  0.62236976  0.62559951  1
  Fe  Fe77  1  0.74751742  0.00130795  -0.00289856  1
  Fe  Fe78  1  0.75141897  0.75006185  0.49930314  1
  Fe  Fe79  1  0.74975084  0.24956092  -0.00093584  1
  Fe  Fe80  1  0.62281021  0.87310865  0.87605077  1
  Fe  Fe81  1  0.87554479  0.12433982  0.12393759  1
  Fe  Fe82  1  0.87523666  0.12323673  0.62524138  1
  Fe  Fe83  1  0.50382311  0.00122920  0.75272725  1
  Fe  Fe84  1  0.00195050  0.74802112  0.75058749  1
  Fe  Fe85  1  0.87564420  0.87541849  0.37530814  1
  Fe  Fe86  1  0.87370002  0.37631130  0.12523157  1
  Fe  Fe87  1  0.75113540  0.25065739  0.25133214  1
  Fe  Fe88  1  0.74824995  0.74780246  -0.00133606  1
  Fe  Fe89  1  0.37358792  0.87797416  0.12431865  1
  Co  Co90  1  0.25094875  0.50132691  0.25235863  1
  Co  Co91  1  0.37347527  0.62368739  0.62490366  1
  Co  Co92  1  0.37798589  0.12207832  0.62851039  1
  Co  Co93  1  0.75339572  0.24928729  0.49984842  1
  Co  Co94  1  0.37598143  0.87127845  0.37604589  1
  Co  Co95  1  0.49478457  0.25177686  0.50381730  1
  Co  Co96  1  0.49774971  0.25033198  0.74990266  1
  Co  Co97  1  0.24891890  -0.00140579  -0.00414778  1
  Co  Co98  1  0.37526163  0.13092761  0.37181937  1
  Co  Co99  1  0.50076369  0.25142361  0.24613477  1
  Co  Co100  1  0.50092084  0.00155760  -0.00063926  1
  Co  Co101  1  0.12483214  0.12444043  0.62358456  1
  Co  Co102  1  0.25122653  0.00003131  0.25483699  1
  Co  Co103  1  0.87515682  0.37730117  0.37519952  1
  Co  Co104  1  0.87448565  0.87382270  0.62853468  1
  Co  Co105  1  0.62504324  0.12939809  0.87480743  1
  Co  Co106  1  0.00212701  0.49924182  0.50241175  1
  Co  Co107  1  0.61791127  0.62497856  0.87650848  1
  Co  Co108  1  0.25053860  0.25277732  -0.00102991  1
  Co  Co109  1  -0.00024441  0.49555593  -0.00193257  1
  Co  Co110  1  0.00210534  0.75439963  0.00037795  1
  Co  Co111  1  0.74889853  0.50037085  0.25058521  1
  Co  Co112  1  0.12325533  0.62386064  0.87828706  1
  Co  Co113  1  0.74713676  0.00146093  0.74963112  1
  Co  Co114  1  0.74799103  0.50214473  0.75407603  1
  Co  Co115  1  0.12445843  0.87462088  0.87164533  1
  Co  Co116  1  0.12719317  0.37871735  0.12443860  1
  Co  Co117  1  0.12714802  0.12181473  0.12258343  1
  Co  Co118  1  0.49924283  0.74943749  0.74710931  1
  Co  Co119  1  0.62845647  0.62680375  0.62471323  1
  Co  Co120  1  0.49828113  0.49578012  0.00085518  1
  Co  Co121  1  -0.00206458  -0.00071220  0.50157357  1
  Co  Co122  1  0.37385044  0.37750983  0.62836800  1
  Co  Co123  1  0.49827125  0.75214179  0.00209015  1
  Co  Co124  1  0.24913372  0.50261458  0.75216555  1
  Co  Co125  1  0.87895320  0.62641847  0.87677037  1
  Co  Co126  1  0.74563846  0.49918404  0.49979392  1
  Co  Co127  1  0.62756913  0.37045553  0.62570141  1
