# generated using pymatgen
data_Fe45Co19
_symmetry_space_group_name_H-M   'P 1'
_cell_length_a   11.41498450
_cell_length_b   11.41592353
_cell_length_c   11.41541997
_cell_angle_alpha   90.01071999
_cell_angle_beta   90.00240670
_cell_angle_gamma   89.99630466
_symmetry_Int_Tables_number   1
_chemical_formula_structural   Fe45Co19
_chemical_formula_sum   'Fe90 Co38'
_cell_volume   1487.57291392
_cell_formula_units_Z   2
loop_
 _symmetry_equiv_pos_site_id
 _symmetry_equiv_pos_as_xyz
  1  'x, y, z'
loop_
 _atom_site_type_symbol
 _atom_site_label
 _atom_site_symmetry_multiplicity
 _atom_site_fract_x
 _atom_site_fract_y
 _atom_site_fract_z
 _atom_site_occupancy
  Fe  Fe0  1  0.50164022  0.00010852  0.49627811  1
  Fe  Fe1  1  0.50060540  0.49955271  0.49990274  1
  Fe  Fe2  1  -0.00292339  -0.00192493  0.00311546  1
  Fe  Fe3  1  -0.00093314  0.49678360  0.50027258  1
  Fe  Fe4  1  0.62920020  0.37618148  0.87806024  1
  Fe  Fe5  1  0.25127598  0.00093516  0.74730368  1
  Fe  Fe6  1  0.12139159  0.62546535  0.87646677  1
  Fe  Fe7  1  0.12193321  0.62440046  0.12283009  1
  Fe  Fe8  1  0.37456418  0.37373444  0.62489331  1
  Fe  Fe9  1  0.62726252  0.12067364  0.87679824  1
  Fe  Fe10  1  0.74953053  0.75160504  0.74934191  1
  Fe  Fe11  1  0.50111068  0.25763878  0.24998657  1
  Fe  Fe12  1  0.75156132  0.74824243  0.00078649  1
  Fe  Fe13  1  0.37850045  0.12460884  0.62530021  1
  Fe  Fe14  1  0.12630444  0.87719479  0.62203600  1
  Fe  Fe15  1  0.74971147  -0.00193098  0.24645760  1
  Fe  Fe16  1  0.62783585  0.62463710  0.87151818  1
  Fe  Fe17  1  0.24765902  0.24837903  0.74928622  1
  Fe  Fe18  1  0.74732399  0.74891259  0.50018721  1
  Fe  Fe19  1  0.37572177  0.12712370  0.37262946  1
  Fe  Fe20  1  0.50061140  -0.00376528  0.75440057  1
  Fe  Fe21  1  0.12507474  0.12303352  0.87808417  1
  Fe  Fe22  1  0.87148307  0.87658485  0.87549876  1
  Fe  Fe23  1  0.12109304  0.87469124  0.12737340  1
  Fe  Fe24  1  0.25479335  0.00112781  0.00563369  1
  Fe  Fe25  1  0.12787293  0.37596840  0.37403481  1
  Fe  Fe26  1  0.87460846  0.87698409  0.62296602  1
  Fe  Fe27  1  0.00012740  0.75307582  0.75103904  1
  Fe  Fe28  1  0.62447493  0.87608889  0.62394615  1
  Fe  Fe29  1  0.25076572  0.50065032  0.75018278  1
  Fe  Fe30  1  0.37237821  0.37471138  0.87772265  1
  Fe  Fe31  1  0.87476809  0.62384940  0.37470487  1
  Fe  Fe32  1  0.00051622  0.75010403  0.49949504  1
  Fe  Fe33  1  0.37545861  0.62759293  0.87371009  1
  Fe  Fe34  1  0.87177711  0.37454759  0.37497420  1
  Fe  Fe35  1  0.24890321  0.75066603  0.74902291  1
  Fe  Fe36  1  0.49990578  0.25035091  0.00030995  1
  Fe  Fe37  1  0.74954687  0.24689888  0.74943357  1
  Fe  Fe38  1  0.62196132  0.87426530  0.12030987  1
  Fe  Fe39  1  0.74634652  0.24581018  0.50102649  1
  Fe  Fe40  1  0.50073949  0.49865390  0.75017301  1
  Fe  Fe41  1  0.62449902  0.37402929  0.62552337  1
  Fe  Fe42  1  0.50275748  0.24965498  0.49693269  1
  Fe  Fe43  1  0.50102477  0.25041939  0.75278711  1
  Fe  Fe44  1  0.37724388  0.62786697  0.62420284  1
  Fe  Fe45  1  0.87349070  0.12266666  0.87540222  1
  Fe  Fe46  1  0.50151432  0.75379923  0.75194455  1
  Fe  Fe47  1  0.75046994  0.74935049  0.24904372  1
  Fe  Fe48  1  -0.00059333  0.49849657  0.24822436  1
  Fe  Fe49  1  -0.00236380  0.49742104  0.75252797  1
  Fe  Fe50  1  0.62281824  0.62288245  0.12649252  1
  Fe  Fe51  1  0.49991901  0.50064246  -0.00105811  1
  Fe  Fe52  1  0.49870905  0.49321197  0.25154579  1
  Fe  Fe53  1  0.24729610  0.24775074  0.50333064  1
  Fe  Fe54  1  0.12830104  0.37523090  0.87743512  1
  Fe  Fe55  1  0.74607913  0.25197017  0.24826928  1
  Fe  Fe56  1  -0.00029142  0.25096997  -0.00029653  1
  Fe  Fe57  1  0.37550224  0.62584939  0.37591245  1
  Fe  Fe58  1  0.12368291  0.62270011  0.37535694  1
  Fe  Fe59  1  0.87045386  0.37559552  0.87746554  1
  Fe  Fe60  1  0.12979409  0.37746892  0.12087390  1
  Fe  Fe61  1  0.00003477  0.00430397  0.49782444  1
  Fe  Fe62  1  0.87847398  0.36882864  0.62514255  1
  Fe  Fe63  1  0.37299311  0.87294593  0.37618024  1
  Fe  Fe64  1  0.87418527  0.87517673  0.37340145  1
  Fe  Fe65  1  0.50129123  0.75160998  0.25202700  1
  Fe  Fe66  1  0.87651427  0.12566733  0.12607349  1
  Fe  Fe67  1  0.12487713  0.87615411  0.37507781  1
  Fe  Fe68  1  0.87968106  0.62667418  0.12325259  1
  Fe  Fe69  1  0.87064630  0.37625296  0.12291604  1
  Fe  Fe70  1  0.12292603  0.62365614  0.62585316  1
  Fe  Fe71  1  0.25032147  0.50033155  0.50141152  1
  Fe  Fe72  1  0.25077607  0.74989851  0.00172943  1
  Fe  Fe73  1  0.12610265  0.12519559  0.37130876  1
  Fe  Fe74  1  0.62567054  0.62270018  0.37477224  1
  Fe  Fe75  1  0.37396781  0.12435394  0.87568136  1
  Fe  Fe76  1  0.37567192  0.62396632  0.12630898  1
  Fe  Fe77  1  0.25174837  0.25040741  0.24487088  1
  Fe  Fe78  1  0.24800136  0.74825733  0.25042875  1
  Fe  Fe79  1  0.00092870  0.25200184  0.24860970  1
  Fe  Fe80  1  0.87556313  0.62571534  0.62777479  1
  Fe  Fe81  1  0.74773317  0.00422909  0.50128732  1
  Fe  Fe82  1  0.74974365  0.50054835  0.50391626  1
  Fe  Fe83  1  0.49936545  -0.00263009  0.25033845  1
  Fe  Fe84  1  0.25178572  0.00073563  0.24693582  1
  Fe  Fe85  1  0.37436346  0.87389110  0.62182310  1
  Fe  Fe86  1  0.62155596  0.12474991  0.12478474  1
  Fe  Fe87  1  0.87329319  0.12649453  0.37291859  1
  Fe  Fe88  1  -0.00141818  0.00054872  0.74891072  1
  Fe  Fe89  1  0.12774254  0.87731010  0.87638238  1
  Co  Co90  1  0.62810640  0.87508734  0.37388258  1
  Co  Co91  1  0.87898606  0.12828474  0.62498453  1
  Co  Co92  1  0.62729398  0.37710833  0.12130822  1
  Co  Co93  1  0.25066745  0.00371215  0.49970220  1
  Co  Co94  1  0.62391441  0.62552689  0.62742299  1
  Co  Co95  1  0.37252037  0.37676982  0.12049602  1
  Co  Co96  1  0.49699551  0.00029406  -0.00207885  1
  Co  Co97  1  0.75194834  -0.00042973  0.00550490  1
  Co  Co98  1  0.12061883  0.12568139  0.62689573  1
  Co  Co99  1  0.87837672  0.87200977  0.12789361  1
  Co  Co100  1  -0.00117443  0.00195954  0.25150099  1
  Co  Co101  1  0.75119178  0.49704878  0.74691874  1
  Co  Co102  1  0.74955173  0.00120913  0.74685105  1
  Co  Co103  1  0.74945236  0.24580730  0.00128792  1
  Co  Co104  1  0.75015719  0.50578119  0.00120183  1
  Co  Co105  1  0.38081485  0.12718153  0.12742366  1
  Co  Co106  1  0.49980709  0.74708867  -0.00210805  1
  Co  Co107  1  -0.00203763  0.49692411  -0.00102235  1
  Co  Co108  1  0.00061183  0.74798197  0.25394401  1
  Co  Co109  1  0.24800509  0.74828400  0.49936546  1
  Co  Co110  1  0.37763097  0.87183381  0.12510465  1
  Co  Co111  1  0.87538554  0.62551547  0.87324461  1
  Co  Co112  1  0.37082833  0.37331143  0.37747080  1
  Co  Co113  1  0.00337431  0.24906528  0.49477883  1
  Co  Co114  1  0.62452974  0.12478677  0.36958228  1
  Co  Co115  1  0.75131998  0.50198060  0.24768585  1
  Co  Co116  1  0.00115909  0.24961631  0.75688860  1
  Co  Co117  1  0.25113428  0.50153476  0.25040876  1
  Co  Co118  1  0.25219393  0.50553032  -0.00232096  1
  Co  Co119  1  0.37205127  0.87348472  0.87721177  1
  Co  Co120  1  0.62045666  0.12394966  0.62818318  1
  Co  Co121  1  0.12288919  0.37507387  0.62735748  1
  Co  Co122  1  0.12179040  0.12442028  0.12395650  1
  Co  Co123  1  0.50321695  0.75092023  0.49805877  1
  Co  Co124  1  0.25156053  0.24551780  0.00153091  1
  Co  Co125  1  0.62968822  0.37774116  0.37635752  1
  Co  Co126  1  0.62834793  0.87611670  0.87977433  1
  Co  Co127  1  -0.00069538  0.75412537  -0.00400113  1
