# generated using pymatgen
data_Fe45Co19
_symmetry_space_group_name_H-M   'P 1'
_cell_length_a   11.41438038
_cell_length_b   11.41530983
_cell_length_c   11.41498195
_cell_angle_alpha   90.00364473
_cell_angle_beta   90.00093331
_cell_angle_gamma   90.00504101
_symmetry_Int_Tables_number   1
_chemical_formula_structural   Fe45Co19
_chemical_formula_sum   'Fe90 Co38'
_cell_volume   1487.35716857
_cell_formula_units_Z   2
loop_
 _symmetry_equiv_pos_site_id
 _symmetry_equiv_pos_as_xyz
  1  'x, y, z'
loop_
 _atom_site_type_symbol
 _atom_site_label
 _atom_site_symmetry_multiplicity
 _atom_site_fract_x
 _atom_site_fract_y
 _atom_site_fract_z
 _atom_site_occupancy
  Fe  Fe0  1  0.87544762  0.12472912  0.37429509  1
  Fe  Fe1  1  0.00352117  0.24974859  0.24875642  1
  Fe  Fe2  1  0.00173177  0.74770992  0.74962844  1
  Fe  Fe3  1  0.50153867  0.74876513  0.00411184  1
  Fe  Fe4  1  0.00222496  0.24926814  0.00290596  1
  Fe  Fe5  1  0.37384672  0.62595307  0.87251537  1
  Fe  Fe6  1  0.24894525  0.25113884  0.75001110  1
  Fe  Fe7  1  -0.00188399  0.75231437  0.00178098  1
  Fe  Fe8  1  0.62587216  0.12213570  0.62282873  1
  Fe  Fe9  1  0.24753062  0.24899098  0.00110347  1
  Fe  Fe10  1  0.50105276  0.74905932  0.24714347  1
  Fe  Fe11  1  0.62644276  0.62537474  0.62440697  1
  Fe  Fe12  1  0.87435134  0.87233232  0.62498276  1
  Fe  Fe13  1  0.87163010  0.62536122  0.12662074  1
  Fe  Fe14  1  0.12431969  0.12344573  0.87541970  1
  Fe  Fe15  1  0.49999703  0.24938595  0.00261578  1
  Fe  Fe16  1  0.75073853  0.24824892  0.49877221  1
  Fe  Fe17  1  0.87798682  0.37379574  0.87307718  1
  Fe  Fe18  1  0.37258671  0.12395692  0.62419540  1
  Fe  Fe19  1  0.75487878  0.50495842  0.49692347  1
  Fe  Fe20  1  0.75048361  -0.00056601  0.75009573  1
  Fe  Fe21  1  0.37626359  0.12474983  0.87338875  1
  Fe  Fe22  1  -0.00065912  0.50515328  0.50139318  1
  Fe  Fe23  1  0.62345907  0.37664731  0.87703104  1
  Fe  Fe24  1  0.62599025  0.62343097  0.87960100  1
  Fe  Fe25  1  0.12258010  0.87498297  0.87532237  1
  Fe  Fe26  1  0.62604704  0.87484952  0.62207650  1
  Fe  Fe27  1  0.12586771  0.62515454  0.12216487  1
  Fe  Fe28  1  0.37517427  0.87225238  0.62575303  1
  Fe  Fe29  1  0.87854614  0.37510755  0.37611421  1
  Fe  Fe30  1  0.62621225  0.37743098  0.62163650  1
  Fe  Fe31  1  0.50097782  0.24962915  0.74691365  1
  Fe  Fe32  1  0.00116860  0.24751712  0.74603862  1
  Fe  Fe33  1  0.75012386  0.24970037  -0.00056369  1
  Fe  Fe34  1  0.87570217  0.62619056  0.87409334  1
  Fe  Fe35  1  0.87534297  0.37540011  0.12589624  1
  Fe  Fe36  1  0.62649826  0.12218178  0.12626320  1
  Fe  Fe37  1  0.87544147  0.12420627  0.12630455  1
  Fe  Fe38  1  0.37378624  0.62362997  0.12581645  1
  Fe  Fe39  1  0.87727153  0.87169583  0.37583708  1
  Fe  Fe40  1  0.62616178  0.62477943  0.37419510  1
  Fe  Fe41  1  0.12366222  0.37573408  0.62270868  1
  Fe  Fe42  1  0.50164580  0.49999907  0.25082941  1
  Fe  Fe43  1  0.62623755  0.37980874  0.12321863  1
  Fe  Fe44  1  0.37157128  0.87206235  0.37311685  1
  Fe  Fe45  1  0.37357129  0.37539478  0.12680183  1
  Fe  Fe46  1  0.00178810  0.74789607  0.50260648  1
  Fe  Fe47  1  0.00372789  0.75355797  0.24612083  1
  Fe  Fe48  1  -0.00174202  -0.00251579  0.00431223  1
  Fe  Fe49  1  0.74875859  0.75092429  0.75175959  1
  Fe  Fe50  1  0.49824223  0.50066601  0.74936398  1
  Fe  Fe51  1  0.24937042  -0.00245803  0.75003264  1
  Fe  Fe52  1  0.87715600  0.37470473  0.62382100  1
  Fe  Fe53  1  0.49904949  0.74854844  0.49980569  1
  Fe  Fe54  1  0.37202818  0.62602729  0.37576851  1
  Fe  Fe55  1  0.62517858  0.87681173  0.87912332  1
  Fe  Fe56  1  0.37022487  0.12394698  0.12762389  1
  Fe  Fe57  1  0.74826105  0.25268749  0.25175415  1
  Fe  Fe58  1  0.62363900  0.12289726  0.87531178  1
  Fe  Fe59  1  0.00053514  0.50073947  0.25002727  1
  Fe  Fe60  1  0.74916673  0.24996181  0.74977698  1
  Fe  Fe61  1  0.49749883  0.50253480  0.49956453  1
  Fe  Fe62  1  0.37724164  0.87536560  0.87503643  1
  Fe  Fe63  1  0.37677969  0.37306330  0.87552892  1
  Fe  Fe64  1  0.37072396  0.87671649  0.12674185  1
  Fe  Fe65  1  0.74692855  0.75032414  0.24865833  1
  Fe  Fe66  1  0.00059369  0.00213067  0.74562052  1
  Fe  Fe67  1  0.49763082  0.00089616  0.25192295  1
  Fe  Fe68  1  0.49822163  0.00053238  0.49790416  1
  Fe  Fe69  1  0.24903901  0.25323807  0.49648245  1
  Fe  Fe70  1  0.25032984  0.49938780  -0.00238582  1
  Fe  Fe71  1  0.13185539  0.62485978  0.62880072  1
  Fe  Fe72  1  -0.00141601  0.50043424  -0.00018618  1
  Fe  Fe73  1  0.75219752  0.49945549  0.75038423  1
  Fe  Fe74  1  0.24708089  0.49917611  0.25275270  1
  Fe  Fe75  1  0.37414430  0.37706368  0.62271686  1
  Fe  Fe76  1  0.62472790  0.87577580  0.37559317  1
  Fe  Fe77  1  -0.00038863  0.00114272  0.50163806  1
  Fe  Fe78  1  0.49827431  0.00097972  0.00229724  1
  Fe  Fe79  1  0.87616145  0.12396554  0.87475333  1
  Fe  Fe80  1  0.50115269  0.74993110  0.74950625  1
  Fe  Fe81  1  0.50012169  0.24816980  0.49711759  1
  Fe  Fe82  1  0.24788660  -0.00405456  0.49854603  1
  Fe  Fe83  1  0.12392243  0.12385845  0.37578222  1
  Fe  Fe84  1  0.75146262  -0.00144843  0.25142664  1
  Fe  Fe85  1  0.12567395  0.62776852  0.37486102  1
  Fe  Fe86  1  0.24604940  0.25178010  0.25160713  1
  Fe  Fe87  1  0.24920307  0.75102838  -0.00093103  1
  Fe  Fe88  1  0.12273768  0.37661320  0.87474373  1
  Fe  Fe89  1  0.50154730  0.25021839  0.25320365  1
  Co  Co90  1  0.49617271  0.50064460  -0.00015680  1
  Co  Co91  1  0.24846807  0.74838046  0.24896915  1
  Co  Co92  1  0.87247615  0.87478917  0.12771487  1
  Co  Co93  1  0.11977735  0.37608207  0.37747247  1
  Co  Co94  1  0.25013379  0.75377505  0.75261998  1
  Co  Co95  1  0.75164882  0.49911145  0.25337232  1
  Co  Co96  1  0.87727439  0.63018029  0.37037123  1
  Co  Co97  1  0.00055717  -0.00231881  0.24980608  1
  Co  Co98  1  0.24936036  0.50008357  0.49784077  1
  Co  Co99  1  0.87180174  0.12500277  0.62567695  1
  Co  Co100  1  0.62521404  0.37667709  0.37836424  1
  Co  Co101  1  0.62611630  0.12310459  0.37507388  1
  Co  Co102  1  0.12969297  0.12591440  0.62293852  1
  Co  Co103  1  0.24944483  0.75138386  0.50075777  1
  Co  Co104  1  0.00076438  0.50181786  0.74769954  1
  Co  Co105  1  0.25065723  -0.00021648  -0.00385099  1
  Co  Co106  1  0.75307994  -0.00143613  0.49873287  1
  Co  Co107  1  0.37629222  0.37590533  0.37374231  1
  Co  Co108  1  0.75511367  0.49886053  -0.00178461  1
  Co  Co109  1  0.62512381  0.87789254  0.12461328  1
  Co  Co110  1  0.12647779  0.12048566  0.12528178  1
  Co  Co111  1  0.24696563  -0.00058274  0.25439737  1
  Co  Co112  1  0.12981932  0.87731422  0.12445836  1
  Co  Co113  1  0.87715356  0.87522577  0.87158777  1
  Co  Co114  1  -0.00085902  0.24550203  0.50118480  1
  Co  Co115  1  0.12439804  0.62534118  0.87538554  1
  Co  Co116  1  0.37198135  0.12623585  0.37504032  1
  Co  Co117  1  0.87301821  0.62823647  0.62790592  1
  Co  Co118  1  0.75019610  0.74853770  0.49780779  1
  Co  Co119  1  0.25086342  0.49681370  0.75210716  1
  Co  Co120  1  0.50009532  -0.00088718  0.74831943  1
  Co  Co121  1  0.62803531  0.62123871  0.12268909  1
  Co  Co122  1  0.12320535  0.87237495  0.37508480  1
  Co  Co123  1  0.37141904  0.62641519  0.62659720  1
  Co  Co124  1  0.75336673  -0.00024820  -0.00001445  1
  Co  Co125  1  0.75192944  0.75180010  0.00059916  1
  Co  Co126  1  0.12503002  0.37782944  0.12425832  1
  Co  Co127  1  0.12308074  0.87363375  0.62629761  1
