# generated using pymatgen
data_Fe45Co19
_symmetry_space_group_name_H-M   'P 1'
_cell_length_a   11.41608052
_cell_length_b   11.41513064
_cell_length_c   11.41486360
_cell_angle_alpha   90.00320124
_cell_angle_beta   90.00127355
_cell_angle_gamma   89.98548045
_symmetry_Int_Tables_number   1
_chemical_formula_structural   Fe45Co19
_chemical_formula_sum   'Fe90 Co38'
_cell_volume   1487.53989062
_cell_formula_units_Z   2
loop_
 _symmetry_equiv_pos_site_id
 _symmetry_equiv_pos_as_xyz
  1  'x, y, z'
loop_
 _atom_site_type_symbol
 _atom_site_label
 _atom_site_symmetry_multiplicity
 _atom_site_fract_x
 _atom_site_fract_y
 _atom_site_fract_z
 _atom_site_occupancy
  Fe  Fe0  1  0.50201363  0.75111886  0.24933898  1
  Fe  Fe1  1  0.50261649  -0.00018520  0.24744966  1
  Fe  Fe2  1  0.87661553  0.62364700  0.12618800  1
  Fe  Fe3  1  0.87216706  0.62446912  0.37532046  1
  Fe  Fe4  1  0.12576999  0.37426459  0.62242268  1
  Fe  Fe5  1  0.62576725  0.12336760  0.37588620  1
  Fe  Fe6  1  0.00020230  0.74811241  0.25357509  1
  Fe  Fe7  1  0.49802450  0.50064500  -0.00330904  1
  Fe  Fe8  1  0.37226897  0.87417916  0.87374315  1
  Fe  Fe9  1  0.12436303  0.37582547  0.37714768  1
  Fe  Fe10  1  0.24943510  0.00239279  0.25067355  1
  Fe  Fe11  1  0.87375101  0.37743495  0.37484196  1
  Fe  Fe12  1  0.37233833  0.87315801  0.62639287  1
  Fe  Fe13  1  0.37819630  0.62406821  0.37367908  1
  Fe  Fe14  1  0.00380949  -0.00154722  0.75045323  1
  Fe  Fe15  1  0.74963019  0.25067110  0.24893334  1
  Fe  Fe16  1  0.62488763  0.62441175  0.37667060  1
  Fe  Fe17  1  0.49641269  0.00252081  0.50283762  1
  Fe  Fe18  1  0.49980375  0.75024702  0.50196918  1
  Fe  Fe19  1  0.12342073  0.37642360  0.87624788  1
  Fe  Fe20  1  0.74994808  0.75013344  0.50407296  1
  Fe  Fe21  1  0.12196936  0.62385206  0.12240206  1
  Fe  Fe22  1  -0.00175555  0.25067698  0.25019081  1
  Fe  Fe23  1  0.87341191  0.12244112  0.37374360  1
  Fe  Fe24  1  0.12727855  0.86991941  0.61979170  1
  Fe  Fe25  1  0.25197460  0.74592973  -0.00210005  1
  Fe  Fe26  1  0.24705400  0.24924716  0.75103356  1
  Fe  Fe27  1  0.87588523  0.12470980  0.62625927  1
  Fe  Fe28  1  -0.00272505  0.25191500  -0.00089237  1
  Fe  Fe29  1  0.25179265  0.50254793  0.50177183  1
  Fe  Fe30  1  0.62531783  0.12471059  0.62457879  1
  Fe  Fe31  1  0.75023428  0.50190182  0.50558840  1
  Fe  Fe32  1  0.37323826  0.37555053  0.87353507  1
  Fe  Fe33  1  0.62446305  0.62509970  0.12152939  1
  Fe  Fe34  1  -0.00120323  0.25042542  0.50001850  1
  Fe  Fe35  1  0.62695065  0.87753096  0.37858135  1
  Fe  Fe36  1  0.25027588  0.74780575  0.25071275  1
  Fe  Fe37  1  0.74861483  0.49954404  0.24929828  1
  Fe  Fe38  1  0.49761277  0.74752973  -0.00353209  1
  Fe  Fe39  1  0.74862266  -0.00087383  0.74794557  1
  Fe  Fe40  1  0.12432373  0.87335594  0.12374247  1
  Fe  Fe41  1  0.62549444  0.37557200  0.12166085  1
  Fe  Fe42  1  0.37449159  0.87349891  0.12421413  1
  Fe  Fe43  1  0.50079486  0.49892145  0.50530397  1
  Fe  Fe44  1  0.62303881  0.62606090  0.63182110  1
  Fe  Fe45  1  0.37755147  0.12796548  0.12449215  1
  Fe  Fe46  1  0.50174291  0.49828459  0.24848114  1
  Fe  Fe47  1  0.87472881  0.87325178  0.62861737  1
  Fe  Fe48  1  0.50239440  0.25096738  0.74960675  1
  Fe  Fe49  1  0.37333972  0.37177320  0.62480993  1
  Fe  Fe50  1  -0.00338539  0.75157238  -0.00487208  1
  Fe  Fe51  1  0.75401996  0.74850426  -0.00446693  1
  Fe  Fe52  1  0.25004508  0.50110062  0.24993425  1
  Fe  Fe53  1  0.37547084  0.62836643  0.63085774  1
  Fe  Fe54  1  0.12228645  0.12550930  0.12342370  1
  Fe  Fe55  1  0.62615573  0.12306745  0.87683554  1
  Fe  Fe56  1  -0.00227419  0.50083161  0.50267656  1
  Fe  Fe57  1  0.24978781  0.24917705  -0.00080741  1
  Fe  Fe58  1  0.12588210  0.87671130  0.87813347  1
  Fe  Fe59  1  0.87063799  0.87668691  0.37346070  1
  Fe  Fe60  1  0.50054547  -0.00222648  0.74975312  1
  Fe  Fe61  1  0.75338977  0.25267032  -0.00237923  1
  Fe  Fe62  1  0.75036382  0.24896156  0.50159226  1
  Fe  Fe63  1  0.24743749  -0.00020518  0.74941725  1
  Fe  Fe64  1  -0.00165339  -0.00040862  0.24707707  1
  Fe  Fe65  1  0.87669294  0.12166663  0.87559363  1
  Fe  Fe66  1  0.62426234  0.37509958  0.37950756  1
  Fe  Fe67  1  0.37440885  0.87661716  0.37543117  1
  Fe  Fe68  1  0.00127139  0.24913930  0.75100794  1
  Fe  Fe69  1  0.24911143  0.24838438  0.25302754  1
  Fe  Fe70  1  0.25001369  0.00307017  0.00019007  1
  Fe  Fe71  1  0.62824740  0.37729195  0.87088733  1
  Fe  Fe72  1  0.12642080  0.12557697  0.62237806  1
  Fe  Fe73  1  -0.00121419  -0.00205821  0.50047828  1
  Fe  Fe74  1  0.24511576  0.50420845  0.74928374  1
  Fe  Fe75  1  0.37629492  0.37325652  0.12484216  1
  Fe  Fe76  1  0.12219909  0.37761440  0.12545861  1
  Fe  Fe77  1  0.12474431  0.62495354  0.38001011  1
  Fe  Fe78  1  0.75590649  0.50091305  -0.00514333  1
  Fe  Fe79  1  0.74725815  0.75187902  0.24799030  1
  Fe  Fe80  1  0.62487175  0.12715826  0.12222256  1
  Fe  Fe81  1  0.12683971  0.87537740  0.37737596  1
  Fe  Fe82  1  0.37467734  0.12593180  0.87248024  1
  Fe  Fe83  1  0.49809918  -0.00034766  -0.00052026  1
  Fe  Fe84  1  0.25176525  0.50282283  -0.00051398  1
  Fe  Fe85  1  0.37756115  0.37172517  0.37688573  1
  Fe  Fe86  1  0.62725179  0.87442639  0.87677601  1
  Fe  Fe87  1  0.87955321  0.62894558  0.63184954  1
  Fe  Fe88  1  0.75370765  -0.00403644  0.00517878  1
  Fe  Fe89  1  0.87203773  0.37398074  0.63061883  1
  Co  Co90  1  0.12031200  0.12340999  0.37638972  1
  Co  Co91  1  0.50095061  0.24818720  0.50434386  1
  Co  Co92  1  0.87791423  0.87117274  0.12662377  1
  Co  Co93  1  0.37253611  0.12674199  0.62960655  1
  Co  Co94  1  0.74791688  0.75175209  0.75198555  1
  Co  Co95  1  0.75259990  0.00053459  0.50363802  1
  Co  Co96  1  0.24428706  0.74803216  0.75322095  1
  Co  Co97  1  0.87568898  0.37758324  0.12797734  1
  Co  Co98  1  0.62296350  0.87106615  0.12045816  1
  Co  Co99  1  0.12382195  0.12518544  0.87605472  1
  Co  Co100  1  0.50072112  0.25199153  -0.00444461  1
  Co  Co101  1  0.25463344  0.74767938  0.49793986  1
  Co  Co102  1  0.12119529  0.62254427  0.87795823  1
  Co  Co103  1  0.74767409  -0.00135266  0.24387204  1
  Co  Co104  1  0.50350695  0.25102652  0.24924916  1
  Co  Co105  1  0.12190001  0.62979430  0.62117295  1
  Co  Co106  1  0.62511404  0.87596255  0.62312911  1
  Co  Co107  1  -0.00026732  -0.00150732  0.00097608  1
  Co  Co108  1  0.37674091  0.62454422  0.86895239  1
  Co  Co109  1  0.37839866  0.12622855  0.37284167  1
  Co  Co110  1  0.75160069  0.50333107  0.75066987  1
  Co  Co111  1  0.50221139  0.75541857  0.75238000  1
  Co  Co112  1  0.00079870  0.50256663  0.25301627  1
  Co  Co113  1  -0.00490890  0.75161458  0.49665856  1
  Co  Co114  1  0.87460123  0.12619073  0.12327332  1
  Co  Co115  1  0.37714657  0.62503647  0.12658517  1
  Co  Co116  1  0.24973742  0.24574866  0.49664984  1
  Co  Co117  1  0.62973508  0.37388007  0.62727160  1
  Co  Co118  1  0.87533997  0.37408708  0.86766679  1
  Co  Co119  1  0.00547096  0.75428412  0.75465018  1
  Co  Co120  1  0.74921155  0.24442203  0.75191867  1
  Co  Co121  1  0.62343034  0.62423033  0.87277139  1
  Co  Co122  1  0.49911375  0.49546583  0.74922703  1
  Co  Co123  1  0.87408224  0.87964116  0.87118076  1
  Co  Co124  1  -0.00529963  0.49753462  -0.00251630  1
  Co  Co125  1  0.87905600  0.62472496  0.86732274  1
  Co  Co126  1  0.25153133  0.00342747  0.49958009  1
  Co  Co127  1  0.00436977  0.49842882  0.74807448  1
