# generated using pymatgen
data_Fe45Co19
_symmetry_space_group_name_H-M   'P 1'
_cell_length_a   11.41473298
_cell_length_b   11.41443414
_cell_length_c   11.41383315
_cell_angle_alpha   89.99737791
_cell_angle_beta   89.99390454
_cell_angle_gamma   90.00109186
_symmetry_Int_Tables_number   1
_chemical_formula_structural   Fe45Co19
_chemical_formula_sum   'Fe90 Co38'
_cell_volume   1487.13933121
_cell_formula_units_Z   2
loop_
 _symmetry_equiv_pos_site_id
 _symmetry_equiv_pos_as_xyz
  1  'x, y, z'
loop_
 _atom_site_type_symbol
 _atom_site_label
 _atom_site_symmetry_multiplicity
 _atom_site_fract_x
 _atom_site_fract_y
 _atom_site_fract_z
 _atom_site_occupancy
  Fe  Fe0  1  0.87564407  0.12488755  0.62293976  1
  Fe  Fe1  1  0.62492391  0.62617788  0.62420461  1
  Fe  Fe2  1  0.62684995  0.87634844  0.37270618  1
  Fe  Fe3  1  0.13171732  0.62455841  0.12277916  1
  Fe  Fe4  1  -0.00031459  0.75085175  0.49723901  1
  Fe  Fe5  1  0.74970349  0.74669486  0.00347807  1
  Fe  Fe6  1  0.62479205  0.87400895  0.87607846  1
  Fe  Fe7  1  0.25285021  0.49846615  0.24808469  1
  Fe  Fe8  1  0.74327727  0.25289138  -0.00286980  1
  Fe  Fe9  1  0.00079797  0.74649778  0.00369132  1
  Fe  Fe10  1  0.37808291  0.37498397  0.12197003  1
  Fe  Fe11  1  0.37465333  0.37186047  0.62669037  1
  Fe  Fe12  1  0.62742055  0.12454357  0.62414366  1
  Fe  Fe13  1  0.50042903  0.49989243  0.49774640  1
  Fe  Fe14  1  0.87594371  0.62222128  0.87869575  1
  Fe  Fe15  1  0.50072759  0.75177077  0.49605600  1
  Fe  Fe16  1  0.62651866  0.87636788  0.12500505  1
  Fe  Fe17  1  0.24915858  -0.00015924  0.49798487  1
  Fe  Fe18  1  -0.00000716  0.50036304  0.24487857  1
  Fe  Fe19  1  0.37860089  0.37257420  0.87457859  1
  Fe  Fe20  1  0.50243997  0.25247550  0.24999313  1
  Fe  Fe21  1  -0.00275240  0.49885143  0.50193497  1
  Fe  Fe22  1  0.12204983  0.37540972  0.37240212  1
  Fe  Fe23  1  0.37308965  0.62385620  0.87957281  1
  Fe  Fe24  1  0.75225735  0.50123707  0.74897913  1
  Fe  Fe25  1  0.37559783  0.12450036  0.37385116  1
  Fe  Fe26  1  0.12429611  0.12605805  0.62466553  1
  Fe  Fe27  1  -0.00175836  0.74705685  0.74991545  1
  Fe  Fe28  1  0.37830190  0.62616861  0.37040549  1
  Fe  Fe29  1  0.87538938  0.37794153  0.87757918  1
  Fe  Fe30  1  0.75048367  -0.00046505  0.75122487  1
  Fe  Fe31  1  0.37529894  0.87368068  0.62496352  1
  Fe  Fe32  1  0.12258789  0.87854055  0.36968300  1
  Fe  Fe33  1  0.24952630  0.75042272  0.49549284  1
  Fe  Fe34  1  0.12272310  0.87626299  0.87591614  1
  Fe  Fe35  1  0.75086418  0.50082199  0.49823749  1
  Fe  Fe36  1  0.50094669  0.00158351  0.75028495  1
  Fe  Fe37  1  0.75095108  0.24986310  0.49635553  1
  Fe  Fe38  1  0.12277541  0.12878848  0.12526224  1
  Fe  Fe39  1  0.12412076  0.62111309  0.37493778  1
  Fe  Fe40  1  0.37613952  0.87454248  0.87482469  1
  Fe  Fe41  1  0.25205898  0.49940401  0.49995922  1
  Fe  Fe42  1  0.25018767  0.00151529  0.75149415  1
  Fe  Fe43  1  0.75154743  -0.00058380  0.00106017  1
  Fe  Fe44  1  0.62495968  0.87343012  0.62660880  1
  Fe  Fe45  1  0.62150208  0.62136850  0.12829814  1
  Fe  Fe46  1  0.87564266  0.87292156  0.87718591  1
  Fe  Fe47  1  0.62696320  0.12543693  0.12650219  1
  Fe  Fe48  1  0.25072382  0.74836305  0.75246302  1
  Fe  Fe49  1  0.50108272  0.00044124  0.49842028  1
  Fe  Fe50  1  0.49912950  0.74895887  0.00259319  1
  Fe  Fe51  1  0.24716937  0.25090164  0.49869145  1
  Fe  Fe52  1  0.87498069  0.37346493  0.62487739  1
  Fe  Fe53  1  0.74680998  0.25019718  0.75322484  1
  Fe  Fe54  1  0.49825078  0.50176708  0.74967129  1
  Fe  Fe55  1  0.37613440  0.37406864  0.37606036  1
  Fe  Fe56  1  0.87462190  0.62603954  0.37088274  1
  Fe  Fe57  1  0.25036795  0.00033194  0.00174102  1
  Fe  Fe58  1  -0.00163404  0.00100354  0.74954398  1
  Fe  Fe59  1  0.12138889  0.12549246  0.37306826  1
  Fe  Fe60  1  0.74779142  0.49816028  0.25021026  1
  Fe  Fe61  1  0.75156496  0.74868328  0.75025863  1
  Fe  Fe62  1  0.75064999  0.75024189  0.49651205  1
  Fe  Fe63  1  0.87521577  0.12612603  0.87834551  1
  Fe  Fe64  1  0.12546836  0.37747005  0.62658730  1
  Fe  Fe65  1  0.37465232  0.62753196  0.62390242  1
  Fe  Fe66  1  0.37328526  0.12759746  0.62604215  1
  Fe  Fe67  1  0.62521601  0.37577912  0.62400088  1
  Fe  Fe68  1  0.00153428  0.24957219  0.75257259  1
  Fe  Fe69  1  0.49892611  0.00077314  0.00224318  1
  Fe  Fe70  1  0.50195602  0.24884922  0.49905691  1
  Fe  Fe71  1  0.87514437  0.37359312  0.12246068  1
  Fe  Fe72  1  0.25006329  0.25097560  0.25024549  1
  Fe  Fe73  1  0.87549565  0.87004228  0.12915405  1
  Fe  Fe74  1  -0.00272544  0.00096253  0.00451913  1
  Fe  Fe75  1  0.37649355  0.12842823  0.87594153  1
  Fe  Fe76  1  0.49861662  -0.00103199  0.24945384  1
  Fe  Fe77  1  0.24660681  0.25238958  -0.00188455  1
  Fe  Fe78  1  0.12381854  0.38022665  0.87437515  1
  Fe  Fe79  1  0.87913170  0.12177454  0.37873998  1
  Fe  Fe80  1  0.37527146  0.12839451  0.12444875  1
  Fe  Fe81  1  0.75213590  0.25123617  0.25364758  1
  Fe  Fe82  1  0.87452942  0.87519004  0.62276539  1
  Fe  Fe83  1  0.75462499  0.00158257  0.25056700  1
  Fe  Fe84  1  0.12508423  0.62368150  0.62548719  1
  Fe  Fe85  1  0.12604538  0.87315087  0.62684376  1
  Fe  Fe86  1  0.37067931  0.87078975  0.12921018  1
  Fe  Fe87  1  0.12512551  0.62124802  0.87583197  1
  Fe  Fe88  1  0.12641528  0.87457813  0.12716671  1
  Fe  Fe89  1  0.62577567  0.62334914  0.87562405  1
  Co  Co90  1  0.62412450  0.12531293  0.37158069  1
  Co  Co91  1  0.87200640  0.13171787  0.11996336  1
  Co  Co92  1  0.00271525  0.25257962  -0.00240311  1
  Co  Co93  1  -0.00386733  0.50115210  0.74794486  1
  Co  Co94  1  0.24953432  0.00377796  0.24883224  1
  Co  Co95  1  0.00072866  0.25336841  0.49992971  1
  Co  Co96  1  0.87258692  0.62417130  0.12767636  1
  Co  Co97  1  0.00197425  -0.00289275  0.50138109  1
  Co  Co98  1  -0.00373517  0.00360350  0.24481446  1
  Co  Co99  1  0.87488879  0.62674811  0.62195297  1
  Co  Co100  1  0.24776073  0.74779385  0.25423001  1
  Co  Co101  1  0.74854613  -0.00078695  0.49818623  1
  Co  Co102  1  -0.00520344  0.24902337  0.25105440  1
  Co  Co103  1  0.49933285  0.74760940  0.75234078  1
  Co  Co104  1  0.50232775  0.75285516  0.24877901  1
  Co  Co105  1  0.87674556  0.87366986  0.37151620  1
  Co  Co106  1  0.00403933  0.74629918  0.24870079  1
  Co  Co107  1  0.62449795  0.62354967  0.37351418  1
  Co  Co108  1  0.12346988  0.37203985  0.12810800  1
  Co  Co109  1  0.87751903  0.37919914  0.37394940  1
  Co  Co110  1  0.24980849  0.75186786  -0.00252114  1
  Co  Co111  1  0.24648682  0.25018802  0.75253165  1
  Co  Co112  1  0.49886179  0.49632586  0.25073979  1
  Co  Co113  1  0.50477566  0.24860639  0.74968220  1
  Co  Co114  1  0.62474615  0.12066867  0.87697717  1
  Co  Co115  1  0.25424515  0.50069535  0.74963417  1
  Co  Co116  1  0.37389730  0.62645479  0.12649306  1
  Co  Co117  1  0.74640644  0.74946215  0.24867768  1
  Co  Co118  1  0.49987972  0.50053032  0.00043311  1
  Co  Co119  1  0.37331209  0.87644506  0.37262985  1
  Co  Co120  1  0.62290981  0.38057727  0.87290284  1
  Co  Co121  1  0.00113814  0.50067886  0.00521158  1
  Co  Co122  1  0.50617282  0.24987126  0.00010823  1
  Co  Co123  1  0.25109667  0.49539690  0.00160489  1
  Co  Co124  1  0.12364931  0.12074812  0.87819706  1
  Co  Co125  1  0.62543602  0.37516762  0.12636453  1
  Co  Co126  1  0.62475169  0.37482174  0.37676163  1
  Co  Co127  1  0.74885465  0.50032219  0.00228114  1
