# generated using pymatgen
data_Fe45Co19
_symmetry_space_group_name_H-M   'P 1'
_cell_length_a   11.42284706
_cell_length_b   11.42292833
_cell_length_c   11.42312264
_cell_angle_alpha   90.00160310
_cell_angle_beta   90.00248838
_cell_angle_gamma   89.99299461
_symmetry_Int_Tables_number   1
_chemical_formula_structural   Fe45Co19
_chemical_formula_sum   'Fe90 Co38'
_cell_volume   1490.51602435
_cell_formula_units_Z   2
loop_
 _symmetry_equiv_pos_site_id
 _symmetry_equiv_pos_as_xyz
  1  'x, y, z'
loop_
 _atom_site_type_symbol
 _atom_site_label
 _atom_site_symmetry_multiplicity
 _atom_site_fract_x
 _atom_site_fract_y
 _atom_site_fract_z
 _atom_site_occupancy
  Fe  Fe0  1  0.00104846  0.49912664  0.49910263  1
  Fe  Fe1  1  -0.00197340  -0.00101915  0.24972554  1
  Fe  Fe2  1  0.49991053  0.75021670  -0.00149520  1
  Fe  Fe3  1  0.37587070  0.62471783  0.12507288  1
  Fe  Fe4  1  -0.00126960  0.49982999  0.75212403  1
  Fe  Fe5  1  0.62717634  0.12417200  0.37683827  1
  Fe  Fe6  1  0.62742536  0.37710949  0.37533674  1
  Fe  Fe7  1  0.50068820  -0.00001029  0.50147272  1
  Fe  Fe8  1  0.62362535  0.87232197  0.62492606  1
  Fe  Fe9  1  -0.00144471  0.74863483  0.75150120  1
  Fe  Fe10  1  0.12560477  0.62378509  0.87529770  1
  Fe  Fe11  1  0.12433967  0.87434046  0.12553340  1
  Fe  Fe12  1  0.74954454  0.49817586  0.00017896  1
  Fe  Fe13  1  0.87480627  0.37594814  0.62450115  1
  Fe  Fe14  1  0.25204500  -0.00069281  0.74672838  1
  Fe  Fe15  1  0.75184277  -0.00145066  0.25039251  1
  Fe  Fe16  1  0.00008327  0.00110224  0.50078560  1
  Fe  Fe17  1  -0.00140367  0.74781879  0.49788858  1
  Fe  Fe18  1  -0.00117187  0.75070502  -0.00151350  1
  Fe  Fe19  1  0.50043025  0.24942278  0.74910148  1
  Fe  Fe20  1  0.37574650  0.87527239  0.12632360  1
  Fe  Fe21  1  0.62573667  0.37558371  0.62470669  1
  Fe  Fe22  1  0.25279917  0.74945024  0.25146293  1
  Fe  Fe23  1  0.50173510  -0.00064389  -0.00119744  1
  Fe  Fe24  1  0.87505285  0.62586778  0.12518321  1
  Fe  Fe25  1  0.87303977  0.12495501  0.37739303  1
  Fe  Fe26  1  0.74817836  0.00089668  0.74718817  1
  Fe  Fe27  1  0.25121524  0.75056775  -0.00185089  1
  Fe  Fe28  1  0.00050302  0.00216479  -0.00100282  1
  Fe  Fe29  1  0.37636032  0.37597890  0.62412747  1
  Fe  Fe30  1  0.12551663  0.12587019  0.37532231  1
  Fe  Fe31  1  0.87406507  0.37326808  0.87546024  1
  Fe  Fe32  1  0.12451598  0.87696332  0.87372798  1
  Fe  Fe33  1  0.25214869  0.75000745  0.49963816  1
  Fe  Fe34  1  0.37387191  0.12566078  0.37627650  1
  Fe  Fe35  1  0.62501910  0.62468043  0.12657362  1
  Fe  Fe36  1  0.37739744  0.62588021  0.62468293  1
  Fe  Fe37  1  0.74943905  0.50302261  0.74893755  1
  Fe  Fe38  1  0.50075865  0.74889420  0.49394376  1
  Fe  Fe39  1  0.75285291  0.49845106  0.24894516  1
  Fe  Fe40  1  0.50121675  0.50038004  0.49896072  1
  Fe  Fe41  1  0.00148492  0.25125763  0.50101282  1
  Fe  Fe42  1  -0.00230582  0.00320135  0.75042899  1
  Fe  Fe43  1  0.74981288  0.24927275  0.74795215  1
  Fe  Fe44  1  0.50185489  0.25120421  0.49878752  1
  Fe  Fe45  1  0.00248807  0.24684398  -0.00435596  1
  Fe  Fe46  1  0.12328720  0.87414708  0.62526759  1
  Fe  Fe47  1  0.12495772  0.87549791  0.37537560  1
  Fe  Fe48  1  0.87378108  0.12686863  0.62295610  1
  Fe  Fe49  1  0.75028839  0.75016074  -0.00112737  1
  Fe  Fe50  1  0.87423219  0.87217167  0.62236760  1
  Fe  Fe51  1  0.75170403  0.75148028  0.25473763  1
  Fe  Fe52  1  0.12378925  0.37323159  0.12390884  1
  Fe  Fe53  1  -0.00235630  0.75081483  0.25185156  1
  Fe  Fe54  1  0.25059178  0.49829136  0.00092563  1
  Fe  Fe55  1  0.25034537  0.74976265  0.75030616  1
  Fe  Fe56  1  -0.00058020  0.49967989  -0.00051519  1
  Fe  Fe57  1  0.37125974  0.37737676  0.37586669  1
  Fe  Fe58  1  0.50128497  0.50045010  0.75171628  1
  Fe  Fe59  1  0.74619768  0.25204426  0.00261017  1
  Fe  Fe60  1  0.50089382  0.49867084  -0.00167709  1
  Fe  Fe61  1  0.37547467  0.87650494  0.87347806  1
  Fe  Fe62  1  0.74857888  -0.00082161  0.00061394  1
  Fe  Fe63  1  0.24844023  0.00255525  0.00157567  1
  Fe  Fe64  1  0.25064409  0.49902758  0.74870255  1
  Fe  Fe65  1  0.12491790  0.62660687  0.12478157  1
  Fe  Fe66  1  0.12389013  0.62467080  0.62538560  1
  Fe  Fe67  1  0.62545026  0.12552241  0.87410092  1
  Fe  Fe68  1  0.37603972  0.12595374  0.62435847  1
  Fe  Fe69  1  0.25035253  0.25145116  0.24820110  1
  Fe  Fe70  1  -0.00094430  0.25107053  0.25158460  1
  Fe  Fe71  1  0.49768617  0.50022283  0.25099427  1
  Fe  Fe72  1  0.50063059  -0.00000258  0.25088854  1
  Fe  Fe73  1  0.50346191  0.25178429  0.00169180  1
  Fe  Fe74  1  0.50142445  0.25095827  0.25118686  1
  Fe  Fe75  1  0.75011916  0.74611383  0.74907985  1
  Fe  Fe76  1  0.24976728  0.00076910  0.24925506  1
  Fe  Fe77  1  0.74904852  0.25112499  0.24895546  1
  Fe  Fe78  1  0.87348039  0.87596241  0.87414485  1
  Fe  Fe79  1  0.37343484  0.37235576  0.87561081  1
  Fe  Fe80  1  0.87436265  0.12622836  0.12360596  1
  Fe  Fe81  1  0.62479319  0.87364891  0.12694428  1
  Fe  Fe82  1  0.87346634  0.37546188  0.37699906  1
  Fe  Fe83  1  0.00064248  0.49833690  0.24933008  1
  Fe  Fe84  1  0.37352695  0.12732326  0.87468684  1
  Fe  Fe85  1  0.25076049  -0.00194012  0.50201696  1
  Fe  Fe86  1  0.50074870  0.74881429  0.75391646  1
  Fe  Fe87  1  0.12746818  0.62206588  0.37433673  1
  Fe  Fe88  1  0.37716305  0.12682878  0.12495541  1
  Fe  Fe89  1  0.24763249  0.25214589  0.50341654  1
  Co  Co90  1  0.74874912  0.25174473  0.50041328  1
  Co  Co91  1  0.62350662  0.37855111  0.12802175  1
  Co  Co92  1  0.37346544  0.62170149  0.37552142  1
  Co  Co93  1  0.87491720  0.87662986  0.37982891  1
  Co  Co94  1  0.37704317  0.37408878  0.12479020  1
  Co  Co95  1  0.49908234  0.74938140  0.25209308  1
  Co  Co96  1  0.87524866  0.62157078  0.37483247  1
  Co  Co97  1  0.74876029  0.74640952  0.49796824  1
  Co  Co98  1  0.62486064  0.12315482  0.12640545  1
  Co  Co99  1  0.24794840  0.24886594  0.00278556  1
  Co  Co100  1  0.87514591  0.87471331  0.12353331  1
  Co  Co101  1  0.24992219  0.25177965  0.74519743  1
  Co  Co102  1  0.24908433  0.49908558  0.24575630  1
  Co  Co103  1  0.62431405  0.12692197  0.62400049  1
  Co  Co104  1  0.87726790  0.37259541  0.12267399  1
  Co  Co105  1  0.62581672  0.62426003  0.87686457  1
  Co  Co106  1  0.24946452  0.50027055  0.50418306  1
  Co  Co107  1  0.62617209  0.37463930  0.87204660  1
  Co  Co108  1  0.87733980  0.62414240  0.62328572  1
  Co  Co109  1  0.37460438  0.62348652  0.87450104  1
  Co  Co110  1  0.12482236  0.12425824  0.62567072  1
  Co  Co111  1  0.74825925  -0.00093639  0.50310165  1
  Co  Co112  1  0.12295962  0.12600373  0.12826159  1
  Co  Co113  1  0.12639223  0.37447000  0.87424638  1
  Co  Co114  1  0.62606520  0.62203010  0.37174084  1
  Co  Co115  1  0.50074036  0.00234154  0.74999508  1
  Co  Co116  1  0.87002479  0.12597951  0.87643906  1
  Co  Co117  1  0.12998151  0.12557915  0.86999023  1
  Co  Co118  1  0.37895713  0.87194591  0.62540175  1
  Co  Co119  1  0.62538978  0.87727459  0.37542374  1
  Co  Co120  1  0.37540318  0.87751533  0.37393719  1
  Co  Co121  1  0.62637824  0.87463795  0.87306649  1
  Co  Co122  1  0.12753186  0.37550616  0.37500251  1
  Co  Co123  1  0.87430501  0.62425163  0.87643698  1
  Co  Co124  1  0.74873314  0.50326143  0.50229170  1
  Co  Co125  1  0.12175672  0.37655715  0.62753551  1
  Co  Co126  1  -0.00147775  0.24821364  0.75091694  1
  Co  Co127  1  0.62124257  0.62651745  0.62434278  1
