# generated using pymatgen
data_Fe45Co19
_symmetry_space_group_name_H-M   'P 1'
_cell_length_a   11.41495177
_cell_length_b   11.41472573
_cell_length_c   11.41445748
_cell_angle_alpha   90.00659449
_cell_angle_beta   90.00891751
_cell_angle_gamma   90.00744413
_symmetry_Int_Tables_number   1
_chemical_formula_structural   Fe45Co19
_chemical_formula_sum   'Fe90 Co38'
_cell_volume   1487.28714568
_cell_formula_units_Z   2
loop_
 _symmetry_equiv_pos_site_id
 _symmetry_equiv_pos_as_xyz
  1  'x, y, z'
loop_
 _atom_site_type_symbol
 _atom_site_label
 _atom_site_symmetry_multiplicity
 _atom_site_fract_x
 _atom_site_fract_y
 _atom_site_fract_z
 _atom_site_occupancy
  Fe  Fe0  1  0.62609650  0.37589291  0.62271162  1
  Fe  Fe1  1  -0.00052842  0.74874663  0.25114026  1
  Fe  Fe2  1  0.12578984  0.37752439  0.62223362  1
  Fe  Fe3  1  0.12614693  0.87474223  0.12477722  1
  Fe  Fe4  1  0.12660416  0.87390442  0.87455200  1
  Fe  Fe5  1  0.74830202  0.49778010  0.75163705  1
  Fe  Fe6  1  0.37391198  0.37516084  0.62456972  1
  Fe  Fe7  1  0.25271158  -0.00193359  0.25266055  1
  Fe  Fe8  1  0.87334471  0.12711798  0.37397278  1
  Fe  Fe9  1  0.87417413  0.12655980  0.87356204  1
  Fe  Fe10  1  0.74737858  0.25161271  0.00384639  1
  Fe  Fe11  1  0.00059431  -0.00064794  0.25103498  1
  Fe  Fe12  1  0.74669964  0.75083027  0.25019675  1
  Fe  Fe13  1  0.12781311  0.12301008  0.12619485  1
  Fe  Fe14  1  0.87376519  0.37209087  0.37339949  1
  Fe  Fe15  1  0.12569559  0.62248980  0.37420676  1
  Fe  Fe16  1  0.87370232  0.37361472  0.87565703  1
  Fe  Fe17  1  0.62351461  0.87499778  0.38047980  1
  Fe  Fe18  1  0.00059570  0.00104279  0.75028727  1
  Fe  Fe19  1  0.37947684  0.62511658  0.12860047  1
  Fe  Fe20  1  0.37686113  0.86839462  0.37917475  1
  Fe  Fe21  1  0.49627839  0.00250187  0.50023869  1
  Fe  Fe22  1  0.50111170  -0.00018963  0.25165627  1
  Fe  Fe23  1  -0.00290101  0.50125846  -0.00050883  1
  Fe  Fe24  1  0.25298540  0.74836750  -0.00050332  1
  Fe  Fe25  1  -0.00204909  0.50055374  0.75134648  1
  Fe  Fe26  1  0.87030334  0.62358941  0.62330728  1
  Fe  Fe27  1  0.50366988  0.24716945  0.24746707  1
  Fe  Fe28  1  0.50001269  0.25097365  0.00368582  1
  Fe  Fe29  1  -0.00039418  0.74788668  0.74859615  1
  Fe  Fe30  1  0.12795977  0.12609737  0.87469573  1
  Fe  Fe31  1  0.87484772  0.87427991  0.12608743  1
  Fe  Fe32  1  0.87394821  0.87412347  0.37554705  1
  Fe  Fe33  1  0.37958885  0.62798104  0.86849686  1
  Fe  Fe34  1  -0.00044191  -0.00055634  -0.00072188  1
  Fe  Fe35  1  0.37580073  0.37506186  0.37372589  1
  Fe  Fe36  1  0.62309801  0.62488026  0.87241585  1
  Fe  Fe37  1  0.62253502  0.87478893  0.12265231  1
  Fe  Fe38  1  0.74754412  0.74894930  -0.00028505  1
  Fe  Fe39  1  0.24716571  0.74731810  0.74620222  1
  Fe  Fe40  1  0.25305949  0.50337731  0.49935925  1
  Fe  Fe41  1  0.74393266  0.75264883  0.74607636  1
  Fe  Fe42  1  0.25398291  0.00103625  0.75061468  1
  Fe  Fe43  1  0.12637183  0.37620004  0.87528020  1
  Fe  Fe44  1  -0.00378314  0.50133147  0.49728630  1
  Fe  Fe45  1  0.74834000  0.24981778  0.74816888  1
  Fe  Fe46  1  0.62352006  0.12467875  0.62163811  1
  Fe  Fe47  1  0.37522658  0.12778495  0.37486585  1
  Fe  Fe48  1  0.25427013  -0.00054373  -0.00259796  1
  Fe  Fe49  1  0.87356620  0.87324153  0.87286222  1
  Fe  Fe50  1  0.25096091  0.50023816  0.74926544  1
  Fe  Fe51  1  0.25415425  0.50166043  0.00074736  1
  Fe  Fe52  1  0.24983345  0.25347875  0.25055498  1
  Fe  Fe53  1  0.25156019  0.74825555  0.25166594  1
  Fe  Fe54  1  0.74611415  -0.00042105  0.74957049  1
  Fe  Fe55  1  0.62718051  0.62730128  0.37866885  1
  Fe  Fe56  1  0.12715115  0.12381465  0.37765594  1
  Fe  Fe57  1  0.87347228  0.37545509  0.62405549  1
  Fe  Fe58  1  0.00040672  0.25085427  0.00127410  1
  Fe  Fe59  1  0.62560518  0.37071125  0.37583535  1
  Fe  Fe60  1  0.12566360  0.87678676  0.62140036  1
  Fe  Fe61  1  0.74642943  0.00192119  0.25077390  1
  Fe  Fe62  1  0.37428451  0.12874939  0.62557497  1
  Fe  Fe63  1  -0.00043554  0.24869256  0.50100373  1
  Fe  Fe64  1  0.37550941  0.37328979  0.87434972  1
  Fe  Fe65  1  0.87389745  0.12581873  0.12667797  1
  Fe  Fe66  1  0.75290360  0.00280352  0.49969123  1
  Fe  Fe67  1  0.50187330  0.50286244  0.25202076  1
  Fe  Fe68  1  0.12784014  0.12367859  0.62182408  1
  Fe  Fe69  1  0.74997125  0.49956281  0.25132022  1
  Fe  Fe70  1  0.12538713  0.62324336  0.12694084  1
  Fe  Fe71  1  -0.00091819  0.74850817  0.50004854  1
  Fe  Fe72  1  0.12552000  0.37963687  0.12697923  1
  Fe  Fe73  1  0.25241637  0.25078442  0.00290829  1
  Fe  Fe74  1  0.49482427  -0.00116859  -0.00360451  1
  Fe  Fe75  1  0.87320973  0.62406742  0.12645435  1
  Fe  Fe76  1  0.37672237  0.87264091  0.12619716  1
  Fe  Fe77  1  0.00202726  0.25237368  0.24933872  1
  Fe  Fe78  1  0.37667549  0.87079362  0.62511185  1
  Fe  Fe79  1  0.00178015  0.25017640  0.74822989  1
  Fe  Fe80  1  0.50112197  0.49944114  -0.00087579  1
  Fe  Fe81  1  0.62224724  0.12494735  0.87596101  1
  Fe  Fe82  1  0.75147135  -0.00063917  -0.00031032  1
  Fe  Fe83  1  0.50099998  0.25197000  0.74903568  1
  Fe  Fe84  1  0.12647884  0.87550345  0.37867763  1
  Fe  Fe85  1  -0.00108902  0.74893563  -0.00113454  1
  Fe  Fe86  1  0.50000052  0.50155318  0.50088488  1
  Fe  Fe87  1  0.87517452  0.87699498  0.62433037  1
  Fe  Fe88  1  0.12436608  0.62425639  0.87382358  1
  Fe  Fe89  1  0.74783540  0.49938963  -0.00028862  1
  Co  Co90  1  0.49956636  0.74896988  -0.00099918  1
  Co  Co91  1  0.24817817  0.25202574  0.74820997  1
  Co  Co92  1  0.87295097  0.37547044  0.12589464  1
  Co  Co93  1  0.62413959  0.12545724  0.37985781  1
  Co  Co94  1  0.37477182  0.12386034  0.12738441  1
  Co  Co95  1  0.62419231  0.37749619  0.12773147  1
  Co  Co96  1  0.87413053  0.12367404  0.62699485  1
  Co  Co97  1  0.75116408  0.24958001  0.50150382  1
  Co  Co98  1  0.24923863  0.74533139  0.50180079  1
  Co  Co99  1  -0.00333825  0.50041287  0.25121277  1
  Co  Co100  1  0.87138154  0.62632327  0.87262611  1
  Co  Co101  1  0.74537024  0.24772819  0.24822571  1
  Co  Co102  1  0.87148880  0.62717212  0.37565537  1
  Co  Co103  1  0.12452153  0.37858034  0.37676296  1
  Co  Co104  1  0.37530057  0.86915146  0.86958911  1
  Co  Co105  1  0.25260811  0.50035308  0.25109809  1
  Co  Co106  1  0.62379420  0.62459950  0.12523484  1
  Co  Co107  1  0.37814234  0.37678685  0.12788087  1
  Co  Co108  1  0.62351702  0.87634046  0.87793228  1
  Co  Co109  1  0.37601487  0.13017032  0.87341505  1
  Co  Co110  1  0.62300515  0.12069067  0.12185513  1
  Co  Co111  1  0.25568046  0.00016498  0.49978754  1
  Co  Co112  1  0.74876420  0.75211104  0.50347879  1
  Co  Co113  1  0.62664844  0.61890989  0.62465163  1
  Co  Co114  1  0.50884136  0.75324800  0.74543722  1
  Co  Co115  1  0.49888901  0.25217205  0.50123183  1
  Co  Co116  1  0.50072854  0.49601464  0.74905769  1
  Co  Co117  1  0.62437807  0.37330075  0.87531368  1
  Co  Co118  1  0.37890714  0.62634627  0.62883213  1
  Co  Co119  1  0.74880197  0.49665643  0.49639739  1
  Co  Co120  1  0.62248925  0.88158089  0.61829037  1
  Co  Co121  1  0.25032368  0.25185720  0.49818943  1
  Co  Co122  1  0.50368767  0.75076903  0.25149972  1
  Co  Co123  1  -0.00262688  0.00134484  0.49890100  1
  Co  Co124  1  0.50324112  0.74521376  0.50434451  1
  Co  Co125  1  0.37677586  0.62739708  0.37503636  1
  Co  Co126  1  0.49896537  -0.00011348  0.75052637  1
  Co  Co127  1  0.12253822  0.62127306  0.62396709  1
