# generated using pymatgen
data_Fe45Co19
_symmetry_space_group_name_H-M   'P 1'
_cell_length_a   11.41530683
_cell_length_b   11.41382466
_cell_length_c   11.41535554
_cell_angle_alpha   89.99836319
_cell_angle_beta   90.00185863
_cell_angle_gamma   89.99735934
_symmetry_Int_Tables_number   1
_chemical_formula_structural   Fe45Co19
_chemical_formula_sum   'Fe90 Co38'
_cell_volume   1487.33304554
_cell_formula_units_Z   2
loop_
 _symmetry_equiv_pos_site_id
 _symmetry_equiv_pos_as_xyz
  1  'x, y, z'
loop_
 _atom_site_type_symbol
 _atom_site_label
 _atom_site_symmetry_multiplicity
 _atom_site_fract_x
 _atom_site_fract_y
 _atom_site_fract_z
 _atom_site_occupancy
  Fe  Fe0  1  0.25041423  0.25061555  0.50009028  1
  Fe  Fe1  1  0.37515625  0.62323165  0.87734356  1
  Fe  Fe2  1  0.75155295  0.25193513  0.74731961  1
  Fe  Fe3  1  0.74906875  -0.00051525  0.00084505  1
  Fe  Fe4  1  0.12361524  0.87509631  0.87281170  1
  Fe  Fe5  1  0.12298713  0.37696634  0.13118353  1
  Fe  Fe6  1  0.12283171  0.62537655  0.87342579  1
  Fe  Fe7  1  0.74876909  0.25320681  0.00214978  1
  Fe  Fe8  1  0.12426662  0.37658818  0.87451262  1
  Fe  Fe9  1  -0.00193031  0.25027499  0.74897697  1
  Fe  Fe10  1  0.37688243  0.87390184  0.12354795  1
  Fe  Fe11  1  0.62318172  0.87421811  0.87269324  1
  Fe  Fe12  1  0.62465879  0.37739158  0.37246721  1
  Fe  Fe13  1  0.62498426  0.87097282  0.37137251  1
  Fe  Fe14  1  0.12457883  0.62534680  0.37387694  1
  Fe  Fe15  1  0.12506126  0.12487484  0.87468395  1
  Fe  Fe16  1  0.37358149  0.11966485  0.62390242  1
  Fe  Fe17  1  0.12701035  0.12170659  0.62513372  1
  Fe  Fe18  1  0.49736355  0.50319723  0.24960808  1
  Fe  Fe19  1  0.62599058  0.12535809  0.12709167  1
  Fe  Fe20  1  0.24666841  0.75521092  0.50000187  1
  Fe  Fe21  1  -0.00026173  -0.00038214  0.00138323  1
  Fe  Fe22  1  0.12447411  0.62836027  0.62565707  1
  Fe  Fe23  1  0.74910174  -0.00128395  0.74853332  1
  Fe  Fe24  1  -0.00567095  0.75066305  0.74811489  1
  Fe  Fe25  1  0.24810005  0.50166330  0.00262939  1
  Fe  Fe26  1  0.50102551  0.25207751  0.00236108  1
  Fe  Fe27  1  -0.00219882  0.00042159  0.74877906  1
  Fe  Fe28  1  -0.00070617  0.74962357  -0.00159707  1
  Fe  Fe29  1  0.24971984  0.49973987  0.50008430  1
  Fe  Fe30  1  0.87179889  0.12423456  0.61952624  1
  Fe  Fe31  1  0.62562397  0.12577043  0.87384733  1
  Fe  Fe32  1  0.00454227  -0.00592966  0.49901399  1
  Fe  Fe33  1  0.24819517  0.74956088  0.00036932  1
  Fe  Fe34  1  0.50126189  0.50210750  0.50096166  1
  Fe  Fe35  1  0.25175190  0.00033242  0.25001586  1
  Fe  Fe36  1  0.74642196  -0.00339662  0.49922395  1
  Fe  Fe37  1  0.50091089  0.24979274  0.50096509  1
  Fe  Fe38  1  0.24849709  -0.00145337  -0.00032800  1
  Fe  Fe39  1  0.87222499  0.87264630  0.12687016  1
  Fe  Fe40  1  0.12515691  0.37674195  0.37122502  1
  Fe  Fe41  1  0.87465510  0.87681931  0.87531626  1
  Fe  Fe42  1  0.12475784  0.12553065  0.12721858  1
  Fe  Fe43  1  0.62451233  0.62496227  0.12646893  1
  Fe  Fe44  1  0.49957497  0.50163280  0.74802086  1
  Fe  Fe45  1  0.62829934  0.62825262  0.62697499  1
  Fe  Fe46  1  0.49989328  0.24893742  0.74764999  1
  Fe  Fe47  1  0.50133225  -0.00139487  0.24927542  1
  Fe  Fe48  1  0.62488087  0.37378749  0.62386872  1
  Fe  Fe49  1  0.75490451  0.50398841  0.24757892  1
  Fe  Fe50  1  -0.00242555  0.50134356  0.00318235  1
  Fe  Fe51  1  0.37512804  0.37755058  0.12594769  1
  Fe  Fe52  1  0.50120877  0.74765867  -0.00111019  1
  Fe  Fe53  1  0.37667300  0.87354064  0.37602533  1
  Fe  Fe54  1  0.37483608  0.37583728  0.37586828  1
  Fe  Fe55  1  0.74996442  0.50056906  0.50099501  1
  Fe  Fe56  1  0.25022054  0.25114409  0.74860382  1
  Fe  Fe57  1  0.62746308  0.87279744  0.12708729  1
  Fe  Fe58  1  0.12628802  0.12485429  0.37355629  1
  Fe  Fe59  1  0.62618977  0.37828915  0.87484180  1
  Fe  Fe60  1  0.87342619  0.37834722  0.87603110  1
  Fe  Fe61  1  0.12430491  0.37519713  0.62400719  1
  Fe  Fe62  1  0.49812332  0.24931878  0.24932302  1
  Fe  Fe63  1  -0.00288721  0.74557302  0.25188765  1
  Fe  Fe64  1  0.25003399  0.25092714  0.00290736  1
  Fe  Fe65  1  0.75282018  0.24825506  0.25327669  1
  Fe  Fe66  1  0.62594683  0.12546980  0.37544904  1
  Fe  Fe67  1  0.25005049  0.49994318  0.74783228  1
  Fe  Fe68  1  0.75072771  0.74812429  -0.00300143  1
  Fe  Fe69  1  0.87334280  0.12534510  0.87602846  1
  Fe  Fe70  1  -0.00030437  0.25103542  0.00128125  1
  Fe  Fe71  1  -0.00333967  0.00101764  0.25143309  1
  Fe  Fe72  1  0.37495394  0.62805748  0.62258545  1
  Fe  Fe73  1  0.25447956  0.75383491  0.75121587  1
  Fe  Fe74  1  -0.00066756  0.50322291  0.50127345  1
  Fe  Fe75  1  -0.00361425  0.50072642  0.74639410  1
  Fe  Fe76  1  0.37647954  0.62713479  0.37685809  1
  Fe  Fe77  1  0.50255255  0.00077854  0.00050830  1
  Fe  Fe78  1  0.87350517  0.87189457  0.37618648  1
  Fe  Fe79  1  0.37568107  0.37719646  0.87434808  1
  Fe  Fe80  1  0.25239666  0.74658538  0.24765719  1
  Fe  Fe81  1  -0.00032796  0.24971143  0.49806180  1
  Fe  Fe82  1  0.62887694  0.62209885  0.87303536  1
  Fe  Fe83  1  0.50265276  -0.00153724  0.50089681  1
  Fe  Fe84  1  0.37557064  0.12402656  0.87618616  1
  Fe  Fe85  1  0.87365416  0.12505870  0.12514325  1
  Fe  Fe86  1  0.62224220  0.87041843  0.62860189  1
  Fe  Fe87  1  0.87655544  0.37680237  0.37458427  1
  Fe  Fe88  1  0.12351905  0.87322207  0.12794493  1
  Fe  Fe89  1  0.37478710  0.12373544  0.37581916  1
  Co  Co90  1  0.50096198  0.00044993  0.74967009  1
  Co  Co91  1  0.25179625  0.24986538  0.24985822  1
  Co  Co92  1  0.75031320  0.00054794  0.25171247  1
  Co  Co93  1  0.87502674  0.63015971  0.12197500  1
  Co  Co94  1  0.62822285  0.12656872  0.62364054  1
  Co  Co95  1  -0.00405826  0.50461913  0.24990908  1
  Co  Co96  1  0.24634690  -0.00475171  0.49699361  1
  Co  Co97  1  0.50264678  0.49901896  0.00064033  1
  Co  Co98  1  0.12291345  0.62507149  0.12636561  1
  Co  Co99  1  0.75214125  0.49833761  0.74547883  1
  Co  Co100  1  0.87598147  0.37248226  0.12760892  1
  Co  Co101  1  0.12467888  0.87242810  0.36765223  1
  Co  Co102  1  0.37753868  0.87590081  0.62168693  1
  Co  Co103  1  0.25239934  0.50345767  0.25062823  1
  Co  Co104  1  0.37843494  0.87568888  0.87887741  1
  Co  Co105  1  0.00402744  0.75200840  0.50007561  1
  Co  Co106  1  0.50001583  0.74927155  0.25002737  1
  Co  Co107  1  0.87599443  0.37369348  0.62139606  1
  Co  Co108  1  0.87264989  0.62928294  0.62178729  1
  Co  Co109  1  0.87362775  0.62090847  0.87485766  1
  Co  Co110  1  0.74968799  0.74573300  0.25223297  1
  Co  Co111  1  0.62524724  0.37591386  0.12987184  1
  Co  Co112  1  -0.00228752  0.24716799  0.25282162  1
  Co  Co113  1  0.37739453  0.62546438  0.12225261  1
  Co  Co114  1  0.87442091  0.62697934  0.38094852  1
  Co  Co115  1  0.25269525  -0.00320045  0.75342730  1
  Co  Co116  1  0.75038185  0.49979670  0.00505624  1
  Co  Co117  1  0.50401818  0.74898749  0.49886645  1
  Co  Co118  1  0.74918591  0.25337512  0.49639661  1
  Co  Co119  1  0.75372604  0.75187905  0.75263062  1
  Co  Co120  1  0.49692921  0.74771497  0.75181258  1
  Co  Co121  1  0.74555608  0.74999475  0.49784501  1
  Co  Co122  1  0.12616306  0.87522855  0.63036514  1
  Co  Co123  1  0.87418414  0.12120025  0.38110446  1
  Co  Co124  1  0.62478124  0.62245022  0.37296121  1
  Co  Co125  1  0.37628641  0.12264700  0.12405342  1
  Co  Co126  1  0.37608643  0.37590316  0.62413314  1
  Co  Co127  1  0.87332155  0.87422205  0.62057771  1
