# generated using pymatgen
data_Fe45Co19
_symmetry_space_group_name_H-M   'P 1'
_cell_length_a   11.41456754
_cell_length_b   11.41531965
_cell_length_c   11.41513417
_cell_angle_alpha   89.99820309
_cell_angle_beta   89.99540029
_cell_angle_gamma   89.99603937
_symmetry_Int_Tables_number   1
_chemical_formula_structural   Fe45Co19
_chemical_formula_sum   'Fe90 Co38'
_cell_volume   1487.40267163
_cell_formula_units_Z   2
loop_
 _symmetry_equiv_pos_site_id
 _symmetry_equiv_pos_as_xyz
  1  'x, y, z'
loop_
 _atom_site_type_symbol
 _atom_site_label
 _atom_site_symmetry_multiplicity
 _atom_site_fract_x
 _atom_site_fract_y
 _atom_site_fract_z
 _atom_site_occupancy
  Fe  Fe0  1  0.12472231  0.62855764  0.12692977  1
  Fe  Fe1  1  0.49805023  0.25019925  0.24950440  1
  Fe  Fe2  1  0.37649996  0.62390757  0.37449700  1
  Fe  Fe3  1  0.87558455  0.62593984  0.87400233  1
  Fe  Fe4  1  0.12603616  0.37268269  0.12358096  1
  Fe  Fe5  1  0.24882057  0.50016444  0.25124921  1
  Fe  Fe6  1  0.37448046  0.62475044  0.12582022  1
  Fe  Fe7  1  -0.00087820  0.49821590  0.74866470  1
  Fe  Fe8  1  0.37553686  0.62581764  0.62566997  1
  Fe  Fe9  1  0.12624380  0.37143676  0.62330324  1
  Fe  Fe10  1  0.00033582  0.49855928  0.50052753  1
  Fe  Fe11  1  -0.00136440  0.24797690  0.24873698  1
  Fe  Fe12  1  0.12373478  0.62512835  0.62460999  1
  Fe  Fe13  1  0.87703961  0.62494785  0.37636697  1
  Fe  Fe14  1  0.75000428  0.00071940  0.00128007  1
  Fe  Fe15  1  0.74997100  0.75333233  0.25422795  1
  Fe  Fe16  1  0.50232309  0.49698232  0.25129814  1
  Fe  Fe17  1  0.36819669  0.12337039  0.12812516  1
  Fe  Fe18  1  0.49834398  0.75170612  0.00104857  1
  Fe  Fe19  1  0.87475600  0.62669229  0.62258096  1
  Fe  Fe20  1  0.75019079  0.75445544  0.75012080  1
  Fe  Fe21  1  0.62626086  0.37199511  0.62296846  1
  Fe  Fe22  1  0.62570018  0.62679294  0.62478656  1
  Fe  Fe23  1  0.12679462  0.87371007  0.37625512  1
  Fe  Fe24  1  0.87051135  0.87995481  0.61873770  1
  Fe  Fe25  1  0.87191378  0.37281445  0.12167118  1
  Fe  Fe26  1  0.00017219  0.24691372  0.00088660  1
  Fe  Fe27  1  0.50107359  -0.00602477  0.74611841  1
  Fe  Fe28  1  0.24932720  0.74706059  0.49806212  1
  Fe  Fe29  1  0.12518386  0.37276853  0.37618978  1
  Fe  Fe30  1  0.75271292  0.24516817  0.25133147  1
  Fe  Fe31  1  0.36869051  0.87772000  0.12789269  1
  Fe  Fe32  1  0.74956438  0.49910339  0.75002519  1
  Fe  Fe33  1  0.87819561  0.87565547  0.12470143  1
  Fe  Fe34  1  0.50065003  0.75367702  0.74901984  1
  Fe  Fe35  1  0.62626246  0.62583385  0.12745828  1
  Fe  Fe36  1  0.37382378  0.37417850  0.12329021  1
  Fe  Fe37  1  0.12416526  0.62603457  0.87345654  1
  Fe  Fe38  1  0.62807111  0.37336902  0.12320713  1
  Fe  Fe39  1  0.49974493  0.24627539  0.00054030  1
  Fe  Fe40  1  0.75017429  0.24127497  0.49931303  1
  Fe  Fe41  1  0.25045600  0.00606738  0.50253356  1
  Fe  Fe42  1  0.74950400  0.49947080  0.25166012  1
  Fe  Fe43  1  0.75132676  0.75042338  0.00068531  1
  Fe  Fe44  1  0.25043430  0.24950551  -0.00421304  1
  Fe  Fe45  1  0.50278196  0.49881554  0.49862345  1
  Fe  Fe46  1  0.37256962  0.12216762  0.86994192  1
  Fe  Fe47  1  -0.00103458  0.49892279  0.24908130  1
  Fe  Fe48  1  0.50260564  0.00333652  0.50271271  1
  Fe  Fe49  1  0.50367076  0.75124419  0.49817658  1
  Fe  Fe50  1  0.87225643  0.88254208  0.38031740  1
  Fe  Fe51  1  0.12424405  0.12929732  0.37689911  1
  Fe  Fe52  1  0.87614745  0.87724150  0.87644923  1
  Fe  Fe53  1  0.62534041  0.87595067  0.12549239  1
  Fe  Fe54  1  -0.00189572  0.75312185  0.74652643  1
  Fe  Fe55  1  0.00092565  -0.00066020  0.74589172  1
  Fe  Fe56  1  0.62497043  0.62765537  0.87480093  1
  Fe  Fe57  1  0.24939411  0.75209155  0.00062336  1
  Fe  Fe58  1  0.12728471  0.12324408  0.87130435  1
  Fe  Fe59  1  0.75231840  0.24654728  0.75053919  1
  Fe  Fe60  1  0.25138355  0.49639219  0.75323262  1
  Fe  Fe61  1  0.74747222  0.50112910  0.49826177  1
  Fe  Fe62  1  0.62466397  0.12072093  0.87257576  1
  Fe  Fe63  1  0.87465299  0.37488231  0.87799196  1
  Fe  Fe64  1  0.00342735  0.00220328  0.24836364  1
  Fe  Fe65  1  0.49903535  0.75273970  0.25186985  1
  Fe  Fe66  1  0.37483061  0.37277972  0.62489198  1
  Fe  Fe67  1  0.49904310  0.24564470  0.49809556  1
  Fe  Fe68  1  0.37366655  0.87605056  0.87478501  1
  Fe  Fe69  1  0.00463479  0.00097978  0.00389372  1
  Fe  Fe70  1  0.49969776  0.25214545  0.75167704  1
  Fe  Fe71  1  0.50035809  0.50143456  -0.00148906  1
  Fe  Fe72  1  0.87310908  0.37304162  0.62313872  1
  Fe  Fe73  1  0.00000937  0.75173865  0.25344240  1
  Fe  Fe74  1  0.62691559  0.12373134  0.12718008  1
  Fe  Fe75  1  0.49939544  -0.00059258  0.24958975  1
  Fe  Fe76  1  0.37475112  0.37359952  0.37541245  1
  Fe  Fe77  1  0.49931706  0.49991274  0.75143190  1
  Fe  Fe78  1  0.24955198  0.50030355  0.49893357  1
  Fe  Fe79  1  0.87427717  0.37265545  0.37660839  1
  Fe  Fe80  1  0.12414121  0.87521733  0.87540695  1
  Fe  Fe81  1  0.37411450  0.87826196  0.37675721  1
  Fe  Fe82  1  0.12599499  0.87477016  0.62193231  1
  Fe  Fe83  1  0.62667695  0.37454843  0.87765480  1
  Fe  Fe84  1  0.49764528  0.00004322  0.00150934  1
  Fe  Fe85  1  0.25083515  0.49977173  -0.00316852  1
  Fe  Fe86  1  0.87563961  0.12221874  0.87528218  1
  Fe  Fe87  1  0.25084657  0.75224501  0.74835129  1
  Fe  Fe88  1  -0.00040857  0.25046359  0.74894396  1
  Fe  Fe89  1  -0.00285753  0.50340504  0.00195963  1
  Co  Co90  1  0.87364454  0.62769355  0.12889924  1
  Co  Co91  1  0.25419190  0.24686915  0.50015121  1
  Co  Co92  1  0.87925902  0.12158187  0.62325914  1
  Co  Co93  1  0.37587865  0.12243133  0.37189859  1
  Co  Co94  1  0.12472340  0.12902594  0.62633526  1
  Co  Co95  1  0.37437824  0.62820445  0.87373715  1
  Co  Co96  1  0.75048929  0.00011727  0.74887132  1
  Co  Co97  1  0.62582897  0.88052542  0.37565313  1
  Co  Co98  1  0.87506803  0.12397822  0.12393543  1
  Co  Co99  1  0.24435015  0.00122994  0.25328023  1
  Co  Co100  1  0.00551917  0.00057609  0.50062016  1
  Co  Co101  1  0.12564454  0.87209715  0.12672724  1
  Co  Co102  1  0.37568226  0.12617562  0.63065910  1
  Co  Co103  1  0.62503914  0.87688755  0.87771545  1
  Co  Co104  1  0.62170636  0.12681882  0.63060696  1
  Co  Co105  1  0.74827511  0.24488105  -0.00241545  1
  Co  Co106  1  0.25069747  0.25135809  0.25263060  1
  Co  Co107  1  0.62653457  0.36959580  0.37568265  1
  Co  Co108  1  0.12973943  0.12760216  0.12529137  1
  Co  Co109  1  0.24930681  -0.00310471  0.74524393  1
  Co  Co110  1  0.74877044  0.74866066  0.49600358  1
  Co  Co111  1  0.12025362  0.37574218  0.87751458  1
  Co  Co112  1  0.12183061  0.62436808  0.37520307  1
  Co  Co113  1  -0.00036919  0.74901830  -0.00037815  1
  Co  Co114  1  0.37466684  0.87403410  0.62030587  1
  Co  Co115  1  0.62958900  0.87413132  0.62158562  1
  Co  Co116  1  0.74386013  0.00918691  0.50206628  1
  Co  Co117  1  -0.00214839  0.25068001  0.50069962  1
  Co  Co118  1  0.75284295  0.00029763  0.24779701  1
  Co  Co119  1  0.62335770  0.62518868  0.37252814  1
  Co  Co120  1  -0.00107203  0.75225188  0.50007751  1
  Co  Co121  1  0.24813054  -0.00089786  -0.00066573  1
  Co  Co122  1  0.37838103  0.37372041  0.87705491  1
  Co  Co123  1  0.25178109  0.74920218  0.25320040  1
  Co  Co124  1  0.87808907  0.12031275  0.37680205  1
  Co  Co125  1  0.75060914  0.50314174  -0.00011434  1
  Co  Co126  1  0.24894714  0.25375909  0.75197891  1
  Co  Co127  1  0.62278036  0.12341549  0.36893875  1
