# generated using pymatgen
data_Fe45Co19
_symmetry_space_group_name_H-M   'P 1'
_cell_length_a   11.41479713
_cell_length_b   11.41409248
_cell_length_c   11.41531782
_cell_angle_alpha   89.99496187
_cell_angle_beta   90.00271617
_cell_angle_gamma   90.00922310
_symmetry_Int_Tables_number   1
_chemical_formula_structural   Fe45Co19
_chemical_formula_sum   'Fe90 Co38'
_cell_volume   1487.29659723
_cell_formula_units_Z   2
loop_
 _symmetry_equiv_pos_site_id
 _symmetry_equiv_pos_as_xyz
  1  'x, y, z'
loop_
 _atom_site_type_symbol
 _atom_site_label
 _atom_site_symmetry_multiplicity
 _atom_site_fract_x
 _atom_site_fract_y
 _atom_site_fract_z
 _atom_site_occupancy
  Fe  Fe0  1  -0.00117162  0.75093279  0.00041410  1
  Fe  Fe1  1  0.75008481  0.24736879  -0.00198995  1
  Fe  Fe2  1  -0.00030653  0.75176005  0.25080626  1
  Fe  Fe3  1  0.25262247  0.50080264  0.50040575  1
  Fe  Fe4  1  0.62500158  0.12429245  0.37630100  1
  Fe  Fe5  1  0.24806797  0.50057760  -0.00282900  1
  Fe  Fe6  1  0.61843716  0.87833838  0.62404265  1
  Fe  Fe7  1  0.12933268  0.11966085  0.12848069  1
  Fe  Fe8  1  0.12901606  0.62830116  0.37492540  1
  Fe  Fe9  1  0.74636914  0.49874558  0.25114733  1
  Fe  Fe10  1  0.37381790  0.11928226  0.12580506  1
  Fe  Fe11  1  0.74891666  0.50074677  -0.00066326  1
  Fe  Fe12  1  0.87477953  0.87687425  0.12530985  1
  Fe  Fe13  1  0.25279966  0.75538340  0.00107258  1
  Fe  Fe14  1  0.75335237  0.24678511  0.74895260  1
  Fe  Fe15  1  0.25242604  0.24670815  0.74836617  1
  Fe  Fe16  1  0.87363490  0.62590987  0.37568845  1
  Fe  Fe17  1  0.62486667  0.37263287  0.87363317  1
  Fe  Fe18  1  0.37591035  0.37528336  0.12345604  1
  Fe  Fe19  1  0.00035065  0.50132378  0.50052818  1
  Fe  Fe20  1  0.12401299  0.87596835  0.37547743  1
  Fe  Fe21  1  0.37713224  0.62675552  0.12614986  1
  Fe  Fe22  1  0.12673960  0.62842341  0.62536972  1
  Fe  Fe23  1  0.49619894  0.74768368  0.50218606  1
  Fe  Fe24  1  0.49891310  0.24873206  0.24980019  1
  Fe  Fe25  1  0.12705988  0.87447026  0.87258757  1
  Fe  Fe26  1  0.00121666  0.50139673  0.75097213  1
  Fe  Fe27  1  0.49971075  0.24622089  -0.00178016  1
  Fe  Fe28  1  0.62135746  0.62771075  0.12404708  1
  Fe  Fe29  1  0.12929754  0.12313350  0.37438636  1
  Fe  Fe30  1  0.87376784  0.12042086  0.37737029  1
  Fe  Fe31  1  0.87636108  0.37356651  0.87437390  1
  Fe  Fe32  1  0.74915057  0.49902360  0.50111953  1
  Fe  Fe33  1  0.50037522  0.50134753  -0.00243341  1
  Fe  Fe34  1  0.37279211  0.62742652  0.87187208  1
  Fe  Fe35  1  0.62400844  0.62558088  0.62594442  1
  Fe  Fe36  1  0.62231520  0.12324124  0.62486749  1
  Fe  Fe37  1  0.87468718  0.62462714  0.12621020  1
  Fe  Fe38  1  0.25139541  0.49954850  0.24977740  1
  Fe  Fe39  1  0.24950780  0.24873742  0.00155038  1
  Fe  Fe40  1  0.00053626  0.24692802  0.25009454  1
  Fe  Fe41  1  0.37396231  0.37301872  0.87554294  1
  Fe  Fe42  1  0.62388525  0.37367336  0.62490064  1
  Fe  Fe43  1  0.61948086  0.87386236  0.12362953  1
  Fe  Fe44  1  0.74865539  0.00015960  0.74902414  1
  Fe  Fe45  1  0.62784646  0.62932772  0.87413147  1
  Fe  Fe46  1  -0.00101509  0.24799551  0.50025405  1
  Fe  Fe47  1  0.12666417  0.37307948  0.37516496  1
  Fe  Fe48  1  0.25233516  -0.00321775  0.50394050  1
  Fe  Fe49  1  -0.00151851  0.75041247  0.74858498  1
  Fe  Fe50  1  -0.00197044  0.24751285  0.74885990  1
  Fe  Fe51  1  0.37997484  0.87526574  0.37392077  1
  Fe  Fe52  1  0.62590124  0.87303432  0.87492103  1
  Fe  Fe53  1  0.37216345  0.12408027  0.37452431  1
  Fe  Fe54  1  0.74509307  -0.00188578  0.25006214  1
  Fe  Fe55  1  0.00256694  0.50109628  -0.00342752  1
  Fe  Fe56  1  0.87630718  0.87848848  0.62196402  1
  Fe  Fe57  1  0.62410317  0.37264528  0.12469752  1
  Fe  Fe58  1  -0.00044556  0.75062741  0.50016946  1
  Fe  Fe59  1  0.74685455  0.75155315  0.25020578  1
  Fe  Fe60  1  0.00143582  0.24738024  0.00084986  1
  Fe  Fe61  1  0.12800617  0.12356833  0.87534045  1
  Fe  Fe62  1  0.25504459  0.75280217  0.50427989  1
  Fe  Fe63  1  0.12505678  0.37515519  0.12518822  1
  Fe  Fe64  1  0.74924657  0.24987965  0.25127742  1
  Fe  Fe65  1  0.37547217  0.37571758  0.62571891  1
  Fe  Fe66  1  0.24704976  0.50038502  0.75208976  1
  Fe  Fe67  1  0.00157401  0.50081153  0.25172833  1
  Fe  Fe68  1  0.37672011  0.37648350  0.37491399  1
  Fe  Fe69  1  0.75116035  0.24870649  0.50211915  1
  Fe  Fe70  1  0.87377251  0.87771159  0.37683460  1
  Fe  Fe71  1  0.62063039  0.62457878  0.37523203  1
  Fe  Fe72  1  0.50199707  0.00263043  -0.00418869  1
  Fe  Fe73  1  0.37453169  0.87845460  0.86933042  1
  Fe  Fe74  1  0.12646220  0.12468914  0.62219512  1
  Fe  Fe75  1  0.74887540  0.75171433  0.50197314  1
  Fe  Fe76  1  0.49707633  0.24528167  0.75213566  1
  Fe  Fe77  1  0.75154388  0.49995673  0.74780131  1
  Fe  Fe78  1  0.87267679  0.12196250  0.12390734  1
  Fe  Fe79  1  0.50025228  0.50106969  0.75051502  1
  Fe  Fe80  1  0.49793476  0.24953921  0.50011354  1
  Fe  Fe81  1  0.87497684  0.37536438  0.12482675  1
  Fe  Fe82  1  0.87228859  0.87703872  0.87639412  1
  Fe  Fe83  1  0.87463890  0.37494700  0.37643931  1
  Fe  Fe84  1  0.00200892  -0.00021025  0.00057185  1
  Fe  Fe85  1  0.25314416  0.75528023  0.24749327  1
  Fe  Fe86  1  0.12643853  0.62843986  0.12413146  1
  Fe  Fe87  1  0.00189234  0.00078215  0.74829782  1
  Fe  Fe88  1  0.87193903  0.62841134  0.87341948  1
  Fe  Fe89  1  0.12510030  0.37375902  0.62542300  1
  Co  Co90  1  0.50122352  0.74876216  0.75045974  1
  Co  Co91  1  0.87601021  0.37549129  0.62437626  1
  Co  Co92  1  0.87510713  0.12029079  0.62385132  1
  Co  Co93  1  0.50282788  0.00196223  0.25278903  1
  Co  Co94  1  0.49662739  0.75051807  -0.00501111  1
  Co  Co95  1  0.24875558  0.00165682  0.74507380  1
  Co  Co96  1  0.12233465  0.87534109  0.12626283  1
  Co  Co97  1  0.49939600  0.75131039  0.25163482  1
  Co  Co98  1  -0.00024828  0.00064601  0.25143583  1
  Co  Co99  1  0.50074741  0.49817046  0.24876396  1
  Co  Co100  1  0.12550334  0.37026008  0.87431557  1
  Co  Co101  1  0.25136508  0.75321623  0.74660710  1
  Co  Co102  1  0.62816118  0.12662087  0.87362364  1
  Co  Co103  1  0.62486897  0.12607433  0.12512104  1
  Co  Co104  1  0.12659951  0.63151123  0.87509073  1
  Co  Co105  1  0.62226730  0.87346467  0.37836491  1
  Co  Co106  1  0.75052519  0.75071156  0.00265741  1
  Co  Co107  1  0.74583717  -0.00032873  0.00082232  1
  Co  Co108  1  0.36991966  0.12246937  0.87728480  1
  Co  Co109  1  0.12366261  0.87369980  0.62537172  1
  Co  Co110  1  0.49816796  0.50113732  0.50223333  1
  Co  Co111  1  0.25208938  0.25085543  0.50133600  1
  Co  Co112  1  0.25135892  0.25159071  0.24889053  1
  Co  Co113  1  0.25158358  -0.00640239  0.25121861  1
  Co  Co114  1  0.62307494  0.37359823  0.37737108  1
  Co  Co115  1  0.00361770  0.00107989  0.49956770  1
  Co  Co116  1  0.38115098  0.87842009  0.63049024  1
  Co  Co117  1  0.37345233  0.62420262  0.62895303  1
  Co  Co118  1  0.37505183  0.62527949  0.37293451  1
  Co  Co119  1  0.87555399  0.62587141  0.62433746  1
  Co  Co120  1  0.74639914  -0.00038716  0.50120404  1
  Co  Co121  1  0.49756743  0.00106310  0.49652724  1
  Co  Co122  1  0.24934653  -0.00531791  0.00076447  1
  Co  Co123  1  0.74996236  0.75451843  0.74513232  1
  Co  Co124  1  0.87480931  0.12144051  0.87621426  1
  Co  Co125  1  0.50068265  0.00486099  0.75442315  1
  Co  Co126  1  0.38230709  0.87903241  0.12481257  1
  Co  Co127  1  0.37769599  0.12163431  0.62347446  1
