# generated using pymatgen
data_Fe45Co19
_symmetry_space_group_name_H-M   'P 1'
_cell_length_a   11.41476112
_cell_length_b   11.41422329
_cell_length_c   11.41549291
_cell_angle_alpha   89.99623331
_cell_angle_beta   89.99600798
_cell_angle_gamma   89.99456928
_symmetry_Int_Tables_number   1
_chemical_formula_structural   Fe45Co19
_chemical_formula_sum   'Fe90 Co38'
_cell_volume   1487.33177486
_cell_formula_units_Z   2
loop_
 _symmetry_equiv_pos_site_id
 _symmetry_equiv_pos_as_xyz
  1  'x, y, z'
loop_
 _atom_site_type_symbol
 _atom_site_label
 _atom_site_symmetry_multiplicity
 _atom_site_fract_x
 _atom_site_fract_y
 _atom_site_fract_z
 _atom_site_occupancy
  Fe  Fe0  1  0.24931766  0.50100232  0.75183032  1
  Fe  Fe1  1  0.00183082  -0.00398621  0.24792751  1
  Fe  Fe2  1  0.87299258  0.12113651  0.37310510  1
  Fe  Fe3  1  0.24737236  0.25182735  0.00325882  1
  Fe  Fe4  1  -0.00151503  -0.00152652  0.49941317  1
  Fe  Fe5  1  -0.00025533  0.74990090  0.74913390  1
  Fe  Fe6  1  0.62798852  0.62622992  0.62617504  1
  Fe  Fe7  1  -0.00415672  0.74784353  0.00248408  1
  Fe  Fe8  1  0.24992771  -0.00330865  0.24881600  1
  Fe  Fe9  1  -0.00284404  -0.00054804  0.00301313  1
  Fe  Fe10  1  0.62898096  0.11980902  0.12692468  1
  Fe  Fe11  1  0.00187363  0.75037539  0.49767140  1
  Fe  Fe12  1  0.12286328  0.37541365  0.87513746  1
  Fe  Fe13  1  -0.00168632  0.24966682  0.74921501  1
  Fe  Fe14  1  0.00079462  0.24756923  0.00358780  1
  Fe  Fe15  1  0.49913810  0.24952581  0.49978589  1
  Fe  Fe16  1  0.62793530  0.87443209  0.87689684  1
  Fe  Fe17  1  0.12452536  0.12177888  0.87447307  1
  Fe  Fe18  1  0.00035093  0.24998440  0.24950300  1
  Fe  Fe19  1  0.50272773  0.24730716  0.00108980  1
  Fe  Fe20  1  0.50041559  0.00018256  0.75141389  1
  Fe  Fe21  1  0.37668390  0.37605967  0.37313727  1
  Fe  Fe22  1  0.75022043  0.25214645  0.75027896  1
  Fe  Fe23  1  0.37488263  0.12554738  0.37373565  1
  Fe  Fe24  1  0.49954526  0.50288742  0.00198277  1
  Fe  Fe25  1  0.12223403  0.87579119  0.87510003  1
  Fe  Fe26  1  0.50338847  0.74957698  0.00190518  1
  Fe  Fe27  1  0.87190493  0.62571575  0.62459171  1
  Fe  Fe28  1  -0.00401428  0.50393793  -0.00277611  1
  Fe  Fe29  1  0.37662766  0.37460154  0.87710804  1
  Fe  Fe30  1  0.37518430  0.62646207  0.87478687  1
  Fe  Fe31  1  0.37691948  0.87429281  0.62646055  1
  Fe  Fe32  1  0.12404040  0.12175271  0.62615295  1
  Fe  Fe33  1  0.74946475  0.24812822  0.00111815  1
  Fe  Fe34  1  0.50147517  0.50230449  0.74995527  1
  Fe  Fe35  1  0.87372380  0.87211448  0.87416448  1
  Fe  Fe36  1  0.75046410  0.50138982  0.25381885  1
  Fe  Fe37  1  0.86866819  0.87314891  0.12935392  1
  Fe  Fe38  1  0.62987128  0.62762642  0.87256048  1
  Fe  Fe39  1  0.75097188  0.25006936  0.49713817  1
  Fe  Fe40  1  -0.00141609  0.49998210  0.25228555  1
  Fe  Fe41  1  0.25191313  0.50008069  0.24760156  1
  Fe  Fe42  1  0.37475577  0.12433758  0.87509932  1
  Fe  Fe43  1  0.25054002  0.74832943  0.49925739  1
  Fe  Fe44  1  0.25038869  0.24889578  0.50119550  1
  Fe  Fe45  1  0.37652374  0.87446033  0.87467803  1
  Fe  Fe46  1  0.62992728  0.62685565  0.12469073  1
  Fe  Fe47  1  0.50259169  0.00002449  0.00160027  1
  Fe  Fe48  1  0.37741637  0.87286956  0.12546805  1
  Fe  Fe49  1  0.62756076  0.37737359  0.62292020  1
  Fe  Fe50  1  0.62381788  0.37565172  0.37547672  1
  Fe  Fe51  1  0.75209782  -0.00307133  0.74875646  1
  Fe  Fe52  1  0.25008060  0.49929034  0.00200273  1
  Fe  Fe53  1  0.37509292  0.37654325  0.62540250  1
  Fe  Fe54  1  0.24936758  0.75131171  0.75093800  1
  Fe  Fe55  1  0.50185460  0.24820904  0.24849209  1
  Fe  Fe56  1  0.87323546  0.12517184  0.87567130  1
  Fe  Fe57  1  0.24699845  0.75024396  0.25128249  1
  Fe  Fe58  1  0.49808568  0.50374475  0.24665689  1
  Fe  Fe59  1  0.87333220  0.12162440  0.62387348  1
  Fe  Fe60  1  0.74994729  0.75409832  0.49719109  1
  Fe  Fe61  1  0.12399561  0.87703747  0.62544074  1
  Fe  Fe62  1  0.24732081  0.25270347  0.24731446  1
  Fe  Fe63  1  0.62601243  0.12424567  0.62398809  1
  Fe  Fe64  1  0.37975292  0.87087724  0.37350645  1
  Fe  Fe65  1  0.12327829  0.37625669  0.62423412  1
  Fe  Fe66  1  0.25219509  -0.00046008  0.50092540  1
  Fe  Fe67  1  0.50043707  0.24929808  0.74970242  1
  Fe  Fe68  1  0.50204554  0.00066535  0.49590657  1
  Fe  Fe69  1  0.25086723  0.24744113  0.74846478  1
  Fe  Fe70  1  0.87810180  0.62790266  0.37413179  1
  Fe  Fe71  1  0.62315452  0.87399116  0.62347614  1
  Fe  Fe72  1  0.12305944  0.62599316  0.12575884  1
  Fe  Fe73  1  0.25132282  0.50281917  0.49872971  1
  Fe  Fe74  1  0.75420460  0.50216604  -0.00235772  1
  Fe  Fe75  1  0.12369974  0.37678735  0.37656243  1
  Fe  Fe76  1  0.87315858  0.37832219  0.62120992  1
  Fe  Fe77  1  0.62047722  0.62894299  0.37601073  1
  Fe  Fe78  1  0.49846607  0.50360533  0.50137153  1
  Fe  Fe79  1  0.12479590  0.62390912  0.62478458  1
  Fe  Fe80  1  0.62576526  0.37719127  0.12484569  1
  Fe  Fe81  1  0.12560675  0.12192048  0.37370348  1
  Fe  Fe82  1  0.24857676  0.75038789  -0.00129806  1
  Fe  Fe83  1  -0.00104646  0.24971609  0.49845663  1
  Fe  Fe84  1  0.87507633  0.37567355  0.12489050  1
  Fe  Fe85  1  -0.00409832  0.50109433  0.75190316  1
  Fe  Fe86  1  0.62564661  0.37513258  0.87628447  1
  Fe  Fe87  1  0.24919870  -0.00141500  0.00082286  1
  Fe  Fe88  1  0.37361633  0.12518604  0.12556885  1
  Fe  Fe89  1  0.75045294  0.25094992  0.25091393  1
  Co  Co90  1  0.74673847  -0.00258010  0.25563152  1
  Co  Co91  1  0.74892057  0.74842905  0.25408129  1
  Co  Co92  1  0.37824813  0.12311367  0.62443832  1
  Co  Co93  1  0.75171675  -0.00102625  -0.00091725  1
  Co  Co94  1  0.75116023  0.74872388  0.00209716  1
  Co  Co95  1  0.37625359  0.62767638  0.37306687  1
  Co  Co96  1  0.74817929  -0.00463626  0.49858765  1
  Co  Co97  1  0.12508659  0.87261937  0.12218323  1
  Co  Co98  1  -0.00125962  0.50136649  0.49983444  1
  Co  Co99  1  0.87512815  0.37156667  0.87791949  1
  Co  Co100  1  0.62015789  0.87111826  0.37149004  1
  Co  Co101  1  0.12459395  0.62377213  0.37310054  1
  Co  Co102  1  0.75189998  0.49760022  0.75223662  1
  Co  Co103  1  0.12544437  0.87656637  0.37772924  1
  Co  Co104  1  0.12015787  0.37915782  0.12444415  1
  Co  Co105  1  0.74940115  0.50315207  0.49513916  1
  Co  Co106  1  0.62715365  0.12651218  0.37612750  1
  Co  Co107  1  0.50185967  0.74782502  0.24386423  1
  Co  Co108  1  0.87496290  0.37538219  0.37556594  1
  Co  Co109  1  0.87088168  0.63030598  0.87064896  1
  Co  Co110  1  0.62789866  0.12334794  0.87259208  1
  Co  Co111  1  0.37867186  0.37316415  0.12409205  1
  Co  Co112  1  0.50109659  0.74938075  0.75164697  1
  Co  Co113  1  0.37190202  0.62922442  0.12347274  1
  Co  Co114  1  0.12580501  0.12165431  0.12629244  1
  Co  Co115  1  0.87643850  0.87559344  0.37354628  1
  Co  Co116  1  0.37371548  0.62613425  0.62816441  1
  Co  Co117  1  0.25093790  -0.00102661  0.74993835  1
  Co  Co118  1  0.12422326  0.62604687  0.87601079  1
  Co  Co119  1  0.00272543  0.75380409  0.25061341  1
  Co  Co120  1  0.87778142  0.87429429  0.62290972  1
  Co  Co121  1  0.62803964  0.87604110  0.12668965  1
  Co  Co122  1  0.87247174  0.12338338  0.12805075  1
  Co  Co123  1  0.49875760  0.74824318  0.50333294  1
  Co  Co124  1  0.87529591  0.62544043  0.13011830  1
  Co  Co125  1  0.74994169  0.75529209  0.74647642  1
  Co  Co126  1  0.50039063  0.00150542  0.25005688  1
  Co  Co127  1  -0.00286513  -0.00070692  0.75150471  1
