# generated using pymatgen
data_Fe45Co19
_symmetry_space_group_name_H-M   'P 1'
_cell_length_a   11.41522323
_cell_length_b   11.41520539
_cell_length_c   11.41507495
_cell_angle_alpha   89.99472570
_cell_angle_beta   89.99197037
_cell_angle_gamma   90.00456922
_symmetry_Int_Tables_number   1
_chemical_formula_structural   Fe45Co19
_chemical_formula_sum   'Fe90 Co38'
_cell_volume   1487.46549008
_cell_formula_units_Z   2
loop_
 _symmetry_equiv_pos_site_id
 _symmetry_equiv_pos_as_xyz
  1  'x, y, z'
loop_
 _atom_site_type_symbol
 _atom_site_label
 _atom_site_symmetry_multiplicity
 _atom_site_fract_x
 _atom_site_fract_y
 _atom_site_fract_z
 _atom_site_occupancy
  Fe  Fe0  1  0.74937563  0.24852380  0.50034171  1
  Fe  Fe1  1  -0.00114205  -0.00189382  0.25130277  1
  Fe  Fe2  1  0.74949540  0.00237170  0.50054037  1
  Fe  Fe3  1  0.87510720  0.87458466  0.87537544  1
  Fe  Fe4  1  0.74997220  0.49929718  0.25016115  1
  Fe  Fe5  1  -0.00076287  0.00022835  -0.00020511  1
  Fe  Fe6  1  0.49906224  0.25273020  0.24851289  1
  Fe  Fe7  1  0.62425581  0.87333510  0.62283954  1
  Fe  Fe8  1  -0.00028053  0.25056934  0.00003693  1
  Fe  Fe9  1  0.24681187  0.25352907  0.74733564  1
  Fe  Fe10  1  0.75044494  0.00043584  0.00057540  1
  Fe  Fe11  1  0.62470355  0.37512254  0.12167249  1
  Fe  Fe12  1  0.87402228  0.12604326  0.87201791  1
  Fe  Fe13  1  0.75085562  0.49986173  0.74968326  1
  Fe  Fe14  1  0.12543333  0.62416614  0.87101957  1
  Fe  Fe15  1  0.25022555  0.50159175  0.50013712  1
  Fe  Fe16  1  0.37628034  0.12475619  0.62523825  1
  Fe  Fe17  1  0.37581654  0.12496109  0.12492987  1
  Fe  Fe18  1  0.75038324  0.74734679  -0.00009072  1
  Fe  Fe19  1  -0.00115151  0.25184176  0.25195879  1
  Fe  Fe20  1  0.37627442  0.87318515  0.87661910  1
  Fe  Fe21  1  0.75283574  0.75010702  0.74767004  1
  Fe  Fe22  1  0.37718536  0.37650283  0.37599150  1
  Fe  Fe23  1  0.62434580  0.87242887  0.87550158  1
  Fe  Fe24  1  0.87354942  0.37763831  0.87855064  1
  Fe  Fe25  1  0.62652847  0.12711183  0.12594201  1
  Fe  Fe26  1  0.24977642  0.25205527  0.00280025  1
  Fe  Fe27  1  0.62647002  0.12569067  0.37256820  1
  Fe  Fe28  1  0.62416755  0.87206294  0.12403828  1
  Fe  Fe29  1  0.62297523  0.62579292  0.12533182  1
  Fe  Fe30  1  0.50233954  0.25250404  0.75065967  1
  Fe  Fe31  1  0.62379946  0.37704362  0.37632585  1
  Fe  Fe32  1  0.75117544  0.74647530  0.50198692  1
  Fe  Fe33  1  0.37454505  0.87216253  0.61941852  1
  Fe  Fe34  1  0.12591119  0.12388259  0.37455673  1
  Fe  Fe35  1  0.87425140  0.12558857  0.62641287  1
  Fe  Fe36  1  0.37309495  0.62382503  0.87218513  1
  Fe  Fe37  1  0.87510186  0.62534255  0.37314563  1
  Fe  Fe38  1  0.50080966  -0.00042464  0.74828126  1
  Fe  Fe39  1  0.37426562  0.12642787  0.87403444  1
  Fe  Fe40  1  0.50123370  0.24782992  0.50096501  1
  Fe  Fe41  1  0.24570438  0.75246690  0.25214591  1
  Fe  Fe42  1  0.37513477  0.62567565  0.12583412  1
  Fe  Fe43  1  0.12466011  0.12494094  0.12612501  1
  Fe  Fe44  1  0.25114969  0.49703785  0.24918617  1
  Fe  Fe45  1  0.12636036  0.87513738  0.62236044  1
  Fe  Fe46  1  0.87501887  0.37808556  0.62224692  1
  Fe  Fe47  1  0.87244176  0.12609804  0.12903834  1
  Fe  Fe48  1  0.00306649  0.74708440  0.49844865  1
  Fe  Fe49  1  0.50069617  0.50028898  -0.00214797  1
  Fe  Fe50  1  0.24826075  0.75145333  0.00002956  1
  Fe  Fe51  1  0.50004842  0.50520736  0.50362918  1
  Fe  Fe52  1  0.50003454  0.00015679  0.00010009  1
  Fe  Fe53  1  0.24882185  0.24859608  0.50136213  1
  Fe  Fe54  1  0.62729172  0.12871455  0.87419646  1
  Fe  Fe55  1  0.37335942  0.87396262  0.37951755  1
  Fe  Fe56  1  0.12538381  0.12587576  0.87350433  1
  Fe  Fe57  1  0.49964114  0.75007976  0.25163747  1
  Fe  Fe58  1  0.24981775  -0.00255529  0.74926474  1
  Fe  Fe59  1  0.00147144  0.24820384  0.50053525  1
  Fe  Fe60  1  0.62452961  0.62507576  0.87214145  1
  Fe  Fe61  1  0.37543802  0.37515114  0.87623256  1
  Fe  Fe62  1  0.62616095  0.87355217  0.37672101  1
  Fe  Fe63  1  0.12552141  0.37619415  0.37518625  1
  Fe  Fe64  1  0.49738524  0.74709528  0.74643135  1
  Fe  Fe65  1  0.87681093  0.62361176  0.87364873  1
  Fe  Fe66  1  0.87545093  0.37764395  0.12281269  1
  Fe  Fe67  1  0.37463779  0.62506211  0.37503707  1
  Fe  Fe68  1  0.25150611  0.25279517  0.24915199  1
  Fe  Fe69  1  0.24631065  0.49827384  0.00091459  1
  Fe  Fe70  1  0.25015654  -0.00264414  0.24945192  1
  Fe  Fe71  1  0.62610356  0.37707157  0.62483327  1
  Fe  Fe72  1  0.00156417  0.74930739  -0.00028017  1
  Fe  Fe73  1  0.37565132  0.12475156  0.37546136  1
  Fe  Fe74  1  0.12694245  0.62204398  0.62874818  1
  Fe  Fe75  1  0.00086978  -0.00226275  0.74941706  1
  Fe  Fe76  1  0.87767488  0.62466175  0.12717948  1
  Fe  Fe77  1  -0.00025994  0.75136558  0.74833069  1
  Fe  Fe78  1  0.37542875  0.37686321  0.62426266  1
  Fe  Fe79  1  0.49976272  -0.00247503  0.25076916  1
  Fe  Fe80  1  0.12215249  0.62340630  0.12943357  1
  Fe  Fe81  1  0.62545377  0.62424900  0.37493610  1
  Fe  Fe82  1  0.74978881  -0.00129937  0.74855979  1
  Fe  Fe83  1  0.87382766  0.37546067  0.37753970  1
  Fe  Fe84  1  -0.00056350  0.00275062  0.50016574  1
  Fe  Fe85  1  0.00054961  0.50229556  0.49879468  1
  Fe  Fe86  1  0.00111743  0.25486006  0.74847258  1
  Fe  Fe87  1  0.87517445  0.87184493  0.12630519  1
  Fe  Fe88  1  0.24970193  -0.00238151  0.00006636  1
  Fe  Fe89  1  0.87405690  0.87396715  0.37547537  1
  Co  Co90  1  0.75011657  0.25479491  0.25054644  1
  Co  Co91  1  0.12426651  0.37878329  0.62089061  1
  Co  Co92  1  0.50048368  0.74522682  0.50059861  1
  Co  Co93  1  0.25089150  0.00376931  0.50183597  1
  Co  Co94  1  0.37712835  0.37725588  0.12354569  1
  Co  Co95  1  0.87292237  0.12526992  0.37371258  1
  Co  Co96  1  0.12308049  0.87538849  0.12411403  1
  Co  Co97  1  -0.00327425  0.49701783  0.25218905  1
  Co  Co98  1  0.74927790  0.74825731  0.24982110  1
  Co  Co99  1  0.75189720  0.25337322  0.74865283  1
  Co  Co100  1  0.12386801  0.12440452  0.62762898  1
  Co  Co101  1  0.12482216  0.61955008  0.37068242  1
  Co  Co102  1  0.24985363  0.49494361  0.75051067  1
  Co  Co103  1  0.87547252  0.87487230  0.62228958  1
  Co  Co104  1  0.50072737  0.50045567  0.24963850  1
  Co  Co105  1  0.00274635  0.75192639  0.25407020  1
  Co  Co106  1  0.00017291  0.49657686  0.75122129  1
  Co  Co107  1  0.49868127  0.74744244  -0.00127022  1
  Co  Co108  1  0.25078215  0.75354262  0.75028854  1
  Co  Co109  1  0.62786751  0.62470642  0.62719217  1
  Co  Co110  1  0.74967220  -0.00236697  0.24920233  1
  Co  Co111  1  0.37563017  0.87239330  0.12454717  1
  Co  Co112  1  0.75004864  0.50255297  0.49898349  1
  Co  Co113  1  0.50104610  0.00187231  0.49934255  1
  Co  Co114  1  0.12495536  0.37362479  0.87727786  1
  Co  Co115  1  0.24520909  0.74544782  0.49731973  1
  Co  Co116  1  0.49973995  0.49954720  0.74934919  1
  Co  Co117  1  0.12236784  0.37525365  0.12675241  1
  Co  Co118  1  0.49923787  0.24953886  -0.00045133  1
  Co  Co119  1  0.62582886  0.12567195  0.62690510  1
  Co  Co120  1  0.87698787  0.62282664  0.62559286  1
  Co  Co121  1  0.12323523  0.87496890  0.87584425  1
  Co  Co122  1  0.75291569  0.24860729  0.00058338  1
  Co  Co123  1  0.36967560  0.62540491  0.62660248  1
  Co  Co124  1  0.62738580  0.37436528  0.87670209  1
  Co  Co125  1  0.00322087  0.50151924  -0.00108399  1
  Co  Co126  1  0.74903063  0.50436528  0.00045154  1
  Co  Co127  1  0.12521406  0.87941047  0.37833645  1
