# generated using pymatgen
data_Fe45Co19
_symmetry_space_group_name_H-M   'P 1'
_cell_length_a   11.41399125
_cell_length_b   11.41570805
_cell_length_c   11.41362106
_cell_angle_alpha   89.99438217
_cell_angle_beta   90.00128331
_cell_angle_gamma   89.99704514
_symmetry_Int_Tables_number   1
_chemical_formula_structural   Fe45Co19
_chemical_formula_sum   'Fe90 Co38'
_cell_volume   1487.18102520
_cell_formula_units_Z   2
loop_
 _symmetry_equiv_pos_site_id
 _symmetry_equiv_pos_as_xyz
  1  'x, y, z'
loop_
 _atom_site_type_symbol
 _atom_site_label
 _atom_site_symmetry_multiplicity
 _atom_site_fract_x
 _atom_site_fract_y
 _atom_site_fract_z
 _atom_site_occupancy
  Fe  Fe0  1  0.87436062  0.12467082  0.12325415  1
  Fe  Fe1  1  0.74697229  0.50075658  0.75289139  1
  Fe  Fe2  1  0.74659447  0.74874802  0.75294976  1
  Fe  Fe3  1  0.49765059  0.24410428  0.24701136  1
  Fe  Fe4  1  0.74626847  -0.00108897  0.24711447  1
  Fe  Fe5  1  0.75246786  0.25333978  -0.00178711  1
  Fe  Fe6  1  -0.00130857  0.24740981  0.25120471  1
  Fe  Fe7  1  0.37539845  0.87266656  0.62562815  1
  Fe  Fe8  1  0.49992040  0.50057929  0.49907968  1
  Fe  Fe9  1  0.74705744  0.50059501  0.24882818  1
  Fe  Fe10  1  0.62406531  0.37204712  0.12532894  1
  Fe  Fe11  1  0.62666165  0.12679888  0.37684556  1
  Fe  Fe12  1  0.24934018  0.49943726  0.74912206  1
  Fe  Fe13  1  0.62495320  0.62562469  0.62352653  1
  Fe  Fe14  1  0.62633953  0.62611987  0.11979280  1
  Fe  Fe15  1  0.75024319  -0.00473701  0.00302974  1
  Fe  Fe16  1  0.25118607  0.49867868  0.49890665  1
  Fe  Fe17  1  0.62672495  0.37214451  0.62489058  1
  Fe  Fe18  1  0.87383480  0.62442065  0.62621952  1
  Fe  Fe19  1  0.37446711  0.62134402  0.87421028  1
  Fe  Fe20  1  0.25038838  0.24805245  0.24946273  1
  Fe  Fe21  1  0.87299376  0.87359115  0.62728534  1
  Fe  Fe22  1  0.12620477  0.12635276  0.62289254  1
  Fe  Fe23  1  0.00250388  0.49930265  0.00269761  1
  Fe  Fe24  1  0.75383663  0.25039461  0.25345245  1
  Fe  Fe25  1  0.49931326  0.25002969  0.49992299  1
  Fe  Fe26  1  0.37623981  0.37620448  0.62738807  1
  Fe  Fe27  1  0.86855763  0.12734659  0.62694155  1
  Fe  Fe28  1  0.50010207  0.74619978  0.75006778  1
  Fe  Fe29  1  0.12384581  0.37564679  0.37365945  1
  Fe  Fe30  1  0.62363909  0.37420244  0.37307960  1
  Fe  Fe31  1  0.50003236  0.00312983  0.00463438  1
  Fe  Fe32  1  0.25477690  0.75216727  0.00062498  1
  Fe  Fe33  1  0.37619056  0.37719937  0.36812017  1
  Fe  Fe34  1  0.87416319  0.37459991  0.62729310  1
  Fe  Fe35  1  0.25359765  0.25517676  0.00089491  1
  Fe  Fe36  1  -0.00045198  0.75022773  0.49907681  1
  Fe  Fe37  1  0.12584219  0.12435262  0.87845067  1
  Fe  Fe38  1  0.37517815  0.62201317  0.36980225  1
  Fe  Fe39  1  0.12639273  0.87577280  0.12461984  1
  Fe  Fe40  1  0.12756425  0.12439867  0.12032949  1
  Fe  Fe41  1  0.87357079  0.12304349  0.87531555  1
  Fe  Fe42  1  0.37493140  0.12502893  0.62426872  1
  Fe  Fe43  1  0.49703843  0.74865440  0.00269212  1
  Fe  Fe44  1  0.37417943  0.12453506  0.87594549  1
  Fe  Fe45  1  0.12514076  0.12491087  0.37792947  1
  Fe  Fe46  1  0.87417509  0.87543202  0.87367718  1
  Fe  Fe47  1  0.12689944  0.87347347  0.62490967  1
  Fe  Fe48  1  0.00213507  0.74861343  0.25076487  1
  Fe  Fe49  1  0.87356632  0.62606684  0.12306224  1
  Fe  Fe50  1  0.00046986  0.25016694  0.75087603  1
  Fe  Fe51  1  -0.00148986  -0.00037989  0.50175934  1
  Fe  Fe52  1  0.12728638  0.62516202  0.87831437  1
  Fe  Fe53  1  0.00023211  0.00124922  0.74938690  1
  Fe  Fe54  1  0.12733813  0.62552658  0.62463595  1
  Fe  Fe55  1  -0.00209751  0.75275863  0.00093672  1
  Fe  Fe56  1  0.50080460  0.24912104  0.75053752  1
  Fe  Fe57  1  0.24777238  0.74858244  0.25172411  1
  Fe  Fe58  1  0.62037013  0.87409508  0.37177957  1
  Fe  Fe59  1  0.87584852  0.87711079  0.37247255  1
  Fe  Fe60  1  0.25153937  0.25298368  0.49959670  1
  Fe  Fe61  1  0.74719643  0.74984318  0.24837981  1
  Fe  Fe62  1  0.62310967  0.87387807  0.87709751  1
  Fe  Fe63  1  0.25276029  -0.00282293  0.49575697  1
  Fe  Fe64  1  0.62105678  0.37733805  0.87672072  1
  Fe  Fe65  1  0.12478418  0.87501454  0.87512220  1
  Fe  Fe66  1  0.49799356  0.74754004  0.49761953  1
  Fe  Fe67  1  0.62720696  0.12446311  0.87624867  1
  Fe  Fe68  1  0.00113045  0.74778598  0.75039478  1
  Fe  Fe69  1  0.74678284  -0.00142746  0.50276987  1
  Fe  Fe70  1  0.00540573  0.50331675  0.24696495  1
  Fe  Fe71  1  0.37767224  0.87676507  0.87294133  1
  Fe  Fe72  1  0.12480674  0.37595841  0.87570639  1
  Fe  Fe73  1  0.49571332  0.49886785  0.00381057  1
  Fe  Fe74  1  0.87706687  0.37556335  0.12637188  1
  Fe  Fe75  1  0.00291497  0.00096323  0.24825046  1
  Fe  Fe76  1  0.75009669  0.75102332  0.49778419  1
  Fe  Fe77  1  0.50371517  0.00161287  0.74657270  1
  Fe  Fe78  1  0.87750669  0.37817777  0.87508856  1
  Fe  Fe79  1  0.74960390  0.49807266  0.49780718  1
  Fe  Fe80  1  0.87484463  0.62337464  0.37379332  1
  Fe  Fe81  1  0.87331495  0.62399663  0.87803799  1
  Fe  Fe82  1  0.37774321  0.87837268  0.13220774  1
  Fe  Fe83  1  0.50012741  0.00045960  0.49958066  1
  Fe  Fe84  1  0.25000781  -0.00061054  0.75053717  1
  Fe  Fe85  1  0.25183449  0.75058854  0.49633235  1
  Fe  Fe86  1  0.00056228  0.49956286  0.50183557  1
  Fe  Fe87  1  0.25020048  0.25061395  0.74936938  1
  Fe  Fe88  1  0.49636540  0.24936025  0.00208342  1
  Fe  Fe89  1  -0.00498970  0.25062508  0.49768829  1
  Co  Co90  1  0.63011476  0.12884268  0.12277498  1
  Co  Co91  1  0.12227835  0.87578979  0.37555014  1
  Co  Co92  1  0.37597827  0.37730695  0.13155413  1
  Co  Co93  1  0.61926899  0.87433175  0.12596398  1
  Co  Co94  1  0.25169368  -0.00443629  -0.00137862  1
  Co  Co95  1  0.12434055  0.62380313  0.37855026  1
  Co  Co96  1  -0.00126419  0.25072468  -0.00088074  1
  Co  Co97  1  0.50311841  0.74347847  0.24859454  1
  Co  Co98  1  0.12686209  0.62937387  0.11915357  1
  Co  Co99  1  0.50577735  0.50340514  0.24821094  1
  Co  Co100  1  0.75005148  0.75436659  0.00138372  1
  Co  Co101  1  0.37328934  0.62483717  0.62532646  1
  Co  Co102  1  0.87848568  0.38165009  0.37164767  1
  Co  Co103  1  0.36943960  0.12233012  0.12265306  1
  Co  Co104  1  0.74955815  0.49663691  0.00121421  1
  Co  Co105  1  0.87373481  0.11813051  0.37412214  1
  Co  Co106  1  0.25135726  0.49676385  0.00287420  1
  Co  Co107  1  0.62312735  0.62449633  0.88041970  1
  Co  Co108  1  0.75459168  0.25282460  0.49391707  1
  Co  Co109  1  0.25067617  0.75006358  0.75226372  1
  Co  Co110  1  0.50096978  0.00853448  0.24931229  1
  Co  Co111  1  0.50224999  0.50166592  0.74750586  1
  Co  Co112  1  0.12411838  0.37140619  0.12586788  1
  Co  Co113  1  0.24396446  0.50205356  0.24687976  1
  Co  Co114  1  0.37318164  0.62297659  0.12872080  1
  Co  Co115  1  -0.00124554  -0.00200156  0.00052492  1
  Co  Co116  1  0.37605965  0.37691250  0.87255860  1
  Co  Co117  1  0.24916018  0.00159382  0.25377673  1
  Co  Co118  1  0.62804735  0.13037769  0.62389624  1
  Co  Co119  1  0.37975464  0.87377494  0.36875031  1
  Co  Co120  1  0.74872675  0.25364824  0.75556354  1
  Co  Co121  1  0.12418899  0.37430521  0.62414586  1
  Co  Co122  1  0.74624901  -0.00257270  0.74873288  1
  Co  Co123  1  0.00154017  0.50180873  0.75011605  1
  Co  Co124  1  0.62658723  0.62516174  0.37715313  1
  Co  Co125  1  0.37459671  0.12669386  0.37706081  1
  Co  Co126  1  0.87666261  0.87421126  0.12881852  1
  Co  Co127  1  0.62235382  0.87029566  0.62449733  1
