# generated using pymatgen
data_Fe45Co19
_symmetry_space_group_name_H-M   'P 1'
_cell_length_a   11.41412000
_cell_length_b   11.41388967
_cell_length_c   11.41486773
_cell_angle_alpha   90.00475909
_cell_angle_beta   90.00676291
_cell_angle_gamma   90.00184209
_symmetry_Int_Tables_number   1
_chemical_formula_structural   Fe45Co19
_chemical_formula_sum   'Fe90 Co38'
_cell_volume   1487.12331646
_cell_formula_units_Z   2
loop_
 _symmetry_equiv_pos_site_id
 _symmetry_equiv_pos_as_xyz
  1  'x, y, z'
loop_
 _atom_site_type_symbol
 _atom_site_label
 _atom_site_symmetry_multiplicity
 _atom_site_fract_x
 _atom_site_fract_y
 _atom_site_fract_z
 _atom_site_occupancy
  Fe  Fe0  1  0.75096964  0.24980436  0.24920713  1
  Fe  Fe1  1  0.49831610  0.00106896  0.25188015  1
  Fe  Fe2  1  0.50112285  0.25316434  0.00035268  1
  Fe  Fe3  1  0.62494818  0.62310137  0.87622863  1
  Fe  Fe4  1  0.87575619  0.62415481  0.37861529  1
  Fe  Fe5  1  0.37617043  0.12769443  0.12569201  1
  Fe  Fe6  1  0.24979586  0.74615353  0.00097703  1
  Fe  Fe7  1  0.00183356  0.00129169  0.75074822  1
  Fe  Fe8  1  0.25114135  0.74624230  0.74898202  1
  Fe  Fe9  1  0.62659659  0.87563731  0.12738176  1
  Fe  Fe10  1  0.74902643  0.75095818  0.50027932  1
  Fe  Fe11  1  0.49933091  0.00330984  0.75220457  1
  Fe  Fe12  1  0.37811943  0.62393638  0.37852370  1
  Fe  Fe13  1  0.00043512  0.25076287  0.75065499  1
  Fe  Fe14  1  0.49708054  0.74662883  0.74822410  1
  Fe  Fe15  1  0.87604030  0.87785916  0.62434853  1
  Fe  Fe16  1  0.25011631  0.00353163  0.24930155  1
  Fe  Fe17  1  0.37333408  0.87349063  0.87458790  1
  Fe  Fe18  1  -0.00106526  -0.00335305  -0.00043850  1
  Fe  Fe19  1  0.24772231  0.49596958  0.49496662  1
  Fe  Fe20  1  0.87633603  0.62252334  0.62286101  1
  Fe  Fe21  1  0.37398612  0.37506464  0.62596088  1
  Fe  Fe22  1  0.00046503  0.49990766  0.74907327  1
  Fe  Fe23  1  0.62578195  0.37315417  0.62841110  1
  Fe  Fe24  1  0.00170621  0.25210780  0.49997720  1
  Fe  Fe25  1  0.75090737  0.74740873  0.74871421  1
  Fe  Fe26  1  0.62001674  0.62249329  0.62053632  1
  Fe  Fe27  1  0.49931304  0.75025544  -0.00019907  1
  Fe  Fe28  1  0.75067360  0.49638116  0.50184547  1
  Fe  Fe29  1  0.12724708  0.37727100  0.87487005  1
  Fe  Fe30  1  0.00097876  0.25475528  0.00375794  1
  Fe  Fe31  1  0.37588561  0.87530455  0.62373925  1
  Fe  Fe32  1  0.87524465  0.12460196  0.12427826  1
  Fe  Fe33  1  0.75150988  0.50113938  0.24928431  1
  Fe  Fe34  1  0.74923203  0.00338009  0.75124622  1
  Fe  Fe35  1  0.25193840  0.75016276  0.50025433  1
  Fe  Fe36  1  0.12467747  0.37407229  0.62434505  1
  Fe  Fe37  1  0.12615786  0.62306416  0.62179127  1
  Fe  Fe38  1  0.62624017  0.12338251  0.12489926  1
  Fe  Fe39  1  0.62698616  0.37466162  0.87105345  1
  Fe  Fe40  1  0.24661999  0.25095089  0.00695776  1
  Fe  Fe41  1  0.75130613  -0.00261516  -0.00037087  1
  Fe  Fe42  1  0.37243612  0.37591392  0.87758350  1
  Fe  Fe43  1  0.87802839  0.62096099  0.12129496  1
  Fe  Fe44  1  -0.00093197  0.00021489  0.25297663  1
  Fe  Fe45  1  0.62473108  0.12686754  0.37470056  1
  Fe  Fe46  1  0.12290819  0.37984365  0.13367101  1
  Fe  Fe47  1  0.24945836  0.24861933  0.74896372  1
  Fe  Fe48  1  0.87589259  0.62108639  0.87707536  1
  Fe  Fe49  1  0.37344982  0.12781171  0.87805717  1
  Fe  Fe50  1  0.12633278  0.87310304  0.37443098  1
  Fe  Fe51  1  0.12576383  0.12574515  0.87820060  1
  Fe  Fe52  1  0.75090694  0.25265782  0.50040256  1
  Fe  Fe53  1  0.37559950  0.12816178  0.62226065  1
  Fe  Fe54  1  0.62316870  0.37725055  0.12911755  1
  Fe  Fe55  1  0.87196463  0.37736088  0.87379149  1
  Fe  Fe56  1  0.24985574  0.00263627  0.49914770  1
  Fe  Fe57  1  0.49829534  -0.00090978  -0.00034378  1
  Fe  Fe58  1  -0.00012408  0.75181177  -0.00168892  1
  Fe  Fe59  1  -0.00003801  0.75131123  0.50016294  1
  Fe  Fe60  1  0.49917724  0.25479706  0.49625399  1
  Fe  Fe61  1  0.24964178  0.74335279  0.24947685  1
  Fe  Fe62  1  0.62376538  0.87471477  0.62578677  1
  Fe  Fe63  1  0.62155500  0.62246894  0.12479055  1
  Fe  Fe64  1  0.49975391  0.74967700  0.25331400  1
  Fe  Fe65  1  0.87809713  0.37566607  0.37254054  1
  Fe  Fe66  1  0.12723143  0.13018187  0.37545346  1
  Fe  Fe67  1  0.37081719  0.37065938  0.36626300  1
  Fe  Fe68  1  0.00090764  0.74900470  0.75053306  1
  Fe  Fe69  1  0.25042300  0.50274960  0.00567186  1
  Fe  Fe70  1  0.75221087  0.74826531  0.24942663  1
  Fe  Fe71  1  0.49747396  0.50080635  0.75087458  1
  Fe  Fe72  1  0.37340569  0.87310942  0.12746000  1
  Fe  Fe73  1  0.12759090  0.87533359  0.87537072  1
  Fe  Fe74  1  0.25108039  0.50337107  0.74975808  1
  Fe  Fe75  1  0.62590537  0.87477250  0.87383604  1
  Fe  Fe76  1  0.62323776  0.62122839  0.37756426  1
  Fe  Fe77  1  0.25013808  0.00279742  0.74963934  1
  Fe  Fe78  1  0.12487427  0.87695808  0.62405963  1
  Fe  Fe79  1  0.74931765  0.25346107  0.00135605  1
  Fe  Fe80  1  0.49832233  -0.00140030  0.49599558  1
  Fe  Fe81  1  0.62786724  0.87530581  0.37301879  1
  Fe  Fe82  1  0.12597120  0.87523492  0.12523582  1
  Fe  Fe83  1  0.74959911  -0.00057018  0.49903717  1
  Fe  Fe84  1  -0.00084162  0.74817103  0.25078465  1
  Fe  Fe85  1  0.87728637  0.12495207  0.62369094  1
  Fe  Fe86  1  0.87441933  0.12522145  0.37573909  1
  Fe  Fe87  1  0.62246522  0.12853717  0.62491124  1
  Fe  Fe88  1  0.75183579  0.75052593  0.00075110  1
  Fe  Fe89  1  0.87534904  0.12704796  0.87764606  1
  Co  Co90  1  0.12475387  0.12708721  0.62432437  1
  Co  Co91  1  0.62835477  0.37577822  0.37150749  1
  Co  Co92  1  0.24683532  0.24655902  0.24349626  1
  Co  Co93  1  0.50021204  0.75431505  0.49746688  1
  Co  Co94  1  0.50054945  0.49702837  -0.00154387  1
  Co  Co95  1  0.00067726  0.50527957  0.25380721  1
  Co  Co96  1  0.37099867  0.87466787  0.37293647  1
  Co  Co97  1  0.49896143  0.49146065  0.49743895  1
  Co  Co98  1  0.87356137  0.87436652  0.87162753  1
  Co  Co99  1  0.00278995  0.00086871  0.49623272  1
  Co  Co100  1  0.74727735  0.49781614  0.00185415  1
  Co  Co101  1  0.75211591  0.00073484  0.25104511  1
  Co  Co102  1  0.37385637  0.12989691  0.37458964  1
  Co  Co103  1  0.24968673  0.25325616  0.50058131  1
  Co  Co104  1  0.50291508  0.24884293  0.24938905  1
  Co  Co105  1  0.00197730  0.49723759  0.49949766  1
  Co  Co106  1  0.12372428  0.62615645  0.37845500  1
  Co  Co107  1  0.75240018  0.24650486  0.74956796  1
  Co  Co108  1  0.87451403  0.87367688  0.37576894  1
  Co  Co109  1  0.25255861  0.00068877  0.00128683  1
  Co  Co110  1  0.74971167  0.50272322  0.74692691  1
  Co  Co111  1  0.87582523  0.37439142  0.62642738  1
  Co  Co112  1  0.12004845  0.62426112  0.12264542  1
  Co  Co113  1  0.00202286  0.49457131  -0.00038005  1
  Co  Co114  1  -0.00054135  0.24662475  0.24771794  1
  Co  Co115  1  0.37598281  0.62251377  0.61818629  1
  Co  Co116  1  0.12442085  0.62295146  0.87586574  1
  Co  Co117  1  0.62543469  0.12600922  0.87709347  1
  Co  Co118  1  0.38038078  0.62415403  0.12475462  1
  Co  Co119  1  0.87641227  0.37774216  0.12875052  1
  Co  Co120  1  0.37427845  0.62372687  0.87784063  1
  Co  Co121  1  0.87568353  0.87501918  0.12776395  1
  Co  Co122  1  0.49681279  0.25022382  0.75228349  1
  Co  Co123  1  0.24991299  0.50674788  0.25041179  1
  Co  Co124  1  0.12110332  0.12079594  0.12305256  1
  Co  Co125  1  0.49832065  0.49943358  0.25233775  1
  Co  Co126  1  0.12369424  0.37259046  0.36875580  1
  Co  Co127  1  0.37519799  0.37561396  0.12818728  1
