# generated using pymatgen
data_Fe45Co19
_symmetry_space_group_name_H-M   'P 1'
_cell_length_a   11.41585042
_cell_length_b   11.41562911
_cell_length_c   11.41529222
_cell_angle_alpha   90.00183582
_cell_angle_beta   89.99051962
_cell_angle_gamma   90.00509223
_symmetry_Int_Tables_number   1
_chemical_formula_structural   Fe45Co19
_chemical_formula_sum   'Fe90 Co38'
_cell_volume   1487.63074410
_cell_formula_units_Z   2
loop_
 _symmetry_equiv_pos_site_id
 _symmetry_equiv_pos_as_xyz
  1  'x, y, z'
loop_
 _atom_site_type_symbol
 _atom_site_label
 _atom_site_symmetry_multiplicity
 _atom_site_fract_x
 _atom_site_fract_y
 _atom_site_fract_z
 _atom_site_occupancy
  Fe  Fe0  1  0.74751370  0.49962087  0.49672481  1
  Fe  Fe1  1  0.50212309  -0.00035979  0.00130811  1
  Fe  Fe2  1  0.12401384  0.62460177  0.87216679  1
  Fe  Fe3  1  -0.00168165  0.75094942  0.50130994  1
  Fe  Fe4  1  0.12656705  0.62590147  0.62588087  1
  Fe  Fe5  1  0.87265322  0.62378189  0.62391336  1
  Fe  Fe6  1  0.62314236  0.87599596  0.62391221  1
  Fe  Fe7  1  0.62340728  0.62708846  0.36885944  1
  Fe  Fe8  1  0.12310828  0.12475609  0.37509022  1
  Fe  Fe9  1  0.37801635  0.12351344  0.37217684  1
  Fe  Fe10  1  -0.00229900  0.24522642  0.24854765  1
  Fe  Fe11  1  0.87242241  0.12435823  0.62557610  1
  Fe  Fe12  1  0.37344893  0.62214535  0.87686167  1
  Fe  Fe13  1  0.50101222  0.24599351  0.50049133  1
  Fe  Fe14  1  -0.00114270  0.49893455  0.24809617  1
  Fe  Fe15  1  0.25047264  0.49994973  0.49908656  1
  Fe  Fe16  1  0.61947849  0.87350418  0.37504135  1
  Fe  Fe17  1  0.12339207  0.37467791  0.37479919  1
  Fe  Fe18  1  0.37478324  0.37799629  0.87950517  1
  Fe  Fe19  1  0.87014301  0.62526145  0.12649765  1
  Fe  Fe20  1  0.12831508  0.87490339  0.62629893  1
  Fe  Fe21  1  0.74831794  -0.00193948  0.75107675  1
  Fe  Fe22  1  0.62874293  0.87202939  0.12519768  1
  Fe  Fe23  1  0.00078379  0.24369464  0.00162160  1
  Fe  Fe24  1  0.62568792  0.37361703  0.62601346  1
  Fe  Fe25  1  0.25133414  0.49900783  0.24799929  1
  Fe  Fe26  1  0.24542063  0.00328674  -0.00327349  1
  Fe  Fe27  1  0.00151835  0.00094199  0.50443389  1
  Fe  Fe28  1  0.24786608  0.75037819  -0.00412420  1
  Fe  Fe29  1  -0.00051619  0.75385335  0.25002608  1
  Fe  Fe30  1  0.37826349  0.37437762  0.37387014  1
  Fe  Fe31  1  0.12658458  0.62791150  0.12548391  1
  Fe  Fe32  1  0.62462881  0.37567556  0.87778213  1
  Fe  Fe33  1  0.24984589  0.75415818  0.25292617  1
  Fe  Fe34  1  0.74503967  0.00345562  0.49709291  1
  Fe  Fe35  1  0.74908635  0.75016924  0.49654594  1
  Fe  Fe36  1  0.62248227  0.12445684  0.87333421  1
  Fe  Fe37  1  0.37742786  0.87729121  0.87613202  1
  Fe  Fe38  1  0.37564451  0.37577535  0.62439750  1
  Fe  Fe39  1  0.62142689  0.37287631  0.37237750  1
  Fe  Fe40  1  0.87824782  0.12211231  0.87547373  1
  Fe  Fe41  1  0.62749964  0.12579702  0.12684427  1
  Fe  Fe42  1  0.25277027  0.75131519  0.49796467  1
  Fe  Fe43  1  0.50121540  0.74782875  0.00365521  1
  Fe  Fe44  1  0.87602747  0.37390153  0.87811142  1
  Fe  Fe45  1  0.87518425  0.88092838  0.12626956  1
  Fe  Fe46  1  0.37444824  0.62539367  0.62752708  1
  Fe  Fe47  1  0.49770906  0.24943714  0.75148862  1
  Fe  Fe48  1  0.62896412  0.37500015  0.12347565  1
  Fe  Fe49  1  0.87827420  0.88123247  0.37519374  1
  Fe  Fe50  1  0.12629131  0.12589351  0.63190595  1
  Fe  Fe51  1  0.50118585  0.50204734  0.49995823  1
  Fe  Fe52  1  0.24841412  0.24625550  -0.00413799  1
  Fe  Fe53  1  -0.00208425  0.75365290  0.74673794  1
  Fe  Fe54  1  0.87671060  0.87730262  0.87647205  1
  Fe  Fe55  1  0.50053317  0.75113542  0.75172659  1
  Fe  Fe56  1  0.37756780  0.62688420  0.37232489  1
  Fe  Fe57  1  0.24587953  -0.00304308  0.25188670  1
  Fe  Fe58  1  0.12718073  0.37320964  0.62685635  1
  Fe  Fe59  1  0.74818256  0.24703553  0.49782804  1
  Fe  Fe60  1  0.75087324  0.49851870  0.75221918  1
  Fe  Fe61  1  0.87724693  0.37491619  0.37771207  1
  Fe  Fe62  1  -0.00197501  0.75106200  0.00164002  1
  Fe  Fe63  1  0.87491223  0.62603871  0.87475861  1
  Fe  Fe64  1  0.62728769  0.62639021  0.87972285  1
  Fe  Fe65  1  0.75194838  0.25044578  0.75204057  1
  Fe  Fe66  1  0.37320107  0.12453873  0.12483523  1
  Fe  Fe67  1  0.25183859  0.25016334  0.25140749  1
  Fe  Fe68  1  0.00044560  0.50068085  0.00196369  1
  Fe  Fe69  1  0.62602060  0.62558344  0.62575768  1
  Fe  Fe70  1  0.37148311  0.87505930  0.12374439  1
  Fe  Fe71  1  0.50054415  0.50054538  0.75167458  1
  Fe  Fe72  1  0.37725157  0.87613050  0.62477562  1
  Fe  Fe73  1  0.12460416  0.37300928  0.87271672  1
  Fe  Fe74  1  0.25143596  0.24872018  0.49958906  1
  Fe  Fe75  1  0.50070782  -0.00159467  0.24819859  1
  Fe  Fe76  1  0.87614241  0.62306039  0.37463237  1
  Fe  Fe77  1  0.49882004  0.50154859  0.24094722  1
  Fe  Fe78  1  0.87291234  0.37247193  0.12262441  1
  Fe  Fe79  1  0.12340738  0.62484857  0.37511778  1
  Fe  Fe80  1  -0.00064499  0.24922202  0.50315859  1
  Fe  Fe81  1  0.75206569  0.24699458  0.25216429  1
  Fe  Fe82  1  0.12204396  0.87774436  0.87367363  1
  Fe  Fe83  1  0.74836490  0.00033104  -0.00132963  1
  Fe  Fe84  1  0.12621986  0.37243983  0.12521293  1
  Fe  Fe85  1  0.50049333  0.24956806  0.00223048  1
  Fe  Fe86  1  0.37659029  0.12279743  0.62801766  1
  Fe  Fe87  1  0.25131625  0.00002969  0.49875519  1
  Fe  Fe88  1  -0.00153449  0.49760036  0.74698185  1
  Fe  Fe89  1  0.74980664  0.75311610  0.75122818  1
  Co  Co90  1  0.62038554  0.12741350  0.37071290  1
  Co  Co91  1  0.75309846  0.75486486  0.25342720  1
  Co  Co92  1  0.87125811  0.12048378  0.12561064  1
  Co  Co93  1  0.25012557  0.49859370  0.74987462  1
  Co  Co94  1  0.50137736  0.00444798  0.49976553  1
  Co  Co95  1  0.49896914  0.74990070  0.24357549  1
  Co  Co96  1  0.74987221  0.24614907  -0.00198436  1
  Co  Co97  1  0.25533997  0.24906778  0.75275362  1
  Co  Co98  1  0.75183481  0.49988907  -0.00135741  1
  Co  Co99  1  0.37959292  0.87590188  0.37545107  1
  Co  Co100  1  0.62535520  0.12567836  0.62984707  1
  Co  Co101  1  -0.00493946  0.25231388  0.74793452  1
  Co  Co102  1  0.00473993  0.00374737  0.00390568  1
  Co  Co103  1  0.36842687  0.62854523  0.12255500  1
  Co  Co104  1  0.00203057  0.49938319  0.50242865  1
  Co  Co105  1  0.25152207  0.75226042  0.75221587  1
  Co  Co106  1  0.37109771  0.37254632  0.12069465  1
  Co  Co107  1  0.24535295  0.50005216  0.00062977  1
  Co  Co108  1  0.75136645  0.49592479  0.25201808  1
  Co  Co109  1  0.50085470  -0.00178131  0.75124972  1
  Co  Co110  1  0.86970023  0.87610136  0.62144065  1
  Co  Co111  1  0.00567438  0.00117070  0.24601574  1
  Co  Co112  1  0.50183059  0.50265448  0.00581675  1
  Co  Co113  1  0.75394866  0.75344274  0.00001408  1
  Co  Co114  1  0.49955630  0.74771982  0.50123235  1
  Co  Co115  1  -0.00235522  -0.00358132  0.74609008  1
  Co  Co116  1  0.12638023  0.87229099  0.12236589  1
  Co  Co117  1  0.37911894  0.12277330  0.87762454  1
  Co  Co118  1  0.87868875  0.12089301  0.37538727  1
  Co  Co119  1  0.49876876  0.25084787  0.24458985  1
  Co  Co120  1  0.74640451  0.00047108  0.25364877  1
  Co  Co121  1  0.25283100  0.00040498  0.75286564  1
  Co  Co122  1  0.12169725  0.87575641  0.37863495  1
  Co  Co123  1  0.87056828  0.37595969  0.62121061  1
  Co  Co124  1  0.12908483  0.12734745  0.12727101  1
  Co  Co125  1  0.12030303  0.12466793  0.86731651  1
  Co  Co126  1  0.63355424  0.62713041  0.12541042  1
  Co  Co127  1  0.62407675  0.87344759  0.87696472  1
