# generated using pymatgen
data_Fe45Co19
_symmetry_space_group_name_H-M   'P 1'
_cell_length_a   11.41568371
_cell_length_b   11.41614657
_cell_length_c   11.41397682
_cell_angle_alpha   89.99122044
_cell_angle_beta   90.00231134
_cell_angle_gamma   89.99780829
_symmetry_Int_Tables_number   1
_chemical_formula_structural   Fe45Co19
_chemical_formula_sum   'Fe90 Co38'
_cell_volume   1487.50503406
_cell_formula_units_Z   2
loop_
 _symmetry_equiv_pos_site_id
 _symmetry_equiv_pos_as_xyz
  1  'x, y, z'
loop_
 _atom_site_type_symbol
 _atom_site_label
 _atom_site_symmetry_multiplicity
 _atom_site_fract_x
 _atom_site_fract_y
 _atom_site_fract_z
 _atom_site_occupancy
  Fe  Fe0  1  0.74968521  0.74712051  0.00138600  1
  Fe  Fe1  1  0.25206243  0.75156848  0.25159300  1
  Fe  Fe2  1  0.37336791  0.62734724  0.62506359  1
  Fe  Fe3  1  0.50006190  0.24878596  0.74931431  1
  Fe  Fe4  1  0.87383099  0.12330289  0.62524585  1
  Fe  Fe5  1  0.49858934  0.74957851  0.75063467  1
  Fe  Fe6  1  -0.00335715  0.25178388  0.75362380  1
  Fe  Fe7  1  0.37525572  0.37420391  0.62430063  1
  Fe  Fe8  1  0.00094526  -0.00221392  0.75028740  1
  Fe  Fe9  1  0.75378696  0.24981355  -0.00214473  1
  Fe  Fe10  1  0.87372611  0.37515566  0.62313889  1
  Fe  Fe11  1  0.25047521  0.25066319  0.75170620  1
  Fe  Fe12  1  0.37663235  0.62313291  0.37251236  1
  Fe  Fe13  1  0.13109984  0.12575804  0.37598281  1
  Fe  Fe14  1  0.75165746  0.50160882  0.25046694  1
  Fe  Fe15  1  0.50039037  0.00139503  0.50172455  1
  Fe  Fe16  1  0.12334369  0.37586756  0.87736956  1
  Fe  Fe17  1  0.00059273  0.25049405  0.49770085  1
  Fe  Fe18  1  0.50091105  0.49921930  0.49987812  1
  Fe  Fe19  1  0.37296356  0.87154237  0.62423334  1
  Fe  Fe20  1  0.62298557  0.87386308  0.37326010  1
  Fe  Fe21  1  0.37393451  0.12753865  0.62130586  1
  Fe  Fe22  1  0.00374881  0.00011606  0.24892111  1
  Fe  Fe23  1  0.74763691  -0.00254909  0.50129727  1
  Fe  Fe24  1  0.74988876  0.25010616  0.49818740  1
  Fe  Fe25  1  0.00016208  0.49864700  0.24910278  1
  Fe  Fe26  1  0.62448449  0.37528708  0.87474176  1
  Fe  Fe27  1  0.62304621  0.62573344  0.37438707  1
  Fe  Fe28  1  0.00150034  0.74798692  -0.00064153  1
  Fe  Fe29  1  0.75239391  0.24946420  0.75320804  1
  Fe  Fe30  1  0.50099180  0.75051678  0.00525827  1
  Fe  Fe31  1  0.37554644  0.88057103  0.37273161  1
  Fe  Fe32  1  0.49728891  0.25008673  0.25194241  1
  Fe  Fe33  1  0.87403143  0.87481055  0.12659714  1
  Fe  Fe34  1  0.12840218  0.87090085  0.62341813  1
  Fe  Fe35  1  0.37577554  0.12245824  0.87438977  1
  Fe  Fe36  1  0.12663524  0.13083989  0.12365964  1
  Fe  Fe37  1  0.50022061  0.50181994  0.74901372  1
  Fe  Fe38  1  0.62585150  0.12296232  0.87441128  1
  Fe  Fe39  1  0.12442204  0.62394512  0.37408831  1
  Fe  Fe40  1  0.75000660  0.50115446  0.74792113  1
  Fe  Fe41  1  0.87513900  0.87661405  0.87593818  1
  Fe  Fe42  1  0.00269070  0.25208082  0.25270670  1
  Fe  Fe43  1  0.50141873  0.50086260  0.00208991  1
  Fe  Fe44  1  0.24908942  0.49446620  0.24681753  1
  Fe  Fe45  1  0.74716392  0.00177852  0.24855547  1
  Fe  Fe46  1  0.87548381  0.12288451  0.37501332  1
  Fe  Fe47  1  -0.00090388  0.49968214  0.49993255  1
  Fe  Fe48  1  0.87462329  0.87409503  0.62296849  1
  Fe  Fe49  1  0.49778371  0.24858293  0.00060493  1
  Fe  Fe50  1  0.25026843  0.50203415  0.75219257  1
  Fe  Fe51  1  0.00224958  0.74999239  0.75154107  1
  Fe  Fe52  1  0.75239162  0.74763077  0.25218972  1
  Fe  Fe53  1  0.87699735  0.62254890  0.87394292  1
  Fe  Fe54  1  0.74870262  0.50161140  0.00232782  1
  Fe  Fe55  1  0.62496518  0.62899844  0.62050450  1
  Fe  Fe56  1  0.24991284  0.50070882  0.50010838  1
  Fe  Fe57  1  0.75062927  0.24964245  0.25090471  1
  Fe  Fe58  1  0.24870422  0.00108339  0.00134425  1
  Fe  Fe59  1  0.00155879  0.50219389  0.00369572  1
  Fe  Fe60  1  0.62344851  0.62510112  0.87524189  1
  Fe  Fe61  1  0.62492319  0.37314247  0.62448774  1
  Fe  Fe62  1  0.12517612  0.12625304  0.62515315  1
  Fe  Fe63  1  0.87642182  0.37404829  0.12550605  1
  Fe  Fe64  1  0.37469636  0.87525229  0.87657126  1
  Fe  Fe65  1  0.37256336  0.12455078  0.12992763  1
  Fe  Fe66  1  0.00204565  -0.00128802  0.49912562  1
  Fe  Fe67  1  0.24877622  0.74672359  -0.00322097  1
  Fe  Fe68  1  0.12558584  0.37490229  0.62474948  1
  Fe  Fe69  1  0.87626523  0.12582254  0.12690862  1
  Fe  Fe70  1  0.12416696  0.12571827  0.87538331  1
  Fe  Fe71  1  0.50220673  -0.00030249  0.74639672  1
  Fe  Fe72  1  0.12567195  0.87498725  0.37637834  1
  Fe  Fe73  1  0.62222559  0.12504200  0.37525903  1
  Fe  Fe74  1  0.37624172  0.62393949  0.12705075  1
  Fe  Fe75  1  -0.00308275  0.74999100  0.25303441  1
  Fe  Fe76  1  0.00056790  0.00094604  0.00178907  1
  Fe  Fe77  1  0.12664546  0.87176384  0.12424993  1
  Fe  Fe78  1  0.37315788  0.37302673  0.37758259  1
  Fe  Fe79  1  0.37612701  0.37684595  0.87571013  1
  Fe  Fe80  1  0.12646952  0.62818362  0.62411624  1
  Fe  Fe81  1  0.62349510  0.37387051  0.12620689  1
  Fe  Fe82  1  0.74950850  0.00163853  0.00255496  1
  Fe  Fe83  1  0.87418523  0.62736711  0.62106509  1
  Fe  Fe84  1  0.74949057  0.75134999  0.75031936  1
  Fe  Fe85  1  0.24965320  -0.00098059  0.74907491  1
  Fe  Fe86  1  0.50168391  -0.00117534  0.00689175  1
  Fe  Fe87  1  0.62429772  0.87592768  0.87559056  1
  Fe  Fe88  1  0.62602141  0.37560118  0.37477340  1
  Fe  Fe89  1  0.24901083  0.50127696  0.00157590  1
  Co  Co90  1  0.50276549  -0.00033978  0.24538485  1
  Co  Co91  1  0.62493135  0.12967847  0.12451839  1
  Co  Co92  1  0.62699353  0.12758929  0.62520803  1
  Co  Co93  1  0.62255251  0.62412401  0.12970420  1
  Co  Co94  1  0.25410297  0.24970239  -0.00153991  1
  Co  Co95  1  0.24872206  0.25121368  0.50026044  1
  Co  Co96  1  0.12344510  0.37070337  0.12055462  1
  Co  Co97  1  -0.00076395  0.50024491  0.74520303  1
  Co  Co98  1  0.25011052  0.25482119  0.25028208  1
  Co  Co99  1  0.63013253  0.87153322  0.12702076  1
  Co  Co100  1  0.12523813  0.37747270  0.37705673  1
  Co  Co101  1  0.62308769  0.87016131  0.62368814  1
  Co  Co102  1  0.12204004  0.62135405  0.87284600  1
  Co  Co103  1  0.12653857  0.62766628  0.13005624  1
  Co  Co104  1  0.75166790  0.75286315  0.49565690  1
  Co  Co105  1  0.87517066  0.37555731  0.37491321  1
  Co  Co106  1  0.37707269  0.37571504  0.12349429  1
  Co  Co107  1  0.87472444  0.88036422  0.37270253  1
  Co  Co108  1  0.24593346  -0.00110672  0.24838201  1
  Co  Co109  1  0.87399463  0.11871571  0.87299590  1
  Co  Co110  1  0.37044132  0.87475546  0.12420212  1
  Co  Co111  1  0.50011438  0.25045645  0.49837109  1
  Co  Co112  1  0.87613602  0.62580188  0.12543291  1
  Co  Co113  1  0.87566378  0.62196042  0.37821050  1
  Co  Co114  1  0.49770742  0.75335893  0.24801933  1
  Co  Co115  1  0.37275764  0.12250304  0.37358683  1
  Co  Co116  1  0.74850506  0.49946235  0.49961048  1
  Co  Co117  1  0.49931688  0.49624114  0.25191784  1
  Co  Co118  1  0.37808772  0.62472894  0.87718382  1
  Co  Co119  1  0.24955310  -0.00089731  0.50212522  1
  Co  Co120  1  0.49622398  0.74995735  0.49666251  1
  Co  Co121  1  0.74775022  -0.00310889  0.74731686  1
  Co  Co122  1  -0.00045906  0.75129627  0.49625390  1
  Co  Co123  1  0.25201584  0.74932065  0.49470642  1
  Co  Co124  1  0.87586046  0.38231781  0.87596197  1
  Co  Co125  1  0.12608151  0.87698360  0.87640086  1
  Co  Co126  1  0.24970807  0.74877342  0.75530386  1
  Co  Co127  1  -0.00541484  0.24864986  -0.00370693  1
