# generated using pymatgen
data_Fe45Co19
_symmetry_space_group_name_H-M   'P 1'
_cell_length_a   11.41503952
_cell_length_b   11.41459487
_cell_length_c   11.41529683
_cell_angle_alpha   89.99315928
_cell_angle_beta   90.00449478
_cell_angle_gamma   90.00289254
_symmetry_Int_Tables_number   1
_chemical_formula_structural   Fe45Co19
_chemical_formula_sum   'Fe90 Co38'
_cell_volume   1487.39091751
_cell_formula_units_Z   2
loop_
 _symmetry_equiv_pos_site_id
 _symmetry_equiv_pos_as_xyz
  1  'x, y, z'
loop_
 _atom_site_type_symbol
 _atom_site_label
 _atom_site_symmetry_multiplicity
 _atom_site_fract_x
 _atom_site_fract_y
 _atom_site_fract_z
 _atom_site_occupancy
  Fe  Fe0  1  0.25279591  0.49569326  0.75087216  1
  Fe  Fe1  1  0.50056669  0.75014243  0.74842150  1
  Fe  Fe2  1  0.00404568  0.74907605  -0.00340553  1
  Fe  Fe3  1  0.49948596  -0.00237401  0.00439212  1
  Fe  Fe4  1  0.87374223  0.62597854  0.12165426  1
  Fe  Fe5  1  0.62458097  0.37561328  0.37605835  1
  Fe  Fe6  1  0.24916699  0.24905501  0.25037040  1
  Fe  Fe7  1  0.87457129  0.37706751  0.62532648  1
  Fe  Fe8  1  0.74798405  -0.00341732  0.75020988  1
  Fe  Fe9  1  0.75107750  -0.00270547  0.49932891  1
  Fe  Fe10  1  0.75223706  0.24900162  0.25095188  1
  Fe  Fe11  1  0.12380200  0.37436282  0.37444604  1
  Fe  Fe12  1  0.25138893  0.25194712  -0.00285658  1
  Fe  Fe13  1  0.25080272  0.75059308  0.49763941  1
  Fe  Fe14  1  0.50131396  -0.00110104  0.50192235  1
  Fe  Fe15  1  -0.00114373  0.50140517  0.75160280  1
  Fe  Fe16  1  0.74837840  0.74883990  0.25086864  1
  Fe  Fe17  1  0.87506099  0.37565611  0.87553446  1
  Fe  Fe18  1  0.75039895  0.50138554  0.25087422  1
  Fe  Fe19  1  0.12758885  0.87466612  0.12495128  1
  Fe  Fe20  1  0.12585340  0.62485248  0.37510313  1
  Fe  Fe21  1  0.62498471  0.12535716  0.12561427  1
  Fe  Fe22  1  0.87707365  0.37431219  0.37565098  1
  Fe  Fe23  1  0.75023915  0.50558799  0.75104307  1
  Fe  Fe24  1  0.37243065  0.62683868  0.12736436  1
  Fe  Fe25  1  0.24817675  -0.00217680  0.49912534  1
  Fe  Fe26  1  0.11964406  0.12468964  0.37770151  1
  Fe  Fe27  1  0.37639501  0.87493288  0.87525022  1
  Fe  Fe28  1  0.87364848  0.87329796  0.12240155  1
  Fe  Fe29  1  0.62562017  0.37477390  0.12594482  1
  Fe  Fe30  1  0.87469335  0.12595390  0.12377133  1
  Fe  Fe31  1  0.62457922  0.12433716  0.37600647  1
  Fe  Fe32  1  -0.00196764  0.75026150  0.75566437  1
  Fe  Fe33  1  0.50208114  0.75192270  0.00469115  1
  Fe  Fe34  1  0.00063173  0.24989003  -0.00019825  1
  Fe  Fe35  1  0.62412785  0.37467353  0.62648161  1
  Fe  Fe36  1  0.37461058  0.87617444  0.62533753  1
  Fe  Fe37  1  0.87394512  0.37435562  0.12359846  1
  Fe  Fe38  1  0.74809578  0.50020773  -0.00177604  1
  Fe  Fe39  1  0.12630156  0.37475493  0.12439151  1
  Fe  Fe40  1  0.62968738  0.63151424  0.62398564  1
  Fe  Fe41  1  0.87807052  0.87581584  0.37341369  1
  Fe  Fe42  1  0.12211799  0.12543043  0.62656863  1
  Fe  Fe43  1  0.24923769  -0.00043888  0.75066956  1
  Fe  Fe44  1  0.62155664  0.62762349  0.37626248  1
  Fe  Fe45  1  0.24850856  0.25109259  0.50158244  1
  Fe  Fe46  1  0.00298586  0.50218582  -0.00128773  1
  Fe  Fe47  1  0.49954205  0.50142670  0.24869997  1
  Fe  Fe48  1  0.74617064  0.74973258  -0.00487627  1
  Fe  Fe49  1  0.24881751  -0.00019536  0.25149676  1
  Fe  Fe50  1  0.37428851  0.12660788  0.62537042  1
  Fe  Fe51  1  0.75190494  0.24983109  0.50012663  1
  Fe  Fe52  1  0.74896356  -0.00022562  -0.00068459  1
  Fe  Fe53  1  0.74903847  0.24965375  0.75170621  1
  Fe  Fe54  1  0.62056039  0.37768098  0.87203450  1
  Fe  Fe55  1  0.37338413  0.12439143  0.12582617  1
  Fe  Fe56  1  0.12616940  0.62683613  0.62899203  1
  Fe  Fe57  1  0.62125067  0.87249713  0.37536999  1
  Fe  Fe58  1  0.50077334  0.24935287  0.50212337  1
  Fe  Fe59  1  0.87226934  0.87078771  0.62748163  1
  Fe  Fe60  1  0.00014918  0.75061706  0.49964547  1
  Fe  Fe61  1  0.37592301  0.12379035  0.37603871  1
  Fe  Fe62  1  0.25015622  0.50173455  0.25056032  1
  Fe  Fe63  1  0.87584833  0.12359038  0.87428269  1
  Fe  Fe64  1  0.00087449  0.00114800  0.24773478  1
  Fe  Fe65  1  -0.00047415  0.50047654  0.24745969  1
  Fe  Fe66  1  0.37100192  0.62488934  0.62392902  1
  Fe  Fe67  1  0.00177130  0.50068594  0.50234019  1
  Fe  Fe68  1  0.24960297  -0.00026836  -0.00196058  1
  Fe  Fe69  1  0.24861197  0.74947495  -0.00190125  1
  Fe  Fe70  1  0.50271916  -0.00001662  0.74689853  1
  Fe  Fe71  1  0.75013736  0.00097185  0.25134374  1
  Fe  Fe72  1  0.75080792  0.50294376  0.50013374  1
  Fe  Fe73  1  0.12530931  0.87369887  0.62732601  1
  Fe  Fe74  1  0.62370565  0.12404276  0.87501355  1
  Fe  Fe75  1  0.49957500  0.25134522  0.00025013  1
  Fe  Fe76  1  0.37635435  0.62520543  0.87372010  1
  Fe  Fe77  1  0.87713071  0.62415576  0.37642435  1
  Fe  Fe78  1  0.00217636  0.74921018  0.24817253  1
  Fe  Fe79  1  0.37397831  0.37754994  0.37823223  1
  Fe  Fe80  1  0.25110246  0.49902411  -0.00269929  1
  Fe  Fe81  1  0.49897611  0.50226911  0.50310875  1
  Fe  Fe82  1  0.37616319  0.12582889  0.87312884  1
  Fe  Fe83  1  0.12374882  0.12626651  0.87178439  1
  Fe  Fe84  1  0.37765397  0.87243501  0.37106801  1
  Fe  Fe85  1  0.00232725  -0.00128557  -0.00160686  1
  Fe  Fe86  1  0.87633588  0.12368248  0.62492169  1
  Fe  Fe87  1  0.49834829  0.49991096  0.00278059  1
  Fe  Fe88  1  0.49834787  0.25043367  0.25033634  1
  Fe  Fe89  1  0.12414413  0.37295581  0.62800987  1
  Co  Co90  1  -0.00005592  -0.00323443  0.75021551  1
  Co  Co91  1  0.50131724  0.24657728  0.74840244  1
  Co  Co92  1  0.50018303  -0.00059453  0.24728603  1
  Co  Co93  1  0.12625545  0.62422190  0.12499231  1
  Co  Co94  1  0.25359025  0.75230586  0.75093543  1
  Co  Co95  1  0.12858577  0.62380783  0.87060969  1
  Co  Co96  1  0.62791192  0.87027223  0.62376554  1
  Co  Co97  1  0.75358507  0.75113162  0.49463906  1
  Co  Co98  1  0.50198654  0.74924305  0.24407272  1
  Co  Co99  1  0.38084967  0.37523295  0.87155888  1
  Co  Co100  1  0.87833805  0.12447474  0.37720612  1
  Co  Co101  1  -0.00338143  0.25092129  0.75068273  1
  Co  Co102  1  0.87560158  0.62388675  0.87792961  1
  Co  Co103  1  0.62793727  0.62294691  0.12423910  1
  Co  Co104  1  0.61960929  0.62308651  0.87543832  1
  Co  Co105  1  0.62175770  0.87661710  0.87486655  1
  Co  Co106  1  0.37310478  0.37467475  0.12656726  1
  Co  Co107  1  0.62747236  0.12435395  0.62307299  1
  Co  Co108  1  0.74959835  0.74892528  0.75761266  1
  Co  Co109  1  0.37703368  0.37255469  0.62415110  1
  Co  Co110  1  0.87486728  0.62855230  0.62532603  1
  Co  Co111  1  0.87451358  0.87626691  0.87739421  1
  Co  Co112  1  0.25133539  0.25149258  0.75109792  1
  Co  Co113  1  0.12735285  0.87482143  0.87334061  1
  Co  Co114  1  -0.00059565  0.24944370  0.24735673  1
  Co  Co115  1  0.37572719  0.62447657  0.37411896  1
  Co  Co116  1  -0.00115600  -0.00386205  0.50318606  1
  Co  Co117  1  0.36979685  0.87482236  0.12621356  1
  Co  Co118  1  0.12708543  0.12477369  0.12357953  1
  Co  Co119  1  0.49885286  0.50485046  0.74378044  1
  Co  Co120  1  0.62922915  0.87650226  0.12551027  1
  Co  Co121  1  0.24746774  0.50004796  0.50253312  1
  Co  Co122  1  0.12328712  0.87587028  0.37442359  1
  Co  Co123  1  0.24834074  0.74952191  0.25232171  1
  Co  Co124  1  0.49483387  0.74961359  0.50307380  1
  Co  Co125  1  -0.00126301  0.25208497  0.50237326  1
  Co  Co126  1  0.12407999  0.37456407  0.87501808  1
  Co  Co127  1  0.74814890  0.25050025  -0.00256019  1
