# generated using pymatgen
data_Fe45Co19
_symmetry_space_group_name_H-M   'P 1'
_cell_length_a   11.41534364
_cell_length_b   11.41592606
_cell_length_c   11.41589444
_cell_angle_alpha   90.00487765
_cell_angle_beta   89.99390488
_cell_angle_gamma   89.99365983
_symmetry_Int_Tables_number   1
_chemical_formula_structural   Fe45Co19
_chemical_formula_sum   'Fe90 Co38'
_cell_volume   1487.68188371
_cell_formula_units_Z   2
loop_
 _symmetry_equiv_pos_site_id
 _symmetry_equiv_pos_as_xyz
  1  'x, y, z'
loop_
 _atom_site_type_symbol
 _atom_site_label
 _atom_site_symmetry_multiplicity
 _atom_site_fract_x
 _atom_site_fract_y
 _atom_site_fract_z
 _atom_site_occupancy
  Fe  Fe0  1  0.74815150  0.75012122  0.50022772  1
  Fe  Fe1  1  -0.00118361  0.25070688  0.00027103  1
  Fe  Fe2  1  0.12415937  0.62346387  0.87420910  1
  Fe  Fe3  1  0.25114825  0.74905850  0.75054906  1
  Fe  Fe4  1  0.37598289  0.37318566  0.87635966  1
  Fe  Fe5  1  0.12564444  0.12272128  0.62766677  1
  Fe  Fe6  1  0.87227060  0.37639404  0.12813889  1
  Fe  Fe7  1  -0.00214709  0.50017936  0.74686577  1
  Fe  Fe8  1  0.12515215  0.12549000  0.37420553  1
  Fe  Fe9  1  0.62663634  0.37628956  0.86650630  1
  Fe  Fe10  1  0.00176175  0.25012165  0.49950237  1
  Fe  Fe11  1  0.50114610  0.00119064  0.00038598  1
  Fe  Fe12  1  0.37605359  0.37272143  0.37746441  1
  Fe  Fe13  1  0.12307126  0.37425593  0.12853089  1
  Fe  Fe14  1  0.62623516  0.62266822  0.87228595  1
  Fe  Fe15  1  0.25196016  0.24891523  0.75059597  1
  Fe  Fe16  1  0.49768138  0.00011727  0.75068773  1
  Fe  Fe17  1  0.75193762  0.00081974  -0.00207496  1
  Fe  Fe18  1  0.75153824  0.24858419  0.25362239  1
  Fe  Fe19  1  0.37657338  0.37187613  0.12211917  1
  Fe  Fe20  1  0.12480797  0.62575338  0.62424020  1
  Fe  Fe21  1  0.24624148  0.75356771  0.49634303  1
  Fe  Fe22  1  0.25383860  0.00278474  0.25062891  1
  Fe  Fe23  1  0.00314410  0.49741212  0.49829282  1
  Fe  Fe24  1  0.87433978  0.62424178  0.87510644  1
  Fe  Fe25  1  0.87190096  0.37620120  0.87131748  1
  Fe  Fe26  1  0.62332353  0.87350409  0.62596462  1
  Fe  Fe27  1  0.37791290  0.12680218  0.62159851  1
  Fe  Fe28  1  0.00094481  0.75161636  0.00023748  1
  Fe  Fe29  1  0.62499021  0.62209518  0.37633203  1
  Fe  Fe30  1  0.24939296  0.49855275  0.00086148  1
  Fe  Fe31  1  0.12588958  0.87735348  0.87260305  1
  Fe  Fe32  1  0.74762247  -0.00005010  0.50068699  1
  Fe  Fe33  1  0.12502127  0.37568825  0.87387772  1
  Fe  Fe34  1  -0.00509269  0.00584100  0.25082555  1
  Fe  Fe35  1  0.87285345  0.62135482  0.12565071  1
  Fe  Fe36  1  0.74452702  0.25213166  0.50482505  1
  Fe  Fe37  1  0.87425700  0.87698622  0.37576934  1
  Fe  Fe38  1  0.50188792  0.74988609  -0.00058474  1
  Fe  Fe39  1  -0.00228493  0.24989830  0.74873400  1
  Fe  Fe40  1  -0.00181068  0.49868645  0.00062495  1
  Fe  Fe41  1  0.62606644  0.87597367  0.12638719  1
  Fe  Fe42  1  0.24914753  0.74950898  0.00155187  1
  Fe  Fe43  1  0.24897578  0.49967580  0.25160031  1
  Fe  Fe44  1  0.24966496  0.49880717  0.49986429  1
  Fe  Fe45  1  0.12325602  0.12633701  0.12435285  1
  Fe  Fe46  1  0.50351728  0.49758096  0.24872530  1
  Fe  Fe47  1  0.50037695  0.24945392  0.25110021  1
  Fe  Fe48  1  0.49955865  0.49829873  0.50410647  1
  Fe  Fe49  1  0.87452851  0.12498782  0.62301488  1
  Fe  Fe50  1  0.74873074  0.74808605  0.00088310  1
  Fe  Fe51  1  0.37644912  0.87125785  0.62443970  1
  Fe  Fe52  1  0.24932023  -0.00186828  0.49972086  1
  Fe  Fe53  1  -0.00020156  0.74773120  0.25178682  1
  Fe  Fe54  1  0.74972023  0.74851480  0.25163482  1
  Fe  Fe55  1  0.62382614  0.12552298  0.37716168  1
  Fe  Fe56  1  -0.00447245  -0.00242670  0.75026312  1
  Fe  Fe57  1  0.75191793  0.00324370  0.25133697  1
  Fe  Fe58  1  0.12485449  0.62320287  0.12627752  1
  Fe  Fe59  1  0.25198496  0.24866921  0.25016274  1
  Fe  Fe60  1  0.37740019  0.62490846  0.12569855  1
  Fe  Fe61  1  0.50014452  -0.00306140  0.49720973  1
  Fe  Fe62  1  0.62639570  0.87413248  0.87337343  1
  Fe  Fe63  1  0.62521962  0.12674092  0.87144228  1
  Fe  Fe64  1  0.12400744  0.12331453  0.87420870  1
  Fe  Fe65  1  0.37447781  0.87445696  0.87603185  1
  Fe  Fe66  1  0.25252123  0.50045859  0.74747902  1
  Fe  Fe67  1  0.50198441  0.75130183  0.25334118  1
  Fe  Fe68  1  0.62556649  0.12659516  0.12463141  1
  Fe  Fe69  1  0.87498799  0.37473668  0.37538431  1
  Fe  Fe70  1  0.74809339  0.49779371  0.50542477  1
  Fe  Fe71  1  0.12643994  0.37434434  0.62599384  1
  Fe  Fe72  1  0.50573209  0.49733062  0.00200731  1
  Fe  Fe73  1  0.49854629  0.00138728  0.25179193  1
  Fe  Fe74  1  0.74863885  0.25143532  -0.00332275  1
  Fe  Fe75  1  0.37479255  0.62609776  0.37593718  1
  Fe  Fe76  1  0.24935010  0.00107349  0.00118165  1
  Fe  Fe77  1  0.87441844  0.87644968  0.12392781  1
  Fe  Fe78  1  0.75210882  0.00123184  0.74952728  1
  Fe  Fe79  1  0.00305883  0.75504562  0.49982874  1
  Fe  Fe80  1  0.75140285  0.74734260  0.74654658  1
  Fe  Fe81  1  -0.00203948  0.75212556  0.74800652  1
  Fe  Fe82  1  0.37505322  0.62405687  0.87714723  1
  Fe  Fe83  1  0.37550938  0.87440367  0.12686898  1
  Fe  Fe84  1  0.49525883  0.50327349  0.74526725  1
  Fe  Fe85  1  0.12416947  0.87624237  0.12861945  1
  Fe  Fe86  1  0.37517293  0.12797495  0.87982776  1
  Fe  Fe87  1  0.87575156  0.62244640  0.37759404  1
  Fe  Fe88  1  0.00149157  -0.00163669  0.50032289  1
  Fe  Fe89  1  0.24899782  0.24992720  0.49973887  1
  Co  Co90  1  0.00063414  0.50050566  0.25251722  1
  Co  Co91  1  0.87297879  0.87279689  0.87642227  1
  Co  Co92  1  0.87700014  0.37356284  0.62366634  1
  Co  Co93  1  0.37708339  0.12766158  0.12162318  1
  Co  Co94  1  0.50564453  0.25188029  -0.00160921  1
  Co  Co95  1  0.87918811  0.62583380  0.62016029  1
  Co  Co96  1  0.74686960  0.49901396  0.00030276  1
  Co  Co97  1  0.12382636  0.87877330  0.36911176  1
  Co  Co98  1  0.12489035  0.62525503  0.37649131  1
  Co  Co99  1  -0.00016492  -0.00139386  -0.00096582  1
  Co  Co100  1  0.12726134  0.87693201  0.62953824  1
  Co  Co101  1  0.62228412  0.62648185  0.62462332  1
  Co  Co102  1  0.37639753  0.12705486  0.37876658  1
  Co  Co103  1  0.62485543  0.62664365  0.12648433  1
  Co  Co104  1  0.87198924  0.87569995  0.62281206  1
  Co  Co105  1  0.62821541  0.87699728  0.37345598  1
  Co  Co106  1  0.74771606  0.50105329  0.25094376  1
  Co  Co107  1  0.12537427  0.37130659  0.37270220  1
  Co  Co108  1  0.25587888  0.00231283  0.74956644  1
  Co  Co109  1  0.62902477  0.37110076  0.12785261  1
  Co  Co110  1  0.62462985  0.37563844  0.37565542  1
  Co  Co111  1  0.62249568  0.12231770  0.62551862  1
  Co  Co112  1  0.37277104  0.87371477  0.37395489  1
  Co  Co113  1  0.49738585  0.24768967  0.74906640  1
  Co  Co114  1  0.62226064  0.37611580  0.63270900  1
  Co  Co115  1  0.87635072  0.12599993  0.87508605  1
  Co  Co116  1  0.37402167  0.37163215  0.62375638  1
  Co  Co117  1  0.75165415  0.24725310  0.74571096  1
  Co  Co118  1  0.87273811  0.12664924  0.12002986  1
  Co  Co119  1  0.75385890  0.50360859  0.74319913  1
  Co  Co120  1  0.87319462  0.12641099  0.38222702  1
  Co  Co121  1  0.37373518  0.63097101  0.62099306  1
  Co  Co122  1  0.49949747  0.74897775  0.75222606  1
  Co  Co123  1  -0.00418099  0.24698162  0.25114254  1
  Co  Co124  1  0.50304154  0.75200028  0.49552305  1
  Co  Co125  1  0.24635046  0.25068618  -0.00050760  1
  Co  Co126  1  0.24913067  0.74743841  0.25039258  1
  Co  Co127  1  0.50476095  0.25276531  0.50138710  1
