# generated using pymatgen
data_Fe45Co19
_symmetry_space_group_name_H-M   'P 1'
_cell_length_a   11.41370368
_cell_length_b   11.41470387
_cell_length_c   11.41491821
_cell_angle_alpha   89.99740754
_cell_angle_beta   90.00774969
_cell_angle_gamma   89.99767413
_symmetry_Int_Tables_number   1
_chemical_formula_structural   Fe45Co19
_chemical_formula_sum   'Fe90 Co38'
_cell_volume   1487.18173133
_cell_formula_units_Z   2
loop_
 _symmetry_equiv_pos_site_id
 _symmetry_equiv_pos_as_xyz
  1  'x, y, z'
loop_
 _atom_site_type_symbol
 _atom_site_label
 _atom_site_symmetry_multiplicity
 _atom_site_fract_x
 _atom_site_fract_y
 _atom_site_fract_z
 _atom_site_occupancy
  Fe  Fe0  1  0.12156419  0.87738332  0.12260898  1
  Fe  Fe1  1  0.12630068  0.37534451  0.62371906  1
  Fe  Fe2  1  0.12647473  0.62339687  0.37424953  1
  Fe  Fe3  1  0.87571040  0.62411032  0.87529474  1
  Fe  Fe4  1  0.12585633  0.12214755  0.87551112  1
  Fe  Fe5  1  0.74785586  0.25052747  0.75000451  1
  Fe  Fe6  1  0.37368988  0.12360411  0.37516375  1
  Fe  Fe7  1  0.49752381  0.24883143  -0.00143634  1
  Fe  Fe8  1  0.75146143  0.24835230  -0.00039793  1
  Fe  Fe9  1  0.62449538  0.87723301  0.12358339  1
  Fe  Fe10  1  0.62339602  0.87770919  0.87458620  1
  Fe  Fe11  1  0.50165070  0.74857954  0.25129425  1
  Fe  Fe12  1  0.24872177  0.49860789  0.24831290  1
  Fe  Fe13  1  0.25229151  0.49978823  0.75078010  1
  Fe  Fe14  1  0.00146838  0.50264963  -0.00005978  1
  Fe  Fe15  1  0.75031803  0.75146462  -0.00058309  1
  Fe  Fe16  1  0.74730369  0.00180531  0.74854470  1
  Fe  Fe17  1  0.62270845  0.37616997  0.62398845  1
  Fe  Fe18  1  0.37575907  0.87434895  0.37532806  1
  Fe  Fe19  1  0.62589254  0.12503775  0.12421003  1
  Fe  Fe20  1  0.37593717  0.87136370  0.12266101  1
  Fe  Fe21  1  0.62638070  0.62428023  0.87673390  1
  Fe  Fe22  1  0.49774436  0.50104389  0.00003629  1
  Fe  Fe23  1  0.00074240  0.49934953  0.24881492  1
  Fe  Fe24  1  0.12676607  0.37459111  0.12204270  1
  Fe  Fe25  1  0.62396883  0.87392684  0.37713244  1
  Fe  Fe26  1  0.75099351  -0.00001985  0.49992490  1
  Fe  Fe27  1  0.75371054  0.00168855  -0.00081435  1
  Fe  Fe28  1  0.25281695  -0.00437947  0.75262234  1
  Fe  Fe29  1  0.37367874  0.12492947  0.62654588  1
  Fe  Fe30  1  0.74998764  0.49902343  0.74998855  1
  Fe  Fe31  1  0.00391515  0.74835161  -0.00143724  1
  Fe  Fe32  1  0.00029269  0.49853642  0.50137948  1
  Fe  Fe33  1  -0.00152214  0.75071412  0.49885308  1
  Fe  Fe34  1  0.87505572  0.62561915  0.37325254  1
  Fe  Fe35  1  0.87493876  0.37404065  0.12351304  1
  Fe  Fe36  1  0.24674487  0.24896217  0.49919081  1
  Fe  Fe37  1  0.75027403  0.75246741  0.25061853  1
  Fe  Fe38  1  0.50072426  0.24691735  0.75209217  1
  Fe  Fe39  1  0.62737013  0.62318477  0.12477983  1
  Fe  Fe40  1  0.00013423  0.00049397  0.74816010  1
  Fe  Fe41  1  0.37103532  0.62962769  0.87611885  1
  Fe  Fe42  1  0.62390917  0.12525799  0.37622849  1
  Fe  Fe43  1  0.49758541  0.24970651  0.49936669  1
  Fe  Fe44  1  0.12189806  0.87708430  0.37674607  1
  Fe  Fe45  1  0.87711509  0.87652995  0.12724082  1
  Fe  Fe46  1  0.49710681  0.00087553  -0.00184261  1
  Fe  Fe47  1  0.87540424  0.37462023  0.87565833  1
  Fe  Fe48  1  0.24620086  0.75239696  0.24868020  1
  Fe  Fe49  1  0.87574835  0.12753926  0.62579023  1
  Fe  Fe50  1  0.49969938  0.00092397  0.24930045  1
  Fe  Fe51  1  0.25086767  0.25131513  0.75312085  1
  Fe  Fe52  1  0.75019708  0.74970134  0.75148173  1
  Fe  Fe53  1  0.88077182  0.37160509  0.37497531  1
  Fe  Fe54  1  0.37114306  0.12576430  0.12428808  1
  Fe  Fe55  1  0.87417960  0.87423099  0.62551870  1
  Fe  Fe56  1  0.12639233  0.62501807  0.62648319  1
  Fe  Fe57  1  0.87577245  0.62658241  0.12481750  1
  Fe  Fe58  1  0.75028587  0.49714391  0.24882790  1
  Fe  Fe59  1  0.37718417  0.87312024  0.62526380  1
  Fe  Fe60  1  0.00135948  0.25045003  0.74916846  1
  Fe  Fe61  1  0.49931071  0.24993935  0.24982965  1
  Fe  Fe62  1  0.50108589  0.75064834  0.75035466  1
  Fe  Fe63  1  0.75167247  0.49886570  0.50048514  1
  Fe  Fe64  1  0.87567241  0.62460449  0.62627210  1
  Fe  Fe65  1  0.50103851  -0.00011502  0.50305207  1
  Fe  Fe66  1  0.49935177  0.50004065  0.24904459  1
  Fe  Fe67  1  0.12512913  0.87447949  0.62506600  1
  Fe  Fe68  1  0.24559204  0.24844753  0.25189076  1
  Fe  Fe69  1  0.37660175  0.37640833  0.62639546  1
  Fe  Fe70  1  0.37274997  0.37301467  0.12270531  1
  Fe  Fe71  1  0.25256854  0.74737270  0.50088907  1
  Fe  Fe72  1  0.37150342  0.37627461  0.37518155  1
  Fe  Fe73  1  0.62351970  0.62562977  0.62380403  1
  Fe  Fe74  1  0.24750251  0.00186462  0.50062386  1
  Fe  Fe75  1  -0.00033188  0.49882780  0.74982814  1
  Fe  Fe76  1  0.88100179  0.12358622  0.37212702  1
  Fe  Fe77  1  0.25209707  -0.00371866  -0.00305915  1
  Fe  Fe78  1  0.75219048  0.25072416  0.49932690  1
  Fe  Fe79  1  0.00210435  0.74959162  0.75148976  1
  Fe  Fe80  1  0.74859147  0.25086379  0.25031785  1
  Fe  Fe81  1  0.62424683  0.37586984  0.87728933  1
  Fe  Fe82  1  0.62334939  0.37667700  0.37521702  1
  Fe  Fe83  1  0.75118210  0.75055299  0.49866553  1
  Fe  Fe84  1  0.12590843  0.37646548  0.87793077  1
  Fe  Fe85  1  0.49565330  0.50534592  0.49750337  1
  Fe  Fe86  1  -0.00022245  0.24363317  0.00254148  1
  Fe  Fe87  1  0.24887829  -0.00078906  0.25067326  1
  Fe  Fe88  1  0.87804105  0.87639506  0.87452107  1
  Fe  Fe89  1  0.37147522  0.62924522  0.12369272  1
  Co  Co90  1  0.87118789  0.12368001  0.13092452  1
  Co  Co91  1  0.62418133  0.37404733  0.12285700  1
  Co  Co92  1  0.12513924  0.62421913  0.12712723  1
  Co  Co93  1  0.62783143  0.62387359  0.37364308  1
  Co  Co94  1  0.00424194  0.24872017  0.24426727  1
  Co  Co95  1  0.00309728  0.00136079  0.24698316  1
  Co  Co96  1  0.62507944  0.12345360  0.87726093  1
  Co  Co97  1  0.24807283  0.75332929  0.75100284  1
  Co  Co98  1  0.12717648  0.62305730  0.87223624  1
  Co  Co99  1  0.12082194  0.12392328  0.37496221  1
  Co  Co100  1  0.37337843  0.12369752  0.87384552  1
  Co  Co101  1  0.13110943  0.12223860  0.12202699  1
  Co  Co102  1  0.87760417  0.87826723  0.37385206  1
  Co  Co103  1  -0.00383676  0.00504265  0.00168433  1
  Co  Co104  1  0.49954418  0.50228178  0.75377183  1
  Co  Co105  1  0.24989411  0.24987795  -0.00349304  1
  Co  Co106  1  0.12395201  0.37610090  0.37622575  1
  Co  Co107  1  0.87558456  0.12574566  0.87073826  1
  Co  Co108  1  0.12769684  0.12444338  0.62973960  1
  Co  Co109  1  0.87515056  0.37411537  0.62592973  1
  Co  Co110  1  0.25127600  0.50171560  -0.00007444  1
  Co  Co111  1  0.36985061  0.62586717  0.36958677  1
  Co  Co112  1  0.37521507  0.62627070  0.62942746  1
  Co  Co113  1  0.25211519  0.50119181  0.50258449  1
  Co  Co114  1  0.50416726  0.74839028  0.00041424  1
  Co  Co115  1  0.74708764  -0.00094824  0.25232298  1
  Co  Co116  1  0.12063025  0.87886829  0.87536271  1
  Co  Co117  1  0.49707268  0.74654170  0.49752570  1
  Co  Co118  1  0.00132082  0.75083934  0.25148394  1
  Co  Co119  1  0.37810741  0.87008253  0.87703529  1
  Co  Co120  1  0.00058528  0.00057276  0.50426195  1
  Co  Co121  1  0.24292090  0.75171036  -0.00113099  1
  Co  Co122  1  0.50029519  0.00124895  0.74843120  1
  Co  Co123  1  0.62500952  0.87219925  0.62438902  1
  Co  Co124  1  0.75114709  0.49999682  -0.00035696  1
  Co  Co125  1  0.37550357  0.37565698  0.87540015  1
  Co  Co126  1  0.00309527  0.24850397  0.50356883  1
  Co  Co127  1  0.62527493  0.12739953  0.62249627  1
