# generated using pymatgen
data_Fe45Co19
_symmetry_space_group_name_H-M   'P 1'
_cell_length_a   11.41555178
_cell_length_b   11.41443250
_cell_length_c   11.41702477
_cell_angle_alpha   90.00811147
_cell_angle_beta   89.99358401
_cell_angle_gamma   90.01706051
_symmetry_Int_Tables_number   1
_chemical_formula_structural   Fe45Co19
_chemical_formula_sum   'Fe90 Co38'
_cell_volume   1487.66158862
_cell_formula_units_Z   2
loop_
 _symmetry_equiv_pos_site_id
 _symmetry_equiv_pos_as_xyz
  1  'x, y, z'
loop_
 _atom_site_type_symbol
 _atom_site_label
 _atom_site_symmetry_multiplicity
 _atom_site_fract_x
 _atom_site_fract_y
 _atom_site_fract_z
 _atom_site_occupancy
  Fe  Fe0  1  0.87356836  0.12632855  0.87633124  1
  Fe  Fe1  1  0.62459684  0.12291169  0.62420574  1
  Fe  Fe2  1  0.87680493  0.87117143  0.37161256  1
  Fe  Fe3  1  0.74905542  -0.00283669  0.24939919  1
  Fe  Fe4  1  0.87715656  0.12092407  0.62702844  1
  Fe  Fe5  1  0.75257852  0.25112488  0.24630870  1
  Fe  Fe6  1  0.62232740  0.62391129  0.87498269  1
  Fe  Fe7  1  0.49935635  0.24885982  0.49656307  1
  Fe  Fe8  1  0.00040013  0.25198012  0.50056582  1
  Fe  Fe9  1  -0.00042676  0.25095598  0.00506923  1
  Fe  Fe10  1  0.49870763  0.00005159  0.75443094  1
  Fe  Fe11  1  0.62350860  0.62542878  0.62029498  1
  Fe  Fe12  1  0.12570055  0.62201283  0.12634498  1
  Fe  Fe13  1  0.00126763  0.00166920  0.00013726  1
  Fe  Fe14  1  0.00221592  0.49908683  -0.00126209  1
  Fe  Fe15  1  0.50125158  0.50238979  0.25330238  1
  Fe  Fe16  1  0.74864187  0.75080718  0.00226833  1
  Fe  Fe17  1  0.74748206  -0.00175285  -0.00128625  1
  Fe  Fe18  1  0.87694868  0.62329013  0.62422325  1
  Fe  Fe19  1  0.25092594  0.00301943  0.75326861  1
  Fe  Fe20  1  0.62620426  0.12442026  0.12541944  1
  Fe  Fe21  1  0.49580086  0.74839264  0.00031957  1
  Fe  Fe22  1  0.87532684  0.12526896  0.37333785  1
  Fe  Fe23  1  0.62576191  0.37326000  0.37447549  1
  Fe  Fe24  1  -0.00098308  0.75066542  0.50134290  1
  Fe  Fe25  1  0.50144764  0.00072147  0.25229894  1
  Fe  Fe26  1  0.24741188  0.00077850  0.49876274  1
  Fe  Fe27  1  0.75044974  0.25006620  0.74951024  1
  Fe  Fe28  1  0.00139778  0.25301875  0.75017442  1
  Fe  Fe29  1  0.37514564  0.62257226  0.62299902  1
  Fe  Fe30  1  0.12335626  0.62171480  0.62339263  1
  Fe  Fe31  1  0.37880484  0.37724260  0.87373801  1
  Fe  Fe32  1  0.12919598  0.87156488  0.87513322  1
  Fe  Fe33  1  0.25152978  0.25321739  0.00137741  1
  Fe  Fe34  1  0.74941192  0.74873497  0.74950416  1
  Fe  Fe35  1  0.62570523  0.87560797  0.62648030  1
  Fe  Fe36  1  0.00079354  0.74928017  0.75110291  1
  Fe  Fe37  1  0.24928074  0.49687394  0.49695206  1
  Fe  Fe38  1  0.87632805  0.87832475  0.62873883  1
  Fe  Fe39  1  0.87535466  0.37768633  0.62349412  1
  Fe  Fe40  1  0.24950982  0.00139185  0.24931488  1
  Fe  Fe41  1  0.37721216  0.37725296  0.12781759  1
  Fe  Fe42  1  -0.00283127  0.49827429  0.25296565  1
  Fe  Fe43  1  0.12346258  0.87769330  0.62635217  1
  Fe  Fe44  1  0.12356729  0.12549520  0.37264731  1
  Fe  Fe45  1  0.87275723  0.37527210  0.87769723  1
  Fe  Fe46  1  0.37563178  0.87522695  0.12580704  1
  Fe  Fe47  1  0.37837564  0.62697769  0.37755155  1
  Fe  Fe48  1  0.62558246  0.86804578  0.37452435  1
  Fe  Fe49  1  0.37483282  0.37482986  0.62360326  1
  Fe  Fe50  1  0.24898470  0.49761257  0.75051227  1
  Fe  Fe51  1  0.49963559  -0.00211565  -0.00317363  1
  Fe  Fe52  1  0.25263505  0.50022566  0.00000162  1
  Fe  Fe53  1  0.12668342  0.12917898  0.87634579  1
  Fe  Fe54  1  0.50150180  0.00041028  0.49620501  1
  Fe  Fe55  1  0.62204390  0.62618870  0.12661261  1
  Fe  Fe56  1  0.87553113  0.62352095  0.12431008  1
  Fe  Fe57  1  0.37452231  0.87502811  0.37478129  1
  Fe  Fe58  1  0.12212968  0.62502074  0.37631669  1
  Fe  Fe59  1  0.75081885  0.50279016  0.49534179  1
  Fe  Fe60  1  0.25081104  0.74835446  0.24857266  1
  Fe  Fe61  1  0.25015487  0.75091122  0.50145372  1
  Fe  Fe62  1  0.62484100  0.37581771  0.62406884  1
  Fe  Fe63  1  0.25126684  0.49959858  0.25312592  1
  Fe  Fe64  1  0.37411847  0.87787550  0.62582497  1
  Fe  Fe65  1  0.25063140  0.25059662  0.24950962  1
  Fe  Fe66  1  0.62578725  0.12701717  0.87489626  1
  Fe  Fe67  1  0.12914919  0.62733971  0.87486720  1
  Fe  Fe68  1  0.49733994  0.74840894  0.74922058  1
  Fe  Fe69  1  0.49936607  0.25003670  0.74916555  1
  Fe  Fe70  1  0.87643516  0.87514642  0.12589422  1
  Fe  Fe71  1  0.24999965  0.25128559  0.49738785  1
  Fe  Fe72  1  0.12461287  0.87569115  0.12541255  1
  Fe  Fe73  1  0.00139160  0.74893871  0.00097680  1
  Fe  Fe74  1  0.37600374  0.12450855  0.12383172  1
  Fe  Fe75  1  0.75152156  -0.00150864  0.49889736  1
  Fe  Fe76  1  0.74359543  0.49579431  0.00181972  1
  Fe  Fe77  1  0.87400087  0.87489594  0.87338551  1
  Fe  Fe78  1  0.87306697  0.62355638  0.87696531  1
  Fe  Fe79  1  0.00169600  0.49806810  0.75212385  1
  Fe  Fe80  1  0.12463393  0.12551204  0.62654724  1
  Fe  Fe81  1  0.75017835  0.50349964  0.25321769  1
  Fe  Fe82  1  0.75090883  0.24874608  0.50136397  1
  Fe  Fe83  1  0.37446256  0.12459191  0.62363384  1
  Fe  Fe84  1  -0.00148386  0.25042451  0.24412293  1
  Fe  Fe85  1  0.50420605  0.25444471  0.00122907  1
  Fe  Fe86  1  0.25200929  0.00043880  -0.00119322  1
  Fe  Fe87  1  0.49865515  0.24678600  0.25255452  1
  Fe  Fe88  1  0.12262774  0.87485666  0.37333541  1
  Fe  Fe89  1  0.74817945  0.50021100  0.74948838  1
  Co  Co90  1  0.87035239  0.12228859  0.12320710  1
  Co  Co91  1  -0.00014438  0.00273809  0.24809020  1
  Co  Co92  1  0.87432589  0.37197949  0.37515863  1
  Co  Co93  1  0.50002048  0.50164751  0.74746049  1
  Co  Co94  1  0.37312643  0.62517706  0.87326926  1
  Co  Co95  1  0.00327513  0.00114614  0.75485892  1
  Co  Co96  1  0.12850485  0.12507951  0.12412259  1
  Co  Co97  1  0.74991837  0.74819762  0.24582085  1
  Co  Co98  1  -0.00100673  0.00013132  0.49707309  1
  Co  Co99  1  0.37650281  0.12872932  0.87755816  1
  Co  Co100  1  0.87637006  0.63033039  0.37457528  1
  Co  Co101  1  0.12623282  0.37812256  0.12606095  1
  Co  Co102  1  0.50133398  0.49717919  0.49805214  1
  Co  Co103  1  0.25017979  0.74869043  0.74390013  1
  Co  Co104  1  0.62429947  0.37593187  0.87032408  1
  Co  Co105  1  0.62184514  0.87451827  0.12443341  1
  Co  Co106  1  -0.00182845  0.49830612  0.49692037  1
  Co  Co107  1  0.12613819  0.37569821  0.62323778  1
  Co  Co108  1  0.75366202  0.75093343  0.50318755  1
  Co  Co109  1  0.87408076  0.37930750  0.12278692  1
  Co  Co110  1  0.25154502  0.25107176  0.75115616  1
  Co  Co111  1  0.37676753  0.37495212  0.37380770  1
  Co  Co112  1  0.12529443  0.37351329  0.87736957  1
  Co  Co113  1  0.74638948  0.25348207  0.00146906  1
  Co  Co114  1  0.12284068  0.37330216  0.37296755  1
  Co  Co115  1  0.62328617  0.37488573  0.13260958  1
  Co  Co116  1  0.37170856  0.86995503  0.87418932  1
  Co  Co117  1  0.37229876  0.12271005  0.37567557  1
  Co  Co118  1  0.49741121  0.74982354  0.24890546  1
  Co  Co119  1  0.25151758  0.74768647  0.00641939  1
  Co  Co120  1  0.50144851  0.49884010  0.00150823  1
  Co  Co121  1  0.62915455  0.12625226  0.37446250  1
  Co  Co122  1  0.62265173  0.63075031  0.37763090  1
  Co  Co123  1  0.37587912  0.62190038  0.12670512  1
  Co  Co124  1  0.00220543  0.74807451  0.24651140  1
  Co  Co125  1  0.49712293  0.75291939  0.50287724  1
  Co  Co126  1  0.62438450  0.87126524  0.87415326  1
  Co  Co127  1  0.74835775  0.00157164  0.75190615  1
