# generated using pymatgen
data_Fe45Co19
_symmetry_space_group_name_H-M   'P 1'
_cell_length_a   11.41495830
_cell_length_b   11.41528032
_cell_length_c   11.41619276
_cell_angle_alpha   90.00571517
_cell_angle_beta   90.00411439
_cell_angle_gamma   89.99318656
_symmetry_Int_Tables_number   1
_chemical_formula_structural   Fe45Co19
_chemical_formula_sum   'Fe90 Co38'
_cell_volume   1487.58639064
_cell_formula_units_Z   2
loop_
 _symmetry_equiv_pos_site_id
 _symmetry_equiv_pos_as_xyz
  1  'x, y, z'
loop_
 _atom_site_type_symbol
 _atom_site_label
 _atom_site_symmetry_multiplicity
 _atom_site_fract_x
 _atom_site_fract_y
 _atom_site_fract_z
 _atom_site_occupancy
  Fe  Fe0  1  0.49922007  0.50066175  0.50085642  1
  Fe  Fe1  1  0.00131794  0.75063105  0.00008711  1
  Fe  Fe2  1  0.50194295  0.24928183  0.75303948  1
  Fe  Fe3  1  0.50108317  0.00030449  0.49961780  1
  Fe  Fe4  1  0.87514253  0.12397047  0.87453379  1
  Fe  Fe5  1  0.74763540  0.74631133  0.75031633  1
  Fe  Fe6  1  0.49940676  -0.00037836  0.74950012  1
  Fe  Fe7  1  0.37612091  0.12545616  0.12467501  1
  Fe  Fe8  1  0.00090610  0.75018580  0.25015147  1
  Fe  Fe9  1  0.12432366  0.37257676  0.12631865  1
  Fe  Fe10  1  0.87571365  0.37525679  0.87323478  1
  Fe  Fe11  1  -0.00372703  0.24502579  0.49997804  1
  Fe  Fe12  1  0.37616633  0.37511373  0.62493125  1
  Fe  Fe13  1  0.24764430  0.75172320  0.24969879  1
  Fe  Fe14  1  0.12583622  0.62464729  0.87475623  1
  Fe  Fe15  1  0.87651817  0.87625434  0.12652383  1
  Fe  Fe16  1  0.87485372  0.62419501  0.87539622  1
  Fe  Fe17  1  0.62690445  0.62476681  0.37611761  1
  Fe  Fe18  1  0.12232681  0.88128040  0.87339561  1
  Fe  Fe19  1  0.12426562  0.87623748  0.12237687  1
  Fe  Fe20  1  0.49987799  0.24908105  0.49604577  1
  Fe  Fe21  1  0.62315886  0.37673097  0.37029568  1
  Fe  Fe22  1  0.12399099  0.37276323  0.87480246  1
  Fe  Fe23  1  0.25077137  -0.00024661  -0.00178173  1
  Fe  Fe24  1  0.49996921  0.49885805  0.00074975  1
  Fe  Fe25  1  0.49876588  0.74864746  0.25145583  1
  Fe  Fe26  1  0.37730382  0.12313034  0.87643727  1
  Fe  Fe27  1  0.50155419  0.74721488  0.74979620  1
  Fe  Fe28  1  0.24861451  0.49855271  0.74834201  1
  Fe  Fe29  1  0.87615756  0.37578390  0.62735510  1
  Fe  Fe30  1  0.00487176  0.50298932  0.50098118  1
  Fe  Fe31  1  0.24675990  0.74986232  0.50144381  1
  Fe  Fe32  1  0.24950874  0.75415783  0.75115434  1
  Fe  Fe33  1  0.37458876  0.87569068  0.37534839  1
  Fe  Fe34  1  0.00195530  0.49956247  -0.00051147  1
  Fe  Fe35  1  0.25040811  -0.00105241  0.50194618  1
  Fe  Fe36  1  0.87447044  0.12312378  0.12794886  1
  Fe  Fe37  1  0.75420750  0.75279630  0.49994977  1
  Fe  Fe38  1  0.62734438  0.12512596  0.62467261  1
  Fe  Fe39  1  0.37349962  0.62597296  0.87601762  1
  Fe  Fe40  1  0.75169421  0.75045215  0.25032166  1
  Fe  Fe41  1  0.25291198  0.25304289  0.49655054  1
  Fe  Fe42  1  0.00113440  0.24650070  0.00077597  1
  Fe  Fe43  1  0.12031041  0.87808149  0.62497025  1
  Fe  Fe44  1  0.24720421  0.49811412  0.25249288  1
  Fe  Fe45  1  0.75075122  0.49824702  0.50028404  1
  Fe  Fe46  1  0.87544834  0.62507522  0.12339545  1
  Fe  Fe47  1  0.37505683  0.12556994  0.62344081  1
  Fe  Fe48  1  0.62282215  0.37344183  0.12838179  1
  Fe  Fe49  1  0.87580365  0.62399138  0.62647980  1
  Fe  Fe50  1  0.11923764  0.87602567  0.37954505  1
  Fe  Fe51  1  0.62625221  0.87410200  0.62347161  1
  Fe  Fe52  1  0.62304699  0.12702998  0.12411612  1
  Fe  Fe53  1  0.87635607  0.37516907  0.37357712  1
  Fe  Fe54  1  0.75103166  0.25098251  0.49777416  1
  Fe  Fe55  1  0.37134109  0.62356500  0.37614455  1
  Fe  Fe56  1  0.24872093  0.24601257  0.75075515  1
  Fe  Fe57  1  0.49949619  0.75001524  0.49908227  1
  Fe  Fe58  1  0.87698620  0.87691361  0.87346506  1
  Fe  Fe59  1  0.74748758  0.25026223  -0.00123420  1
  Fe  Fe60  1  0.62428904  0.37674607  0.62793926  1
  Fe  Fe61  1  0.12451335  0.37287788  0.62424613  1
  Fe  Fe62  1  -0.00122544  0.24701973  0.25004113  1
  Fe  Fe63  1  0.37242523  0.62461483  0.62406916  1
  Fe  Fe64  1  0.37789311  0.37314544  0.12840603  1
  Fe  Fe65  1  0.74756080  0.25134453  0.75284790  1
  Fe  Fe66  1  0.37614982  0.87483077  0.62519452  1
  Fe  Fe67  1  0.74976359  0.49865835  -0.00068748  1
  Fe  Fe68  1  0.00105249  0.74873572  0.74944175  1
  Fe  Fe69  1  0.25022820  0.24948022  -0.00089136  1
  Fe  Fe70  1  0.25219387  0.25012908  0.25403805  1
  Fe  Fe71  1  0.62442683  0.87272568  0.12447561  1
  Fe  Fe72  1  0.50034788  0.00033172  0.25020106  1
  Fe  Fe73  1  0.37422651  0.87445013  0.12381208  1
  Fe  Fe74  1  0.37051913  0.62652507  0.12396471  1
  Fe  Fe75  1  0.24766604  0.49838469  0.00082545  1
  Fe  Fe76  1  0.62497207  0.87522746  0.87565926  1
  Fe  Fe77  1  0.62794190  0.87614912  0.37586175  1
  Fe  Fe78  1  0.63016070  0.12262971  0.37452465  1
  Fe  Fe79  1  0.00274564  0.24573328  0.74927876  1
  Fe  Fe80  1  0.24757376  -0.00022054  0.25096425  1
  Fe  Fe81  1  0.00109026  0.50039622  0.24956620  1
  Fe  Fe82  1  0.75014740  -0.00141885  0.00133322  1
  Fe  Fe83  1  0.87613086  0.62484200  0.37466511  1
  Fe  Fe84  1  0.49878645  0.75105174  -0.00112990  1
  Fe  Fe85  1  0.37688752  0.37610161  0.87362649  1
  Fe  Fe86  1  0.62762928  0.62674745  0.12311157  1
  Fe  Fe87  1  0.75149296  -0.00049654  0.74758653  1
  Fe  Fe88  1  0.12375994  0.12371984  0.37756986  1
  Fe  Fe89  1  0.87473991  0.37497744  0.12529601  1
  Co  Co90  1  0.62462569  0.37897248  0.87285490  1
  Co  Co91  1  0.24644354  0.75259532  -0.00227803  1
  Co  Co92  1  0.75608200  -0.00112492  0.50387427  1
  Co  Co93  1  0.49838964  0.24557745  0.25437453  1
  Co  Co94  1  0.86951741  0.13004036  0.62794602  1
  Co  Co95  1  0.75088184  0.25153953  0.24959221  1
  Co  Co96  1  0.37907622  0.37955841  0.37338672  1
  Co  Co97  1  0.12077510  0.37198878  0.37558922  1
  Co  Co98  1  0.87680076  0.87099250  0.62833127  1
  Co  Co99  1  0.62510158  0.62437545  0.87925517  1
  Co  Co100  1  0.12802967  0.12648054  0.12516117  1
  Co  Co101  1  0.62623337  0.62512907  0.62046696  1
  Co  Co102  1  0.50170672  0.25186284  -0.00304974  1
  Co  Co103  1  0.12641753  0.62625076  0.62783898  1
  Co  Co104  1  0.00159986  0.49905925  0.75030659  1
  Co  Co105  1  0.49983387  0.50418019  0.74894477  1
  Co  Co106  1  0.37331428  0.12032817  0.37621802  1
  Co  Co107  1  0.87684087  0.87863387  0.37210902  1
  Co  Co108  1  0.74689212  -0.00207592  0.24628657  1
  Co  Co109  1  -0.00885465  0.00350676  0.50470622  1
  Co  Co110  1  0.12414237  0.12217643  0.87621051  1
  Co  Co111  1  0.12555627  0.62767255  0.37347191  1
  Co  Co112  1  0.24622037  0.49789703  0.49984336  1
  Co  Co113  1  0.75265755  0.75278921  -0.00052817  1
  Co  Co114  1  0.12856474  0.12457458  0.62071142  1
  Co  Co115  1  -0.00128053  0.00212795  0.00244957  1
  Co  Co116  1  0.87201771  0.12094542  0.37009402  1
  Co  Co117  1  -0.00160409  0.00588377  0.74434104  1
  Co  Co118  1  0.12534201  0.62453640  0.12522574  1
  Co  Co119  1  0.75094450  0.50054434  0.24919228  1
  Co  Co120  1  0.00405291  0.00081094  0.24913350  1
  Co  Co121  1  0.50028442  -0.00158000  0.00145673  1
  Co  Co122  1  0.74935735  0.50258306  0.74970810  1
  Co  Co123  1  0.50090905  0.50598058  0.24819115  1
  Co  Co124  1  0.25174704  0.00101119  0.74954690  1
  Co  Co125  1  0.37684390  0.87480161  0.87502689  1
  Co  Co126  1  0.62561823  0.12107652  0.87537617  1
  Co  Co127  1  -0.00164494  0.74801576  0.50105119  1
