# generated using pymatgen
data_Fe45Co19
_symmetry_space_group_name_H-M   'P 1'
_cell_length_a   11.41575471
_cell_length_b   11.41397634
_cell_length_c   11.41553859
_cell_angle_alpha   90.00054990
_cell_angle_beta   90.00008940
_cell_angle_gamma   89.99782278
_symmetry_Int_Tables_number   1
_chemical_formula_structural   Fe45Co19
_chemical_formula_sum   'Fe90 Co38'
_cell_volume   1487.43502217
_cell_formula_units_Z   2
loop_
 _symmetry_equiv_pos_site_id
 _symmetry_equiv_pos_as_xyz
  1  'x, y, z'
loop_
 _atom_site_type_symbol
 _atom_site_label
 _atom_site_symmetry_multiplicity
 _atom_site_fract_x
 _atom_site_fract_y
 _atom_site_fract_z
 _atom_site_occupancy
  Fe  Fe0  1  0.62965187  0.37857566  0.12643433  1
  Fe  Fe1  1  0.49805630  -0.00084855  0.24836493  1
  Fe  Fe2  1  0.62512859  0.37594527  0.62583088  1
  Fe  Fe3  1  0.50016609  0.50124036  0.00242956  1
  Fe  Fe4  1  0.75141646  0.50112391  0.49873428  1
  Fe  Fe5  1  0.00094264  -0.00782767  0.00178348  1
  Fe  Fe6  1  0.25173633  -0.00206811  0.24946374  1
  Fe  Fe7  1  0.12635258  0.62746146  0.12850318  1
  Fe  Fe8  1  0.50024079  0.24947575  0.74935267  1
  Fe  Fe9  1  0.49596539  0.00151107  0.74881118  1
  Fe  Fe10  1  0.12404827  0.12223397  0.62424090  1
  Fe  Fe11  1  0.50101117  0.49753693  0.50027434  1
  Fe  Fe12  1  0.74838414  0.74753706  -0.00560859  1
  Fe  Fe13  1  0.62610032  0.87257644  0.12597716  1
  Fe  Fe14  1  0.74617010  0.74933014  0.25632068  1
  Fe  Fe15  1  0.87746192  0.62985162  0.37895137  1
  Fe  Fe16  1  0.87227769  0.63311850  0.62427205  1
  Fe  Fe17  1  0.12745793  0.62374967  0.62382949  1
  Fe  Fe18  1  0.37556702  0.62548765  0.37727107  1
  Fe  Fe19  1  0.87666839  0.12496350  0.87762545  1
  Fe  Fe20  1  0.49582579  0.74735173  0.74861568  1
  Fe  Fe21  1  0.49817737  -0.00151678  0.00039468  1
  Fe  Fe22  1  0.50072154  0.50243301  0.25017992  1
  Fe  Fe23  1  0.24860744  0.50109509  0.00045821  1
  Fe  Fe24  1  0.37570094  0.37132972  0.37801071  1
  Fe  Fe25  1  0.62238028  0.87549381  0.87234526  1
  Fe  Fe26  1  0.37304641  0.37554854  0.12566019  1
  Fe  Fe27  1  0.00045434  0.50318572  0.00131229  1
  Fe  Fe28  1  0.24810066  0.75269376  0.00107454  1
  Fe  Fe29  1  0.49432093  0.50285461  0.74861288  1
  Fe  Fe30  1  0.62787904  0.12339107  0.62576812  1
  Fe  Fe31  1  0.12321352  0.12157142  0.37504663  1
  Fe  Fe32  1  0.62580925  0.62603280  0.62342831  1
  Fe  Fe33  1  0.37330464  0.37692406  0.87450983  1
  Fe  Fe34  1  0.75129575  0.24996761  0.25049420  1
  Fe  Fe35  1  -0.00224484  0.50254301  0.24987281  1
  Fe  Fe36  1  0.62149794  0.62314437  0.87537747  1
  Fe  Fe37  1  0.00197243  0.24985849  0.50085688  1
  Fe  Fe38  1  0.87429864  0.37574230  0.12202973  1
  Fe  Fe39  1  0.12426645  0.37822229  0.87307180  1
  Fe  Fe40  1  0.49979605  0.75055240  0.00044176  1
  Fe  Fe41  1  0.12403625  0.12127023  0.87459241  1
  Fe  Fe42  1  -0.00381368  -0.00476477  0.24669791  1
  Fe  Fe43  1  0.37485283  0.62859054  0.12634620  1
  Fe  Fe44  1  0.50289021  0.75108335  0.49805114  1
  Fe  Fe45  1  0.62560357  0.87406410  0.62668214  1
  Fe  Fe46  1  0.12328330  0.62598414  0.37593463  1
  Fe  Fe47  1  0.24923560  -0.00339245  0.00147377  1
  Fe  Fe48  1  0.00100935  0.25078237  0.24816538  1
  Fe  Fe49  1  0.87570204  0.37614564  0.87795900  1
  Fe  Fe50  1  0.75218530  0.24937795  0.75114260  1
  Fe  Fe51  1  0.87570887  0.12596386  0.12137028  1
  Fe  Fe52  1  0.75074895  -0.00224330  -0.00156157  1
  Fe  Fe53  1  0.37157297  0.87411481  0.87188343  1
  Fe  Fe54  1  0.62583599  0.12246735  0.37482854  1
  Fe  Fe55  1  0.12347068  0.12293707  0.12499711  1
  Fe  Fe56  1  0.25056577  0.50094029  0.25194519  1
  Fe  Fe57  1  0.50136202  0.24968630  0.25210740  1
  Fe  Fe58  1  0.24590630  0.25121408  0.00139007  1
  Fe  Fe59  1  0.37334816  0.12915000  0.62120848  1
  Fe  Fe60  1  0.75209707  0.50419551  0.75181085  1
  Fe  Fe61  1  0.87657062  0.37486364  0.62424142  1
  Fe  Fe62  1  0.87198204  0.62822317  0.12343067  1
  Fe  Fe63  1  0.75293755  -0.00188635  0.74994545  1
  Fe  Fe64  1  0.37390501  0.12578858  0.12504679  1
  Fe  Fe65  1  -0.00284844  -0.00696148  0.50414396  1
  Fe  Fe66  1  0.75322946  -0.00206583  0.25089351  1
  Fe  Fe67  1  0.25131026  -0.00088941  0.49925845  1
  Fe  Fe68  1  -0.00054299  0.24892054  0.74987405  1
  Fe  Fe69  1  0.12548622  0.62872196  0.87283591  1
  Fe  Fe70  1  0.87611608  0.37554428  0.37614681  1
  Fe  Fe71  1  0.75351490  -0.00445605  0.50055763  1
  Fe  Fe72  1  0.37741785  0.87443579  0.37362350  1
  Fe  Fe73  1  -0.00185396  -0.00443700  0.74671841  1
  Fe  Fe74  1  0.87796364  0.86864004  0.87214239  1
  Fe  Fe75  1  0.24711319  0.24996888  0.25149523  1
  Fe  Fe76  1  0.62584235  0.12383094  0.87476112  1
  Fe  Fe77  1  0.24886261  0.75273853  0.49985551  1
  Fe  Fe78  1  0.62598514  0.37742734  0.87416296  1
  Fe  Fe79  1  0.50224286  0.25148578  0.00035385  1
  Fe  Fe80  1  0.49861614  0.00153814  0.50054050  1
  Fe  Fe81  1  0.62612302  0.12383679  0.12381360  1
  Fe  Fe82  1  0.87696562  0.12357521  0.37663089  1
  Fe  Fe83  1  -0.00147743  0.50383904  0.74779102  1
  Fe  Fe84  1  0.12191267  0.37782587  0.37553919  1
  Fe  Fe85  1  0.74881410  0.24967271  0.49971199  1
  Fe  Fe86  1  0.24750057  0.25154687  0.74709761  1
  Fe  Fe87  1  0.12181881  0.87350695  0.37200297  1
  Fe  Fe88  1  0.37327525  0.12636645  0.87627184  1
  Fe  Fe89  1  0.24959563  0.49541803  0.50282836  1
  Co  Co90  1  0.24409549  0.25129332  0.49990048  1
  Co  Co91  1  0.37657951  0.37264513  0.62402261  1
  Co  Co92  1  0.74820908  0.24976156  -0.00148571  1
  Co  Co93  1  0.00458563  0.75041795  0.74475999  1
  Co  Co94  1  0.12136830  0.37758145  0.62677642  1
  Co  Co95  1  -0.00098406  0.74924701  0.24830388  1
  Co  Co96  1  0.74491684  0.75305539  0.49515274  1
  Co  Co97  1  0.12621295  0.87258452  0.12933534  1
  Co  Co98  1  0.37615888  0.87382732  0.62395558  1
  Co  Co99  1  0.87815478  0.87128404  0.37550347  1
  Co  Co100  1  0.74567340  0.74694780  0.75473539  1
  Co  Co101  1  0.75051912  0.50351526  -0.00349830  1
  Co  Co102  1  0.25121488  0.74953191  0.25373796  1
  Co  Co103  1  0.50250071  0.74842987  0.25291370  1
  Co  Co104  1  0.12777555  0.87416228  0.86983649  1
  Co  Co105  1  0.37412526  0.12632646  0.37504019  1
  Co  Co106  1  0.25310913  0.74646296  0.74627475  1
  Co  Co107  1  0.00430038  0.75370992  0.50476802  1
  Co  Co108  1  0.37560994  0.87154906  0.12691988  1
  Co  Co109  1  0.75366406  0.50303305  0.25296913  1
  Co  Co110  1  0.62268279  0.88042701  0.37447339  1
  Co  Co111  1  0.13080025  0.87687733  0.62872177  1
  Co  Co112  1  0.62351515  0.62039209  0.37625286  1
  Co  Co113  1  0.87573514  0.12546870  0.62382102  1
  Co  Co114  1  0.88036749  0.62863336  0.87429568  1
  Co  Co115  1  0.12464379  0.37843401  0.12675729  1
  Co  Co116  1  0.86957039  0.86910979  0.12491638  1
  Co  Co117  1  0.86972553  0.86637710  0.62691281  1
  Co  Co118  1  -0.00216434  0.50315919  0.50166558  1
  Co  Co119  1  0.37305572  0.62596993  0.87885813  1
  Co  Co120  1  0.00293846  0.75232132  0.00203954  1
  Co  Co121  1  0.37471619  0.62514137  0.61879861  1
  Co  Co122  1  0.62723829  0.62666576  0.12507862  1
  Co  Co123  1  0.00343995  0.25095266  0.00007352  1
  Co  Co124  1  0.50499889  0.24865192  0.49895599  1
  Co  Co125  1  0.25383369  0.00266694  0.74747495  1
  Co  Co126  1  0.25303917  0.50231454  0.74804954  1
  Co  Co127  1  0.62686479  0.37709056  0.37376775  1
