# generated using pymatgen
data_Fe45Co19
_symmetry_space_group_name_H-M   'P 1'
_cell_length_a   11.41643951
_cell_length_b   11.41568984
_cell_length_c   11.41383055
_cell_angle_alpha   89.99844528
_cell_angle_beta   89.99503626
_cell_angle_gamma   90.00131545
_symmetry_Int_Tables_number   1
_chemical_formula_structural   Fe45Co19
_chemical_formula_sum   'Fe90 Co38'
_cell_volume   1487.52495278
_cell_formula_units_Z   2
loop_
 _symmetry_equiv_pos_site_id
 _symmetry_equiv_pos_as_xyz
  1  'x, y, z'
loop_
 _atom_site_type_symbol
 _atom_site_label
 _atom_site_symmetry_multiplicity
 _atom_site_fract_x
 _atom_site_fract_y
 _atom_site_fract_z
 _atom_site_occupancy
  Fe  Fe0  1  0.37631055  0.62813563  0.12096011  1
  Fe  Fe1  1  0.37410028  0.37265374  0.12589326  1
  Fe  Fe2  1  0.62421902  0.37362636  0.87184523  1
  Fe  Fe3  1  -0.00128781  0.75141255  0.50038732  1
  Fe  Fe4  1  0.87458888  0.37355384  0.62604906  1
  Fe  Fe5  1  0.62717946  0.87602702  0.62640149  1
  Fe  Fe6  1  0.12073790  0.87565161  0.37125472  1
  Fe  Fe7  1  0.75021349  0.49823488  -0.00232814  1
  Fe  Fe8  1  0.37565653  0.62518441  0.37790632  1
  Fe  Fe9  1  0.87539097  0.62563561  0.37591389  1
  Fe  Fe10  1  0.62368286  0.37296573  0.12505230  1
  Fe  Fe11  1  0.12539384  0.37433714  0.12372909  1
  Fe  Fe12  1  0.12574502  0.62288653  0.62278183  1
  Fe  Fe13  1  0.12699833  0.12505600  0.12522906  1
  Fe  Fe14  1  0.00022257  0.49973106  0.74874936  1
  Fe  Fe15  1  0.49812048  0.24673737  0.25179548  1
  Fe  Fe16  1  -0.00220608  0.00190714  -0.00041599  1
  Fe  Fe17  1  0.12585077  0.62439520  0.87378296  1
  Fe  Fe18  1  0.87826863  0.37143011  0.87490745  1
  Fe  Fe19  1  0.62456184  0.12500936  0.12300886  1
  Fe  Fe20  1  0.25065776  0.50171957  0.25152924  1
  Fe  Fe21  1  0.87609057  0.87484282  0.12704229  1
  Fe  Fe22  1  0.37446555  0.87297206  0.12239947  1
  Fe  Fe23  1  0.25170627  -0.00009183  -0.00194291  1
  Fe  Fe24  1  0.50085669  0.50102037  0.25001085  1
  Fe  Fe25  1  0.12486437  0.37459611  0.87324678  1
  Fe  Fe26  1  0.50065099  0.75114284  0.50232673  1
  Fe  Fe27  1  0.12365903  0.87616242  0.12613321  1
  Fe  Fe28  1  -0.00037272  -0.00304529  0.50117811  1
  Fe  Fe29  1  0.37123528  0.37324151  0.62568098  1
  Fe  Fe30  1  0.25175288  0.00303583  0.25328643  1
  Fe  Fe31  1  -0.00049968  0.75084834  0.74918033  1
  Fe  Fe32  1  0.62535231  0.87598940  0.37521391  1
  Fe  Fe33  1  0.62594699  0.88064863  0.87399402  1
  Fe  Fe34  1  0.12378753  0.62522514  0.12384462  1
  Fe  Fe35  1  0.74863999  0.75179450  -0.00349947  1
  Fe  Fe36  1  0.87278819  0.62651408  0.62759622  1
  Fe  Fe37  1  0.87509525  0.37409079  0.37660441  1
  Fe  Fe38  1  0.25054525  0.24668480  0.25561064  1
  Fe  Fe39  1  0.37331242  0.87680555  0.62681000  1
  Fe  Fe40  1  0.37314979  0.12324620  0.62202749  1
  Fe  Fe41  1  0.37298982  0.37532336  0.87193078  1
  Fe  Fe42  1  0.50052366  0.75133566  0.75422443  1
  Fe  Fe43  1  0.25077853  0.74991377  0.75244398  1
  Fe  Fe44  1  0.49778065  0.00211256  0.25063375  1
  Fe  Fe45  1  0.37636421  0.87549165  0.37597526  1
  Fe  Fe46  1  0.62805740  0.62458002  0.62852990  1
  Fe  Fe47  1  0.74995855  0.24813468  -0.00253758  1
  Fe  Fe48  1  0.87271844  0.62480233  0.87271598  1
  Fe  Fe49  1  0.24843420  0.74904384  0.25017049  1
  Fe  Fe50  1  0.87450794  0.12727424  0.12352978  1
  Fe  Fe51  1  0.75184628  0.00091064  0.25125310  1
  Fe  Fe52  1  0.87600164  0.12397272  0.37723378  1
  Fe  Fe53  1  0.24959248  0.50102479  -0.00136746  1
  Fe  Fe54  1  0.37377930  0.62599586  0.62556730  1
  Fe  Fe55  1  0.24865874  0.75170342  0.49864059  1
  Fe  Fe56  1  0.87713182  0.37426908  0.12314777  1
  Fe  Fe57  1  0.50030831  0.50048111  -0.00140702  1
  Fe  Fe58  1  0.00018342  0.50160792  0.25094302  1
  Fe  Fe59  1  0.62388505  0.37368891  0.37932004  1
  Fe  Fe60  1  0.74990063  0.49872481  0.50223942  1
  Fe  Fe61  1  0.75100237  0.75043635  0.25073203  1
  Fe  Fe62  1  0.12576355  0.87636815  0.87348901  1
  Fe  Fe63  1  0.00351343  0.24716989  0.74895009  1
  Fe  Fe64  1  0.62541520  0.87622757  0.12472857  1
  Fe  Fe65  1  0.74888099  0.49853116  0.25026051  1
  Fe  Fe66  1  0.87539629  0.12152888  0.62614163  1
  Fe  Fe67  1  0.37708006  0.12419744  0.87116685  1
  Fe  Fe68  1  0.74761721  0.24646554  0.74988907  1
  Fe  Fe69  1  0.62187968  0.12585242  0.62211609  1
  Fe  Fe70  1  0.49813865  -0.00032522  0.00012479  1
  Fe  Fe71  1  0.25054768  0.24912720  -0.00227476  1
  Fe  Fe72  1  0.62337030  0.12464623  0.37950781  1
  Fe  Fe73  1  0.37718620  0.37600290  0.37685812  1
  Fe  Fe74  1  0.49844350  0.24996418  -0.00131690  1
  Fe  Fe75  1  0.87414441  0.88078645  0.86890138  1
  Fe  Fe76  1  0.49948016  0.49872912  0.74804251  1
  Fe  Fe77  1  0.74937520  0.25002241  0.25155652  1
  Fe  Fe78  1  0.12373187  0.37753950  0.37946385  1
  Fe  Fe79  1  0.12456685  0.12430339  0.87437915  1
  Fe  Fe80  1  0.87470335  0.62426094  0.12314133  1
  Fe  Fe81  1  0.62434752  0.62540514  0.37769134  1
  Fe  Fe82  1  0.50025183  0.75002409  0.24954834  1
  Fe  Fe83  1  0.00087734  0.25071378  0.50154839  1
  Fe  Fe84  1  0.62519436  0.62612868  0.12299738  1
  Fe  Fe85  1  0.00200094  0.24864971  0.24982559  1
  Fe  Fe86  1  0.75263861  0.75450100  0.50102457  1
  Fe  Fe87  1  0.12584312  0.87567213  0.62737926  1
  Fe  Fe88  1  0.12915238  0.12408470  0.62178398  1
  Fe  Fe89  1  -0.00040524  0.75074064  -0.00169970  1
  Co  Co90  1  0.75150098  0.24856359  0.50171570  1
  Co  Co91  1  0.25058780  0.00083437  0.75057527  1
  Co  Co92  1  0.62655163  0.62204656  0.87133717  1
  Co  Co93  1  0.12550041  0.62360007  0.37873424  1
  Co  Co94  1  0.24815865  -0.00398516  0.49779190  1
  Co  Co95  1  0.25239524  0.49903619  0.50123401  1
  Co  Co96  1  0.37506819  0.62533040  0.87564481  1
  Co  Co97  1  -0.00205946  0.00453010  0.24771051  1
  Co  Co98  1  0.37364862  0.12632607  0.12386440  1
  Co  Co99  1  0.24969100  0.25146863  0.49762593  1
  Co  Co100  1  0.49769042  0.25299241  0.50254010  1
  Co  Co101  1  0.62784422  0.37391007  0.62445825  1
  Co  Co102  1  0.87497092  0.87758094  0.62954592  1
  Co  Co103  1  0.62214477  0.12371545  0.87680342  1
  Co  Co104  1  0.74606085  0.00529516  0.74738995  1
  Co  Co105  1  0.00198196  0.24712410  0.00002747  1
  Co  Co106  1  0.00035605  0.50087853  -0.00211846  1
  Co  Co107  1  0.37703434  0.12332833  0.38218686  1
  Co  Co108  1  0.49969967  -0.00066661  0.74753431  1
  Co  Co109  1  0.24680927  0.75049479  -0.00131101  1
  Co  Co110  1  0.74905825  0.75384808  0.75182372  1
  Co  Co111  1  0.50056197  -0.00372550  0.50173881  1
  Co  Co112  1  0.24859288  0.24758563  0.74929711  1
  Co  Co113  1  0.75276135  0.00112493  0.00003949  1
  Co  Co114  1  0.37399879  0.87464511  0.87530616  1
  Co  Co115  1  0.75062141  -0.00193458  0.50071128  1
  Co  Co116  1  0.87782983  0.87573953  0.37329043  1
  Co  Co117  1  0.12235395  0.12347558  0.37832093  1
  Co  Co118  1  0.50424630  0.75122665  -0.00411144  1
  Co  Co119  1  0.75192910  0.49535336  0.75062282  1
  Co  Co120  1  0.24918105  0.50116593  0.74919428  1
  Co  Co121  1  0.00438183  0.00197851  0.74897344  1
  Co  Co122  1  -0.00338698  0.50067865  0.50291573  1
  Co  Co123  1  0.50044794  0.50019442  0.50442023  1
  Co  Co124  1  0.00012103  0.74563882  0.24955126  1
  Co  Co125  1  0.49965032  0.25017926  0.74782773  1
  Co  Co126  1  0.87574410  0.12430891  0.87234965  1
  Co  Co127  1  0.12530021  0.37595178  0.62411654  1
