# generated using pymatgen
data_Fe45Co19
_symmetry_space_group_name_H-M   'P 1'
_cell_length_a   11.41480852
_cell_length_b   11.41462353
_cell_length_c   11.41472264
_cell_angle_alpha   89.98943192
_cell_angle_beta   89.99571272
_cell_angle_gamma   90.00293499
_symmetry_Int_Tables_number   1
_chemical_formula_structural   Fe45Co19
_chemical_formula_sum   'Fe90 Co38'
_cell_volume   1487.28972460
_cell_formula_units_Z   2
loop_
 _symmetry_equiv_pos_site_id
 _symmetry_equiv_pos_as_xyz
  1  'x, y, z'
loop_
 _atom_site_type_symbol
 _atom_site_label
 _atom_site_symmetry_multiplicity
 _atom_site_fract_x
 _atom_site_fract_y
 _atom_site_fract_z
 _atom_site_occupancy
  Fe  Fe0  1  -0.00138118  0.00118286  0.50174733  1
  Fe  Fe1  1  0.50053002  0.25125637  0.49989206  1
  Fe  Fe2  1  0.00187763  0.75339607  0.75220183  1
  Fe  Fe3  1  0.62664132  0.37647841  0.12229749  1
  Fe  Fe4  1  0.62495064  0.12580711  0.62520666  1
  Fe  Fe5  1  0.49793246  -0.00327200  0.74781912  1
  Fe  Fe6  1  -0.00172169  0.49904468  0.24802462  1
  Fe  Fe7  1  0.37231589  0.87179584  0.87324212  1
  Fe  Fe8  1  0.37413303  0.62660945  0.12627317  1
  Fe  Fe9  1  0.12185122  0.62299256  0.62697187  1
  Fe  Fe10  1  0.49946340  0.49740782  0.74910553  1
  Fe  Fe11  1  0.12487655  0.37496842  0.37610825  1
  Fe  Fe12  1  0.24909418  0.49917903  0.74938054  1
  Fe  Fe13  1  0.62834891  0.37671327  0.37489265  1
  Fe  Fe14  1  0.24850877  0.24909091  0.25062593  1
  Fe  Fe15  1  0.50080179  0.25352080  0.74941654  1
  Fe  Fe16  1  0.49933230  0.49863936  -0.00010528  1
  Fe  Fe17  1  0.12242810  0.12774639  0.62652577  1
  Fe  Fe18  1  0.12348258  0.62492284  0.12348361  1
  Fe  Fe19  1  0.87434959  0.87536601  0.37602571  1
  Fe  Fe20  1  0.62892778  0.87377865  0.37611060  1
  Fe  Fe21  1  0.87550260  0.62684824  0.12371695  1
  Fe  Fe22  1  0.49529817  0.00186823  0.00090007  1
  Fe  Fe23  1  0.37452057  0.62670490  0.87219399  1
  Fe  Fe24  1  0.24888685  -0.00010142  0.24966615  1
  Fe  Fe25  1  0.37345335  0.37279444  0.87670126  1
  Fe  Fe26  1  0.12089251  0.62236510  0.87692335  1
  Fe  Fe27  1  0.12565740  0.87749995  0.87905169  1
  Fe  Fe28  1  0.87430434  0.37300138  0.12344097  1
  Fe  Fe29  1  0.74592779  0.24681565  -0.00348409  1
  Fe  Fe30  1  0.87844338  0.12879826  0.62855831  1
  Fe  Fe31  1  0.37477553  0.12648322  0.62666077  1
  Fe  Fe32  1  0.25029514  0.24497779  0.00055513  1
  Fe  Fe33  1  0.62322668  0.62277906  0.87342285  1
  Fe  Fe34  1  0.75081548  0.00009291  0.24633952  1
  Fe  Fe35  1  0.50128963  0.75096067  0.50126093  1
  Fe  Fe36  1  0.87978202  0.12583166  0.87647645  1
  Fe  Fe37  1  0.62723562  0.62515360  0.12522385  1
  Fe  Fe38  1  0.25032161  -0.00002000  0.75009123  1
  Fe  Fe39  1  -0.00118652  0.24868511  0.24994398  1
  Fe  Fe40  1  0.87657184  0.62439812  0.62834787  1
  Fe  Fe41  1  -0.00291930  0.49231167  0.75423359  1
  Fe  Fe42  1  -0.00156914  0.75034326  0.49951089  1
  Fe  Fe43  1  0.75477901  0.50099651  0.49916754  1
  Fe  Fe44  1  0.87053631  0.87500363  0.11755884  1
  Fe  Fe45  1  0.50250854  0.75146391  0.24838483  1
  Fe  Fe46  1  0.61938262  0.12463149  0.87377346  1
  Fe  Fe47  1  0.49885413  -0.00207199  0.50155478  1
  Fe  Fe48  1  0.37345519  0.37594135  0.37709487  1
  Fe  Fe49  1  0.75203436  0.00349660  0.75246694  1
  Fe  Fe50  1  0.24931205  0.50044232  0.25014415  1
  Fe  Fe51  1  0.62624590  0.12388780  0.37586354  1
  Fe  Fe52  1  0.87437798  0.87491626  0.62717295  1
  Fe  Fe53  1  0.50176663  -0.00220953  0.24951045  1
  Fe  Fe54  1  0.37269940  0.87347416  0.37498265  1
  Fe  Fe55  1  0.12388239  0.12305227  0.87425998  1
  Fe  Fe56  1  0.62589923  0.87653123  0.87750742  1
  Fe  Fe57  1  0.37406310  0.62880439  0.62722122  1
  Fe  Fe58  1  -0.00261315  -0.00074334  0.24456693  1
  Fe  Fe59  1  0.75385200  0.50218923  -0.00378266  1
  Fe  Fe60  1  0.12553159  0.87611643  0.62421172  1
  Fe  Fe61  1  0.63162721  0.37558688  0.62788163  1
  Fe  Fe62  1  0.62270598  0.12369114  0.12449361  1
  Fe  Fe63  1  0.24917551  0.50142927  0.00175361  1
  Fe  Fe64  1  -0.00031074  0.75324481  0.24842406  1
  Fe  Fe65  1  0.37374123  0.37313985  0.12432487  1
  Fe  Fe66  1  0.12878537  0.87596446  0.12084687  1
  Fe  Fe67  1  0.12279718  0.62520642  0.37417528  1
  Fe  Fe68  1  0.25046815  0.00142979  0.50037217  1
  Fe  Fe69  1  0.37416253  0.62559056  0.37466043  1
  Fe  Fe70  1  0.24692606  0.74920658  0.49963947  1
  Fe  Fe71  1  0.50158367  0.25213763  0.24946902  1
  Fe  Fe72  1  0.75123858  0.24877633  0.25074567  1
  Fe  Fe73  1  0.00441416  0.25279486  -0.00039301  1
  Fe  Fe74  1  0.75076286  0.74836559  0.75326902  1
  Fe  Fe75  1  0.50025682  0.74947072  -0.00040815  1
  Fe  Fe76  1  0.75520094  0.24940974  0.49802104  1
  Fe  Fe77  1  0.62696477  0.62471266  0.62710175  1
  Fe  Fe78  1  0.50119513  0.49912768  0.24987655  1
  Fe  Fe79  1  0.62747444  0.87409031  0.62584559  1
  Fe  Fe80  1  0.12108945  0.12300378  0.37457960  1
  Fe  Fe81  1  0.87500550  0.87590715  0.87811080  1
  Fe  Fe82  1  0.75207094  0.00138857  0.50217505  1
  Fe  Fe83  1  0.50068228  0.50054564  0.50083946  1
  Fe  Fe84  1  0.37100731  0.37378538  0.62280999  1
  Fe  Fe85  1  0.62995916  0.62660645  0.37334156  1
  Fe  Fe86  1  -0.00339037  0.49729377  0.49915162  1
  Fe  Fe87  1  0.37235862  0.87371422  0.12425215  1
  Fe  Fe88  1  0.37674380  0.12538638  0.37390340  1
  Fe  Fe89  1  0.12528267  0.37212561  0.62289516  1
  Co  Co90  1  0.24875881  0.74653404  -0.00137362  1
  Co  Co91  1  0.87250309  0.37223130  0.62873778  1
  Co  Co92  1  0.88154473  0.62704754  0.87492481  1
  Co  Co93  1  0.37205500  0.87101522  0.62665645  1
  Co  Co94  1  0.25355013  0.00460119  -0.00142538  1
  Co  Co95  1  0.62605085  0.87623245  0.11968779  1
  Co  Co96  1  -0.00234381  0.49584277  0.00037273  1
  Co  Co97  1  -0.00292714  0.25097261  0.49781922  1
  Co  Co98  1  0.12971847  0.37671022  0.87834096  1
  Co  Co99  1  0.87136301  0.37081117  0.87630666  1
  Co  Co100  1  0.87518280  0.12851723  0.12140103  1
  Co  Co101  1  0.74857995  0.74625498  -0.00329496  1
  Co  Co102  1  0.00004964  -0.00164128  0.75081907  1
  Co  Co103  1  0.75286903  0.74850959  0.50237435  1
  Co  Co104  1  0.24705066  0.74988651  0.25009294  1
  Co  Co105  1  0.00274761  0.25491445  0.75349826  1
  Co  Co106  1  0.75086414  0.75325960  0.24666553  1
  Co  Co107  1  0.24752867  0.24990827  0.75113744  1
  Co  Co108  1  0.12652389  0.37465400  0.12561451  1
  Co  Co109  1  0.74942350  0.24524436  0.75422525  1
  Co  Co110  1  0.24895134  0.50233104  0.50059353  1
  Co  Co111  1  0.75167987  0.49984330  0.24792223  1
  Co  Co112  1  0.24882691  0.24679897  0.49847683  1
  Co  Co113  1  0.50354786  0.75113514  0.75053656  1
  Co  Co114  1  0.87583304  0.12057907  0.37347737  1
  Co  Co115  1  0.75389070  0.50278443  0.75447623  1
  Co  Co116  1  0.37560764  0.12543994  0.12906547  1
  Co  Co117  1  0.00029302  0.00053441  0.00291651  1
  Co  Co118  1  0.50000490  0.24973475  0.00078680  1
  Co  Co119  1  0.87565364  0.37653160  0.37175613  1
  Co  Co120  1  0.24315957  0.74913408  0.75159709  1
  Co  Co121  1  0.12495003  0.12399565  0.12558691  1
  Co  Co122  1  0.12256850  0.87725669  0.37570678  1
  Co  Co123  1  0.37729732  0.12719453  0.87061900  1
  Co  Co124  1  0.62562547  0.37646966  0.87428669  1
  Co  Co125  1  0.00140020  0.75180811  0.00053706  1
  Co  Co126  1  0.74974891  0.00559827  -0.00214994  1
  Co  Co127  1  0.87505277  0.62705250  0.37242826  1
