# generated using pymatgen
data_Fe45Co19
_symmetry_space_group_name_H-M   'P 1'
_cell_length_a   11.41520172
_cell_length_b   11.41422786
_cell_length_c   11.41538839
_cell_angle_alpha   90.00510589
_cell_angle_beta   89.99872119
_cell_angle_gamma   89.99827151
_symmetry_Int_Tables_number   1
_chemical_formula_structural   Fe45Co19
_chemical_formula_sum   'Fe90 Co38'
_cell_volume   1487.37616881
_cell_formula_units_Z   2
loop_
 _symmetry_equiv_pos_site_id
 _symmetry_equiv_pos_as_xyz
  1  'x, y, z'
loop_
 _atom_site_type_symbol
 _atom_site_label
 _atom_site_symmetry_multiplicity
 _atom_site_fract_x
 _atom_site_fract_y
 _atom_site_fract_z
 _atom_site_occupancy
  Fe  Fe0  1  0.87606409  0.12533123  0.12626636  1
  Fe  Fe1  1  0.24962433  0.75038973  0.25111291  1
  Fe  Fe2  1  0.37361895  0.62388853  0.62265921  1
  Fe  Fe3  1  0.25123840  0.25209615  0.00010423  1
  Fe  Fe4  1  0.37619129  0.87641146  0.62221739  1
  Fe  Fe5  1  -0.00110200  0.24837493  -0.00029346  1
  Fe  Fe6  1  0.12484772  0.62634723  0.62827276  1
  Fe  Fe7  1  0.25100113  0.75044989  0.75076394  1
  Fe  Fe8  1  0.49793823  0.74470821  0.25420200  1
  Fe  Fe9  1  0.36933640  0.38176962  0.37549390  1
  Fe  Fe10  1  0.49982673  0.74717233  0.49602484  1
  Fe  Fe11  1  0.00120559  0.00481271  0.50329157  1
  Fe  Fe12  1  0.00075655  0.74918790  0.25263344  1
  Fe  Fe13  1  0.49866440  0.25099615  0.49734678  1
  Fe  Fe14  1  0.37894596  0.37866636  0.12597926  1
  Fe  Fe15  1  0.12196652  0.37362558  0.12357034  1
  Fe  Fe16  1  0.75084626  0.74915228  0.25124091  1
  Fe  Fe17  1  0.50055171  0.25042082  0.00051261  1
  Fe  Fe18  1  0.12461957  0.62853496  0.12286380  1
  Fe  Fe19  1  0.49929602  0.50200608  0.49695017  1
  Fe  Fe20  1  0.12456775  0.12628114  0.37442922  1
  Fe  Fe21  1  0.25306842  0.25359395  0.75073377  1
  Fe  Fe22  1  0.87289951  0.62259776  0.37546462  1
  Fe  Fe23  1  0.24862457  0.75083830  0.49906953  1
  Fe  Fe24  1  0.74822491  0.50121857  0.75039363  1
  Fe  Fe25  1  0.00459775  -0.00058168  0.24659453  1
  Fe  Fe26  1  0.00089601  -0.00007693  0.75058563  1
  Fe  Fe27  1  0.50088433  0.00179215  0.74958143  1
  Fe  Fe28  1  0.50100475  -0.00087681  0.00062307  1
  Fe  Fe29  1  0.62395989  0.87253707  0.12766543  1
  Fe  Fe30  1  0.87696485  0.87119999  0.12343706  1
  Fe  Fe31  1  0.00066212  0.49927184  0.50081219  1
  Fe  Fe32  1  0.49935093  0.25306059  0.25270091  1
  Fe  Fe33  1  0.62479565  0.12681446  0.62404552  1
  Fe  Fe34  1  0.37486590  0.87467107  0.12776824  1
  Fe  Fe35  1  0.12376420  0.37310077  0.62545943  1
  Fe  Fe36  1  0.00016773  0.74969882  -0.00787036  1
  Fe  Fe37  1  -0.00099861  0.24762178  0.74997069  1
  Fe  Fe38  1  0.87783413  0.37428977  0.37484040  1
  Fe  Fe39  1  0.75044035  0.75039154  0.49943004  1
  Fe  Fe40  1  0.62544915  0.62522036  0.62405104  1
  Fe  Fe41  1  0.37611533  0.12637560  0.62357771  1
  Fe  Fe42  1  0.12457977  0.87447352  0.62573011  1
  Fe  Fe43  1  0.37352634  0.87808905  0.37630385  1
  Fe  Fe44  1  0.62600261  0.12412441  0.37480916  1
  Fe  Fe45  1  0.00190181  0.50090074  0.75205491  1
  Fe  Fe46  1  0.74736191  -0.00100484  0.75131493  1
  Fe  Fe47  1  0.37776850  0.62518734  0.87740532  1
  Fe  Fe48  1  0.74979768  -0.00027070  0.49856324  1
  Fe  Fe49  1  0.25154625  0.75132196  -0.00077890  1
  Fe  Fe50  1  0.74826806  0.25058851  0.75176405  1
  Fe  Fe51  1  0.87592342  0.62624542  0.62821117  1
  Fe  Fe52  1  0.62780892  0.37881002  0.37480176  1
  Fe  Fe53  1  0.49831104  0.49916057  0.74999748  1
  Fe  Fe54  1  0.62075259  0.62327631  0.12518057  1
  Fe  Fe55  1  0.74927055  0.74684563  -0.00286899  1
  Fe  Fe56  1  0.37467588  0.12453830  0.12672462  1
  Fe  Fe57  1  0.00067685  0.74825678  0.49933242  1
  Fe  Fe58  1  0.74801626  -0.00126004  0.00030490  1
  Fe  Fe59  1  0.25039389  0.49855597  0.00011133  1
  Fe  Fe60  1  0.00082404  0.49974488  0.24830884  1
  Fe  Fe61  1  0.50039542  0.00028086  0.25101811  1
  Fe  Fe62  1  0.75429446  0.24922316  0.49906668  1
  Fe  Fe63  1  0.24831201  0.25206784  0.24884133  1
  Fe  Fe64  1  0.87579526  0.37647889  0.87570064  1
  Fe  Fe65  1  0.74933080  0.50185165  0.00036027  1
  Fe  Fe66  1  -0.00031004  0.50248134  -0.00113508  1
  Fe  Fe67  1  0.25186275  0.49697409  0.75112758  1
  Fe  Fe68  1  0.12754749  0.12606035  0.87484540  1
  Fe  Fe69  1  0.75209184  0.25102118  0.24893744  1
  Fe  Fe70  1  0.75184794  0.49932962  0.24576397  1
  Fe  Fe71  1  0.24882753  -0.00070629  0.00327170  1
  Fe  Fe72  1  0.87623788  0.87373686  0.62733032  1
  Fe  Fe73  1  0.62266979  0.87277147  0.62416997  1
  Fe  Fe74  1  0.62290854  0.87067827  0.87313475  1
  Fe  Fe75  1  0.00269517  -0.00151446  0.00007541  1
  Fe  Fe76  1  0.87574663  0.37394666  0.62596308  1
  Fe  Fe77  1  0.87681282  0.87691979  0.37528389  1
  Fe  Fe78  1  0.37657621  0.12646881  0.87516225  1
  Fe  Fe79  1  0.37650097  0.87510049  0.87404191  1
  Fe  Fe80  1  0.62209352  0.37506142  0.87600225  1
  Fe  Fe81  1  0.12850528  0.62089741  0.37548998  1
  Fe  Fe82  1  0.62414091  0.12677625  0.12602655  1
  Fe  Fe83  1  0.75032497  -0.00108817  0.24936143  1
  Fe  Fe84  1  0.37189749  0.12214895  0.37469996  1
  Fe  Fe85  1  0.74984492  0.25086670  0.00109743  1
  Fe  Fe86  1  0.87280807  0.12271751  0.87439944  1
  Fe  Fe87  1  0.25061908  0.00033385  0.74839608  1
  Fe  Fe88  1  0.62346833  0.37493037  0.62255679  1
  Fe  Fe89  1  0.24853533  0.25155661  0.50074729  1
  Co  Co90  1  0.62276376  0.37572195  0.12599509  1
  Co  Co91  1  0.87268252  0.87575089  0.87469612  1
  Co  Co92  1  0.36730847  0.62065414  0.37617711  1
  Co  Co93  1  0.62412102  0.87460125  0.37398749  1
  Co  Co94  1  0.87057919  0.12425599  0.62830058  1
  Co  Co95  1  0.62073801  0.62607678  0.87366895  1
  Co  Co96  1  0.12842039  0.12736852  0.62774362  1
  Co  Co97  1  0.24716917  0.50018686  0.24307262  1
  Co  Co98  1  0.49959894  0.75238760  0.00130848  1
  Co  Co99  1  0.63054071  0.62238771  0.37557686  1
  Co  Co100  1  0.00113018  0.75139806  0.75431476  1
  Co  Co101  1  0.12330164  0.37407056  0.87539788  1
  Co  Co102  1  0.75379624  0.49925645  0.50325843  1
  Co  Co103  1  0.50090115  0.00130245  0.49957346  1
  Co  Co104  1  0.24573028  0.49862633  0.50590807  1
  Co  Co105  1  0.12405480  0.86946620  0.12310813  1
  Co  Co106  1  0.12533741  0.37599157  0.37562370  1
  Co  Co107  1  0.12883577  0.62415802  0.87397314  1
  Co  Co108  1  0.49911345  0.50229467  0.25400609  1
  Co  Co109  1  -0.00155182  0.24767782  0.50234049  1
  Co  Co110  1  0.12849065  0.87663137  0.87381846  1
  Co  Co111  1  0.24576651  -0.00137956  0.24789533  1
  Co  Co112  1  0.12361463  0.87680739  0.37743149  1
  Co  Co113  1  0.37843469  0.37392705  0.87622683  1
  Co  Co114  1  0.37585944  0.62436436  0.12286694  1
  Co  Co115  1  0.62399532  0.12628679  0.87670287  1
  Co  Co116  1  0.49714701  0.74874846  0.74756555  1
  Co  Co117  1  0.50068103  0.25000873  0.74904301  1
  Co  Co118  1  0.87451716  0.62347994  0.87170748  1
  Co  Co119  1  0.87694044  0.62769892  0.12390331  1
  Co  Co120  1  0.75013829  0.74872982  0.75015698  1
  Co  Co121  1  0.50070561  0.49936693  -0.00067494  1
  Co  Co122  1  0.24779632  0.00084722  0.50131656  1
  Co  Co123  1  0.00092032  0.25112074  0.24931022  1
  Co  Co124  1  0.37685775  0.37545799  0.62236521  1
  Co  Co125  1  0.12628814  0.12824912  0.12359064  1
  Co  Co126  1  0.87710733  0.12306315  0.37198838  1
  Co  Co127  1  0.87680282  0.37462018  0.12317021  1
