# generated using pymatgen
data_Fe45Co19
_symmetry_space_group_name_H-M   'P 1'
_cell_length_a   11.41526431
_cell_length_b   11.41600773
_cell_length_c   11.41543195
_cell_angle_alpha   90.00341227
_cell_angle_beta   89.99699683
_cell_angle_gamma   89.99799726
_symmetry_Int_Tables_number   1
_chemical_formula_structural   Fe45Co19
_chemical_formula_sum   'Fe90 Co38'
_cell_volume   1487.62193551
_cell_formula_units_Z   2
loop_
 _symmetry_equiv_pos_site_id
 _symmetry_equiv_pos_as_xyz
  1  'x, y, z'
loop_
 _atom_site_type_symbol
 _atom_site_label
 _atom_site_symmetry_multiplicity
 _atom_site_fract_x
 _atom_site_fract_y
 _atom_site_fract_z
 _atom_site_occupancy
  Fe  Fe0  1  0.25343893  0.49899584  0.49914185  1
  Fe  Fe1  1  0.49479257  -0.00011050  0.75475056  1
  Fe  Fe2  1  0.12351826  0.37625261  0.12335596  1
  Fe  Fe3  1  0.50679183  0.75264381  0.50354496  1
  Fe  Fe4  1  -0.00124633  0.50060520  0.75134127  1
  Fe  Fe5  1  0.37360898  0.12461656  0.37564069  1
  Fe  Fe6  1  0.24882741  0.75763428  0.74919278  1
  Fe  Fe7  1  0.62418438  0.37559915  0.62570710  1
  Fe  Fe8  1  0.62349627  0.87929439  0.12715582  1
  Fe  Fe9  1  0.62788065  0.12216963  0.37199949  1
  Fe  Fe10  1  0.37688676  0.87426321  0.37661207  1
  Fe  Fe11  1  0.87053621  0.12802688  0.37281523  1
  Fe  Fe12  1  0.24539150  0.74972763  -0.00054883  1
  Fe  Fe13  1  0.37630884  0.62808215  0.62527413  1
  Fe  Fe14  1  0.12120287  0.87506871  0.37706569  1
  Fe  Fe15  1  0.37767127  0.62606249  0.37576113  1
  Fe  Fe16  1  0.12668964  0.12412795  0.12516936  1
  Fe  Fe17  1  0.74875688  0.50014964  0.75159847  1
  Fe  Fe18  1  0.24921573  -0.00302072  0.50209062  1
  Fe  Fe19  1  0.75273046  0.00044916  0.75143000  1
  Fe  Fe20  1  0.62573897  0.11842457  0.12603417  1
  Fe  Fe21  1  0.87558976  0.87532313  0.62130091  1
  Fe  Fe22  1  0.25239245  0.49972146  0.25090548  1
  Fe  Fe23  1  0.25015126  -0.00286684  -0.00300473  1
  Fe  Fe24  1  0.87174398  0.62604756  0.62394221  1
  Fe  Fe25  1  0.87654065  0.87321161  0.37952557  1
  Fe  Fe26  1  0.50087586  0.24774391  0.24866587  1
  Fe  Fe27  1  0.00039265  0.00035977  0.74965044  1
  Fe  Fe28  1  0.12481255  0.37314205  0.37555226  1
  Fe  Fe29  1  0.49814565  0.24715199  0.75443408  1
  Fe  Fe30  1  0.50089882  0.75061930  0.24973841  1
  Fe  Fe31  1  0.87387997  0.62664260  0.87567946  1
  Fe  Fe32  1  0.12361441  0.62570719  0.37357468  1
  Fe  Fe33  1  0.62384080  0.37681620  0.12364609  1
  Fe  Fe34  1  0.37350637  0.62826260  0.87463527  1
  Fe  Fe35  1  0.87339539  0.12488285  0.87589379  1
  Fe  Fe36  1  0.00163750  0.75005513  0.75000443  1
  Fe  Fe37  1  0.87870556  0.87833971  0.12083133  1
  Fe  Fe38  1  0.87808753  0.87531941  0.87742911  1
  Fe  Fe39  1  0.12958191  0.12366977  0.87236579  1
  Fe  Fe40  1  0.62712227  0.12265275  0.62801145  1
  Fe  Fe41  1  0.50239765  0.50466695  0.75182877  1
  Fe  Fe42  1  0.74660823  0.74907129  0.74819084  1
  Fe  Fe43  1  0.49845727  0.50133549  -0.00141729  1
  Fe  Fe44  1  0.50067188  0.24904643  0.50031910  1
  Fe  Fe45  1  0.62617353  0.62504886  0.12411657  1
  Fe  Fe46  1  -0.00141901  0.00228141  0.25063916  1
  Fe  Fe47  1  0.75079162  0.75315194  0.24971838  1
  Fe  Fe48  1  0.25195002  -0.00225190  0.24996949  1
  Fe  Fe49  1  0.87513172  0.37299678  0.62493428  1
  Fe  Fe50  1  -0.00203535  0.49783131  0.24959660  1
  Fe  Fe51  1  0.74833609  0.24674667  0.00258668  1
  Fe  Fe52  1  0.62444907  0.62399880  0.37623659  1
  Fe  Fe53  1  0.37713071  0.37536340  0.12537424  1
  Fe  Fe54  1  -0.00137730  0.50184875  0.50013252  1
  Fe  Fe55  1  0.62421202  0.37380888  0.87622265  1
  Fe  Fe56  1  -0.00098537  0.24709745  0.00236252  1
  Fe  Fe57  1  0.87465447  0.37312916  0.87726436  1
  Fe  Fe58  1  0.50238900  0.75104789  -0.00135331  1
  Fe  Fe59  1  0.25117048  0.25015053  0.24927350  1
  Fe  Fe60  1  0.25317720  0.25304205  -0.00246891  1
  Fe  Fe61  1  0.62386186  0.87521809  0.87265502  1
  Fe  Fe62  1  0.37677856  0.87552366  0.12270348  1
  Fe  Fe63  1  0.25052852  0.49804955  0.75127897  1
  Fe  Fe64  1  0.00055888  0.24944242  0.75034839  1
  Fe  Fe65  1  0.12366763  0.37497174  0.62400729  1
  Fe  Fe66  1  0.75032759  0.49812830  0.49966949  1
  Fe  Fe67  1  0.87593943  0.62584612  0.12430365  1
  Fe  Fe68  1  0.75226742  0.49987791  -0.00019779  1
  Fe  Fe69  1  0.37634127  0.12271285  0.12156378  1
  Fe  Fe70  1  -0.00113569  0.24647572  0.50120202  1
  Fe  Fe71  1  0.12632889  0.62510323  0.62618882  1
  Fe  Fe72  1  0.50313650  -0.00045067  0.49963538  1
  Fe  Fe73  1  0.87419434  0.62854612  0.37583828  1
  Fe  Fe74  1  0.24883305  0.75190745  0.24993239  1
  Fe  Fe75  1  0.87378728  0.37024001  0.37271551  1
  Fe  Fe76  1  0.24803451  0.75188084  0.50086146  1
  Fe  Fe77  1  0.37205037  0.12321385  0.62711327  1
  Fe  Fe78  1  0.74942844  0.75351469  0.00023101  1
  Fe  Fe79  1  0.12111025  0.87624331  0.12339029  1
  Fe  Fe80  1  0.37728466  0.37450623  0.62759633  1
  Fe  Fe81  1  0.37494013  0.62621719  0.12520034  1
  Fe  Fe82  1  0.12491880  0.37725557  0.87669315  1
  Fe  Fe83  1  0.75034755  0.24996046  0.74931493  1
  Fe  Fe84  1  0.12275748  0.62334124  0.12522703  1
  Fe  Fe85  1  0.12744627  0.12334074  0.62744313  1
  Fe  Fe86  1  0.62264314  0.37529883  0.37524372  1
  Fe  Fe87  1  0.12699772  0.12547782  0.37450122  1
  Fe  Fe88  1  0.25198656  0.25185306  0.50187220  1
  Fe  Fe89  1  0.74975305  0.49912772  0.24962957  1
  Co  Co90  1  0.49502311  0.00007362  0.25092722  1
  Co  Co91  1  0.00151087  0.74561500  0.50253200  1
  Co  Co92  1  0.74821475  -0.00098958  -0.00243565  1
  Co  Co93  1  0.49712541  0.49838802  0.50133965  1
  Co  Co94  1  0.50164546  0.00077821  -0.00502082  1
  Co  Co95  1  0.37612509  0.87110088  0.87731157  1
  Co  Co96  1  0.74453215  0.75376415  0.50100811  1
  Co  Co97  1  0.00072306  0.00579370  -0.00116151  1
  Co  Co98  1  0.25202464  0.50069719  -0.00009334  1
  Co  Co99  1  0.74547207  0.25156555  0.24598619  1
  Co  Co100  1  0.12714752  0.62482811  0.87206205  1
  Co  Co101  1  0.62747564  0.62601868  0.87875487  1
  Co  Co102  1  0.49992847  0.50156682  0.24861590  1
  Co  Co103  1  -0.00113914  0.75169639  0.24858394  1
  Co  Co104  1  -0.00216008  0.00616197  0.49926321  1
  Co  Co105  1  0.25197221  -0.00676133  0.75009985  1
  Co  Co106  1  0.87150524  0.12312465  0.12630559  1
  Co  Co107  1  0.37673863  0.37316447  0.37206462  1
  Co  Co108  1  0.74729408  0.24922725  0.50234126  1
  Co  Co109  1  0.50154801  0.24713206  -0.00017227  1
  Co  Co110  1  0.62730731  0.12467788  0.87287804  1
  Co  Co111  1  0.74855274  -0.00054505  0.50017635  1
  Co  Co112  1  0.00140052  0.24789189  0.24736129  1
  Co  Co113  1  0.87265303  0.12517584  0.62629562  1
  Co  Co114  1  0.75503049  -0.00500727  0.25117407  1
  Co  Co115  1  0.62431377  0.87765185  0.37102306  1
  Co  Co116  1  0.62510804  0.88023591  0.63100832  1
  Co  Co117  1  0.36992878  0.12499844  0.87584437  1
  Co  Co118  1  0.62675594  0.62154850  0.62201724  1
  Co  Co119  1  0.37792762  0.37590640  0.87399874  1
  Co  Co120  1  0.00192903  0.74633706  -0.00184599  1
  Co  Co121  1  0.87514197  0.37366020  0.12475871  1
  Co  Co122  1  0.37955030  0.87448949  0.62326787  1
  Co  Co123  1  0.12021560  0.87696156  0.62203030  1
  Co  Co124  1  0.50352922  0.74736384  0.74924735  1
  Co  Co125  1  0.25010701  0.25321974  0.75030422  1
  Co  Co126  1  0.12162804  0.87631912  0.87650319  1
  Co  Co127  1  -0.00212241  0.50206774  -0.00195870  1
