# generated using pymatgen
data_Fe45Co19
_symmetry_space_group_name_H-M   'P 1'
_cell_length_a   11.40731848
_cell_length_b   11.40691648
_cell_length_c   11.40637369
_cell_angle_alpha   90.00161734
_cell_angle_beta   90.00001162
_cell_angle_gamma   90.01309936
_symmetry_Int_Tables_number   1
_chemical_formula_structural   Fe45Co19
_chemical_formula_sum   'Fe90 Co38'
_cell_volume   1484.22387218
_cell_formula_units_Z   2
loop_
 _symmetry_equiv_pos_site_id
 _symmetry_equiv_pos_as_xyz
  1  'x, y, z'
loop_
 _atom_site_type_symbol
 _atom_site_label
 _atom_site_symmetry_multiplicity
 _atom_site_fract_x
 _atom_site_fract_y
 _atom_site_fract_z
 _atom_site_occupancy
  Fe  Fe0  1  0.37627496  0.37331414  0.38229988  1
  Fe  Fe1  1  0.24935028  0.74989175  0.24691966  1
  Fe  Fe2  1  0.50224355  0.24869674  0.00105333  1
  Fe  Fe3  1  0.37993236  0.61853076  0.62665306  1
  Fe  Fe4  1  0.87716487  0.12461400  0.62504943  1
  Fe  Fe5  1  0.74927048  0.24857360  0.74596264  1
  Fe  Fe6  1  0.62590685  0.87423459  0.62880438  1
  Fe  Fe7  1  0.37418680  0.87237927  0.87517788  1
  Fe  Fe8  1  0.00144175  0.25347578  0.74855704  1
  Fe  Fe9  1  0.50044182  0.49925747  -0.00560345  1
  Fe  Fe10  1  0.37182100  0.12487095  0.62261820  1
  Fe  Fe11  1  0.37564026  0.37577088  0.12180741  1
  Fe  Fe12  1  0.00310691  0.25419057  0.50426302  1
  Fe  Fe13  1  0.50479748  0.75464934  0.00085006  1
  Fe  Fe14  1  -0.00055685  -0.00193909  0.24902411  1
  Fe  Fe15  1  0.12636382  0.87368991  0.62517776  1
  Fe  Fe16  1  0.74997863  0.74987162  0.50410889  1
  Fe  Fe17  1  0.12754401  0.37956644  0.12271537  1
  Fe  Fe18  1  0.12390265  0.12575003  0.37427343  1
  Fe  Fe19  1  0.25108455  0.25108843  0.25068346  1
  Fe  Fe20  1  0.62578536  0.62408233  0.12441819  1
  Fe  Fe21  1  0.74870619  0.00024139  -0.00302185  1
  Fe  Fe22  1  0.12698713  0.87307944  0.37556715  1
  Fe  Fe23  1  0.50058491  0.49837164  0.25230045  1
  Fe  Fe24  1  0.25169365  0.74582105  0.75070540  1
  Fe  Fe25  1  0.62323872  0.12263998  0.12823506  1
  Fe  Fe26  1  0.62404147  0.12494555  0.87073449  1
  Fe  Fe27  1  0.25075702  0.74683686  0.50215305  1
  Fe  Fe28  1  0.12648847  0.37639376  0.37583540  1
  Fe  Fe29  1  0.74986160  -0.00007510  0.50089042  1
  Fe  Fe30  1  0.37482916  0.87592958  0.12477835  1
  Fe  Fe31  1  0.62419879  0.62738374  0.37651182  1
  Fe  Fe32  1  0.49881219  0.75171512  0.50394465  1
  Fe  Fe33  1  0.12620802  0.12462823  0.62510046  1
  Fe  Fe34  1  0.37666133  0.12494160  0.12689528  1
  Fe  Fe35  1  0.87317293  0.37409733  0.37814057  1
  Fe  Fe36  1  -0.00121944  0.25301240  0.24778549  1
  Fe  Fe37  1  0.25037733  0.00062200  -0.00070594  1
  Fe  Fe38  1  0.50205964  -0.00233258  -0.00104473  1
  Fe  Fe39  1  0.87668640  0.87293946  0.37732981  1
  Fe  Fe40  1  0.87751296  0.62665461  0.62528504  1
  Fe  Fe41  1  0.87073456  0.37413615  0.87618545  1
  Fe  Fe42  1  0.62199808  0.63116470  0.86913290  1
  Fe  Fe43  1  0.00438328  0.74580257  0.00360571  1
  Fe  Fe44  1  0.49657800  -0.00246375  0.74940663  1
  Fe  Fe45  1  -0.00182271  0.49744012  0.75111186  1
  Fe  Fe46  1  0.24671388  0.74518534  0.00149231  1
  Fe  Fe47  1  -0.00136306  -0.00232520  0.75150518  1
  Fe  Fe48  1  0.87549521  0.87128060  0.87766437  1
  Fe  Fe49  1  0.62614811  0.37154998  0.87359884  1
  Fe  Fe50  1  0.74771469  0.50279786  0.50217125  1
  Fe  Fe51  1  0.50064779  0.75305447  0.24813785  1
  Fe  Fe52  1  0.37714874  0.62671823  0.37537991  1
  Fe  Fe53  1  0.75041903  0.75012835  0.24813416  1
  Fe  Fe54  1  0.62443032  0.37267344  0.37738936  1
  Fe  Fe55  1  0.37671347  0.12703118  0.37644264  1
  Fe  Fe56  1  0.74992434  0.50072837  0.25116927  1
  Fe  Fe57  1  0.00133144  0.49863017  0.50150119  1
  Fe  Fe58  1  0.12389923  0.62206301  0.62967704  1
  Fe  Fe59  1  0.87666414  0.12713030  0.37683251  1
  Fe  Fe60  1  0.62330955  0.87473087  0.37421590  1
  Fe  Fe61  1  0.62107086  0.12564404  0.37426088  1
  Fe  Fe62  1  0.12362333  0.12303815  0.12439339  1
  Fe  Fe63  1  0.62585899  0.37558187  0.12399089  1
  Fe  Fe64  1  0.74618029  0.24812298  0.50414908  1
  Fe  Fe65  1  0.75417998  -0.00191532  0.75044937  1
  Fe  Fe66  1  -0.00061444  0.25178156  -0.00118597  1
  Fe  Fe67  1  0.37615647  0.12793724  0.87437412  1
  Fe  Fe68  1  0.12505532  0.87324049  0.87625479  1
  Fe  Fe69  1  0.25375011  0.49957622  0.25137733  1
  Fe  Fe70  1  0.74985044  0.24972770  0.24900007  1
  Fe  Fe71  1  0.75103872  -0.00044774  0.25195449  1
  Fe  Fe72  1  0.25191494  -0.00125603  0.25192884  1
  Fe  Fe73  1  0.24948397  0.24894471  -0.00013664  1
  Fe  Fe74  1  0.00058939  0.74902775  0.24564295  1
  Fe  Fe75  1  0.49681449  0.25435004  0.74259072  1
  Fe  Fe76  1  0.12369355  0.62483562  0.37211765  1
  Fe  Fe77  1  0.87542514  0.62672033  0.87809399  1
  Fe  Fe78  1  0.87567192  0.12477223  0.12218048  1
  Fe  Fe79  1  0.74807585  0.50290070  0.74949090  1
  Fe  Fe80  1  0.87377880  0.87392548  0.12193767  1
  Fe  Fe81  1  0.37690473  0.62376343  0.12274566  1
  Fe  Fe82  1  0.13015510  0.37840624  0.87390561  1
  Fe  Fe83  1  0.24956281  0.00063510  0.75137626  1
  Fe  Fe84  1  -0.00366403  0.49981679  0.24768135  1
  Fe  Fe85  1  0.87602330  0.62657841  0.37536383  1
  Fe  Fe86  1  0.87052833  0.37836374  0.12005372  1
  Fe  Fe87  1  0.49753316  -0.00227514  0.50075721  1
  Fe  Fe88  1  0.12264422  0.12541269  0.87533713  1
  Fe  Fe89  1  0.00186879  -0.00181073  0.50054616  1
  Co  Co90  1  0.75397927  0.74959874  0.74790134  1
  Co  Co91  1  0.87182982  0.37568047  0.62475068  1
  Co  Co92  1  0.87203496  0.62375018  0.12223910  1
  Co  Co93  1  0.50176820  0.24933560  0.50627646  1
  Co  Co94  1  0.62444627  0.12001074  0.62804467  1
  Co  Co95  1  0.62106518  0.62571158  0.62905292  1
  Co  Co96  1  0.49571605  0.75347532  0.74620896  1
  Co  Co97  1  0.24724824  0.24887003  0.50024696  1
  Co  Co98  1  -0.00154488  -0.00033992  -0.00203821  1
  Co  Co99  1  0.37036128  0.87635282  0.62588937  1
  Co  Co100  1  0.00244919  0.74867038  0.50046914  1
  Co  Co101  1  -0.00020101  0.49963179  -0.00121392  1
  Co  Co102  1  0.13328311  0.38009976  0.62822134  1
  Co  Co103  1  0.49698138  -0.00247482  0.25161378  1
  Co  Co104  1  0.37299477  0.37005137  0.87640854  1
  Co  Co105  1  -0.00064323  0.75130444  0.75085742  1
  Co  Co106  1  0.74786838  0.24567403  0.00037391  1
  Co  Co107  1  0.50290385  0.50051352  0.49811036  1
  Co  Co108  1  0.24820662  0.50551006  0.49759650  1
  Co  Co109  1  0.87681541  0.87483274  0.62285040  1
  Co  Co110  1  0.12697109  0.61765510  0.12694681  1
  Co  Co111  1  0.25071238  0.24827113  0.74851699  1
  Co  Co112  1  0.74551369  0.75080071  -0.00032553  1
  Co  Co113  1  0.38041391  0.63079663  0.87727391  1
  Co  Co114  1  0.24983597  0.00031388  0.49767041  1
  Co  Co115  1  0.37357605  0.87162554  0.37559819  1
  Co  Co116  1  0.36983460  0.37941183  0.62092324  1
  Co  Co117  1  0.62692814  0.87858145  0.12750213  1
  Co  Co118  1  0.74504585  0.50315526  -0.00495757  1
  Co  Co119  1  0.49922383  0.25295010  0.24962971  1
  Co  Co120  1  0.62430791  0.37998622  0.62504550  1
  Co  Co121  1  0.62510926  0.87408508  0.86847306  1
  Co  Co122  1  0.49764077  0.49538546  0.75536342  1
  Co  Co123  1  0.12308713  0.62208017  0.87266787  1
  Co  Co124  1  0.25787495  0.50317993  0.75630517  1
  Co  Co125  1  0.12563707  0.87833340  0.12386315  1
  Co  Co126  1  0.25385855  0.50394153  -0.00519269  1
  Co  Co127  1  0.87530330  0.12792687  0.87321611  1
