# generated using pymatgen
data_Fe45Co19
_symmetry_space_group_name_H-M   'P 1'
_cell_length_a   11.41584529
_cell_length_b   11.41479246
_cell_length_c   11.41361614
_cell_angle_alpha   90.00225750
_cell_angle_beta   90.00512701
_cell_angle_gamma   89.99581506
_symmetry_Int_Tables_number   1
_chemical_formula_structural   Fe45Co19
_chemical_formula_sum   'Fe90 Co38'
_cell_volume   1487.30265708
_cell_formula_units_Z   2
loop_
 _symmetry_equiv_pos_site_id
 _symmetry_equiv_pos_as_xyz
  1  'x, y, z'
loop_
 _atom_site_type_symbol
 _atom_site_label
 _atom_site_symmetry_multiplicity
 _atom_site_fract_x
 _atom_site_fract_y
 _atom_site_fract_z
 _atom_site_occupancy
  Fe  Fe0  1  -0.00331738  0.74582400  0.25054404  1
  Fe  Fe1  1  0.75411709  0.00179780  0.75180309  1
  Fe  Fe2  1  0.49640762  0.00121900  0.49972287  1
  Fe  Fe3  1  0.00324386  0.25225130  0.00183587  1
  Fe  Fe4  1  0.87364038  0.37617604  0.62137925  1
  Fe  Fe5  1  0.37547740  0.62707087  0.87791876  1
  Fe  Fe6  1  0.37933641  0.37367916  0.88215366  1
  Fe  Fe7  1  0.25346477  0.24720413  0.49855685  1
  Fe  Fe8  1  -0.00060957  0.24941293  0.24882009  1
  Fe  Fe9  1  0.87805103  0.87537042  0.87397457  1
  Fe  Fe10  1  0.49983913  0.50028958  0.75039228  1
  Fe  Fe11  1  0.25272105  0.00121131  0.75900543  1
  Fe  Fe12  1  0.12570762  0.37680437  0.87640324  1
  Fe  Fe13  1  0.87675670  0.87491732  0.12613379  1
  Fe  Fe14  1  0.74661050  0.24963220  0.75149241  1
  Fe  Fe15  1  0.50095218  0.50022446  0.49887254  1
  Fe  Fe16  1  0.00052037  0.74900672  0.00040018  1
  Fe  Fe17  1  0.62501489  0.62447869  0.87456138  1
  Fe  Fe18  1  0.87486092  0.12597738  0.62368743  1
  Fe  Fe19  1  0.37551160  0.12592470  0.11786700  1
  Fe  Fe20  1  -0.00103000  0.49865657  0.74935292  1
  Fe  Fe21  1  0.13001940  0.12295972  0.62711602  1
  Fe  Fe22  1  0.74833503  0.75426871  0.49558977  1
  Fe  Fe23  1  0.49755461  -0.00080601  0.24706650  1
  Fe  Fe24  1  0.87597764  0.87638070  0.62361435  1
  Fe  Fe25  1  0.87272154  0.62180466  0.61926589  1
  Fe  Fe26  1  0.62815865  0.87702789  0.12567248  1
  Fe  Fe27  1  0.49625138  0.24626174  0.49750803  1
  Fe  Fe28  1  0.12700376  0.37435624  0.37212895  1
  Fe  Fe29  1  0.25334847  0.24922351  0.75422631  1
  Fe  Fe30  1  0.37255477  0.87387013  0.12114127  1
  Fe  Fe31  1  0.49470223  0.00136072  0.75513715  1
  Fe  Fe32  1  0.75087484  0.75170505  -0.00003421  1
  Fe  Fe33  1  0.62174638  0.37255289  0.37166214  1
  Fe  Fe34  1  0.74804383  0.49793636  0.74727379  1
  Fe  Fe35  1  0.74121660  0.24896605  0.00181314  1
  Fe  Fe36  1  0.25369602  0.25091399  0.24742306  1
  Fe  Fe37  1  0.37511123  0.62469416  0.62409974  1
  Fe  Fe38  1  0.74838021  -0.00078376  0.49676750  1
  Fe  Fe39  1  0.25303092  0.49932760  0.75274259  1
  Fe  Fe40  1  0.12622836  0.87771478  0.62856900  1
  Fe  Fe41  1  0.62836095  0.62610690  0.12652019  1
  Fe  Fe42  1  0.62237178  0.12464177  0.62647959  1
  Fe  Fe43  1  0.75203412  -0.00296098  0.25261496  1
  Fe  Fe44  1  0.87472809  0.62275667  0.87635901  1
  Fe  Fe45  1  0.74830606  0.49959855  0.00070322  1
  Fe  Fe46  1  0.00280823  0.00123899  0.50027459  1
  Fe  Fe47  1  0.50325117  0.75052407  0.00162586  1
  Fe  Fe48  1  0.37290699  0.87633154  0.62637984  1
  Fe  Fe49  1  0.00156006  0.74903848  0.49973614  1
  Fe  Fe50  1  -0.00160926  0.74729374  0.74799055  1
  Fe  Fe51  1  0.87363060  0.37604044  0.12435129  1
  Fe  Fe52  1  0.62471516  0.87680673  0.87442811  1
  Fe  Fe53  1  0.87476872  0.37630525  0.37712937  1
  Fe  Fe54  1  0.74705505  0.25039462  0.49975323  1
  Fe  Fe55  1  0.12633842  0.62300201  0.62482599  1
  Fe  Fe56  1  0.49763280  0.50141004  0.24912833  1
  Fe  Fe57  1  0.62132406  0.63127383  0.37316902  1
  Fe  Fe58  1  0.12824886  0.37457247  0.62521187  1
  Fe  Fe59  1  0.37891480  0.37347136  0.12052563  1
  Fe  Fe60  1  0.87280497  0.37334108  0.87705309  1
  Fe  Fe61  1  0.75124300  0.75025164  0.74976984  1
  Fe  Fe62  1  0.25017604  0.74936113  0.75155179  1
  Fe  Fe63  1  0.12476070  0.62277981  0.12513604  1
  Fe  Fe64  1  -0.00282059  0.50149070  0.25019687  1
  Fe  Fe65  1  0.62533745  0.62650581  0.62416679  1
  Fe  Fe66  1  0.25088238  0.50120514  0.49676521  1
  Fe  Fe67  1  0.25358407  0.50130881  0.25023215  1
  Fe  Fe68  1  0.00002702  0.24845163  0.75023198  1
  Fe  Fe69  1  0.00195510  0.00057106  -0.00192342  1
  Fe  Fe70  1  0.25090863  -0.00254846  0.24798355  1
  Fe  Fe71  1  0.12833230  0.12421923  0.12288177  1
  Fe  Fe72  1  0.49991172  0.24762028  0.75477859  1
  Fe  Fe73  1  0.49999447  0.75064155  0.74875072  1
  Fe  Fe74  1  0.75130669  0.50282948  0.25233042  1
  Fe  Fe75  1  0.12480892  0.62310106  0.87613206  1
  Fe  Fe76  1  0.37690990  0.87115915  0.37349636  1
  Fe  Fe77  1  0.12884097  0.12513761  0.37354229  1
  Fe  Fe78  1  -0.00025355  0.00327696  0.24971739  1
  Fe  Fe79  1  0.00280173  0.24990114  0.49999317  1
  Fe  Fe80  1  0.37337648  0.62752389  0.12333377  1
  Fe  Fe81  1  0.62235639  0.12432929  0.37081115  1
  Fe  Fe82  1  0.87241923  0.12461261  0.12204060  1
  Fe  Fe83  1  0.74860574  0.24880638  0.24763275  1
  Fe  Fe84  1  0.12402193  0.87398629  0.37163098  1
  Fe  Fe85  1  0.37665141  0.37407004  0.62396883  1
  Fe  Fe86  1  0.87484943  0.12560315  0.37623192  1
  Fe  Fe87  1  0.24534155  0.75312654  0.00015485  1
  Fe  Fe88  1  0.25047071  0.74976323  0.49788338  1
  Fe  Fe89  1  0.62455440  0.87789678  0.62602324  1
  Co  Co90  1  0.62549555  0.11840873  0.12808165  1
  Co  Co91  1  0.25178820  -0.00185657  0.49712393  1
  Co  Co92  1  0.50119897  0.50371300  0.00205018  1
  Co  Co93  1  0.62017700  0.37105581  0.62520885  1
  Co  Co94  1  -0.00210917  0.00450134  0.75058716  1
  Co  Co95  1  0.49866451  0.24860865  0.24617910  1
  Co  Co96  1  0.87412467  0.12922325  0.87905278  1
  Co  Co97  1  0.37640495  0.86954797  0.87747730  1
  Co  Co98  1  0.12123282  0.87383889  0.87098002  1
  Co  Co99  1  0.87399323  0.62296949  0.38057193  1
  Co  Co100  1  0.24753076  -0.00459393  -0.00306290  1
  Co  Co101  1  0.37401531  0.12327386  0.37017643  1
  Co  Co102  1  0.37284598  0.12440436  0.62777064  1
  Co  Co103  1  0.74216285  0.49794305  0.49854308  1
  Co  Co104  1  0.75277915  0.75239474  0.25269902  1
  Co  Co105  1  0.88043175  0.87606403  0.37442102  1
  Co  Co106  1  0.12548461  0.12645096  0.87670905  1
  Co  Co107  1  0.49928897  -0.00203050  -0.00042893  1
  Co  Co108  1  0.62464870  0.37973902  0.12906980  1
  Co  Co109  1  0.49957100  0.75198007  0.24322710  1
  Co  Co110  1  0.62533318  0.11932346  0.87513881  1
  Co  Co111  1  0.49874181  0.75251380  0.50507686  1
  Co  Co112  1  0.12172744  0.87478557  0.12809447  1
  Co  Co113  1  0.37570537  0.37496955  0.37491694  1
  Co  Co114  1  0.51148136  0.24907820  0.00264711  1
  Co  Co115  1  0.25052944  0.49916322  0.00105370  1
  Co  Co116  1  0.00040451  0.49792915  0.00075755  1
  Co  Co117  1  0.24584587  0.25433387  0.00196047  1
  Co  Co118  1  0.25025906  0.74997614  0.24939817  1
  Co  Co119  1  0.12474758  0.37831623  0.12966748  1
  Co  Co120  1  0.87296591  0.62503907  0.12252670  1
  Co  Co121  1  0.37531106  0.12929861  0.88571300  1
  Co  Co122  1  0.75220454  -0.00183023  -0.00119027  1
  Co  Co123  1  0.61865745  0.87452750  0.37342780  1
  Co  Co124  1  0.12576299  0.62493965  0.37236837  1
  Co  Co125  1  0.62364199  0.37946092  0.87468289  1
  Co  Co126  1  0.37850387  0.62948128  0.37432545  1
  Co  Co127  1  0.00470849  0.49802419  0.49963120  1
