# generated using pymatgen
data_Fe45Co19
_symmetry_space_group_name_H-M   'P 1'
_cell_length_a   11.41565625
_cell_length_b   11.41636956
_cell_length_c   11.41515304
_cell_angle_alpha   90.00284702
_cell_angle_beta   90.00424904
_cell_angle_gamma   89.99607078
_symmetry_Int_Tables_number   1
_chemical_formula_structural   Fe45Co19
_chemical_formula_sum   'Fe90 Co38'
_cell_volume   1487.68381068
_cell_formula_units_Z   2
loop_
 _symmetry_equiv_pos_site_id
 _symmetry_equiv_pos_as_xyz
  1  'x, y, z'
loop_
 _atom_site_type_symbol
 _atom_site_label
 _atom_site_symmetry_multiplicity
 _atom_site_fract_x
 _atom_site_fract_y
 _atom_site_fract_z
 _atom_site_occupancy
  Fe  Fe0  1  0.87222615  0.87727325  0.37578321  1
  Fe  Fe1  1  0.62425211  0.62412040  0.12164013  1
  Fe  Fe2  1  0.49757339  0.00322782  0.75308749  1
  Fe  Fe3  1  0.87532872  0.37215875  0.62528106  1
  Fe  Fe4  1  0.37547296  0.87618016  0.62741238  1
  Fe  Fe5  1  0.12882752  0.87438617  0.87691135  1
  Fe  Fe6  1  -0.00024016  0.25030627  0.25328981  1
  Fe  Fe7  1  0.75021821  0.74922590  0.74782055  1
  Fe  Fe8  1  0.00129494  0.74808497  0.75103096  1
  Fe  Fe9  1  0.87367074  0.62666950  0.12213470  1
  Fe  Fe10  1  -0.00033257  0.24913110  0.49737292  1
  Fe  Fe11  1  0.12610342  0.62410068  0.37559778  1
  Fe  Fe12  1  0.87075971  0.12802954  0.87575455  1
  Fe  Fe13  1  0.12146582  0.87529244  0.12171056  1
  Fe  Fe14  1  0.50166019  0.75044618  0.25247155  1
  Fe  Fe15  1  0.75075626  -0.00048009  0.00164418  1
  Fe  Fe16  1  0.74343865  0.25557773  0.00043377  1
  Fe  Fe17  1  0.75032098  0.49636081  0.24597457  1
  Fe  Fe18  1  0.25166901  0.00050014  0.50276962  1
  Fe  Fe19  1  0.37766080  0.87486964  0.12287712  1
  Fe  Fe20  1  0.12066539  0.12444810  0.12462107  1
  Fe  Fe21  1  0.00123029  0.25002743  0.75263607  1
  Fe  Fe22  1  -0.00227172  0.49821544  0.24940731  1
  Fe  Fe23  1  0.37304570  0.62520883  0.87545143  1
  Fe  Fe24  1  -0.00048214  0.00117655  0.75320625  1
  Fe  Fe25  1  0.25042198  0.24827461  0.74920614  1
  Fe  Fe26  1  0.24865998  0.75177265  0.24903361  1
  Fe  Fe27  1  0.12490353  0.87738469  0.37564376  1
  Fe  Fe28  1  0.50107522  0.24767387  0.49775423  1
  Fe  Fe29  1  0.12929537  0.12366084  0.87662949  1
  Fe  Fe30  1  0.12348183  0.87584279  0.62596944  1
  Fe  Fe31  1  0.87789579  0.12774548  0.12353190  1
  Fe  Fe32  1  0.75092956  0.24635074  0.49974391  1
  Fe  Fe33  1  0.87298429  0.62306719  0.37545366  1
  Fe  Fe34  1  0.49976270  0.74989839  0.75240757  1
  Fe  Fe35  1  0.87304808  0.37345195  0.87593582  1
  Fe  Fe36  1  0.37768150  0.37506742  0.87404145  1
  Fe  Fe37  1  0.49988711  0.49925043  0.49982623  1
  Fe  Fe38  1  0.74987199  0.49850261  0.74836994  1
  Fe  Fe39  1  0.12652156  0.37614434  0.37518159  1
  Fe  Fe40  1  0.62703839  0.62542244  0.37619590  1
  Fe  Fe41  1  0.37947213  0.12544482  0.12054203  1
  Fe  Fe42  1  -0.00001284  0.49859480  0.50148655  1
  Fe  Fe43  1  0.38229236  0.37308670  0.12572285  1
  Fe  Fe44  1  0.25111113  0.49948213  0.24875571  1
  Fe  Fe45  1  0.62613290  0.62208621  0.87733022  1
  Fe  Fe46  1  0.49987924  0.75330949  0.49845950  1
  Fe  Fe47  1  0.62158877  0.12643126  0.12386734  1
  Fe  Fe48  1  0.74942362  0.49880631  0.50167499  1
  Fe  Fe49  1  0.25048243  0.49952165  0.74720248  1
  Fe  Fe50  1  -0.00386466  0.74873617  0.50085405  1
  Fe  Fe51  1  0.62265687  0.87465446  0.12285459  1
  Fe  Fe52  1  0.12409763  0.12582289  0.62503409  1
  Fe  Fe53  1  0.25067948  0.24824780  0.24924996  1
  Fe  Fe54  1  0.62664555  0.87689764  0.87499145  1
  Fe  Fe55  1  -0.00159442  0.49944474  -0.00040121  1
  Fe  Fe56  1  0.62283745  0.37392689  0.62763676  1
  Fe  Fe57  1  -0.00418481  0.00299068  0.49983727  1
  Fe  Fe58  1  0.12631236  0.62410938  0.62506533  1
  Fe  Fe59  1  0.00048978  0.49944213  0.74978704  1
  Fe  Fe60  1  0.87713741  0.87389534  0.12262356  1
  Fe  Fe61  1  0.62780714  0.87910359  0.37842415  1
  Fe  Fe62  1  0.37773399  0.62669109  0.12465493  1
  Fe  Fe63  1  0.25079093  0.75240119  0.50057247  1
  Fe  Fe64  1  0.37114828  0.87733203  0.87682716  1
  Fe  Fe65  1  0.37758262  0.37308490  0.62671266  1
  Fe  Fe66  1  0.24960188  0.25054692  0.50060535  1
  Fe  Fe67  1  0.50208658  0.24566990  0.75586699  1
  Fe  Fe68  1  0.25051536  0.25053288  0.00136201  1
  Fe  Fe69  1  0.62629915  0.87672315  0.62350162  1
  Fe  Fe70  1  0.37577112  0.37612362  0.37349145  1
  Fe  Fe71  1  0.75322571  0.00108646  0.74622872  1
  Fe  Fe72  1  0.25177060  0.49913373  0.00197731  1
  Fe  Fe73  1  0.37460344  0.62595982  0.62384648  1
  Fe  Fe74  1  0.62433752  0.37396626  0.37189701  1
  Fe  Fe75  1  0.12259672  0.37385504  0.12485208  1
  Fe  Fe76  1  0.12662588  0.37674226  0.87540919  1
  Fe  Fe77  1  0.37323471  0.62545628  0.37553312  1
  Fe  Fe78  1  0.62436352  0.12363012  0.62530582  1
  Fe  Fe79  1  0.75067887  0.00211461  0.24802172  1
  Fe  Fe80  1  -0.00079060  0.75100896  0.25099654  1
  Fe  Fe81  1  0.12351454  0.62545178  0.12328774  1
  Fe  Fe82  1  0.87380242  0.87315078  0.87540813  1
  Fe  Fe83  1  0.50026231  0.00108868  0.25206962  1
  Fe  Fe84  1  0.37447875  0.12254689  0.37646471  1
  Fe  Fe85  1  0.24891167  0.00046233  0.24755000  1
  Fe  Fe86  1  0.62481515  0.62657818  0.62422408  1
  Fe  Fe87  1  0.87265032  0.62481378  0.87660972  1
  Fe  Fe88  1  0.74941079  0.75066653  0.24959091  1
  Fe  Fe89  1  0.74918301  0.25098983  0.24899199  1
  Co  Co90  1  0.25127711  0.49774165  0.50169578  1
  Co  Co91  1  -0.00075223  -0.00108304  0.25001056  1
  Co  Co92  1  0.87438335  0.62374323  0.62650717  1
  Co  Co93  1  0.50048308  0.75083167  -0.00344776  1
  Co  Co94  1  0.37399362  0.87695037  0.37255260  1
  Co  Co95  1  0.87391272  0.12439963  0.37102388  1
  Co  Co96  1  0.87728525  0.12875614  0.62926306  1
  Co  Co97  1  0.62259799  0.38052594  0.87219059  1
  Co  Co98  1  0.62626973  0.12227035  0.37524643  1
  Co  Co99  1  0.50380941  0.24900358  -0.00696979  1
  Co  Co100  1  0.49943125  0.50329478  0.74820819  1
  Co  Co101  1  0.74665527  0.25155741  0.74965040  1
  Co  Co102  1  0.63082728  0.12128196  0.87495507  1
  Co  Co103  1  0.75427963  0.00421212  0.50374465  1
  Co  Co104  1  0.12769090  0.62244290  0.87580906  1
  Co  Co105  1  0.75217819  0.75070316  0.50173965  1
  Co  Co106  1  -0.00143897  0.00072768  -0.00425261  1
  Co  Co107  1  0.49900578  0.24599254  0.25366994  1
  Co  Co108  1  0.00050307  0.74934839  -0.00265545  1
  Co  Co109  1  0.74815730  0.75179382  -0.00042440  1
  Co  Co110  1  0.37084181  0.12333640  0.87828472  1
  Co  Co111  1  0.24993705  0.74926937  0.00186205  1
  Co  Co112  1  0.24809960  0.00055468  0.00408871  1
  Co  Co113  1  0.50178765  0.00039850  -0.00374073  1
  Co  Co114  1  0.00216855  0.24890339  -0.00422790  1
  Co  Co115  1  0.49933902  0.49946189  -0.00074112  1
  Co  Co116  1  0.49858438  -0.00015023  0.50042513  1
  Co  Co117  1  0.37640868  0.12691681  0.62500799  1
  Co  Co118  1  0.50028923  0.50348524  0.25255286  1
  Co  Co119  1  0.24987984  0.00157901  0.74689302  1
  Co  Co120  1  0.61666382  0.37483010  0.12845230  1
  Co  Co121  1  0.74982444  0.49465049  0.00327566  1
  Co  Co122  1  0.87348159  0.37552815  0.37591705  1
  Co  Co123  1  0.87870492  0.37017982  0.12314016  1
  Co  Co124  1  0.24931693  0.74982688  0.74901825  1
  Co  Co125  1  0.12673692  0.12312555  0.37476982  1
  Co  Co126  1  0.12443521  0.37343592  0.62576913  1
  Co  Co127  1  0.87658262  0.87428253  0.62663259  1
