# generated using pymatgen
data_Fe45Co19
_symmetry_space_group_name_H-M   'P 1'
_cell_length_a   11.41638804
_cell_length_b   11.41558853
_cell_length_c   11.41595522
_cell_angle_alpha   90.00186859
_cell_angle_beta   90.00266694
_cell_angle_gamma   90.00558320
_symmetry_Int_Tables_number   1
_chemical_formula_structural   Fe45Co19
_chemical_formula_sum   'Fe90 Co38'
_cell_volume   1487.78193813
_cell_formula_units_Z   2
loop_
 _symmetry_equiv_pos_site_id
 _symmetry_equiv_pos_as_xyz
  1  'x, y, z'
loop_
 _atom_site_type_symbol
 _atom_site_label
 _atom_site_symmetry_multiplicity
 _atom_site_fract_x
 _atom_site_fract_y
 _atom_site_fract_z
 _atom_site_occupancy
  Fe  Fe0  1  0.75190473  0.00158248  0.24796912  1
  Fe  Fe1  1  0.00189320  0.00512924  0.74918172  1
  Fe  Fe2  1  0.00293841  0.00550599  -0.00254366  1
  Fe  Fe3  1  0.49748862  0.75176466  0.75388133  1
  Fe  Fe4  1  0.12575488  0.37131130  0.87405896  1
  Fe  Fe5  1  0.49885655  0.00177066  0.24819867  1
  Fe  Fe6  1  0.25092029  0.50187665  0.00112840  1
  Fe  Fe7  1  0.24661344  0.49901716  0.50362327  1
  Fe  Fe8  1  0.62285948  0.37399002  0.12486008  1
  Fe  Fe9  1  0.62790588  0.12328335  0.37641393  1
  Fe  Fe10  1  0.49713241  0.75090099  0.24945344  1
  Fe  Fe11  1  -0.00122214  0.74963016  0.25140805  1
  Fe  Fe12  1  0.12865816  0.87718735  0.87437227  1
  Fe  Fe13  1  0.50071873  0.24774941  -0.00150835  1
  Fe  Fe14  1  0.37470787  0.62461201  0.62734863  1
  Fe  Fe15  1  0.37321238  0.62383773  0.37374055  1
  Fe  Fe16  1  0.75161469  0.74986879  0.75044833  1
  Fe  Fe17  1  -0.00084039  0.00059362  0.25169861  1
  Fe  Fe18  1  0.87532029  0.61802248  0.37539786  1
  Fe  Fe19  1  0.87600551  0.87516536  0.62351553  1
  Fe  Fe20  1  0.37133078  0.87737179  0.12361484  1
  Fe  Fe21  1  0.37086408  0.12331600  0.87498411  1
  Fe  Fe22  1  0.62339707  0.87620160  0.12354199  1
  Fe  Fe23  1  0.87723892  0.37441239  0.12552497  1
  Fe  Fe24  1  0.37260834  0.87701056  0.37479150  1
  Fe  Fe25  1  0.12457107  0.62662413  0.12605066  1
  Fe  Fe26  1  0.24794465  0.00161856  0.50248396  1
  Fe  Fe27  1  0.75004872  0.00312062  0.00303974  1
  Fe  Fe28  1  0.75142184  0.24838549  0.00154443  1
  Fe  Fe29  1  0.37539056  0.12368893  0.37614463  1
  Fe  Fe30  1  0.87880696  0.62224652  0.62358576  1
  Fe  Fe31  1  0.62597708  0.87560693  0.37491850  1
  Fe  Fe32  1  0.12727850  0.62582335  0.87237724  1
  Fe  Fe33  1  0.37782770  0.37510738  0.62323227  1
  Fe  Fe34  1  0.12331448  0.37127316  0.12628069  1
  Fe  Fe35  1  0.00161659  0.49886194  -0.00080013  1
  Fe  Fe36  1  0.75003816  0.74954154  0.50032977  1
  Fe  Fe37  1  0.49876056  0.25101026  0.75195163  1
  Fe  Fe38  1  0.87518846  0.62397044  0.87611610  1
  Fe  Fe39  1  0.49986523  0.74971064  0.49803552  1
  Fe  Fe40  1  0.37283599  0.37455360  0.87684400  1
  Fe  Fe41  1  0.49980289  -0.00068150  0.74976948  1
  Fe  Fe42  1  0.87350845  0.37472617  0.87371713  1
  Fe  Fe43  1  0.74904377  0.00127517  0.74348922  1
  Fe  Fe44  1  0.87772601  0.62423255  0.12350837  1
  Fe  Fe45  1  0.12752678  0.87516344  0.37317447  1
  Fe  Fe46  1  0.12042087  0.36798088  0.62725776  1
  Fe  Fe47  1  0.12472157  0.62265276  0.37455638  1
  Fe  Fe48  1  0.87450058  0.87821557  0.87489263  1
  Fe  Fe49  1  0.62950571  0.37786248  0.37601968  1
  Fe  Fe50  1  0.74994116  0.75014640  0.00051272  1
  Fe  Fe51  1  -0.00434369  0.25314674  0.25872575  1
  Fe  Fe52  1  0.75361390  0.24877341  0.25312503  1
  Fe  Fe53  1  0.24884407  0.24568328  0.00231081  1
  Fe  Fe54  1  0.61898062  0.62319387  0.12406913  1
  Fe  Fe55  1  0.00180268  0.75145601  -0.00240918  1
  Fe  Fe56  1  0.24921834  0.49738783  0.74860105  1
  Fe  Fe57  1  0.25114539  0.24622781  0.24978471  1
  Fe  Fe58  1  0.37214066  0.37538796  0.37551357  1
  Fe  Fe59  1  -0.00059133  0.24565003  -0.00512404  1
  Fe  Fe60  1  0.50328454  -0.00064145  0.50227356  1
  Fe  Fe61  1  0.62217797  0.62673820  0.62663591  1
  Fe  Fe62  1  0.50038570  0.25001515  0.25268406  1
  Fe  Fe63  1  0.75139016  0.74876025  0.24814246  1
  Fe  Fe64  1  0.25079309  0.50067024  0.24717543  1
  Fe  Fe65  1  0.12754317  0.87543425  0.12651737  1
  Fe  Fe66  1  0.62388937  0.62440632  0.87717421  1
  Fe  Fe67  1  0.74864216  0.49755602  0.74726935  1
  Fe  Fe68  1  0.37028178  0.87715977  0.87894377  1
  Fe  Fe69  1  0.75205812  0.25124292  0.74372591  1
  Fe  Fe70  1  0.24908704  0.74878778  0.50082854  1
  Fe  Fe71  1  0.37547070  0.87362999  0.62346381  1
  Fe  Fe72  1  0.74921214  0.49804078  0.00129140  1
  Fe  Fe73  1  0.62657288  0.62347087  0.37254550  1
  Fe  Fe74  1  0.37700117  0.37414984  0.12561539  1
  Fe  Fe75  1  0.12375100  0.12489861  0.37617942  1
  Fe  Fe76  1  0.50081753  0.49680937  0.75377151  1
  Fe  Fe77  1  0.00054825  0.74970050  0.49887154  1
  Fe  Fe78  1  0.87724969  0.87616108  0.12294071  1
  Fe  Fe79  1  0.50123389  0.50017090  0.49783432  1
  Fe  Fe80  1  -0.00010414  0.75036934  0.75170283  1
  Fe  Fe81  1  0.87368503  0.87778698  0.37763173  1
  Fe  Fe82  1  0.00080168  0.49844476  0.75027120  1
  Fe  Fe83  1  0.62749326  0.12547929  0.87344951  1
  Fe  Fe84  1  0.62619887  0.87665967  0.87599696  1
  Fe  Fe85  1  0.87993304  0.12750455  0.61647259  1
  Fe  Fe86  1  0.50191878  0.25060827  0.49814272  1
  Fe  Fe87  1  0.24909584  0.24963449  0.50079282  1
  Fe  Fe88  1  0.37556226  0.12582060  0.62501393  1
  Fe  Fe89  1  0.12528369  0.87348989  0.62644045  1
  Co  Co90  1  0.62320581  0.87006749  0.62604899  1
  Co  Co91  1  0.37818593  0.12608877  0.12538658  1
  Co  Co92  1  0.75104437  0.25191098  0.50031225  1
  Co  Co93  1  0.87956734  0.37540689  0.62379504  1
  Co  Co94  1  0.49903918  0.49660408  0.25309892  1
  Co  Co95  1  0.00535716  0.49511135  0.49933968  1
  Co  Co96  1  0.50014490  0.00257935  -0.00056644  1
  Co  Co97  1  0.62808018  0.37144661  0.87484719  1
  Co  Co98  1  0.25023515  0.00480662  0.24951633  1
  Co  Co99  1  0.25027221  -0.00003167  0.74566225  1
  Co  Co100  1  0.62075100  0.37366083  0.62424281  1
  Co  Co101  1  0.62160464  0.12866731  0.62507416  1
  Co  Co102  1  0.49745230  0.75163278  -0.00043437  1
  Co  Co103  1  0.24590034  0.00614712  0.00433702  1
  Co  Co104  1  -0.00145991  0.25663947  0.49067746  1
  Co  Co105  1  0.00520199  -0.00187682  0.50136830  1
  Co  Co106  1  -0.00476261  0.24617303  0.75408589  1
  Co  Co107  1  0.86838575  0.38461795  0.37653504  1
  Co  Co108  1  0.87367576  0.11910051  0.38096701  1
  Co  Co109  1  0.00136141  0.49746059  0.24901296  1
  Co  Co110  1  0.37863027  0.62304258  0.12554483  1
  Co  Co111  1  0.25087721  0.75138225  0.74971332  1
  Co  Co112  1  0.25423380  0.25216604  0.74783250  1
  Co  Co113  1  0.12334803  0.62621327  0.62647221  1
  Co  Co114  1  0.13104587  0.12743447  0.86910186  1
  Co  Co115  1  0.74657046  0.50085761  0.50666894  1
  Co  Co116  1  0.74919004  0.50099756  0.24374079  1
  Co  Co117  1  0.12294501  0.13167914  0.62474369  1
  Co  Co118  1  0.87875479  0.12642998  0.12669417  1
  Co  Co119  1  0.62484290  0.12682953  0.12644142  1
  Co  Co120  1  0.74515823  -0.00174014  0.50506893  1
  Co  Co121  1  0.13145784  0.37639752  0.37163537  1
  Co  Co122  1  0.25135397  0.74857544  0.24997760  1
  Co  Co123  1  0.11858279  0.12860997  0.12981927  1
  Co  Co124  1  0.49872215  0.49701942  -0.00321295  1
  Co  Co125  1  0.37354870  0.62378786  0.87311844  1
  Co  Co126  1  0.86955274  0.12301881  0.87434252  1
  Co  Co127  1  0.25040652  0.74739014  0.00045753  1
