# generated using pymatgen
data_Fe45Co19
_symmetry_space_group_name_H-M   'P 1'
_cell_length_a   11.41453066
_cell_length_b   11.41503565
_cell_length_c   11.41466375
_cell_angle_alpha   89.99156641
_cell_angle_beta   90.00925446
_cell_angle_gamma   90.01175668
_symmetry_Int_Tables_number   1
_chemical_formula_structural   Fe45Co19
_chemical_formula_sum   'Fe90 Co38'
_cell_volume   1487.29950770
_cell_formula_units_Z   2
loop_
 _symmetry_equiv_pos_site_id
 _symmetry_equiv_pos_as_xyz
  1  'x, y, z'
loop_
 _atom_site_type_symbol
 _atom_site_label
 _atom_site_symmetry_multiplicity
 _atom_site_fract_x
 _atom_site_fract_y
 _atom_site_fract_z
 _atom_site_occupancy
  Fe  Fe0  1  0.49768612  0.49797382  -0.00141797  1
  Fe  Fe1  1  0.25266114  0.25393339  0.00381051  1
  Fe  Fe2  1  0.87347138  0.12584490  0.87631967  1
  Fe  Fe3  1  0.00223174  0.49834010  -0.00180666  1
  Fe  Fe4  1  -0.00107495  0.75106895  0.25138744  1
  Fe  Fe5  1  0.74833059  0.49896802  0.00219907  1
  Fe  Fe6  1  0.12954370  0.13004370  0.87433646  1
  Fe  Fe7  1  0.37296909  0.12878448  0.87507557  1
  Fe  Fe8  1  0.00232127  0.75048550  0.49904235  1
  Fe  Fe9  1  0.25187434  0.75111340  0.74710622  1
  Fe  Fe10  1  0.25256711  0.49679851  0.75103575  1
  Fe  Fe11  1  0.87559737  0.37419156  0.87541192  1
  Fe  Fe12  1  0.49802926  0.24585561  0.25264367  1
  Fe  Fe13  1  0.12836257  0.62178674  0.12507094  1
  Fe  Fe14  1  -0.00051060  0.49956155  0.74970604  1
  Fe  Fe15  1  0.12288023  0.37562828  0.62442562  1
  Fe  Fe16  1  0.74985440  0.00077759  0.74529496  1
  Fe  Fe17  1  -0.00031336  0.75027783  0.75002321  1
  Fe  Fe18  1  0.74814736  0.75423606  0.50277139  1
  Fe  Fe19  1  0.62517683  0.12400907  0.87311539  1
  Fe  Fe20  1  0.74363610  0.24624423  0.50327489  1
  Fe  Fe21  1  -0.00322771  0.00147323  0.25061296  1
  Fe  Fe22  1  0.74488042  0.49818461  0.49834630  1
  Fe  Fe23  1  0.62365834  0.62650149  0.12654808  1
  Fe  Fe24  1  0.25167914  0.25035389  0.50292467  1
  Fe  Fe25  1  0.37233034  0.62059588  0.12700423  1
  Fe  Fe26  1  0.75244843  0.75567835  0.24643416  1
  Fe  Fe27  1  0.50330639  0.00102311  0.49745314  1
  Fe  Fe28  1  -0.00105129  0.24886959  0.74920172  1
  Fe  Fe29  1  0.74814240  0.50013823  0.74896124  1
  Fe  Fe30  1  0.37487338  0.37337815  0.37456041  1
  Fe  Fe31  1  0.75059034  0.24885645  0.24926836  1
  Fe  Fe32  1  -0.00182584  0.24812158  0.25140730  1
  Fe  Fe33  1  0.62587211  0.62640078  0.87612771  1
  Fe  Fe34  1  0.50029036  0.25099331  0.00149706  1
  Fe  Fe35  1  0.75064520  0.75115886  0.74706802  1
  Fe  Fe36  1  0.49686598  0.74936047  0.25458610  1
  Fe  Fe37  1  0.62204738  0.37504503  0.12918389  1
  Fe  Fe38  1  0.12294929  0.87762634  0.62592157  1
  Fe  Fe39  1  0.25304234  0.24960542  0.24779385  1
  Fe  Fe40  1  0.74966758  0.49986064  0.25008560  1
  Fe  Fe41  1  0.37772121  0.12495731  0.62210411  1
  Fe  Fe42  1  0.87571613  0.62351657  0.62221136  1
  Fe  Fe43  1  0.12441370  0.37486586  0.12674482  1
  Fe  Fe44  1  0.12615082  0.87616902  0.37328433  1
  Fe  Fe45  1  0.62007565  0.62372027  0.62248726  1
  Fe  Fe46  1  0.88020685  0.88084142  0.62236773  1
  Fe  Fe47  1  0.87659912  0.37377872  0.12437952  1
  Fe  Fe48  1  0.74883176  0.75252667  0.00337062  1
  Fe  Fe49  1  0.37195440  0.62531087  0.87556895  1
  Fe  Fe50  1  0.12636938  0.87730625  0.12421105  1
  Fe  Fe51  1  0.49767876  -0.00012583  -0.00245019  1
  Fe  Fe52  1  0.74923111  0.24884699  0.74632543  1
  Fe  Fe53  1  0.00261396  0.00486879  0.00013823  1
  Fe  Fe54  1  0.12888287  0.87510526  0.87622508  1
  Fe  Fe55  1  0.62469242  0.12265523  0.12769095  1
  Fe  Fe56  1  0.00021863  0.24769304  0.49866091  1
  Fe  Fe57  1  0.49693121  -0.00128286  0.75173947  1
  Fe  Fe58  1  0.24865380  -0.00062140  0.49975959  1
  Fe  Fe59  1  0.74784856  0.25083378  0.00167756  1
  Fe  Fe60  1  0.24988797  0.49817273  0.49822481  1
  Fe  Fe61  1  0.12889881  0.12749908  0.37365783  1
  Fe  Fe62  1  0.00082239  0.49821235  0.25463028  1
  Fe  Fe63  1  0.87666202  0.62489519  0.12503205  1
  Fe  Fe64  1  0.12316192  0.12324990  0.62613106  1
  Fe  Fe65  1  0.86886928  0.11977168  0.37765352  1
  Fe  Fe66  1  0.62388891  0.37555200  0.87278966  1
  Fe  Fe67  1  0.87341250  0.62631279  0.37623209  1
  Fe  Fe68  1  0.00292587  0.74839375  -0.00050596  1
  Fe  Fe69  1  0.37703814  0.87213243  0.62004181  1
  Fe  Fe70  1  0.87366677  0.37442331  0.37783248  1
  Fe  Fe71  1  0.12713371  0.62431920  0.37591946  1
  Fe  Fe72  1  0.87468386  0.37523081  0.62246747  1
  Fe  Fe73  1  0.12839973  0.62408320  0.87486965  1
  Fe  Fe74  1  0.50038810  0.25026272  0.74892663  1
  Fe  Fe75  1  0.49768231  0.74819096  0.74965193  1
  Fe  Fe76  1  0.49649936  0.00166582  0.25240616  1
  Fe  Fe77  1  0.12670601  0.62396332  0.62450873  1
  Fe  Fe78  1  0.38189714  0.37841411  0.62441555  1
  Fe  Fe79  1  0.74809177  -0.00215058  0.00438847  1
  Fe  Fe80  1  0.50131571  0.50341687  0.25720266  1
  Fe  Fe81  1  0.49732230  0.75031570  0.00008669  1
  Fe  Fe82  1  0.25169092  0.75025212  0.25079098  1
  Fe  Fe83  1  0.87512359  0.87581275  0.87617422  1
  Fe  Fe84  1  0.62445171  0.87418383  0.87290992  1
  Fe  Fe85  1  0.87353421  0.62526653  0.87581935  1
  Fe  Fe86  1  0.25223732  0.00024631  0.75016058  1
  Fe  Fe87  1  0.62693769  0.87672121  0.37353603  1
  Fe  Fe88  1  0.37443465  0.87654970  0.12370806  1
  Fe  Fe89  1  0.25339988  0.00243745  0.24947801  1
  Co  Co90  1  0.12658971  0.12573803  0.12709223  1
  Co  Co91  1  0.87353596  0.12576038  0.12402403  1
  Co  Co92  1  0.62067248  0.37714084  0.62653634  1
  Co  Co93  1  0.37298879  0.12590869  0.37938908  1
  Co  Co94  1  0.00443816  0.00216076  0.49450938  1
  Co  Co95  1  0.24651064  0.75231318  0.49965144  1
  Co  Co96  1  0.25214341  0.49478838  -0.00184181  1
  Co  Co97  1  0.36983443  0.62581158  0.37934995  1
  Co  Co98  1  0.61943722  0.12513313  0.62745986  1
  Co  Co99  1  0.49913649  0.50326427  0.75361435  1
  Co  Co100  1  0.88147207  0.87515853  0.12108306  1
  Co  Co101  1  0.37337307  0.87658114  0.37785574  1
  Co  Co102  1  0.50100933  0.74835889  0.49440561  1
  Co  Co103  1  0.24801912  0.49817794  0.25394361  1
  Co  Co104  1  0.87869404  0.12234389  0.62286306  1
  Co  Co105  1  0.25174345  0.25089794  0.74326292  1
  Co  Co106  1  0.61923560  0.87402852  0.62662672  1
  Co  Co107  1  0.00142122  0.50044784  0.49753060  1
  Co  Co108  1  0.87311109  0.87690822  0.38011014  1
  Co  Co109  1  0.12630417  0.37070179  0.37595268  1
  Co  Co110  1  0.00154563  0.00217934  0.75543303  1
  Co  Co111  1  0.75295336  -0.00487133  0.24494022  1
  Co  Co112  1  0.62549689  0.37128170  0.37206868  1
  Co  Co113  1  0.63131196  0.63028532  0.37369337  1
  Co  Co114  1  0.37309067  0.87291709  0.87559744  1
  Co  Co115  1  0.61768579  0.87528679  0.12622901  1
  Co  Co116  1  0.37817184  0.37815763  0.13067904  1
  Co  Co117  1  0.37587461  0.62442290  0.62048266  1
  Co  Co118  1  0.50274602  0.25086487  0.49749745  1
  Co  Co119  1  0.12539784  0.37109870  0.87318696  1
  Co  Co120  1  0.25120577  0.74933167  0.00293862  1
  Co  Co121  1  0.62772612  0.12206278  0.37149616  1
  Co  Co122  1  0.74417696  0.00107635  0.50646238  1
  Co  Co123  1  0.00085303  0.24855786  0.00088388  1
  Co  Co124  1  0.37624802  0.12408580  0.12287726  1
  Co  Co125  1  0.50245959  0.50098258  0.49176007  1
  Co  Co126  1  0.37551422  0.37053505  0.87211616  1
  Co  Co127  1  0.25129008  0.00220902  -0.00121110  1
