# generated using pymatgen
data_Fe45Co19
_symmetry_space_group_name_H-M   'P 1'
_cell_length_a   11.41439635
_cell_length_b   11.41411778
_cell_length_c   11.41391023
_cell_angle_alpha   90.00456377
_cell_angle_beta   90.01496489
_cell_angle_gamma   90.00536969
_symmetry_Int_Tables_number   1
_chemical_formula_structural   Fe45Co19
_chemical_formula_sum   'Fe90 Co38'
_cell_volume   1487.06424812
_cell_formula_units_Z   2
loop_
 _symmetry_equiv_pos_site_id
 _symmetry_equiv_pos_as_xyz
  1  'x, y, z'
loop_
 _atom_site_type_symbol
 _atom_site_label
 _atom_site_symmetry_multiplicity
 _atom_site_fract_x
 _atom_site_fract_y
 _atom_site_fract_z
 _atom_site_occupancy
  Fe  Fe0  1  0.49890138  0.24781900  0.00050458  1
  Fe  Fe1  1  0.00112352  0.25236493  0.74818864  1
  Fe  Fe2  1  0.24835150  0.75113756  0.24803553  1
  Fe  Fe3  1  0.49628723  0.25081169  0.25194440  1
  Fe  Fe4  1  0.36957233  0.12797849  0.12667800  1
  Fe  Fe5  1  0.12370250  0.37662567  0.87547420  1
  Fe  Fe6  1  0.74942753  0.74743297  0.00011908  1
  Fe  Fe7  1  0.87486783  0.87301833  0.62508142  1
  Fe  Fe8  1  0.12625719  0.12608542  0.87456466  1
  Fe  Fe9  1  0.12874817  0.12043754  0.37197710  1
  Fe  Fe10  1  -0.00060662  0.74893252  0.24795375  1
  Fe  Fe11  1  0.24827998  0.25420840  0.74758544  1
  Fe  Fe12  1  0.50619491  0.75256452  0.75282380  1
  Fe  Fe13  1  0.12230769  0.38217895  0.62229319  1
  Fe  Fe14  1  0.37368951  0.62705967  0.87106270  1
  Fe  Fe15  1  0.87655153  0.37451510  0.12580112  1
  Fe  Fe16  1  0.87260009  0.62563727  0.87481202  1
  Fe  Fe17  1  0.24751299  0.74927124  -0.00047998  1
  Fe  Fe18  1  0.74939544  0.25261577  0.74949339  1
  Fe  Fe19  1  0.37457078  0.12596757  0.62605483  1
  Fe  Fe20  1  0.00377789  0.49957645  0.25181703  1
  Fe  Fe21  1  0.74779808  -0.00326524  0.74852997  1
  Fe  Fe22  1  0.37627977  0.37285487  0.87593246  1
  Fe  Fe23  1  0.75390765  -0.00418191  0.25155210  1
  Fe  Fe24  1  0.24853654  -0.00258186  0.74716677  1
  Fe  Fe25  1  0.87631951  0.37360313  0.87801892  1
  Fe  Fe26  1  0.87913041  0.37780894  0.62198815  1
  Fe  Fe27  1  0.75295354  0.00249203  0.00062502  1
  Fe  Fe28  1  0.49885162  0.25020864  0.49914048  1
  Fe  Fe29  1  0.37261088  0.62454411  0.12747561  1
  Fe  Fe30  1  0.00228752  0.24999158  0.49807779  1
  Fe  Fe31  1  0.49640682  0.49820849  0.74629543  1
  Fe  Fe32  1  0.12773609  0.62337161  0.87155570  1
  Fe  Fe33  1  0.62558348  0.12400619  0.37418512  1
  Fe  Fe34  1  0.50009488  0.74454065  0.49730981  1
  Fe  Fe35  1  0.37674553  0.87522778  0.87689935  1
  Fe  Fe36  1  0.25186601  0.50658413  0.50135628  1
  Fe  Fe37  1  0.37262736  0.37914387  0.37699926  1
  Fe  Fe38  1  0.62453022  0.87438938  0.37597210  1
  Fe  Fe39  1  0.37664452  0.87195614  0.62490831  1
  Fe  Fe40  1  0.62282415  0.37518677  0.62330733  1
  Fe  Fe41  1  0.62338912  0.37606465  0.37650963  1
  Fe  Fe42  1  0.62605788  0.62456037  0.62592098  1
  Fe  Fe43  1  0.75116242  0.25162979  0.49949498  1
  Fe  Fe44  1  0.87098379  0.62432243  0.36847266  1
  Fe  Fe45  1  0.62305382  0.37553960  0.87565972  1
  Fe  Fe46  1  0.24906062  0.74668943  0.50276071  1
  Fe  Fe47  1  0.62169011  0.37468104  0.12448089  1
  Fe  Fe48  1  0.75012865  0.25345746  0.25016913  1
  Fe  Fe49  1  0.50156472  0.74869602  0.25145241  1
  Fe  Fe50  1  0.37380878  0.12560124  0.87275226  1
  Fe  Fe51  1  0.62851788  0.62439636  0.12908940  1
  Fe  Fe52  1  0.12376140  0.87459356  0.37573765  1
  Fe  Fe53  1  0.62687202  0.12513218  0.12651599  1
  Fe  Fe54  1  0.75154990  -0.00083828  0.49903591  1
  Fe  Fe55  1  0.37315116  0.87380005  0.37580379  1
  Fe  Fe56  1  0.87600814  0.87310137  0.87582417  1
  Fe  Fe57  1  0.49727535  -0.00042272  0.24841742  1
  Fe  Fe58  1  0.50266069  0.74649821  -0.00164701  1
  Fe  Fe59  1  0.87490774  0.12631565  0.37382359  1
  Fe  Fe60  1  0.62312210  0.87633889  0.12207519  1
  Fe  Fe61  1  0.12956481  0.37369017  0.12490428  1
  Fe  Fe62  1  0.37692973  0.87260208  0.12246123  1
  Fe  Fe63  1  0.12168766  0.87484658  0.87713875  1
  Fe  Fe64  1  0.75026282  0.49939346  0.00219934  1
  Fe  Fe65  1  0.49868687  -0.00073489  0.49996845  1
  Fe  Fe66  1  0.37137272  0.12152890  0.37510652  1
  Fe  Fe67  1  0.87409214  0.12763559  0.87399785  1
  Fe  Fe68  1  0.87911896  0.87475900  0.12123723  1
  Fe  Fe69  1  0.00067014  0.50370325  0.00149846  1
  Fe  Fe70  1  0.25135173  0.50007178  -0.00005547  1
  Fe  Fe71  1  0.87600266  0.12579681  0.62522962  1
  Fe  Fe72  1  0.00111858  0.24561366  0.00352248  1
  Fe  Fe73  1  0.62439391  0.12586340  0.62371678  1
  Fe  Fe74  1  0.00006088  0.00069015  0.75015908  1
  Fe  Fe75  1  0.75114415  0.74906026  0.49886830  1
  Fe  Fe76  1  0.75237758  0.49845924  0.75023572  1
  Fe  Fe77  1  0.24910512  0.00004863  0.00129467  1
  Fe  Fe78  1  0.00390737  0.24962572  0.25101295  1
  Fe  Fe79  1  0.75130540  0.49910735  0.49682929  1
  Fe  Fe80  1  0.50293777  -0.00219094  0.74951047  1
  Fe  Fe81  1  0.00002252  0.74219289  0.50214457  1
  Fe  Fe82  1  0.49963594  0.50156435  0.25287165  1
  Fe  Fe83  1  0.24786177  0.24805250  0.50024102  1
  Fe  Fe84  1  0.12068616  0.87698724  0.12237702  1
  Fe  Fe85  1  0.62513763  0.12493902  0.87555993  1
  Fe  Fe86  1  0.49842803  0.50202767  0.00054689  1
  Fe  Fe87  1  -0.00043866  0.74624825  0.74928176  1
  Fe  Fe88  1  0.12258179  0.87399968  0.62399564  1
  Fe  Fe89  1  0.00039198  0.00145481  0.49925511  1
  Co  Co90  1  0.12605226  0.62000219  0.63055304  1
  Co  Co91  1  0.37225621  0.62573144  0.37108225  1
  Co  Co92  1  0.49672708  0.00522518  0.00228279  1
  Co  Co93  1  0.24795474  0.49987489  0.24947144  1
  Co  Co94  1  0.62519503  0.87303170  0.61984159  1
  Co  Co95  1  0.25145290  -0.00618230  0.24748158  1
  Co  Co96  1  0.74692445  0.75216642  0.75157081  1
  Co  Co97  1  0.87966507  0.87217672  0.37875639  1
  Co  Co98  1  -0.00187164  -0.00007908  0.25022216  1
  Co  Co99  1  0.12773230  0.37831970  0.37942111  1
  Co  Co100  1  -0.00329505  0.50172944  0.75296037  1
  Co  Co101  1  0.37460910  0.37667703  0.12604290  1
  Co  Co102  1  0.25445096  0.49546005  0.75011222  1
  Co  Co103  1  0.75138661  0.75712373  0.24791317  1
  Co  Co104  1  0.87359171  0.62315679  0.12875077  1
  Co  Co105  1  0.00061645  0.74379930  -0.00065881  1
  Co  Co106  1  0.37552521  0.62993353  0.63055051  1
  Co  Co107  1  0.12686170  0.62705558  0.37249215  1
  Co  Co108  1  0.63026531  0.62524413  0.37220751  1
  Co  Co109  1  -0.00186082  0.50680437  0.49470395  1
  Co  Co110  1  -0.00053278  0.00651069  -0.00075145  1
  Co  Co111  1  0.12918771  0.12450038  0.12819840  1
  Co  Co112  1  0.25022187  0.25150401  -0.00138383  1
  Co  Co113  1  0.62500659  0.87846252  0.88216472  1
  Co  Co114  1  0.37357699  0.37318338  0.61972436  1
  Co  Co115  1  0.12384948  0.12493507  0.62549322  1
  Co  Co116  1  0.74878256  0.49398304  0.24946045  1
  Co  Co117  1  0.87341682  0.12684754  0.12828432  1
  Co  Co118  1  0.25050308  0.25340740  0.25394921  1
  Co  Co119  1  0.87203452  0.62351968  0.62628545  1
  Co  Co120  1  0.12669977  0.62433737  0.12532320  1
  Co  Co121  1  0.87747504  0.37417461  0.37416317  1
  Co  Co122  1  0.62588704  0.62054885  0.87295492  1
  Co  Co123  1  0.49888638  0.50442631  0.50022863  1
  Co  Co124  1  0.24983525  -0.00255398  0.50329440  1
  Co  Co125  1  0.24714090  0.75440766  0.75000179  1
  Co  Co126  1  0.74890115  0.25192808  0.00084587  1
  Co  Co127  1  0.50051568  0.25110431  0.74946538  1
