# generated using pymatgen
data_Fe45Co19
_symmetry_space_group_name_H-M   'P 1'
_cell_length_a   11.41540874
_cell_length_b   11.41530664
_cell_length_c   11.41514677
_cell_angle_alpha   89.99499550
_cell_angle_beta   89.99650869
_cell_angle_gamma   89.99618896
_symmetry_Int_Tables_number   1
_chemical_formula_structural   Fe45Co19
_chemical_formula_sum   'Fe90 Co38'
_cell_volume   1487.51222889
_cell_formula_units_Z   2
loop_
 _symmetry_equiv_pos_site_id
 _symmetry_equiv_pos_as_xyz
  1  'x, y, z'
loop_
 _atom_site_type_symbol
 _atom_site_label
 _atom_site_symmetry_multiplicity
 _atom_site_fract_x
 _atom_site_fract_y
 _atom_site_fract_z
 _atom_site_occupancy
  Fe  Fe0  1  0.49483998  0.50399539  0.24696933  1
  Fe  Fe1  1  0.87626605  0.37693302  0.37469442  1
  Fe  Fe2  1  0.12424323  0.87448179  0.37713036  1
  Fe  Fe3  1  0.24998741  0.25110866  0.25126542  1
  Fe  Fe4  1  0.62528970  0.37755999  0.12575457  1
  Fe  Fe5  1  0.87836568  0.12437580  0.87447976  1
  Fe  Fe6  1  0.74960598  0.25208403  -0.00106880  1
  Fe  Fe7  1  0.62577135  0.12324464  0.12355446  1
  Fe  Fe8  1  0.49962972  0.25003652  -0.00063740  1
  Fe  Fe9  1  -0.00143044  0.50024704  -0.00099769  1
  Fe  Fe10  1  0.75285022  0.25194397  0.75014833  1
  Fe  Fe11  1  0.37431783  0.62762727  0.87435034  1
  Fe  Fe12  1  0.49890415  -0.00049240  0.24987604  1
  Fe  Fe13  1  0.62608432  0.12496274  0.62573098  1
  Fe  Fe14  1  0.49813347  0.24983210  0.74828359  1
  Fe  Fe15  1  0.87229389  0.62618090  0.12362917  1
  Fe  Fe16  1  0.12372161  0.12095739  0.87600262  1
  Fe  Fe17  1  0.87714203  0.87402079  0.62900495  1
  Fe  Fe18  1  0.74808123  0.25178877  0.25166138  1
  Fe  Fe19  1  0.12733643  0.12086010  0.62046341  1
  Fe  Fe20  1  0.87883564  0.87470922  0.87144303  1
  Fe  Fe21  1  0.49593603  0.50017351  0.74884833  1
  Fe  Fe22  1  0.87409980  0.62464692  0.62501304  1
  Fe  Fe23  1  0.87557712  0.87340635  0.37371686  1
  Fe  Fe24  1  0.62719775  0.62352123  0.62849351  1
  Fe  Fe25  1  0.12546935  0.12311069  0.12468942  1
  Fe  Fe26  1  0.87489699  0.62540993  0.37475116  1
  Fe  Fe27  1  0.00272868  0.25136950  0.50045615  1
  Fe  Fe28  1  0.37359354  0.12750446  0.37927157  1
  Fe  Fe29  1  0.37351731  0.12338999  0.87368088  1
  Fe  Fe30  1  0.25166560  0.50257589  0.50148032  1
  Fe  Fe31  1  0.62640227  0.12421775  0.87413994  1
  Fe  Fe32  1  0.12594778  0.38101362  0.37220768  1
  Fe  Fe33  1  0.49842488  0.50040101  -0.00082352  1
  Fe  Fe34  1  0.62337491  0.62355464  0.37508225  1
  Fe  Fe35  1  0.75139596  -0.00178994  0.50193542  1
  Fe  Fe36  1  0.75304189  -0.00352679  0.00015555  1
  Fe  Fe37  1  0.49868146  -0.00138958  0.74760356  1
  Fe  Fe38  1  0.50192395  0.75051755  0.74945774  1
  Fe  Fe39  1  0.12494543  0.62438741  0.62850160  1
  Fe  Fe40  1  0.25172725  -0.00068285  0.25206576  1
  Fe  Fe41  1  0.24569976  0.75161914  0.75210034  1
  Fe  Fe42  1  0.74784479  0.49742238  0.49871780  1
  Fe  Fe43  1  0.49687317  -0.00088962  0.50354612  1
  Fe  Fe44  1  0.87513480  0.62915851  0.87671233  1
  Fe  Fe45  1  0.00019472  0.50186186  0.50029737  1
  Fe  Fe46  1  0.12383123  0.37900337  0.62862497  1
  Fe  Fe47  1  0.37386119  0.37322575  0.87362578  1
  Fe  Fe48  1  0.74653781  0.75055606  0.24924040  1
  Fe  Fe49  1  0.24883840  0.74810690  0.50027493  1
  Fe  Fe50  1  0.74857356  0.75073499  0.50205615  1
  Fe  Fe51  1  0.00037330  0.74953802  0.50142358  1
  Fe  Fe52  1  0.24797266  0.24951382  0.74835968  1
  Fe  Fe53  1  0.12193065  0.37759608  0.87168289  1
  Fe  Fe54  1  0.75476013  0.49922753  0.75319209  1
  Fe  Fe55  1  0.87525345  0.12444384  0.12516535  1
  Fe  Fe56  1  0.62501138  0.37657057  0.87328845  1
  Fe  Fe57  1  0.50057435  0.25301781  0.50376904  1
  Fe  Fe58  1  0.24640708  0.75256712  -0.00382891  1
  Fe  Fe59  1  0.00095323  0.25147892  0.25000546  1
  Fe  Fe60  1  0.49917341  0.24933642  0.24886413  1
  Fe  Fe61  1  0.12532440  0.12233377  0.37743987  1
  Fe  Fe62  1  0.37467305  0.37673022  0.37636655  1
  Fe  Fe63  1  0.62710902  0.62495131  0.12201366  1
  Fe  Fe64  1  0.24908941  0.25061012  -0.00128200  1
  Fe  Fe65  1  0.00230450  0.74740224  0.24987120  1
  Fe  Fe66  1  0.25109995  0.74431963  0.25287920  1
  Fe  Fe67  1  0.24958715  -0.00407854  0.00029542  1
  Fe  Fe68  1  0.37361157  0.12578268  0.12313515  1
  Fe  Fe69  1  0.50311062  0.75035815  -0.00216582  1
  Fe  Fe70  1  0.62757787  0.87541018  0.87233330  1
  Fe  Fe71  1  0.49915958  0.49956560  0.50518377  1
  Fe  Fe72  1  0.00062638  -0.00167019  0.24924004  1
  Fe  Fe73  1  0.00178062  0.24981062  0.00026423  1
  Fe  Fe74  1  0.12683662  0.37839166  0.12703816  1
  Fe  Fe75  1  0.87347883  0.37732151  0.12500172  1
  Fe  Fe76  1  0.87534980  0.12640928  0.62393182  1
  Fe  Fe77  1  0.37537011  0.87101773  0.12518821  1
  Fe  Fe78  1  0.50190048  0.74872804  0.50361055  1
  Fe  Fe79  1  0.74750757  0.25444136  0.49921422  1
  Fe  Fe80  1  0.49925708  -0.00118265  -0.00105685  1
  Fe  Fe81  1  0.62453679  0.12465891  0.37693417  1
  Fe  Fe82  1  0.87537822  0.12532560  0.37554200  1
  Fe  Fe83  1  0.74886180  -0.00199441  0.24937197  1
  Fe  Fe84  1  0.37698150  0.87017415  0.37595795  1
  Fe  Fe85  1  0.25060785  -0.00409836  0.74710663  1
  Fe  Fe86  1  0.25251097  0.49948664  -0.00143768  1
  Fe  Fe87  1  0.12704028  0.62352363  0.12410690  1
  Fe  Fe88  1  0.00299614  0.75347726  0.00041579  1
  Fe  Fe89  1  0.62348035  0.87494791  0.37621896  1
  Co  Co90  1  -0.00318120  -0.00175720  0.49986074  1
  Co  Co91  1  0.12010718  0.87862008  0.87298113  1
  Co  Co92  1  0.37355480  0.37294042  0.12452198  1
  Co  Co93  1  0.37575054  0.87374716  0.87439460  1
  Co  Co94  1  0.25254252  0.50184626  0.75177854  1
  Co  Co95  1  0.62033805  0.37746629  0.37240978  1
  Co  Co96  1  0.62309115  0.87524218  0.12406191  1
  Co  Co97  1  0.00127404  0.00281887  0.74618973  1
  Co  Co98  1  0.37277849  0.12650047  0.62417632  1
  Co  Co99  1  0.87580152  0.87194440  0.12761131  1
  Co  Co100  1  0.37859753  0.62488277  0.37968852  1
  Co  Co101  1  0.87714433  0.37574268  0.62366810  1
  Co  Co102  1  0.62700005  0.37639542  0.62953751  1
  Co  Co103  1  0.12775082  0.87360834  0.12840697  1
  Co  Co104  1  0.62560990  0.87504553  0.62533031  1
  Co  Co105  1  -0.00206416  0.50305534  0.24849405  1
  Co  Co106  1  0.00247625  0.24703394  0.74727828  1
  Co  Co107  1  0.74849471  0.75309668  -0.00173435  1
  Co  Co108  1  0.75096398  0.00005974  0.74948431  1
  Co  Co109  1  0.75011731  0.74933271  0.74968659  1
  Co  Co110  1  0.25408683  -0.00389757  0.49934804  1
  Co  Co111  1  0.50173823  0.74721647  0.24891832  1
  Co  Co112  1  -0.00442199  0.50355000  0.75222679  1
  Co  Co113  1  0.37421481  0.87033193  0.62502719  1
  Co  Co114  1  0.37111596  0.37355119  0.62534162  1
  Co  Co115  1  0.12488535  0.62215696  0.87596111  1
  Co  Co116  1  -0.00058746  -0.00266655  0.00344254  1
  Co  Co117  1  0.12375018  0.87465160  0.62274241  1
  Co  Co118  1  0.75042047  0.50179960  0.25168761  1
  Co  Co119  1  0.00294217  0.74668599  0.75002330  1
  Co  Co120  1  0.25505392  0.50447564  0.24936457  1
  Co  Co121  1  0.12342727  0.62268596  0.37564122  1
  Co  Co122  1  0.87900197  0.37151892  0.87496864  1
  Co  Co123  1  0.62486265  0.62381297  0.87260437  1
  Co  Co124  1  0.24623730  0.25318043  0.49978215  1
  Co  Co125  1  0.37340268  0.62872265  0.62774697  1
  Co  Co126  1  0.75065170  0.49965480  -0.00416165  1
  Co  Co127  1  0.37330518  0.63043439  0.11920595  1
