# generated using pymatgen
data_Fe45Co19
_symmetry_space_group_name_H-M   'P 1'
_cell_length_a   11.41485051
_cell_length_b   11.41620146
_cell_length_c   11.41433797
_cell_angle_alpha   89.99595469
_cell_angle_beta   90.00773749
_cell_angle_gamma   89.99101118
_symmetry_Int_Tables_number   1
_chemical_formula_structural   Fe45Co19
_chemical_formula_sum   'Fe90 Co38'
_cell_volume   1487.45066250
_cell_formula_units_Z   2
loop_
 _symmetry_equiv_pos_site_id
 _symmetry_equiv_pos_as_xyz
  1  'x, y, z'
loop_
 _atom_site_type_symbol
 _atom_site_label
 _atom_site_symmetry_multiplicity
 _atom_site_fract_x
 _atom_site_fract_y
 _atom_site_fract_z
 _atom_site_occupancy
  Fe  Fe0  1  0.25094092  0.25120215  0.00154527  1
  Fe  Fe1  1  0.62547526  0.87480799  0.62464456  1
  Fe  Fe2  1  0.50018186  0.00053251  0.24851382  1
  Fe  Fe3  1  0.75213918  0.00097302  0.49950326  1
  Fe  Fe4  1  0.74816218  0.75087935  0.25142639  1
  Fe  Fe5  1  0.24765726  0.49854455  0.25129366  1
  Fe  Fe6  1  0.37378485  0.87626221  0.12582819  1
  Fe  Fe7  1  0.87209901  0.62499864  0.12571182  1
  Fe  Fe8  1  0.50136420  0.74715546  0.74684545  1
  Fe  Fe9  1  0.25056514  0.25060808  0.50001958  1
  Fe  Fe10  1  0.12536073  0.62419791  0.12568278  1
  Fe  Fe11  1  0.37718600  0.37357380  0.87508118  1
  Fe  Fe12  1  0.12450446  0.12518947  0.87444948  1
  Fe  Fe13  1  0.24690254  0.25319391  0.24782576  1
  Fe  Fe14  1  0.62518881  0.12628095  0.37324704  1
  Fe  Fe15  1  0.74911110  0.50014592  0.75001516  1
  Fe  Fe16  1  0.12301141  0.37672215  0.62175803  1
  Fe  Fe17  1  0.62231075  0.12438464  0.87822937  1
  Fe  Fe18  1  0.62594390  0.12448163  0.62488271  1
  Fe  Fe19  1  0.12444042  0.87364392  0.12445607  1
  Fe  Fe20  1  -0.00235050  0.74767989  -0.00180181  1
  Fe  Fe21  1  0.49911109  0.24804274  0.50246549  1
  Fe  Fe22  1  0.37810098  0.37498556  0.37173683  1
  Fe  Fe23  1  0.37421236  0.62371193  0.37297166  1
  Fe  Fe24  1  0.75242087  0.49884151  0.49951538  1
  Fe  Fe25  1  0.25056535  0.74837948  0.00010510  1
  Fe  Fe26  1  0.62776129  0.62440340  0.87685367  1
  Fe  Fe27  1  0.37545775  0.12918864  0.87193170  1
  Fe  Fe28  1  0.24766319  -0.00009123  0.25012377  1
  Fe  Fe29  1  0.50238917  0.50076978  0.74861264  1
  Fe  Fe30  1  0.12966654  0.12368906  0.62538690  1
  Fe  Fe31  1  0.12302835  0.12562807  0.37471760  1
  Fe  Fe32  1  0.87680646  0.87492656  0.37535085  1
  Fe  Fe33  1  0.37491951  0.62277284  0.12743679  1
  Fe  Fe34  1  0.12403884  0.87507947  0.87663157  1
  Fe  Fe35  1  0.75162994  -0.00149033  0.74941810  1
  Fe  Fe36  1  -0.00092638  0.75054778  0.75058990  1
  Fe  Fe37  1  0.00055208  0.25007598  0.74801981  1
  Fe  Fe38  1  0.37422606  0.12706408  0.37206836  1
  Fe  Fe39  1  0.37458947  0.62394582  0.87353170  1
  Fe  Fe40  1  0.74932615  0.75105900  0.49933877  1
  Fe  Fe41  1  0.62418527  0.87741905  0.37556117  1
  Fe  Fe42  1  0.49997491  0.74988975  0.00110928  1
  Fe  Fe43  1  0.37459066  0.87461397  0.37502334  1
  Fe  Fe44  1  0.12378592  0.37576166  0.87650337  1
  Fe  Fe45  1  0.87653630  0.12478430  0.87386411  1
  Fe  Fe46  1  0.75439361  0.00082022  0.00339753  1
  Fe  Fe47  1  0.75347494  0.00179397  0.24729922  1
  Fe  Fe48  1  0.24928328  0.49863560  0.75033869  1
  Fe  Fe49  1  0.24877571  0.74951907  0.75022723  1
  Fe  Fe50  1  0.87445995  0.37533403  0.87405933  1
  Fe  Fe51  1  0.37520453  0.37335691  0.62737485  1
  Fe  Fe52  1  0.24931136  0.50041280  -0.00072837  1
  Fe  Fe53  1  0.12748261  0.87739144  0.62366676  1
  Fe  Fe54  1  0.62418836  0.37319982  0.87872591  1
  Fe  Fe55  1  0.75242279  0.24911012  0.49994053  1
  Fe  Fe56  1  0.00100132  0.49878771  0.25084672  1
  Fe  Fe57  1  0.74861899  0.24966020  0.74984355  1
  Fe  Fe58  1  0.62425552  0.87706845  0.87526539  1
  Fe  Fe59  1  0.00183771  0.74935542  0.25153830  1
  Fe  Fe60  1  0.62456824  0.62287896  0.37611414  1
  Fe  Fe61  1  0.49571474  0.00240520  0.50197924  1
  Fe  Fe62  1  0.87659188  0.37180164  0.12479842  1
  Fe  Fe63  1  0.37520420  0.87317101  0.87347042  1
  Fe  Fe64  1  0.49945064  0.74821728  0.50210333  1
  Fe  Fe65  1  0.62540168  0.87649620  0.12401289  1
  Fe  Fe66  1  0.12583267  0.62200187  0.62191974  1
  Fe  Fe67  1  0.87572080  0.62539184  0.37442540  1
  Fe  Fe68  1  0.75152661  0.24775342  0.00174871  1
  Fe  Fe69  1  0.87838352  0.12739542  0.37172085  1
  Fe  Fe70  1  0.62633016  0.37518947  0.62252565  1
  Fe  Fe71  1  0.87345963  0.62771574  0.62592260  1
  Fe  Fe72  1  0.12132334  0.12761736  0.12564382  1
  Fe  Fe73  1  -0.00095116  0.50030926  0.74966529  1
  Fe  Fe74  1  0.49825191  0.50093149  0.50107481  1
  Fe  Fe75  1  0.12491188  0.87462421  0.37501216  1
  Fe  Fe76  1  0.87629955  0.37230370  0.37639530  1
  Fe  Fe77  1  0.75209926  0.75115091  -0.00281488  1
  Fe  Fe78  1  0.74594182  0.49616592  0.24945171  1
  Fe  Fe79  1  -0.00179848  0.50120700  -0.00127053  1
  Fe  Fe80  1  0.24982636  0.74856821  0.49856436  1
  Fe  Fe81  1  -0.00071343  0.00088045  0.50097200  1
  Fe  Fe82  1  0.49632819  0.00117089  0.74789819  1
  Fe  Fe83  1  -0.00312907  0.00032161  0.00326909  1
  Fe  Fe84  1  0.50218141  0.50012843  0.00358621  1
  Fe  Fe85  1  0.25167547  0.00165784  -0.00119841  1
  Fe  Fe86  1  0.50304192  0.25151518  0.24463412  1
  Fe  Fe87  1  0.12209800  0.37749179  0.37996273  1
  Fe  Fe88  1  0.50140121  0.74862549  0.24933833  1
  Fe  Fe89  1  -0.00095422  -0.00103859  0.74824883  1
  Co  Co90  1  0.00404407  0.25504449  0.25212140  1
  Co  Co91  1  0.62863334  0.62409300  0.62313383  1
  Co  Co92  1  0.87540711  0.87129239  0.12602903  1
  Co  Co93  1  0.25264039  0.00148372  0.49674418  1
  Co  Co94  1  0.37303404  0.87381936  0.62439563  1
  Co  Co95  1  0.87376284  0.12467810  0.62692956  1
  Co  Co96  1  0.87412939  0.87364152  0.62381002  1
  Co  Co97  1  0.37469466  0.37850285  0.12646532  1
  Co  Co98  1  0.49707391  0.24917446  0.00386177  1
  Co  Co99  1  0.50573716  0.50023330  0.24823258  1
  Co  Co100  1  -0.00447101  0.50213395  0.50022422  1
  Co  Co101  1  0.62595503  0.37248259  0.12183440  1
  Co  Co102  1  -0.00065406  0.24766017  0.50313448  1
  Co  Co103  1  0.62310274  0.37387132  0.37870724  1
  Co  Co104  1  0.87640160  0.87681171  0.87440968  1
  Co  Co105  1  0.50401192  0.25018335  0.74866408  1
  Co  Co106  1  0.87987717  0.13069371  0.12882213  1
  Co  Co107  1  -0.00029959  0.25103535  -0.00362245  1
  Co  Co108  1  0.24636620  0.25378109  0.75095512  1
  Co  Co109  1  0.24927302  0.74983748  0.25031189  1
  Co  Co110  1  0.75135101  0.49848943  0.00154121  1
  Co  Co111  1  0.37046009  0.12744940  0.62812391  1
  Co  Co112  1  0.87441854  0.37421132  0.62634171  1
  Co  Co113  1  0.00144284  0.74933864  0.49918365  1
  Co  Co114  1  0.12558436  0.62215441  0.37637512  1
  Co  Co115  1  0.49589479  0.00057942  -0.00085412  1
  Co  Co116  1  0.74750747  0.25144331  0.24998920  1
  Co  Co117  1  0.37342318  0.12432278  0.12783904  1
  Co  Co118  1  0.62490371  0.12315155  0.12396863  1
  Co  Co119  1  0.74927366  0.75121661  0.75228945  1
  Co  Co120  1  0.25223930  -0.00134871  0.75371992  1
  Co  Co121  1  0.25406202  0.49768977  0.49867333  1
  Co  Co122  1  -0.00029687  -0.00272949  0.24896547  1
  Co  Co123  1  0.12346040  0.37621896  0.12122252  1
  Co  Co124  1  0.12512391  0.62481228  0.87465402  1
  Co  Co125  1  0.87336690  0.62347288  0.87363726  1
  Co  Co126  1  0.37168682  0.62384251  0.62650788  1
  Co  Co127  1  0.62805692  0.62727903  0.12366185  1
