# generated using pymatgen
data_Fe45Co19
_symmetry_space_group_name_H-M   'P 1'
_cell_length_a   11.41508160
_cell_length_b   11.41454491
_cell_length_c   11.41435930
_cell_angle_alpha   90.00646003
_cell_angle_beta   89.99953737
_cell_angle_gamma   90.00573056
_symmetry_Int_Tables_number   1
_chemical_formula_structural   Fe45Co19
_chemical_formula_sum   'Fe90 Co38'
_cell_volume   1487.26773255
_cell_formula_units_Z   2
loop_
 _symmetry_equiv_pos_site_id
 _symmetry_equiv_pos_as_xyz
  1  'x, y, z'
loop_
 _atom_site_type_symbol
 _atom_site_label
 _atom_site_symmetry_multiplicity
 _atom_site_fract_x
 _atom_site_fract_y
 _atom_site_fract_z
 _atom_site_occupancy
  Fe  Fe0  1  0.37530402  0.12415207  0.87633229  1
  Fe  Fe1  1  0.24895104  0.25046544  0.24888359  1
  Fe  Fe2  1  0.25107354  0.25144300  -0.00012771  1
  Fe  Fe3  1  0.25289594  0.49961737  -0.00083054  1
  Fe  Fe4  1  -0.00090932  0.49994852  0.50044376  1
  Fe  Fe5  1  0.12445944  0.62625876  0.62333777  1
  Fe  Fe6  1  0.12534685  0.12262822  0.12129700  1
  Fe  Fe7  1  0.74709298  0.50378481  0.74846307  1
  Fe  Fe8  1  0.62234169  0.37903872  0.12323152  1
  Fe  Fe9  1  0.50039739  0.25060551  0.49925773  1
  Fe  Fe10  1  -0.00069227  0.24675495  0.49761522  1
  Fe  Fe11  1  0.00116655  0.24430142  0.25051260  1
  Fe  Fe12  1  0.87797701  0.87108543  0.13230803  1
  Fe  Fe13  1  0.00058284  0.24824480  0.75070506  1
  Fe  Fe14  1  0.62398840  0.37897040  0.37464733  1
  Fe  Fe15  1  0.12023511  0.88040978  0.37517754  1
  Fe  Fe16  1  0.37476546  0.12457174  0.12424994  1
  Fe  Fe17  1  0.74871982  0.74770978  0.75325195  1
  Fe  Fe18  1  0.87512272  0.37753265  0.87261566  1
  Fe  Fe19  1  0.49879175  0.74796803  0.49726980  1
  Fe  Fe20  1  0.37621801  0.37783764  0.37358094  1
  Fe  Fe21  1  0.12466696  0.37598118  0.87651371  1
  Fe  Fe22  1  0.25103573  0.25210711  0.49965998  1
  Fe  Fe23  1  0.50049236  0.50226493  0.50262765  1
  Fe  Fe24  1  0.00111417  0.50387433  0.74969583  1
  Fe  Fe25  1  0.87645893  0.37561167  0.37255918  1
  Fe  Fe26  1  0.87792747  0.87107060  0.87485638  1
  Fe  Fe27  1  0.12217229  0.87731521  0.62190858  1
  Fe  Fe28  1  0.12239330  0.87583029  0.87797686  1
  Fe  Fe29  1  0.49928451  -0.00082588  0.00224310  1
  Fe  Fe30  1  0.12339952  0.37454158  0.37251877  1
  Fe  Fe31  1  0.75143862  0.75094155  0.49117180  1
  Fe  Fe32  1  0.25160741  0.75330100  0.49920359  1
  Fe  Fe33  1  0.25010935  -0.00140165  0.24816318  1
  Fe  Fe34  1  0.62454365  0.87466211  0.87721606  1
  Fe  Fe35  1  0.87262476  0.12469027  0.87618906  1
  Fe  Fe36  1  -0.00065598  0.24898552  -0.00033323  1
  Fe  Fe37  1  0.75168795  -0.00458580  0.49537838  1
  Fe  Fe38  1  0.87691169  0.37179666  0.12674963  1
  Fe  Fe39  1  0.25139570  -0.00283725  0.74919049  1
  Fe  Fe40  1  0.62456656  0.38013612  0.87546840  1
  Fe  Fe41  1  0.37660816  0.37714580  0.12512506  1
  Fe  Fe42  1  0.49782645  0.74697458  -0.00033655  1
  Fe  Fe43  1  0.62788400  0.12574782  0.62516245  1
  Fe  Fe44  1  0.24951700  0.50021334  0.24832578  1
  Fe  Fe45  1  0.50145507  0.00185380  0.24869570  1
  Fe  Fe46  1  0.74914733  0.25330692  -0.00166578  1
  Fe  Fe47  1  0.87457332  0.62754349  0.62485189  1
  Fe  Fe48  1  0.62539243  0.62332240  0.12078132  1
  Fe  Fe49  1  0.62834833  0.12393668  0.37354765  1
  Fe  Fe50  1  0.12441145  0.62739939  0.87734132  1
  Fe  Fe51  1  -0.00201612  0.75039650  0.49712009  1
  Fe  Fe52  1  0.49958019  -0.00071547  0.50073717  1
  Fe  Fe53  1  0.37451340  0.12439663  0.62534815  1
  Fe  Fe54  1  0.50050918  0.25132956  -0.00113330  1
  Fe  Fe55  1  0.12608480  0.12184335  0.62140485  1
  Fe  Fe56  1  0.50207949  0.25115852  0.24996338  1
  Fe  Fe57  1  0.50443819  0.24927156  0.75226124  1
  Fe  Fe58  1  0.12307620  0.37462070  0.62559492  1
  Fe  Fe59  1  0.24845448  0.75031831  0.24938205  1
  Fe  Fe60  1  0.37405472  0.62517214  0.62807248  1
  Fe  Fe61  1  0.75055470  0.50053111  0.50104737  1
  Fe  Fe62  1  0.00160108  0.50347717  0.24725001  1
  Fe  Fe63  1  0.75254753  -0.00461848  0.00289577  1
  Fe  Fe64  1  0.24740865  0.75193552  0.74865656  1
  Fe  Fe65  1  0.62952053  0.12533330  0.12445720  1
  Fe  Fe66  1  0.50185416  -0.00013096  0.74942100  1
  Fe  Fe67  1  0.50350572  0.74532443  0.75301984  1
  Fe  Fe68  1  0.25192389  0.75221807  0.00319346  1
  Fe  Fe69  1  0.87141442  0.12650743  0.62591756  1
  Fe  Fe70  1  0.74967776  0.50080094  0.24861919  1
  Fe  Fe71  1  0.37758325  0.87480625  0.37230431  1
  Fe  Fe72  1  0.12600967  0.62378129  0.37613755  1
  Fe  Fe73  1  0.12527713  0.12087570  0.87757143  1
  Fe  Fe74  1  0.24971427  0.49820277  0.50169906  1
  Fe  Fe75  1  0.74902342  -0.00121127  0.75167173  1
  Fe  Fe76  1  -0.00187964  0.50274602  0.00175567  1
  Fe  Fe77  1  -0.00145991  -0.00075949  0.74915448  1
  Fe  Fe78  1  0.62406748  0.87165792  0.12783987  1
  Fe  Fe79  1  0.12023297  0.87705604  0.12464849  1
  Fe  Fe80  1  0.50082303  0.74342977  0.25141472  1
  Fe  Fe81  1  0.74943744  0.25314523  0.49831447  1
  Fe  Fe82  1  0.87351798  0.62974304  0.12613104  1
  Fe  Fe83  1  0.87456341  0.87288543  0.62538274  1
  Fe  Fe84  1  0.37311044  0.12447512  0.37431736  1
  Fe  Fe85  1  0.37720040  0.37766360  0.63068439  1
  Fe  Fe86  1  0.37599197  0.87437798  0.87477405  1
  Fe  Fe87  1  0.87398655  0.37335817  0.62770169  1
  Fe  Fe88  1  0.62513310  0.87119441  0.62350981  1
  Fe  Fe89  1  0.24828177  0.25025134  0.75023094  1
  Co  Co90  1  0.74714365  0.25075043  0.75397618  1
  Co  Co91  1  0.12807322  0.62483354  0.12229357  1
  Co  Co92  1  0.00541160  0.74539874  0.25119080  1
  Co  Co93  1  0.86891131  0.12874432  0.12477905  1
  Co  Co94  1  0.37488489  0.37429455  0.87066428  1
  Co  Co95  1  0.62456649  0.37393016  0.62586866  1
  Co  Co96  1  0.00120015  0.74955532  0.74920876  1
  Co  Co97  1  0.88022667  0.87400879  0.36759669  1
  Co  Co98  1  0.74618828  0.74839741  0.25417169  1
  Co  Co99  1  -0.00218640  0.00808049  0.24940311  1
  Co  Co100  1  0.25519073  -0.00434354  0.50042175  1
  Co  Co101  1  -0.00651734  0.00262826  0.49889526  1
  Co  Co102  1  0.50491711  0.50576919  0.75156450  1
  Co  Co103  1  0.37825044  0.87348268  0.12790106  1
  Co  Co104  1  0.86839673  0.12598004  0.37245708  1
  Co  Co105  1  0.75228024  0.75370500  0.00095911  1
  Co  Co106  1  0.62058501  0.87526321  0.37302101  1
  Co  Co107  1  0.87448618  0.62580511  0.87510462  1
  Co  Co108  1  0.62628171  0.12162223  0.87853578  1
  Co  Co109  1  0.87625357  0.62330050  0.37313660  1
  Co  Co110  1  0.24585968  0.50092581  0.75039561  1
  Co  Co111  1  0.37964834  0.87205211  0.62707056  1
  Co  Co112  1  0.62602163  0.62133564  0.37623335  1
  Co  Co113  1  0.75040770  -0.00404827  0.24944864  1
  Co  Co114  1  0.74641819  0.25501443  0.25043351  1
  Co  Co115  1  -0.00598872  -0.00061882  0.00170465  1
  Co  Co116  1  0.63032406  0.62359776  0.88312929  1
  Co  Co117  1  0.75522946  0.49861274  0.00312952  1
  Co  Co118  1  0.37098514  0.62640916  0.87211262  1
  Co  Co119  1  0.50037240  0.50271398  0.25012791  1
  Co  Co120  1  -0.00088475  0.74858245  0.00182981  1
  Co  Co121  1  0.62688314  0.63011553  0.62114231  1
  Co  Co122  1  0.25338538  -0.00355667  0.00143450  1
  Co  Co123  1  0.37430375  0.62391396  0.12634691  1
  Co  Co124  1  0.12376847  0.37497619  0.12409114  1
  Co  Co125  1  0.49394731  0.50217691  -0.00405235  1
  Co  Co126  1  0.37163961  0.62331827  0.37509268  1
  Co  Co127  1  0.12956978  0.12218992  0.37769819  1
