# generated using pymatgen
data_Fe45Co19
_symmetry_space_group_name_H-M   'P 1'
_cell_length_a   11.41600316
_cell_length_b   11.41461205
_cell_length_c   11.41436011
_cell_angle_alpha   89.98825543
_cell_angle_beta   90.00192942
_cell_angle_gamma   89.99770167
_symmetry_Int_Tables_number   1
_chemical_formula_structural   Fe45Co19
_chemical_formula_sum   'Fe90 Co38'
_cell_volume   1487.39664064
_cell_formula_units_Z   2
loop_
 _symmetry_equiv_pos_site_id
 _symmetry_equiv_pos_as_xyz
  1  'x, y, z'
loop_
 _atom_site_type_symbol
 _atom_site_label
 _atom_site_symmetry_multiplicity
 _atom_site_fract_x
 _atom_site_fract_y
 _atom_site_fract_z
 _atom_site_occupancy
  Fe  Fe0  1  0.36866787  0.12748452  0.62709177  1
  Fe  Fe1  1  0.00600090  0.24107831  0.49737783  1
  Fe  Fe2  1  0.62606439  0.87792908  0.12696088  1
  Fe  Fe3  1  -0.00085861  0.74694896  0.00105691  1
  Fe  Fe4  1  0.50279147  0.25008596  0.25050958  1
  Fe  Fe5  1  0.12132375  0.87748626  0.87516347  1
  Fe  Fe6  1  0.37389232  0.12440849  0.37186975  1
  Fe  Fe7  1  0.25133697  -0.00352782  0.24735492  1
  Fe  Fe8  1  0.62533069  0.87725286  0.87483421  1
  Fe  Fe9  1  0.50251051  0.74731369  0.00232713  1
  Fe  Fe10  1  0.62609171  0.12089874  0.37233363  1
  Fe  Fe11  1  0.75117979  0.25178650  -0.00204286  1
  Fe  Fe12  1  0.62620588  0.62074915  0.87640974  1
  Fe  Fe13  1  0.87571514  0.62309376  0.37363262  1
  Fe  Fe14  1  0.37736778  0.37370162  0.87945064  1
  Fe  Fe15  1  0.74680268  0.25084043  0.49581514  1
  Fe  Fe16  1  0.87659987  0.62034000  0.87338068  1
  Fe  Fe17  1  0.37229682  0.12543383  0.87373874  1
  Fe  Fe18  1  0.24876332  0.49827783  0.00106696  1
  Fe  Fe19  1  0.24839331  0.75313919  0.25221854  1
  Fe  Fe20  1  0.24758218  0.49604921  0.74894448  1
  Fe  Fe21  1  0.12718287  0.37078868  0.62041588  1
  Fe  Fe22  1  0.37619812  0.87569791  0.62337315  1
  Fe  Fe23  1  0.87316503  0.12860468  0.12936867  1
  Fe  Fe24  1  0.75111138  0.75055247  0.49899224  1
  Fe  Fe25  1  0.75136879  0.49304552  0.25121386  1
  Fe  Fe26  1  0.87439222  0.62512377  0.12797816  1
  Fe  Fe27  1  0.24451694  0.25504700  0.25532067  1
  Fe  Fe28  1  0.49860388  0.00327819  0.00357243  1
  Fe  Fe29  1  0.49748546  0.49980073  0.74903003  1
  Fe  Fe30  1  0.62978832  0.12434870  0.12799891  1
  Fe  Fe31  1  0.62649040  0.62262943  0.62470918  1
  Fe  Fe32  1  0.37318990  0.62508206  0.87501566  1
  Fe  Fe33  1  0.87989333  0.87426466  0.37771592  1
  Fe  Fe34  1  0.00025771  0.50346338  0.50429383  1
  Fe  Fe35  1  0.62371563  0.37541224  0.12205306  1
  Fe  Fe36  1  0.75374391  0.00044914  0.00076835  1
  Fe  Fe37  1  0.62542245  0.87706832  0.62239964  1
  Fe  Fe38  1  0.12162764  0.87503094  0.12387509  1
  Fe  Fe39  1  0.49975455  0.00222478  0.74726213  1
  Fe  Fe40  1  0.75139362  0.49769136  0.49874308  1
  Fe  Fe41  1  0.24725400  0.75048476  -0.00051002  1
  Fe  Fe42  1  0.75107813  0.74925700  0.00126863  1
  Fe  Fe43  1  0.12075900  0.87596918  0.62128886  1
  Fe  Fe44  1  0.12511483  0.12768213  0.12825054  1
  Fe  Fe45  1  0.75277546  0.49345873  0.75077093  1
  Fe  Fe46  1  0.49839291  0.50145016  0.49895939  1
  Fe  Fe47  1  0.37257637  0.62594210  0.12620267  1
  Fe  Fe48  1  0.24853874  0.75380815  0.74942832  1
  Fe  Fe49  1  0.50106239  0.74874727  0.74904402  1
  Fe  Fe50  1  0.36996075  0.62508252  0.62410834  1
  Fe  Fe51  1  0.12017618  0.87703200  0.37754184  1
  Fe  Fe52  1  0.37768979  0.87786301  0.37567021  1
  Fe  Fe53  1  0.87302902  0.62487482  0.62724585  1
  Fe  Fe54  1  0.37270076  0.37221993  0.62021978  1
  Fe  Fe55  1  0.24844440  0.00180469  0.49999685  1
  Fe  Fe56  1  0.24798328  0.49539386  0.25290037  1
  Fe  Fe57  1  0.37272172  0.62434701  0.37510452  1
  Fe  Fe58  1  0.75352568  0.00055955  0.50017999  1
  Fe  Fe59  1  0.37642764  0.87519333  0.87771342  1
  Fe  Fe60  1  0.87663873  0.36821641  0.62310602  1
  Fe  Fe61  1  0.50082290  0.74925639  0.49926138  1
  Fe  Fe62  1  0.11856734  0.37448414  0.87938908  1
  Fe  Fe63  1  0.50098437  0.24949322  0.75005159  1
  Fe  Fe64  1  0.75117766  0.75415064  0.25125140  1
  Fe  Fe65  1  0.62274338  0.37727461  0.87874319  1
  Fe  Fe66  1  0.49964330  0.24636241  0.49844603  1
  Fe  Fe67  1  0.50093980  0.75209870  0.25002349  1
  Fe  Fe68  1  0.87641412  0.87573470  0.87375620  1
  Fe  Fe69  1  -0.00007509  0.74815726  0.74678146  1
  Fe  Fe70  1  0.24958045  0.00094528  0.00098718  1
  Fe  Fe71  1  0.88032530  0.37144824  0.12269441  1
  Fe  Fe72  1  0.87390636  0.12967840  0.87000416  1
  Fe  Fe73  1  -0.00323176  -0.00021880  0.24878048  1
  Fe  Fe74  1  0.87462486  0.12876023  0.37179938  1
  Fe  Fe75  1  -0.00166370  0.00480194  0.00054272  1
  Fe  Fe76  1  0.62592640  0.12464807  0.87388982  1
  Fe  Fe77  1  0.75142233  0.00158976  0.74581855  1
  Fe  Fe78  1  0.37404862  0.37232625  0.12390093  1
  Fe  Fe79  1  -0.00205120  0.00481330  0.74409106  1
  Fe  Fe80  1  0.12595447  0.62432951  0.12736397  1
  Fe  Fe81  1  0.12534178  0.62538845  0.37821069  1
  Fe  Fe82  1  0.62713800  0.62316931  0.37322553  1
  Fe  Fe83  1  0.12774896  0.12533336  0.87006380  1
  Fe  Fe84  1  0.37198829  0.12885130  0.12626579  1
  Fe  Fe85  1  0.49971992  0.49892623  0.24950441  1
  Fe  Fe86  1  0.12350002  0.62223459  0.87224823  1
  Fe  Fe87  1  0.74928910  0.75048303  0.75025134  1
  Fe  Fe88  1  0.62335738  0.37420995  0.62291427  1
  Fe  Fe89  1  0.00181917  0.49648661  0.25032079  1
  Co  Co90  1  0.74665919  0.25474535  0.75311769  1
  Co  Co91  1  0.37492643  0.87267658  0.12236389  1
  Co  Co92  1  0.00252155  0.24983272  0.74895092  1
  Co  Co93  1  0.00031102  0.24306266  -0.00062036  1
  Co  Co94  1  0.75325491  0.49861159  0.00194841  1
  Co  Co95  1  0.87804835  0.87472060  0.12280841  1
  Co  Co96  1  0.75456147  -0.00415991  0.25249468  1
  Co  Co97  1  0.12099453  0.37798635  0.38057578  1
  Co  Co98  1  0.62283421  0.87877233  0.37679782  1
  Co  Co99  1  0.13037588  0.62697454  0.62408102  1
  Co  Co100  1  0.12561466  0.11870091  0.36940363  1
  Co  Co101  1  0.25043849  -0.00562006  0.74948674  1
  Co  Co102  1  -0.00220593  0.74546713  0.50148857  1
  Co  Co103  1  0.87613072  0.87433043  0.62495845  1
  Co  Co104  1  0.24757757  0.24647087  0.49263566  1
  Co  Co105  1  0.24965650  0.25644102  0.75398813  1
  Co  Co106  1  0.87069587  0.13296154  0.62522469  1
  Co  Co107  1  0.88111099  0.37514250  0.87648823  1
  Co  Co108  1  0.49799320  0.00092771  0.24667981  1
  Co  Co109  1  0.12325341  0.37233160  0.12186967  1
  Co  Co110  1  0.49803285  0.00474674  0.50190186  1
  Co  Co111  1  0.62135882  0.37672372  0.37708335  1
  Co  Co112  1  0.00084661  0.74951526  0.25063490  1
  Co  Co113  1  0.25083558  0.49875357  0.49825142  1
  Co  Co114  1  0.00292844  0.25263239  0.25284415  1
  Co  Co115  1  0.49767356  0.50364805  0.00323837  1
  Co  Co116  1  0.24715991  0.24931430  -0.00208138  1
  Co  Co117  1  0.62807672  0.62365543  0.12902451  1
  Co  Co118  1  0.50129635  0.24592640  0.00081774  1
  Co  Co119  1  0.13226101  0.12651382  0.62934114  1
  Co  Co120  1  -0.00208618  0.00784969  0.50313867  1
  Co  Co121  1  0.74897780  0.25670049  0.25271156  1
  Co  Co122  1  0.25040518  0.75406923  0.49803029  1
  Co  Co123  1  -0.00028045  0.50387972  0.00369924  1
  Co  Co124  1  0.37734780  0.37389954  0.37617336  1
  Co  Co125  1  0.00163871  0.49752513  0.74341767  1
  Co  Co126  1  0.88067328  0.37300942  0.38008961  1
  Co  Co127  1  0.62792772  0.12628243  0.62427519  1
