# generated using pymatgen
data_Fe45Co19
_symmetry_space_group_name_H-M   'P 1'
_cell_length_a   11.41522446
_cell_length_b   11.41452414
_cell_length_c   11.41418004
_cell_angle_alpha   89.99278302
_cell_angle_beta   90.00478009
_cell_angle_gamma   89.99541795
_symmetry_Int_Tables_number   1
_chemical_formula_structural   Fe45Co19
_chemical_formula_sum   'Fe90 Co38'
_cell_volume   1487.26027796
_cell_formula_units_Z   2
loop_
 _symmetry_equiv_pos_site_id
 _symmetry_equiv_pos_as_xyz
  1  'x, y, z'
loop_
 _atom_site_type_symbol
 _atom_site_label
 _atom_site_symmetry_multiplicity
 _atom_site_fract_x
 _atom_site_fract_y
 _atom_site_fract_z
 _atom_site_occupancy
  Fe  Fe0  1  -0.00388727  -0.00077841  0.74757390  1
  Fe  Fe1  1  0.00308017  0.24960514  0.75098831  1
  Fe  Fe2  1  0.87412697  0.37732241  0.87366693  1
  Fe  Fe3  1  0.87551497  0.37462142  0.12560351  1
  Fe  Fe4  1  0.49721299  0.50064598  0.74712645  1
  Fe  Fe5  1  -0.00076635  0.25264135  0.25472117  1
  Fe  Fe6  1  0.25158186  0.49856700  0.25290236  1
  Fe  Fe7  1  0.49998669  -0.00039546  0.50056738  1
  Fe  Fe8  1  0.12503880  0.37650313  0.62468402  1
  Fe  Fe9  1  0.37453525  0.87263698  0.62377653  1
  Fe  Fe10  1  0.24966460  0.74932179  0.75066264  1
  Fe  Fe11  1  0.62268148  0.88064209  0.87195185  1
  Fe  Fe12  1  0.00073287  0.74752860  -0.00002797  1
  Fe  Fe13  1  0.62278622  0.37503524  0.62450397  1
  Fe  Fe14  1  0.75081518  0.50287325  0.50049486  1
  Fe  Fe15  1  0.87501904  0.12635141  0.37841846  1
  Fe  Fe16  1  0.37604297  0.37411627  0.12574738  1
  Fe  Fe17  1  0.87512760  0.12455885  0.87397198  1
  Fe  Fe18  1  0.12666508  0.87636536  0.12696923  1
  Fe  Fe19  1  0.37608530  0.87343024  0.87928267  1
  Fe  Fe20  1  0.37453581  0.62676760  0.87732727  1
  Fe  Fe21  1  0.25038612  0.25114852  0.25146621  1
  Fe  Fe22  1  -0.00079356  0.75131739  0.74964462  1
  Fe  Fe23  1  0.62362295  0.37486405  0.37711253  1
  Fe  Fe24  1  0.50247707  0.24968527  0.25178110  1
  Fe  Fe25  1  0.62546071  0.11929122  0.62960175  1
  Fe  Fe26  1  0.62477565  0.62381627  0.12551624  1
  Fe  Fe27  1  0.62772230  0.62259418  0.87177614  1
  Fe  Fe28  1  0.12551951  0.12414286  0.37469551  1
  Fe  Fe29  1  0.50389679  0.25068357  -0.00011957  1
  Fe  Fe30  1  0.12418266  0.62205195  0.87495800  1
  Fe  Fe31  1  0.37254366  0.87528876  0.37452925  1
  Fe  Fe32  1  0.62648317  0.37701624  0.87300727  1
  Fe  Fe33  1  0.74796651  0.24969725  -0.00121691  1
  Fe  Fe34  1  0.37476245  0.12699295  0.12420328  1
  Fe  Fe35  1  0.62236230  0.62803338  0.62543045  1
  Fe  Fe36  1  0.87635946  0.62498857  0.12819379  1
  Fe  Fe37  1  0.37553893  0.87237781  0.12246423  1
  Fe  Fe38  1  0.00390595  0.25179372  -0.00383976  1
  Fe  Fe39  1  -0.00241189  0.49874939  0.49530966  1
  Fe  Fe40  1  0.12534820  0.62321314  0.62521656  1
  Fe  Fe41  1  0.24804705  -0.00197964  0.49915214  1
  Fe  Fe42  1  0.62578855  0.62776363  0.37626704  1
  Fe  Fe43  1  0.87588851  0.62781393  0.62361381  1
  Fe  Fe44  1  -0.00322730  0.49926203  0.75099838  1
  Fe  Fe45  1  0.37570986  0.62708543  0.12230750  1
  Fe  Fe46  1  0.75298479  -0.00166378  0.25195381  1
  Fe  Fe47  1  0.25016724  0.00122153  0.00151084  1
  Fe  Fe48  1  0.87585841  0.12641156  0.12545674  1
  Fe  Fe49  1  0.25389191  0.50006199  0.74647211  1
  Fe  Fe50  1  0.87580750  0.37193676  0.62200452  1
  Fe  Fe51  1  -0.00139947  -0.00259481  0.25242160  1
  Fe  Fe52  1  0.37174111  0.37209425  0.87353617  1
  Fe  Fe53  1  0.12161838  0.62509038  0.37369141  1
  Fe  Fe54  1  0.12390962  0.12519344  0.12715309  1
  Fe  Fe55  1  0.62639280  0.87405436  0.37649129  1
  Fe  Fe56  1  0.74914503  0.00206007  -0.00249956  1
  Fe  Fe57  1  0.37535825  0.62348068  0.37947333  1
  Fe  Fe58  1  0.75150611  -0.00152095  0.50306034  1
  Fe  Fe59  1  0.75169780  0.75458622  0.74851847  1
  Fe  Fe60  1  0.49994952  0.50009407  0.25126960  1
  Fe  Fe61  1  0.00104226  -0.00316100  0.50043529  1
  Fe  Fe62  1  0.74821012  0.74953686  -0.00151006  1
  Fe  Fe63  1  0.75209250  0.50046878  -0.00000830  1
  Fe  Fe64  1  0.12400062  0.12364235  0.62478125  1
  Fe  Fe65  1  0.37383712  0.12695282  0.62301968  1
  Fe  Fe66  1  0.37282171  0.12860270  0.87734574  1
  Fe  Fe67  1  0.87388788  0.87412232  0.12264384  1
  Fe  Fe68  1  0.24933459  0.25369038  0.50008754  1
  Fe  Fe69  1  0.74687596  0.24650019  0.50169328  1
  Fe  Fe70  1  0.49838131  0.75049068  0.74993687  1
  Fe  Fe71  1  0.50007402  0.75003371  0.25081921  1
  Fe  Fe72  1  0.74893427  0.24926967  0.25092131  1
  Fe  Fe73  1  0.62584483  0.12387408  0.12626403  1
  Fe  Fe74  1  0.75049853  0.24893558  0.74936720  1
  Fe  Fe75  1  0.24633753  0.74991588  0.50033968  1
  Fe  Fe76  1  0.12309999  0.37733529  0.12594921  1
  Fe  Fe77  1  0.25275262  0.00075486  0.75055764  1
  Fe  Fe78  1  0.49874112  0.24856629  0.74845320  1
  Fe  Fe79  1  0.75285495  0.50035059  0.25348801  1
  Fe  Fe80  1  0.12314020  0.62119529  0.12622928  1
  Fe  Fe81  1  0.87628267  0.86673512  0.37834391  1
  Fe  Fe82  1  0.62395971  0.87572334  0.12439928  1
  Fe  Fe83  1  0.49932176  -0.00016014  0.24996653  1
  Fe  Fe84  1  0.00038207  0.00131327  0.00002996  1
  Fe  Fe85  1  0.24901141  0.74937674  0.24981047  1
  Fe  Fe86  1  0.12405426  0.87726812  0.87366141  1
  Fe  Fe87  1  0.37540054  0.12587273  0.37544000  1
  Fe  Fe88  1  0.49998175  0.49941793  -0.00121594  1
  Fe  Fe89  1  0.25022767  0.49880135  0.00010281  1
  Co  Co90  1  0.62515045  0.12297447  0.87074494  1
  Co  Co91  1  0.37483876  0.62796155  0.62158247  1
  Co  Co92  1  0.49929554  0.00293020  0.00054226  1
  Co  Co93  1  0.00136581  0.75256224  0.24617874  1
  Co  Co94  1  0.62202101  0.87747923  0.62716246  1
  Co  Co95  1  0.37636088  0.37406527  0.62197322  1
  Co  Co96  1  0.62596615  0.37700255  0.12610688  1
  Co  Co97  1  0.87698398  0.12715680  0.62409152  1
  Co  Co98  1  0.25127853  0.00114357  0.24871159  1
  Co  Co99  1  0.86975950  0.37090197  0.37837041  1
  Co  Co100  1  0.12591327  0.12092530  0.87266827  1
  Co  Co101  1  0.62630264  0.12176107  0.37429621  1
  Co  Co102  1  0.00298805  0.25119290  0.49857362  1
  Co  Co103  1  0.50155994  0.50214517  0.50279166  1
  Co  Co104  1  0.50518347  0.74816815  -0.00157150  1
  Co  Co105  1  0.87660230  0.87481409  0.87796259  1
  Co  Co106  1  0.24518742  0.74951970  -0.00021317  1
  Co  Co107  1  0.87268996  0.62549232  0.87216275  1
  Co  Co108  1  0.24708253  0.24964469  0.74704027  1
  Co  Co109  1  0.87632284  0.87217574  0.62142745  1
  Co  Co110  1  0.12771092  0.37993617  0.87226811  1
  Co  Co111  1  0.75153286  0.49906291  0.74387962  1
  Co  Co112  1  -0.00391122  0.49662188  0.25571245  1
  Co  Co113  1  0.00604912  0.75094237  0.50372246  1
  Co  Co114  1  0.12715019  0.87667801  0.62857020  1
  Co  Co115  1  0.24906084  0.49936040  0.50040664  1
  Co  Co116  1  0.50004956  0.75219896  0.49882450  1
  Co  Co117  1  0.50304117  0.24593159  0.50107034  1
  Co  Co118  1  0.24475252  0.25061629  0.00071968  1
  Co  Co119  1  0.12589128  0.87451309  0.37315205  1
  Co  Co120  1  0.87703930  0.63201095  0.37521979  1
  Co  Co121  1  0.12778280  0.37573873  0.37494126  1
  Co  Co122  1  0.74726904  0.74925049  0.50391951  1
  Co  Co123  1  0.75621210  -0.00238753  0.74881670  1
  Co  Co124  1  -0.00247923  0.50025518  -0.00209374  1
  Co  Co125  1  0.37920251  0.37503230  0.37775366  1
  Co  Co126  1  0.49303037  0.00154745  0.74947826  1
  Co  Co127  1  0.74885410  0.75069015  0.24818767  1
