# generated using pymatgen
data_Fe45Co19
_symmetry_space_group_name_H-M   'P 1'
_cell_length_a   11.41567835
_cell_length_b   11.41475451
_cell_length_c   11.41476482
_cell_angle_alpha   90.01731475
_cell_angle_beta   89.99748632
_cell_angle_gamma   89.99987799
_symmetry_Int_Tables_number   1
_chemical_formula_structural   Fe45Co19
_chemical_formula_sum   'Fe90 Co38'
_cell_volume   1487.42558499
_cell_formula_units_Z   2
loop_
 _symmetry_equiv_pos_site_id
 _symmetry_equiv_pos_as_xyz
  1  'x, y, z'
loop_
 _atom_site_type_symbol
 _atom_site_label
 _atom_site_symmetry_multiplicity
 _atom_site_fract_x
 _atom_site_fract_y
 _atom_site_fract_z
 _atom_site_occupancy
  Fe  Fe0  1  0.24890267  0.50194596  0.50179895  1
  Fe  Fe1  1  0.74957415  0.49883610  0.49854525  1
  Fe  Fe2  1  0.12096131  0.87754353  0.87610689  1
  Fe  Fe3  1  0.12355683  0.87571538  0.62436854  1
  Fe  Fe4  1  0.62824245  0.87364815  0.87241604  1
  Fe  Fe5  1  0.74934569  0.50201025  0.00262851  1
  Fe  Fe6  1  0.75165488  -0.00034615  0.00089579  1
  Fe  Fe7  1  0.62671786  0.62475460  0.62454734  1
  Fe  Fe8  1  0.24646537  0.74859960  0.50135748  1
  Fe  Fe9  1  0.87884607  0.62303619  0.62217228  1
  Fe  Fe10  1  0.37324923  0.37513570  0.37589291  1
  Fe  Fe11  1  0.37662919  0.12437364  0.62468934  1
  Fe  Fe12  1  0.62590760  0.12463084  0.12467688  1
  Fe  Fe13  1  0.62365306  0.12592791  0.87300362  1
  Fe  Fe14  1  0.75305251  0.00063156  0.24941942  1
  Fe  Fe15  1  0.12349742  0.37957659  0.62719971  1
  Fe  Fe16  1  0.62856026  0.37427581  0.86909464  1
  Fe  Fe17  1  0.12304239  0.87504143  0.37451052  1
  Fe  Fe18  1  0.50250175  0.25176872  0.00000662  1
  Fe  Fe19  1  0.87381250  0.37361459  0.12487511  1
  Fe  Fe20  1  0.25024957  -0.00079667  0.00050391  1
  Fe  Fe21  1  0.50087736  0.49919362  -0.00019852  1
  Fe  Fe22  1  0.25118504  0.74852707  0.25151672  1
  Fe  Fe23  1  0.24956242  -0.00128869  0.74955860  1
  Fe  Fe24  1  0.75025700  0.74777722  0.00268731  1
  Fe  Fe25  1  0.50003281  -0.00398905  0.74712790  1
  Fe  Fe26  1  0.25202134  0.24841861  0.25040454  1
  Fe  Fe27  1  -0.00314638  0.49501289  0.25530540  1
  Fe  Fe28  1  0.75111983  0.75250366  0.49824858  1
  Fe  Fe29  1  0.49751253  -0.00204974  0.25002458  1
  Fe  Fe30  1  0.50444318  0.25050372  0.50190404  1
  Fe  Fe31  1  0.62575048  0.62621227  0.37383343  1
  Fe  Fe32  1  0.37641677  0.12582277  0.87375153  1
  Fe  Fe33  1  0.87445600  0.87572209  0.62590668  1
  Fe  Fe34  1  0.75054929  0.74857673  0.24925200  1
  Fe  Fe35  1  0.00070764  0.75037673  0.74957557  1
  Fe  Fe36  1  0.74976982  0.00092354  0.49958937  1
  Fe  Fe37  1  0.62460543  0.62535296  0.87511828  1
  Fe  Fe38  1  0.24865354  0.74983349  -0.00121240  1
  Fe  Fe39  1  0.37494849  0.87384482  0.37608377  1
  Fe  Fe40  1  -0.00111930  0.74991760  0.25217480  1
  Fe  Fe41  1  0.25283091  0.50267431  0.25026792  1
  Fe  Fe42  1  0.24843097  0.24949522  0.50108827  1
  Fe  Fe43  1  0.12579256  0.37653240  0.87290603  1
  Fe  Fe44  1  0.24941044  0.25065106  0.00007262  1
  Fe  Fe45  1  0.87086066  0.37371589  0.87373741  1
  Fe  Fe46  1  0.12202565  0.12455423  0.87501530  1
  Fe  Fe47  1  0.50025105  0.50061152  0.74869980  1
  Fe  Fe48  1  0.75093031  0.74713961  0.74882354  1
  Fe  Fe49  1  0.87752732  0.87262893  0.12291373  1
  Fe  Fe50  1  0.87734746  0.12634669  0.87943097  1
  Fe  Fe51  1  0.50144957  -0.00337071  0.50161460  1
  Fe  Fe52  1  0.87657950  0.12941542  0.37889252  1
  Fe  Fe53  1  0.37647858  0.37455914  0.62458815  1
  Fe  Fe54  1  0.37527396  0.87229287  0.87259135  1
  Fe  Fe55  1  0.50087200  0.50042249  0.50071348  1
  Fe  Fe56  1  0.62382851  0.12260484  0.37443394  1
  Fe  Fe57  1  0.87591219  0.62534140  0.87668442  1
  Fe  Fe58  1  0.37501987  0.62767748  0.87177851  1
  Fe  Fe59  1  0.50210526  0.75289827  0.50165619  1
  Fe  Fe60  1  -0.00078550  0.49866529  -0.00125135  1
  Fe  Fe61  1  0.75075104  0.24864729  0.25040821  1
  Fe  Fe62  1  0.12250797  0.62312953  0.37760138  1
  Fe  Fe63  1  -0.00091146  -0.00205441  0.49910275  1
  Fe  Fe64  1  0.49980614  -0.00312647  0.00057606  1
  Fe  Fe65  1  0.25133125  0.00172961  0.25083362  1
  Fe  Fe66  1  0.62697672  0.37635749  0.37412217  1
  Fe  Fe67  1  0.25113781  0.50062438  0.00068754  1
  Fe  Fe68  1  0.37307278  0.62901338  0.62757793  1
  Fe  Fe69  1  0.62621314  0.37681100  0.12706100  1
  Fe  Fe70  1  0.12108050  0.62439519  0.12515363  1
  Fe  Fe71  1  0.37574156  0.12521947  0.12333527  1
  Fe  Fe72  1  0.12189267  0.12369758  0.62600969  1
  Fe  Fe73  1  0.49860919  0.50220617  0.25130913  1
  Fe  Fe74  1  0.12155133  0.12701898  0.12343555  1
  Fe  Fe75  1  0.12395692  0.87408347  0.12505994  1
  Fe  Fe76  1  -0.00271242  0.00261375  0.24869857  1
  Fe  Fe77  1  0.12550909  0.37522233  0.12710376  1
  Fe  Fe78  1  0.62288512  0.87197128  0.12666011  1
  Fe  Fe79  1  0.25097000  0.25018023  0.74888101  1
  Fe  Fe80  1  -0.00275840  0.25032783  0.74866699  1
  Fe  Fe81  1  0.37484697  0.37430410  0.87489019  1
  Fe  Fe82  1  0.37845839  0.62820583  0.12367843  1
  Fe  Fe83  1  0.12267537  0.12761087  0.37554953  1
  Fe  Fe84  1  0.75416194  0.00438317  0.74921120  1
  Fe  Fe85  1  0.49857088  0.24997950  0.25020763  1
  Fe  Fe86  1  0.87085385  0.37367776  0.62262963  1
  Fe  Fe87  1  0.25038025  0.00065376  0.49905425  1
  Fe  Fe88  1  0.87564624  0.62479233  0.37557772  1
  Fe  Fe89  1  0.12519032  0.62117584  0.87046754  1
  Co  Co90  1  0.75174229  0.50433914  0.74914680  1
  Co  Co91  1  0.37709654  0.12578552  0.37788741  1
  Co  Co92  1  0.87561361  0.12909499  0.12178994  1
  Co  Co93  1  -0.00030552  0.49583820  0.49638907  1
  Co  Co94  1  0.62899506  0.37722140  0.62917052  1
  Co  Co95  1  0.74254602  0.24724483  0.50290763  1
  Co  Co96  1  0.50017912  0.25194591  0.74845421  1
  Co  Co97  1  -0.00212612  -0.00076274  0.00247154  1
  Co  Co98  1  0.12217718  0.62178142  0.62676934  1
  Co  Co99  1  0.87933069  0.12646308  0.61882233  1
  Co  Co100  1  0.37532076  0.62570723  0.37857801  1
  Co  Co101  1  0.00106105  0.25377728  -0.00101082  1
  Co  Co102  1  0.87389990  0.87344087  0.87491911  1
  Co  Co103  1  0.86952035  0.37017701  0.37940248  1
  Co  Co104  1  0.13132854  0.37558097  0.37307495  1
  Co  Co105  1  0.87566403  0.87554155  0.37448348  1
  Co  Co106  1  0.50401972  0.75068276  0.74707669  1
  Co  Co107  1  0.50065274  0.75219453  -0.00255469  1
  Co  Co108  1  -0.00012933  0.75106106  0.50047122  1
  Co  Co109  1  0.75184203  0.24391818  0.74657116  1
  Co  Co110  1  0.87904973  0.62376729  0.12573197  1
  Co  Co111  1  0.00471441  0.25542041  0.50019779  1
  Co  Co112  1  0.62214925  0.12221128  0.62739491  1
  Co  Co113  1  0.37200223  0.87283545  0.62456616  1
  Co  Co114  1  -0.00496795  0.49865655  0.75055721  1
  Co  Co115  1  0.24455977  0.75258784  0.75037765  1
  Co  Co116  1  0.62175689  0.62551540  0.12643730  1
  Co  Co117  1  0.00151046  0.74823085  -0.00254506  1
  Co  Co118  1  -0.00288201  -0.00028685  0.74991039  1
  Co  Co119  1  0.37503797  0.37530446  0.12535037  1
  Co  Co120  1  0.63134857  0.87580121  0.62648327  1
  Co  Co121  1  0.75187446  0.50124425  0.25024913  1
  Co  Co122  1  -0.00163093  0.25233643  0.25198381  1
  Co  Co123  1  0.49912682  0.75002508  0.25321914  1
  Co  Co124  1  0.74664294  0.25023689  -0.00034334  1
  Co  Co125  1  0.37352264  0.87280880  0.12593230  1
  Co  Co126  1  0.62612366  0.87509009  0.37374832  1
  Co  Co127  1  0.25406992  0.49835776  0.74835851  1
