# generated using pymatgen
data_Fe45Co19
_symmetry_space_group_name_H-M   'P 1'
_cell_length_a   11.41431442
_cell_length_b   11.41406980
_cell_length_c   11.41500030
_cell_angle_alpha   90.00113363
_cell_angle_beta   89.99386364
_cell_angle_gamma   89.99434945
_symmetry_Int_Tables_number   1
_chemical_formula_structural   Fe45Co19
_chemical_formula_sum   'Fe90 Co38'
_cell_volume   1487.18938821
_cell_formula_units_Z   2
loop_
 _symmetry_equiv_pos_site_id
 _symmetry_equiv_pos_as_xyz
  1  'x, y, z'
loop_
 _atom_site_type_symbol
 _atom_site_label
 _atom_site_symmetry_multiplicity
 _atom_site_fract_x
 _atom_site_fract_y
 _atom_site_fract_z
 _atom_site_occupancy
  Fe  Fe0  1  0.49856161  0.75041124  0.24836070  1
  Fe  Fe1  1  0.62556777  0.12653612  0.62598462  1
  Fe  Fe2  1  0.12355595  0.62450543  0.37464977  1
  Fe  Fe3  1  0.12234786  0.12589123  0.87216672  1
  Fe  Fe4  1  0.12671196  0.37296804  0.12438690  1
  Fe  Fe5  1  0.75151568  0.74989018  0.24980721  1
  Fe  Fe6  1  0.49947470  0.25012301  0.75064090  1
  Fe  Fe7  1  0.50054788  0.49927739  0.75243930  1
  Fe  Fe8  1  0.00011842  0.25185153  0.25153783  1
  Fe  Fe9  1  0.75074633  0.74822973  0.75195941  1
  Fe  Fe10  1  0.74935845  0.00268149  0.49883278  1
  Fe  Fe11  1  0.37748396  0.87842667  0.87748200  1
  Fe  Fe12  1  -0.00436831  0.25350323  0.74469103  1
  Fe  Fe13  1  0.62376794  0.87697342  0.87707411  1
  Fe  Fe14  1  0.37176361  0.12486955  0.12842877  1
  Fe  Fe15  1  0.25127990  0.75037348  0.75099616  1
  Fe  Fe16  1  0.87500619  0.12540860  0.87333504  1
  Fe  Fe17  1  0.62295334  0.12676577  0.37046901  1
  Fe  Fe18  1  -0.00049472  0.75137390  0.24835969  1
  Fe  Fe19  1  0.62584051  0.62292488  0.12506973  1
  Fe  Fe20  1  0.62554723  0.37480492  0.37569624  1
  Fe  Fe21  1  0.49617740  0.25892462  0.24627692  1
  Fe  Fe22  1  0.50036353  0.49970505  0.00001465  1
  Fe  Fe23  1  0.12440131  0.87603639  0.87528153  1
  Fe  Fe24  1  -0.00133197  0.49791706  0.24826822  1
  Fe  Fe25  1  0.12708724  0.12716860  0.62440275  1
  Fe  Fe26  1  0.50019796  0.74890822  0.00022218  1
  Fe  Fe27  1  0.62438544  0.62471730  0.62702024  1
  Fe  Fe28  1  -0.00015717  0.75158049  0.50191286  1
  Fe  Fe29  1  -0.00370601  0.25354369  0.50277597  1
  Fe  Fe30  1  0.12453867  0.37483072  0.37644279  1
  Fe  Fe31  1  0.12825787  0.12475341  0.12870232  1
  Fe  Fe32  1  0.74991199  0.49919362  0.75266680  1
  Fe  Fe33  1  0.87747061  0.62135011  0.37626179  1
  Fe  Fe34  1  0.75121185  0.49639574  0.24878660  1
  Fe  Fe35  1  0.37495484  0.62149535  0.12425121  1
  Fe  Fe36  1  0.12091274  0.62536058  0.87501075  1
  Fe  Fe37  1  0.00062707  0.49530164  0.74509274  1
  Fe  Fe38  1  0.74870797  0.74718382  0.49914386  1
  Fe  Fe39  1  0.24650713  0.50106382  -0.00214550  1
  Fe  Fe40  1  0.74746187  0.00272068  0.00364925  1
  Fe  Fe41  1  0.87469703  0.87740791  0.87559200  1
  Fe  Fe42  1  0.12333869  0.37325822  0.87381350  1
  Fe  Fe43  1  0.25037154  0.75118668  0.25009654  1
  Fe  Fe44  1  0.62173834  0.62426495  0.37141781  1
  Fe  Fe45  1  0.37273711  0.37217140  0.62452979  1
  Fe  Fe46  1  0.87332129  0.87656787  0.37583244  1
  Fe  Fe47  1  0.62567529  0.87391854  0.62504533  1
  Fe  Fe48  1  0.62937865  0.37354720  0.62451076  1
  Fe  Fe49  1  0.25150441  0.49742590  0.25093291  1
  Fe  Fe50  1  0.87487202  0.62196876  0.62274070  1
  Fe  Fe51  1  0.37570842  0.87552726  0.62376464  1
  Fe  Fe52  1  0.00115918  -0.00101880  0.24940323  1
  Fe  Fe53  1  0.37129456  0.87835316  0.12421057  1
  Fe  Fe54  1  0.74901294  0.00137291  0.74891976  1
  Fe  Fe55  1  0.25158147  0.74971368  0.49880024  1
  Fe  Fe56  1  0.00185321  0.00029311  0.00194284  1
  Fe  Fe57  1  -0.00177853  0.25026200  0.00027542  1
  Fe  Fe58  1  0.75184758  0.74907296  -0.00000690  1
  Fe  Fe59  1  0.25339271  0.00385545  0.49454116  1
  Fe  Fe60  1  0.87400065  0.87583905  0.12482587  1
  Fe  Fe61  1  0.12513121  0.62615554  0.62516378  1
  Fe  Fe62  1  0.25132067  0.00251175  0.75008955  1
  Fe  Fe63  1  0.50035802  0.74866052  0.75294559  1
  Fe  Fe64  1  0.62658568  0.37201565  0.87883302  1
  Fe  Fe65  1  0.37725954  0.62349623  0.37487085  1
  Fe  Fe66  1  -0.00091312  0.75354069  0.74700856  1
  Fe  Fe67  1  0.37694470  0.62467030  0.62613048  1
  Fe  Fe68  1  0.87904584  0.62290014  0.87714307  1
  Fe  Fe69  1  0.25255130  0.24622385  0.49423096  1
  Fe  Fe70  1  0.75513365  0.49695143  0.00156870  1
  Fe  Fe71  1  0.24873542  0.50071099  0.50040233  1
  Fe  Fe72  1  0.24927942  0.49933519  0.75019041  1
  Fe  Fe73  1  0.62599673  0.13112905  0.12723327  1
  Fe  Fe74  1  0.37458081  0.37512663  0.87700450  1
  Fe  Fe75  1  0.62334488  0.12563000  0.87612628  1
  Fe  Fe76  1  0.12187249  0.62554347  0.12412513  1
  Fe  Fe77  1  0.24783553  0.75011391  -0.00048553  1
  Fe  Fe78  1  -0.00041060  -0.00196658  0.74529277  1
  Fe  Fe79  1  0.49970104  0.24964209  0.50001231  1
  Fe  Fe80  1  0.37908866  0.12225435  0.87600032  1
  Fe  Fe81  1  0.87480481  0.12560830  0.37353978  1
  Fe  Fe82  1  -0.00098608  -0.00107127  0.50324192  1
  Fe  Fe83  1  0.49833199  0.00127591  0.49990719  1
  Fe  Fe84  1  0.87307816  0.12731030  0.12807784  1
  Fe  Fe85  1  0.50169608  -0.00316843  0.24687938  1
  Fe  Fe86  1  0.25103934  0.24723931  -0.00200544  1
  Fe  Fe87  1  0.50130412  0.50036642  0.50057374  1
  Fe  Fe88  1  0.12538401  0.87588158  0.37539567  1
  Fe  Fe89  1  0.62444034  0.87445728  0.37447454  1
  Co  Co90  1  0.74838851  -0.00024040  0.24912110  1
  Co  Co91  1  0.38120977  0.12649839  0.36827380  1
  Co  Co92  1  0.74966097  0.24620492  0.49691772  1
  Co  Co93  1  0.00384075  0.49683252  0.50374039  1
  Co  Co94  1  0.50263128  0.00200023  0.00590420  1
  Co  Co95  1  0.37109910  0.37718092  0.12048050  1
  Co  Co96  1  0.75290338  0.24877605  -0.00082265  1
  Co  Co97  1  0.75021654  0.24894676  0.75119476  1
  Co  Co98  1  0.49919011  0.49568068  0.24908457  1
  Co  Co99  1  0.87589672  0.37384948  0.87392608  1
  Co  Co100  1  0.87571839  0.37047170  0.12602460  1
  Co  Co101  1  0.87634054  0.62543499  0.12427814  1
  Co  Co102  1  0.13168410  0.36963404  0.62430654  1
  Co  Co103  1  0.00034085  0.75332576  0.00105420  1
  Co  Co104  1  0.62639336  0.62344195  0.87857874  1
  Co  Co105  1  0.87013959  0.87496386  0.62434120  1
  Co  Co106  1  0.12002305  0.12606345  0.37606600  1
  Co  Co107  1  0.37521509  0.37662134  0.37865705  1
  Co  Co108  1  0.74566177  0.50335145  0.49674839  1
  Co  Co109  1  0.37710626  0.87418745  0.37470691  1
  Co  Co110  1  0.62674458  0.87116609  0.12427368  1
  Co  Co111  1  0.37436315  0.62376592  0.87583306  1
  Co  Co112  1  0.50055889  0.00043354  0.74726786  1
  Co  Co113  1  0.12998935  0.87708015  0.62298404  1
  Co  Co114  1  -0.00056836  0.49616742  0.00224839  1
  Co  Co115  1  0.87358919  0.12517991  0.62534924  1
  Co  Co116  1  0.50166491  0.74876870  0.50000247  1
  Co  Co117  1  0.75094264  0.25427346  0.25289856  1
  Co  Co118  1  0.62621971  0.37456824  0.12105529  1
  Co  Co119  1  0.12686573  0.87691813  0.12611951  1
  Co  Co120  1  0.37442480  0.12742665  0.62510756  1
  Co  Co121  1  0.25072208  0.25250913  0.25327568  1
  Co  Co122  1  0.24872381  0.00083081  0.25599093  1
  Co  Co123  1  0.86659870  0.37789349  0.62115899  1
  Co  Co124  1  0.87447172  0.37731743  0.37835451  1
  Co  Co125  1  0.24769779  0.00325608  -0.00211545  1
  Co  Co126  1  0.25279412  0.24746038  0.75442179  1
  Co  Co127  1  0.49702927  0.24828542  0.00162624  1
