# generated using pymatgen
data_Fe45Co19
_symmetry_space_group_name_H-M   'P 1'
_cell_length_a   11.41401144
_cell_length_b   11.41524032
_cell_length_c   11.41555936
_cell_angle_alpha   90.00100037
_cell_angle_beta   89.98456080
_cell_angle_gamma   90.01054083
_symmetry_Int_Tables_number   1
_chemical_formula_structural   Fe45Co19
_chemical_formula_sum   'Fe90 Co38'
_cell_volume   1487.37520067
_cell_formula_units_Z   2
loop_
 _symmetry_equiv_pos_site_id
 _symmetry_equiv_pos_as_xyz
  1  'x, y, z'
loop_
 _atom_site_type_symbol
 _atom_site_label
 _atom_site_symmetry_multiplicity
 _atom_site_fract_x
 _atom_site_fract_y
 _atom_site_fract_z
 _atom_site_occupancy
  Fe  Fe0  1  0.50024374  0.74800511  0.25124580  1
  Fe  Fe1  1  0.36929333  0.62213404  0.37643761  1
  Fe  Fe2  1  0.25165458  0.49862546  0.00208259  1
  Fe  Fe3  1  0.49746248  0.75231070  0.00075655  1
  Fe  Fe4  1  0.49844715  0.74953682  0.49849897  1
  Fe  Fe5  1  0.87540991  0.62389309  0.62282016  1
  Fe  Fe6  1  0.74909665  0.74841540  0.25100835  1
  Fe  Fe7  1  0.37241593  0.62557461  0.12607112  1
  Fe  Fe8  1  0.87697196  0.62559432  0.12582709  1
  Fe  Fe9  1  0.37310771  0.12559120  0.37489850  1
  Fe  Fe10  1  0.75163856  0.74802708  0.49655778  1
  Fe  Fe11  1  -0.00003526  0.50095685  0.75107872  1
  Fe  Fe12  1  0.12420884  0.62552006  0.87921528  1
  Fe  Fe13  1  0.75248106  0.00091887  0.49888423  1
  Fe  Fe14  1  0.24872595  0.50203805  0.74735543  1
  Fe  Fe15  1  0.75244667  0.00035705  0.00203641  1
  Fe  Fe16  1  0.12396734  0.12523059  0.62296194  1
  Fe  Fe17  1  0.12332214  0.62378591  0.62028407  1
  Fe  Fe18  1  0.62504014  0.12635869  0.62368905  1
  Fe  Fe19  1  0.49737429  0.50003495  0.25009369  1
  Fe  Fe20  1  0.74854111  0.00361207  0.24897714  1
  Fe  Fe21  1  0.87843848  0.12715340  0.87823717  1
  Fe  Fe22  1  0.75141441  0.50081437  0.75049778  1
  Fe  Fe23  1  0.62586847  0.62338925  0.62194588  1
  Fe  Fe24  1  0.12455196  0.37486605  0.87577427  1
  Fe  Fe25  1  0.37179477  0.37508506  0.37354464  1
  Fe  Fe26  1  0.24637967  0.24843756  0.24772547  1
  Fe  Fe27  1  0.62527498  0.87588445  0.37504328  1
  Fe  Fe28  1  0.62658193  0.62214597  0.87982179  1
  Fe  Fe29  1  0.87732743  0.87392405  0.87521573  1
  Fe  Fe30  1  0.37207015  0.62616956  0.87442559  1
  Fe  Fe31  1  0.37434306  0.12618606  0.62631842  1
  Fe  Fe32  1  0.62227558  0.12337556  0.87932008  1
  Fe  Fe33  1  0.12586732  0.37484742  0.37227702  1
  Fe  Fe34  1  0.00150410  0.74883549  0.74968760  1
  Fe  Fe35  1  0.74541307  0.24704517  0.24886809  1
  Fe  Fe36  1  0.24731593  0.00276884  0.24769429  1
  Fe  Fe37  1  0.37300302  0.87290450  0.62901507  1
  Fe  Fe38  1  0.62441272  0.87604727  0.12516953  1
  Fe  Fe39  1  0.12523952  0.87775549  0.37499986  1
  Fe  Fe40  1  0.49918565  0.25132191  0.75458876  1
  Fe  Fe41  1  0.87841425  0.37119539  0.12998064  1
  Fe  Fe42  1  -0.00234198  0.49900742  0.00145420  1
  Fe  Fe43  1  0.00033682  0.00002068  0.49962058  1
  Fe  Fe44  1  0.49980174  -0.00056436  0.75109366  1
  Fe  Fe45  1  0.49900929  0.25060213  0.49815465  1
  Fe  Fe46  1  0.87736853  0.12907031  0.37239625  1
  Fe  Fe47  1  0.25138149  0.25113476  -0.00265534  1
  Fe  Fe48  1  0.00063772  0.00181965  0.75105902  1
  Fe  Fe49  1  0.62677710  0.87513460  0.62418347  1
  Fe  Fe50  1  0.12183142  0.37318168  0.62618927  1
  Fe  Fe51  1  0.87823578  0.87513382  0.12658487  1
  Fe  Fe52  1  0.87784126  0.87400988  0.37248183  1
  Fe  Fe53  1  0.25350904  -0.00399671  0.00063861  1
  Fe  Fe54  1  0.00553098  0.74685149  0.24996154  1
  Fe  Fe55  1  0.24988338  0.75405825  0.00290087  1
  Fe  Fe56  1  0.24845599  0.24844303  0.75283338  1
  Fe  Fe57  1  0.49792007  0.50133568  0.75101375  1
  Fe  Fe58  1  0.87583934  0.87364944  0.62488598  1
  Fe  Fe59  1  0.75048677  0.25178005  0.00146133  1
  Fe  Fe60  1  0.24836889  0.00059224  0.75078112  1
  Fe  Fe61  1  0.75096843  0.74828801  0.75112395  1
  Fe  Fe62  1  0.24573042  0.74826374  0.24921720  1
  Fe  Fe63  1  0.50283214  0.00390235  0.25011848  1
  Fe  Fe64  1  0.24767369  0.75269861  0.50156220  1
  Fe  Fe65  1  0.62440564  0.62294564  0.12306960  1
  Fe  Fe66  1  0.49759525  -0.00008906  0.49998301  1
  Fe  Fe67  1  0.00537896  0.50194722  0.24948977  1
  Fe  Fe68  1  0.75403724  0.25377131  0.49919016  1
  Fe  Fe69  1  0.75333854  0.74911200  0.00032567  1
  Fe  Fe70  1  0.12357064  0.87494496  0.87641685  1
  Fe  Fe71  1  0.00327255  0.00583035  0.24650654  1
  Fe  Fe72  1  0.37438191  0.37450434  0.62743903  1
  Fe  Fe73  1  0.87784260  0.12902504  0.62509051  1
  Fe  Fe74  1  0.62558515  0.37613185  0.37488184  1
  Fe  Fe75  1  0.24834464  0.25051465  0.50047380  1
  Fe  Fe76  1  0.62154905  0.37550483  0.12336285  1
  Fe  Fe77  1  0.62664083  0.37584001  0.62453083  1
  Fe  Fe78  1  0.75001237  0.24958764  0.75139718  1
  Fe  Fe79  1  -0.00375626  0.49576791  0.49655516  1
  Fe  Fe80  1  0.37302229  0.87633741  0.37192458  1
  Fe  Fe81  1  0.50054889  0.74766878  0.75093907  1
  Fe  Fe82  1  0.49784648  0.49990431  0.49959495  1
  Fe  Fe83  1  0.62550355  0.87550964  0.87559947  1
  Fe  Fe84  1  0.37859742  0.12613487  0.12234550  1
  Fe  Fe85  1  0.37532581  0.37302678  0.12584634  1
  Fe  Fe86  1  0.62522193  0.37928487  0.87847527  1
  Fe  Fe87  1  0.75138519  0.00182945  0.75045716  1
  Fe  Fe88  1  0.87658709  0.37436993  0.87299285  1
  Fe  Fe89  1  0.74981286  0.50197141  0.25083154  1
  Co  Co90  1  0.49615631  -0.00572645  -0.00018302  1
  Co  Co91  1  0.00217963  0.24815536  0.75225203  1
  Co  Co92  1  0.37131524  0.37867221  0.87200719  1
  Co  Co93  1  0.37524949  0.12273958  0.87587873  1
  Co  Co94  1  0.12610628  0.62406409  0.12046556  1
  Co  Co95  1  0.24420482  0.74697696  0.74786825  1
  Co  Co96  1  0.87491569  0.12792695  0.12531628  1
  Co  Co97  1  -0.00181727  -0.00016688  0.00207832  1
  Co  Co98  1  0.62619855  0.12566804  0.37941542  1
  Co  Co99  1  0.62439385  0.62308944  0.37515439  1
  Co  Co100  1  0.25181307  -0.00119632  0.50141802  1
  Co  Co101  1  0.37270359  0.87200801  0.87000671  1
  Co  Co102  1  0.37567999  0.87522869  0.13145819  1
  Co  Co103  1  0.62108447  0.12585955  0.11936654  1
  Co  Co104  1  -0.00111991  0.74948200  0.00112551  1
  Co  Co105  1  0.50102393  0.24919049  0.25225060  1
  Co  Co106  1  0.12267957  0.87605897  0.12500142  1
  Co  Co107  1  0.87574971  0.62448264  0.87504337  1
  Co  Co108  1  0.75560307  0.49862938  0.00323386  1
  Co  Co109  1  0.00157327  0.75145586  0.49919475  1
  Co  Co110  1  -0.00025516  0.25344399  0.49778347  1
  Co  Co111  1  0.12789528  0.62204273  0.37891583  1
  Co  Co112  1  0.24898030  0.49587647  0.50350468  1
  Co  Co113  1  0.49752104  0.25412090  -0.00489966  1
  Co  Co114  1  0.00822414  0.24531274  0.24785057  1
  Co  Co115  1  0.24813826  0.49937252  0.24717598  1
  Co  Co116  1  0.87672149  0.37237189  0.36655549  1
  Co  Co117  1  0.37358305  0.62554937  0.62398483  1
  Co  Co118  1  0.12429998  0.87756781  0.62544391  1
  Co  Co119  1  0.12488146  0.12340162  0.87916161  1
  Co  Co120  1  0.87749657  0.62607884  0.37302687  1
  Co  Co121  1  0.00062607  0.25183920  0.00155916  1
  Co  Co122  1  0.12621376  0.12426675  0.37874116  1
  Co  Co123  1  0.49485109  0.50007227  0.00102662  1
  Co  Co124  1  0.87572937  0.37478320  0.62936930  1
  Co  Co125  1  0.12531014  0.37550070  0.12296712  1
  Co  Co126  1  0.75433018  0.49852968  0.49682133  1
  Co  Co127  1  0.12713997  0.12480415  0.11694781  1
