# generated using pymatgen
data_Fe45Co19
_symmetry_space_group_name_H-M   'P 1'
_cell_length_a   11.41454215
_cell_length_b   11.41506318
_cell_length_c   11.41682011
_cell_angle_alpha   89.99395876
_cell_angle_beta   90.01008585
_cell_angle_gamma   90.00935851
_symmetry_Int_Tables_number   1
_chemical_formula_structural   Fe45Co19
_chemical_formula_sum   'Fe90 Co38'
_cell_volume   1487.58557667
_cell_formula_units_Z   2
loop_
 _symmetry_equiv_pos_site_id
 _symmetry_equiv_pos_as_xyz
  1  'x, y, z'
loop_
 _atom_site_type_symbol
 _atom_site_label
 _atom_site_symmetry_multiplicity
 _atom_site_fract_x
 _atom_site_fract_y
 _atom_site_fract_z
 _atom_site_occupancy
  Fe  Fe0  1  0.87467748  0.62445260  0.12418839  1
  Fe  Fe1  1  0.24816021  0.50070262  0.00191427  1
  Fe  Fe2  1  0.87231339  0.62458202  0.87695837  1
  Fe  Fe3  1  0.37522605  0.37388570  0.12206965  1
  Fe  Fe4  1  0.24915636  0.25168929  0.24990269  1
  Fe  Fe5  1  0.12107376  0.12863403  0.37498408  1
  Fe  Fe6  1  0.49804864  0.75021609  0.75133242  1
  Fe  Fe7  1  0.00040331  0.75014605  -0.00236723  1
  Fe  Fe8  1  0.75085892  0.75112592  0.25168984  1
  Fe  Fe9  1  0.62488754  0.12624309  0.62541696  1
  Fe  Fe10  1  0.87504169  0.12591501  0.62515946  1
  Fe  Fe11  1  -0.00264863  -0.00315677  0.75004733  1
  Fe  Fe12  1  0.74865496  0.49768203  0.24702091  1
  Fe  Fe13  1  0.24660617  0.24838381  -0.00564472  1
  Fe  Fe14  1  0.25283209  0.50156117  0.74903296  1
  Fe  Fe15  1  0.75092381  -0.00104628  0.00211617  1
  Fe  Fe16  1  0.49918344  0.24948861  0.75088543  1
  Fe  Fe17  1  0.87572411  0.62512306  0.62350457  1
  Fe  Fe18  1  0.24814123  0.00193896  0.50073158  1
  Fe  Fe19  1  0.00343078  0.49496194  0.24894336  1
  Fe  Fe20  1  0.74860925  0.49814727  0.74968585  1
  Fe  Fe21  1  0.87336132  0.12394092  0.87463736  1
  Fe  Fe22  1  0.87247835  0.37660158  0.87830554  1
  Fe  Fe23  1  0.37336857  0.87408714  0.87700303  1
  Fe  Fe24  1  0.87396226  0.37561295  0.12047087  1
  Fe  Fe25  1  0.62385630  0.62441112  0.62797916  1
  Fe  Fe26  1  0.12502242  0.87413156  0.12694600  1
  Fe  Fe27  1  0.37487200  0.87552435  0.62261880  1
  Fe  Fe28  1  0.37789709  0.62449520  0.62329157  1
  Fe  Fe29  1  0.49918258  0.49967450  0.24801704  1
  Fe  Fe30  1  0.50253975  0.25086084  0.49752542  1
  Fe  Fe31  1  0.50326099  0.24827139  -0.00072241  1
  Fe  Fe32  1  0.74940332  0.25077514  0.25034746  1
  Fe  Fe33  1  0.12396542  0.12597976  0.12470408  1
  Fe  Fe34  1  0.62462105  0.62250520  0.37295388  1
  Fe  Fe35  1  0.37495348  0.37372435  0.62623998  1
  Fe  Fe36  1  0.00210137  0.25176016  -0.00195843  1
  Fe  Fe37  1  0.37469512  0.62732831  0.87730318  1
  Fe  Fe38  1  0.50176901  0.75080201  0.49727877  1
  Fe  Fe39  1  0.12336076  0.62540071  0.12604359  1
  Fe  Fe40  1  0.24945382  0.00110157  -0.00091510  1
  Fe  Fe41  1  0.87620276  0.37394550  0.37623920  1
  Fe  Fe42  1  0.37098185  0.37968527  0.37562529  1
  Fe  Fe43  1  0.50040203  0.24988095  0.25216469  1
  Fe  Fe44  1  0.24900190  0.25018132  0.50095645  1
  Fe  Fe45  1  0.87611657  0.12594603  0.12417152  1
  Fe  Fe46  1  0.12663161  0.62573838  0.87314977  1
  Fe  Fe47  1  0.62701276  0.87604816  0.87167940  1
  Fe  Fe48  1  0.12420789  0.87240425  0.62544242  1
  Fe  Fe49  1  0.87606704  0.87699259  0.37702998  1
  Fe  Fe50  1  0.37430911  0.37427125  0.87531629  1
  Fe  Fe51  1  0.00320297  0.49851801  0.49951635  1
  Fe  Fe52  1  -0.00049592  -0.00328737  -0.00025215  1
  Fe  Fe53  1  0.25293138  0.00345972  0.75002275  1
  Fe  Fe54  1  0.62590237  0.12462056  0.12814270  1
  Fe  Fe55  1  0.50608637  0.50278648  -0.00165651  1
  Fe  Fe56  1  0.62737459  0.37407682  0.87417307  1
  Fe  Fe57  1  0.87619946  0.62226723  0.37528268  1
  Fe  Fe58  1  -0.00190371  0.00038833  0.25004222  1
  Fe  Fe59  1  0.62395795  0.87443424  0.12911144  1
  Fe  Fe60  1  0.37649097  0.87766763  0.37571158  1
  Fe  Fe61  1  0.37333238  0.12690211  0.12272853  1
  Fe  Fe62  1  0.37573803  0.87238733  0.12434061  1
  Fe  Fe63  1  0.87613535  0.12619848  0.37670915  1
  Fe  Fe64  1  -0.00136807  0.74988502  0.25268655  1
  Fe  Fe65  1  0.74752039  0.25252852  0.50021035  1
  Fe  Fe66  1  0.24973280  0.74665916  0.49846212  1
  Fe  Fe67  1  0.50215594  0.49806577  0.50109218  1
  Fe  Fe68  1  0.62310137  0.88060288  0.37225389  1
  Fe  Fe69  1  0.49817474  0.00070766  0.74731367  1
  Fe  Fe70  1  -0.00100720  0.50104537  0.75214559  1
  Fe  Fe71  1  0.87673087  0.87315492  0.62289353  1
  Fe  Fe72  1  0.25303060  0.74630178  0.25215483  1
  Fe  Fe73  1  0.12403607  0.87409314  0.37564598  1
  Fe  Fe74  1  0.37906057  0.62813760  0.12252309  1
  Fe  Fe75  1  0.62740614  0.12317711  0.87319111  1
  Fe  Fe76  1  0.25049070  0.00155225  0.25038949  1
  Fe  Fe77  1  0.12711868  0.87323890  0.87257931  1
  Fe  Fe78  1  0.87467671  0.37546189  0.62497829  1
  Fe  Fe79  1  0.74686378  0.74916319  0.00127240  1
  Fe  Fe80  1  0.49974630  -0.00060113  0.00173454  1
  Fe  Fe81  1  0.12396386  0.12633428  0.62743514  1
  Fe  Fe82  1  0.75229170  0.75149983  0.74793073  1
  Fe  Fe83  1  0.12258629  0.62781585  0.62578841  1
  Fe  Fe84  1  0.74765076  0.49841005  0.50137586  1
  Fe  Fe85  1  -0.00107797  0.25166460  0.75229154  1
  Fe  Fe86  1  0.37651035  0.12329551  0.37746549  1
  Fe  Fe87  1  0.74839268  0.75003864  0.49897403  1
  Fe  Fe88  1  0.74788701  -0.00031094  0.50213482  1
  Fe  Fe89  1  0.12664088  0.37376790  0.62819477  1
  Co  Co90  1  0.12720368  0.37285401  0.12278847  1
  Co  Co91  1  0.24691604  0.50176964  0.50405460  1
  Co  Co92  1  0.62767943  0.62690512  0.86899856  1
  Co  Co93  1  0.49858935  0.49983474  0.75313971  1
  Co  Co94  1  0.12752049  0.37475442  0.37524255  1
  Co  Co95  1  0.12156664  0.12202984  0.87326888  1
  Co  Co96  1  0.00022011  0.25232990  0.50252774  1
  Co  Co97  1  0.25088928  0.50190363  0.24529063  1
  Co  Co98  1  0.00116006  0.00058155  0.50111170  1
  Co  Co99  1  0.87580565  0.87182417  0.12442778  1
  Co  Co100  1  0.49547030  0.00262108  0.24708863  1
  Co  Co101  1  0.87190063  0.87391681  0.87609603  1
  Co  Co102  1  0.12476152  0.62203231  0.37367571  1
  Co  Co103  1  0.24750888  0.74951480  0.00201225  1
  Co  Co104  1  -0.00297946  0.75013428  0.75174480  1
  Co  Co105  1  0.75489162  0.00032412  0.24861709  1
  Co  Co106  1  0.62563996  0.12152432  0.37369744  1
  Co  Co107  1  0.50199762  0.00038896  0.50282403  1
  Co  Co108  1  0.62421018  0.62755093  0.12963822  1
  Co  Co109  1  0.37766983  0.12452687  0.87658479  1
  Co  Co110  1  0.74889920  0.24855591  0.00070271  1
  Co  Co111  1  0.37570872  0.61977840  0.37731506  1
  Co  Co112  1  0.49748011  0.74966278  0.25416299  1
  Co  Co113  1  -0.00122958  0.25271175  0.24814753  1
  Co  Co114  1  0.62408278  0.87290782  0.62753673  1
  Co  Co115  1  -0.00052890  0.74841473  0.49808214  1
  Co  Co116  1  0.75109651  0.25120051  0.74963282  1
  Co  Co117  1  0.62306825  0.37524548  0.62748702  1
  Co  Co118  1  0.74386651  0.50227419  0.00143876  1
  Co  Co119  1  0.50534191  0.75065579  -0.00296581  1
  Co  Co120  1  0.25324268  0.74832906  0.74758210  1
  Co  Co121  1  0.62368762  0.37345287  0.12501958  1
  Co  Co122  1  0.75218629  -0.00069856  0.74684280  1
  Co  Co123  1  0.25099927  0.24719819  0.75334099  1
  Co  Co124  1  0.37612094  0.12745425  0.62282193  1
  Co  Co125  1  0.12656639  0.37792010  0.87296647  1
  Co  Co126  1  0.00212183  0.50122325  -0.00057996  1
  Co  Co127  1  0.62503648  0.37752399  0.37322918  1
