# generated using pymatgen
data_Fe45Co19
_symmetry_space_group_name_H-M   'P 1'
_cell_length_a   11.41453608
_cell_length_b   11.41444918
_cell_length_c   11.41545029
_cell_angle_alpha   90.00430737
_cell_angle_beta   90.01141342
_cell_angle_gamma   89.99676874
_symmetry_Int_Tables_number   1
_chemical_formula_structural   Fe45Co19
_chemical_formula_sum   'Fe90 Co38'
_cell_volume   1487.32631090
_cell_formula_units_Z   2
loop_
 _symmetry_equiv_pos_site_id
 _symmetry_equiv_pos_as_xyz
  1  'x, y, z'
loop_
 _atom_site_type_symbol
 _atom_site_label
 _atom_site_symmetry_multiplicity
 _atom_site_fract_x
 _atom_site_fract_y
 _atom_site_fract_z
 _atom_site_occupancy
  Fe  Fe0  1  -0.00034690  0.25213703  0.74968311  1
  Fe  Fe1  1  0.75005014  -0.00011152  0.50147856  1
  Fe  Fe2  1  0.49984259  -0.00091930  0.25153135  1
  Fe  Fe3  1  0.12239301  0.62625073  0.87836036  1
  Fe  Fe4  1  0.25113514  0.00074677  0.50009912  1
  Fe  Fe5  1  0.25196306  -0.00099916  -0.00122563  1
  Fe  Fe6  1  0.87095832  0.37412578  0.12926061  1
  Fe  Fe7  1  0.62665952  0.87231491  0.62847408  1
  Fe  Fe8  1  0.75358306  0.49488460  0.49514633  1
  Fe  Fe9  1  0.37257862  0.37340925  0.37550702  1
  Fe  Fe10  1  -0.00036525  0.25325820  0.00098030  1
  Fe  Fe11  1  0.87464836  0.87532559  0.37295832  1
  Fe  Fe12  1  -0.00021683  0.74966533  0.24848515  1
  Fe  Fe13  1  0.37525658  0.87508808  0.12646136  1
  Fe  Fe14  1  0.12414820  0.87630799  0.37641631  1
  Fe  Fe15  1  0.37450670  0.37472940  0.12585391  1
  Fe  Fe16  1  0.87409984  0.12532215  0.87391744  1
  Fe  Fe17  1  0.62694193  0.37322290  0.87467322  1
  Fe  Fe18  1  0.12293012  0.62474010  0.12249774  1
  Fe  Fe19  1  0.87548948  0.62537397  0.87917096  1
  Fe  Fe20  1  0.75094033  -0.00188440  -0.00117835  1
  Fe  Fe21  1  0.74739278  0.74869651  0.24796311  1
  Fe  Fe22  1  0.87355248  0.62325428  0.62216005  1
  Fe  Fe23  1  0.00182583  0.00096249  0.24874488  1
  Fe  Fe24  1  0.87385906  0.62374116  0.12298480  1
  Fe  Fe25  1  0.12417597  0.62323704  0.37809345  1
  Fe  Fe26  1  0.12285486  0.12351328  0.62395657  1
  Fe  Fe27  1  -0.00232323  0.74923636  0.74997205  1
  Fe  Fe28  1  0.25115383  -0.00049663  0.75089575  1
  Fe  Fe29  1  0.87434768  0.12578168  0.62580280  1
  Fe  Fe30  1  -0.00277029  -0.00414560  -0.00003716  1
  Fe  Fe31  1  0.37738834  0.87577595  0.62664155  1
  Fe  Fe32  1  -0.00341436  0.25417247  0.50096368  1
  Fe  Fe33  1  0.24680151  0.24656511  0.25009361  1
  Fe  Fe34  1  0.24923438  0.24951457  0.74864873  1
  Fe  Fe35  1  0.62455710  0.12283189  0.12311380  1
  Fe  Fe36  1  0.24802352  0.50221064  0.75034570  1
  Fe  Fe37  1  0.12643873  0.87498211  0.12485930  1
  Fe  Fe38  1  0.62604867  0.12716245  0.87283966  1
  Fe  Fe39  1  0.24930949  0.25060982  -0.00051378  1
  Fe  Fe40  1  0.74758505  0.50377699  0.75224048  1
  Fe  Fe41  1  0.37520030  0.12454972  0.12540638  1
  Fe  Fe42  1  0.87307293  0.37568804  0.87376510  1
  Fe  Fe43  1  0.50121702  0.74999838  0.50102202  1
  Fe  Fe44  1  0.12310749  0.12396710  0.37781101  1
  Fe  Fe45  1  -0.00157463  -0.00230357  0.75064624  1
  Fe  Fe46  1  0.12471484  0.37659668  0.37755970  1
  Fe  Fe47  1  0.75018977  0.75183772  0.00219754  1
  Fe  Fe48  1  0.50064336  0.50066052  0.25184538  1
  Fe  Fe49  1  0.12415198  0.87498547  0.62416910  1
  Fe  Fe50  1  0.37656705  0.12543162  0.37655567  1
  Fe  Fe51  1  0.50377570  0.50266552  0.75008629  1
  Fe  Fe52  1  -0.00131811  0.75031859  0.50090059  1
  Fe  Fe53  1  0.62563082  0.87454471  0.37449460  1
  Fe  Fe54  1  0.87551036  0.12802181  0.37396552  1
  Fe  Fe55  1  0.87506470  0.12627124  0.12582336  1
  Fe  Fe56  1  -0.00217877  0.50012573  0.25052776  1
  Fe  Fe57  1  0.62877214  0.37739794  0.12749227  1
  Fe  Fe58  1  0.12601218  0.37603430  0.12490093  1
  Fe  Fe59  1  0.37895400  0.12530709  0.62426968  1
  Fe  Fe60  1  0.62444128  0.62490669  0.37653815  1
  Fe  Fe61  1  0.37566313  0.62364953  0.62367569  1
  Fe  Fe62  1  0.25084395  0.74858225  0.25076767  1
  Fe  Fe63  1  0.62348192  0.12845762  0.62483281  1
  Fe  Fe64  1  0.37801181  0.62600677  0.12593997  1
  Fe  Fe65  1  0.50143729  0.25171711  0.00023297  1
  Fe  Fe66  1  0.24962661  0.50123072  -0.00058954  1
  Fe  Fe67  1  0.25097896  0.74869848  0.75040684  1
  Fe  Fe68  1  0.74918472  0.00176049  0.25015440  1
  Fe  Fe69  1  0.50016114  -0.00218499  -0.00413581  1
  Fe  Fe70  1  0.50150810  0.75187309  0.00136338  1
  Fe  Fe71  1  0.12330884  0.12559360  0.87607012  1
  Fe  Fe72  1  0.37386704  0.37473402  0.62462723  1
  Fe  Fe73  1  0.62703376  0.37417289  0.62434255  1
  Fe  Fe74  1  0.87449886  0.62655064  0.37568662  1
  Fe  Fe75  1  0.87222805  0.87412771  0.62675470  1
  Fe  Fe76  1  0.24986777  0.74752965  0.50026559  1
  Fe  Fe77  1  0.12539099  0.87256468  0.87630730  1
  Fe  Fe78  1  0.25149726  0.50259107  0.25137368  1
  Fe  Fe79  1  0.50251643  0.25044270  0.24990692  1
  Fe  Fe80  1  0.37436117  0.37564642  0.87382742  1
  Fe  Fe81  1  0.49878686  0.49757353  0.49834230  1
  Fe  Fe82  1  0.00109485  0.50144888  0.75019120  1
  Fe  Fe83  1  0.62719503  0.87189319  0.86936772  1
  Fe  Fe84  1  0.50292143  0.49929454  -0.00024246  1
  Fe  Fe85  1  0.37647578  0.12625054  0.87330416  1
  Fe  Fe86  1  0.62406100  0.12736713  0.37891919  1
  Fe  Fe87  1  0.37615077  0.87413634  0.37497993  1
  Fe  Fe88  1  0.12508696  0.37803129  0.62324085  1
  Fe  Fe89  1  0.37727223  0.62575631  0.87600688  1
  Co  Co90  1  0.00494133  0.24933369  0.24805240  1
  Co  Co91  1  0.75029583  0.25007791  0.00072096  1
  Co  Co92  1  -0.00364410  0.49857360  0.49842725  1
  Co  Co93  1  0.12355611  0.62523101  0.62401371  1
  Co  Co94  1  0.12474775  0.12275059  0.12065756  1
  Co  Co95  1  0.87332466  0.37825683  0.62930740  1
  Co  Co96  1  -0.00407646  -0.00127579  0.50051810  1
  Co  Co97  1  0.49985197  0.25356231  0.49938346  1
  Co  Co98  1  0.62501598  0.62313803  0.12489649  1
  Co  Co99  1  0.75059546  0.75240735  0.49884150  1
  Co  Co100  1  0.75108739  0.74271137  0.74921763  1
  Co  Co101  1  0.87346270  0.87642526  0.12925870  1
  Co  Co102  1  0.50275318  0.75032415  0.24955082  1
  Co  Co103  1  0.24954981  0.24799038  0.50107019  1
  Co  Co104  1  0.74908917  0.00272111  0.74784071  1
  Co  Co105  1  0.25126396  0.50261665  0.49958192  1
  Co  Co106  1  0.12588764  0.37518511  0.87403505  1
  Co  Co107  1  0.37785356  0.62654968  0.37543486  1
  Co  Co108  1  0.75053581  0.24998833  0.74924821  1
  Co  Co109  1  0.62451769  0.62857256  0.87832232  1
  Co  Co110  1  0.75072656  0.50371800  0.25259330  1
  Co  Co111  1  0.74920645  0.49943807  -0.00103866  1
  Co  Co112  1  0.75280111  0.25252492  0.50046860  1
  Co  Co113  1  0.50226725  -0.00220119  0.50121060  1
  Co  Co114  1  0.87057951  0.87386895  0.87098510  1
  Co  Co115  1  0.50115247  0.00023793  0.75063388  1
  Co  Co116  1  0.25134545  0.74821470  0.00125527  1
  Co  Co117  1  0.24953387  0.00100916  0.25175199  1
  Co  Co118  1  -0.00119759  0.49583831  0.00133913  1
  Co  Co119  1  0.37648124  0.87212902  0.87314713  1
  Co  Co120  1  0.50058121  0.74519667  0.74727697  1
  Co  Co121  1  0.50002277  0.25181338  0.75042267  1
  Co  Co122  1  -0.00331322  0.75384734  0.00163935  1
  Co  Co123  1  0.62763957  0.62265351  0.61882727  1
  Co  Co124  1  0.87526971  0.37039964  0.36791683  1
  Co  Co125  1  0.74551457  0.24645039  0.24990794  1
  Co  Co126  1  0.62481535  0.87824609  0.12598468  1
  Co  Co127  1  0.62625972  0.37460261  0.37308091  1
