# generated using pymatgen
data_Fe45Co19
_symmetry_space_group_name_H-M   'P 1'
_cell_length_a   11.41324162
_cell_length_b   11.41365193
_cell_length_c   11.41371728
_cell_angle_alpha   90.00162853
_cell_angle_beta   89.98751699
_cell_angle_gamma   90.00163091
_symmetry_Int_Tables_number   1
_chemical_formula_structural   Fe45Co19
_chemical_formula_sum   'Fe90 Co38'
_cell_volume   1486.82801513
_cell_formula_units_Z   2
loop_
 _symmetry_equiv_pos_site_id
 _symmetry_equiv_pos_as_xyz
  1  'x, y, z'
loop_
 _atom_site_type_symbol
 _atom_site_label
 _atom_site_symmetry_multiplicity
 _atom_site_fract_x
 _atom_site_fract_y
 _atom_site_fract_z
 _atom_site_occupancy
  Fe  Fe0  1  0.62411293  0.62154188  0.12593173  1
  Fe  Fe1  1  0.87401442  0.62409395  0.37362692  1
  Fe  Fe2  1  0.12578802  0.37358725  0.87578908  1
  Fe  Fe3  1  0.50233052  0.00109767  0.49704678  1
  Fe  Fe4  1  0.37436313  0.62583228  0.87712957  1
  Fe  Fe5  1  0.12590002  0.62575713  0.62345736  1
  Fe  Fe6  1  0.24941310  0.49862956  0.74951321  1
  Fe  Fe7  1  0.37443818  0.62528109  0.62350896  1
  Fe  Fe8  1  0.49992815  0.74972197  0.25022149  1
  Fe  Fe9  1  0.62692715  0.62526133  0.37358224  1
  Fe  Fe10  1  0.74842954  0.25043145  0.49950892  1
  Fe  Fe11  1  0.62470295  0.87540220  0.62266558  1
  Fe  Fe12  1  0.25015810  0.24678341  0.00105314  1
  Fe  Fe13  1  0.62468858  0.37666870  0.12537083  1
  Fe  Fe14  1  0.49945894  -0.00062305  0.75157763  1
  Fe  Fe15  1  0.24968303  0.49877826  0.49909574  1
  Fe  Fe16  1  0.50142508  0.24938640  0.25120433  1
  Fe  Fe17  1  0.62806588  0.62744435  0.87655384  1
  Fe  Fe18  1  0.37484599  0.87480084  0.37517731  1
  Fe  Fe19  1  0.50214716  0.00089282  0.25251808  1
  Fe  Fe20  1  0.75250825  0.50092518  0.75097041  1
  Fe  Fe21  1  0.24647884  0.75108631  0.25214933  1
  Fe  Fe22  1  0.12474151  0.62487220  0.87512886  1
  Fe  Fe23  1  0.37735399  0.12083612  0.12207651  1
  Fe  Fe24  1  0.24737389  0.00067560  0.49646297  1
  Fe  Fe25  1  0.75036858  0.00218099  0.00317354  1
  Fe  Fe26  1  0.87032834  0.12689957  0.37186674  1
  Fe  Fe27  1  0.37772139  0.37829257  0.12610388  1
  Fe  Fe28  1  0.62461334  0.12377080  0.87704423  1
  Fe  Fe29  1  0.49950116  0.74963095  0.00168015  1
  Fe  Fe30  1  0.87499660  0.62633878  0.62446405  1
  Fe  Fe31  1  0.00234021  0.24752621  0.49889388  1
  Fe  Fe32  1  0.25053603  0.75119130  0.74916836  1
  Fe  Fe33  1  -0.00181276  0.75018434  0.75008309  1
  Fe  Fe34  1  0.50100301  0.24958009  0.00017007  1
  Fe  Fe35  1  0.00235599  0.75178578  0.00083967  1
  Fe  Fe36  1  0.49897408  0.74950363  0.49838576  1
  Fe  Fe37  1  0.62501410  0.62424614  0.62428244  1
  Fe  Fe38  1  0.37231591  0.87749972  0.12398572  1
  Fe  Fe39  1  0.00062347  0.00246854  0.49569841  1
  Fe  Fe40  1  0.75194447  0.49949346  -0.00046658  1
  Fe  Fe41  1  0.75101406  0.75041606  0.24782593  1
  Fe  Fe42  1  0.37384168  0.37322101  0.87548518  1
  Fe  Fe43  1  0.24613130  0.75262809  0.00240066  1
  Fe  Fe44  1  0.25116940  0.50111266  0.00286485  1
  Fe  Fe45  1  0.12509222  0.12586928  0.87341939  1
  Fe  Fe46  1  0.37390503  0.87558632  0.62256601  1
  Fe  Fe47  1  0.87296880  0.87242347  0.87695300  1
  Fe  Fe48  1  0.12379815  0.62518728  0.12826457  1
  Fe  Fe49  1  0.00284168  0.75057336  0.49543405  1
  Fe  Fe50  1  0.12451706  0.12148244  0.12996115  1
  Fe  Fe51  1  0.37589458  0.12867865  0.37681449  1
  Fe  Fe52  1  0.62848844  0.87365701  0.87661942  1
  Fe  Fe53  1  0.12502902  0.37425522  0.37395998  1
  Fe  Fe54  1  0.37381681  0.87691914  0.87851256  1
  Fe  Fe55  1  0.37507710  0.12531748  0.62435256  1
  Fe  Fe56  1  0.25106645  0.24979020  0.24852494  1
  Fe  Fe57  1  0.75084277  0.49775932  0.49930626  1
  Fe  Fe58  1  0.87458976  0.37080916  0.12455496  1
  Fe  Fe59  1  0.62396665  0.87657653  0.12628172  1
  Fe  Fe60  1  0.49968996  0.24961274  0.74846429  1
  Fe  Fe61  1  -0.00135739  0.50052195  0.75082403  1
  Fe  Fe62  1  -0.00054525  0.49952963  0.49916723  1
  Fe  Fe63  1  0.49926340  0.49703472  0.49773954  1
  Fe  Fe64  1  0.00202980  0.00074217  0.00016617  1
  Fe  Fe65  1  0.87542823  0.37344439  0.62404364  1
  Fe  Fe66  1  0.87425878  0.12882933  0.12638767  1
  Fe  Fe67  1  0.00226261  0.24973436  0.74846691  1
  Fe  Fe68  1  0.62538976  0.37448233  0.37403502  1
  Fe  Fe69  1  0.50016156  0.75124872  0.75000546  1
  Fe  Fe70  1  0.87268510  0.87697813  0.37330422  1
  Fe  Fe71  1  0.75235510  -0.00161399  0.74802852  1
  Fe  Fe72  1  -0.00075831  0.49973742  -0.00097492  1
  Fe  Fe73  1  0.12471709  0.87580732  0.62313303  1
  Fe  Fe74  1  0.87832379  0.87559462  0.12719877  1
  Fe  Fe75  1  -0.00166066  0.49764461  0.25099328  1
  Fe  Fe76  1  0.50043103  0.50010102  0.75051716  1
  Fe  Fe77  1  0.37485845  0.37360283  0.62439015  1
  Fe  Fe78  1  0.87642358  0.62459428  0.12495390  1
  Fe  Fe79  1  0.24648561  0.24909424  0.50284061  1
  Fe  Fe80  1  0.75020726  0.24856544  0.75109667  1
  Fe  Fe81  1  0.87675787  0.37062961  0.87724266  1
  Fe  Fe82  1  0.37231617  0.62283253  0.37226692  1
  Fe  Fe83  1  0.87527656  0.12444028  0.62450371  1
  Fe  Fe84  1  0.62474575  0.37534375  0.87534134  1
  Fe  Fe85  1  0.25101720  0.00109612  0.75202508  1
  Fe  Fe86  1  0.75070013  0.75274305  0.50143004  1
  Fe  Fe87  1  0.62517437  0.12478374  0.62281393  1
  Fe  Fe88  1  -0.00239959  -0.00108678  0.75090995  1
  Fe  Fe89  1  0.12346085  0.37377796  0.12478807  1
  Co  Co90  1  0.00014618  0.25084390  0.25098670  1
  Co  Co91  1  0.62703731  0.12509811  0.37553072  1
  Co  Co92  1  0.62720333  0.37588288  0.62587249  1
  Co  Co93  1  -0.00035134  0.74867660  0.25311841  1
  Co  Co94  1  0.37628105  0.12547130  0.87671154  1
  Co  Co95  1  0.50234104  0.25217412  0.50072137  1
  Co  Co96  1  -0.00380598  0.00356480  0.25263795  1
  Co  Co97  1  0.87584415  0.12559232  0.87576331  1
  Co  Co98  1  0.74864018  0.00071061  0.24714177  1
  Co  Co99  1  0.12403482  0.12085579  0.62728021  1
  Co  Co100  1  0.12338382  0.87890302  0.37077712  1
  Co  Co101  1  0.87353480  0.62925685  0.87680798  1
  Co  Co102  1  0.74996521  0.74997383  0.00613267  1
  Co  Co103  1  0.37285802  0.37221458  0.37469741  1
  Co  Co104  1  0.24514278  0.00090370  -0.00105332  1
  Co  Co105  1  0.25451848  0.00135484  0.25301696  1
  Co  Co106  1  0.24878528  0.49739053  0.24796822  1
  Co  Co107  1  0.49860668  0.50159585  -0.00066418  1
  Co  Co108  1  0.12711827  0.12635776  0.37007202  1
  Co  Co109  1  0.74771033  0.25140998  0.24944466  1
  Co  Co110  1  0.50211660  -0.00164413  -0.00064950  1
  Co  Co111  1  0.49924910  0.50015317  0.25303429  1
  Co  Co112  1  0.12382604  0.87880707  0.13142675  1
  Co  Co113  1  0.12314001  0.37652223  0.62427078  1
  Co  Co114  1  0.24856407  0.75098434  0.49645879  1
  Co  Co115  1  0.75258019  0.49823090  0.24988377  1
  Co  Co116  1  0.24915899  0.24916479  0.74829644  1
  Co  Co117  1  0.62363266  0.12577201  0.12511973  1
  Co  Co118  1  0.37374309  0.62618407  0.12715394  1
  Co  Co119  1  0.62725301  0.87437327  0.37447329  1
  Co  Co120  1  0.87583640  0.37259809  0.37605591  1
  Co  Co121  1  0.75023182  -0.00025192  0.50068313  1
  Co  Co122  1  0.00311040  0.24651968  0.00088287  1
  Co  Co123  1  0.12522971  0.62082761  0.37357911  1
  Co  Co124  1  0.75049869  0.75161334  0.74533292  1
  Co  Co125  1  0.87886943  0.87571547  0.62198885  1
  Co  Co126  1  0.12398812  0.87519593  0.87260238  1
  Co  Co127  1  0.74812620  0.24913577  -0.00045642  1
