# generated using pymatgen
data_Fe45Co19
_symmetry_space_group_name_H-M   'P 1'
_cell_length_a   11.41518777
_cell_length_b   11.41466228
_cell_length_c   11.41470161
_cell_angle_alpha   90.00034207
_cell_angle_beta   89.99043235
_cell_angle_gamma   89.99803260
_symmetry_Int_Tables_number   1
_chemical_formula_structural   Fe45Co19
_chemical_formula_sum   'Fe90 Co38'
_cell_volume   1487.34145648
_cell_formula_units_Z   2
loop_
 _symmetry_equiv_pos_site_id
 _symmetry_equiv_pos_as_xyz
  1  'x, y, z'
loop_
 _atom_site_type_symbol
 _atom_site_label
 _atom_site_symmetry_multiplicity
 _atom_site_fract_x
 _atom_site_fract_y
 _atom_site_fract_z
 _atom_site_occupancy
  Fe  Fe0  1  0.62351607  0.37412768  0.87329055  1
  Fe  Fe1  1  0.87520087  0.62452336  0.12606281  1
  Fe  Fe2  1  0.25007494  0.00019957  0.00016707  1
  Fe  Fe3  1  0.49874991  0.24742927  0.25534793  1
  Fe  Fe4  1  -0.00171334  0.49906056  0.25176400  1
  Fe  Fe5  1  0.12497631  0.37398133  0.37694357  1
  Fe  Fe6  1  0.62391635  0.37468974  0.62469070  1
  Fe  Fe7  1  0.00176098  0.24938613  0.74643798  1
  Fe  Fe8  1  0.49741087  0.00037269  0.74777545  1
  Fe  Fe9  1  0.12311076  0.87863835  0.12702500  1
  Fe  Fe10  1  -0.00154432  0.50062464  0.49900877  1
  Fe  Fe11  1  0.87561305  0.37341606  0.87456665  1
  Fe  Fe12  1  -0.00197214  0.75149734  0.25214016  1
  Fe  Fe13  1  0.87485328  0.62635506  0.87619553  1
  Fe  Fe14  1  0.37559357  0.37542926  0.87173460  1
  Fe  Fe15  1  0.25176439  0.75171874  0.25095168  1
  Fe  Fe16  1  0.87403925  0.62901841  0.62261700  1
  Fe  Fe17  1  0.12601935  0.62615710  0.12716588  1
  Fe  Fe18  1  0.62474297  0.62311165  0.87259846  1
  Fe  Fe19  1  0.75093857  0.74934403  0.25198189  1
  Fe  Fe20  1  0.87613847  0.12353259  0.87428787  1
  Fe  Fe21  1  0.49962634  0.49893493  0.25021835  1
  Fe  Fe22  1  0.00074057  0.75231326  -0.00086843  1
  Fe  Fe23  1  0.00253775  0.24733941  0.25165901  1
  Fe  Fe24  1  0.75121777  -0.00111053  0.75002228  1
  Fe  Fe25  1  0.37247243  0.87326275  0.62458185  1
  Fe  Fe26  1  0.24792377  0.24982659  0.00001326  1
  Fe  Fe27  1  0.62543627  0.87371328  0.62488958  1
  Fe  Fe28  1  0.13285606  0.12416040  0.37423571  1
  Fe  Fe29  1  0.37320919  0.37134792  0.37971934  1
  Fe  Fe30  1  0.75121450  0.50157193  0.49691446  1
  Fe  Fe31  1  0.37536982  0.12404882  0.87514059  1
  Fe  Fe32  1  0.75080195  0.49961750  0.74830650  1
  Fe  Fe33  1  0.74725628  0.00005616  -0.00029278  1
  Fe  Fe34  1  0.74803385  0.24895080  -0.00028030  1
  Fe  Fe35  1  0.74876505  0.25063665  0.25069518  1
  Fe  Fe36  1  0.74775568  0.75201931  0.00098078  1
  Fe  Fe37  1  0.25110093  0.49873806  0.24980653  1
  Fe  Fe38  1  0.25291784  0.50115221  0.74663304  1
  Fe  Fe39  1  0.12824238  0.87645773  0.62740083  1
  Fe  Fe40  1  0.62707558  0.37566095  0.37508543  1
  Fe  Fe41  1  0.62021257  0.87860666  0.87589023  1
  Fe  Fe42  1  0.25130944  0.75002737  -0.00167873  1
  Fe  Fe43  1  0.87513974  0.37410525  0.12715282  1
  Fe  Fe44  1  0.74714564  0.00009176  0.49975407  1
  Fe  Fe45  1  0.49988410  0.74971933  0.50050754  1
  Fe  Fe46  1  0.37707940  0.87569094  0.12260278  1
  Fe  Fe47  1  0.50015517  0.50211018  0.50383702  1
  Fe  Fe48  1  0.12430610  0.12179265  0.87080314  1
  Fe  Fe49  1  0.50163195  0.24752636  -0.00025034  1
  Fe  Fe50  1  0.74874291  0.49775351  0.00235999  1
  Fe  Fe51  1  -0.00214565  0.50138355  0.74863644  1
  Fe  Fe52  1  0.12508428  0.37371467  0.12588854  1
  Fe  Fe53  1  0.25058118  0.50089236  0.00136733  1
  Fe  Fe54  1  0.12483690  0.62667571  0.37576047  1
  Fe  Fe55  1  0.87686118  0.37183379  0.62056638  1
  Fe  Fe56  1  0.49966721  0.74810195  0.00027441  1
  Fe  Fe57  1  0.62458465  0.87599214  0.37372094  1
  Fe  Fe58  1  0.87307825  0.12694169  0.37810254  1
  Fe  Fe59  1  0.87684395  0.87792755  0.12525846  1
  Fe  Fe60  1  0.75116123  0.75238751  0.75176397  1
  Fe  Fe61  1  0.25073198  0.49913797  0.50230678  1
  Fe  Fe62  1  0.37459639  0.62515284  0.37604966  1
  Fe  Fe63  1  0.00118284  -0.00123543  0.49857207  1
  Fe  Fe64  1  0.50011554  0.50018979  0.00094250  1
  Fe  Fe65  1  0.37599469  0.12581617  0.61628048  1
  Fe  Fe66  1  0.49707944  0.74691507  0.74986751  1
  Fe  Fe67  1  0.74958100  0.74874389  0.49600311  1
  Fe  Fe68  1  0.50014916  0.24878168  0.74868533  1
  Fe  Fe69  1  0.87646149  0.12448939  0.62233383  1
  Fe  Fe70  1  0.87811710  0.12330423  0.12439630  1
  Fe  Fe71  1  0.12458430  0.87578128  0.37406246  1
  Fe  Fe72  1  0.49862983  0.75042791  0.25057201  1
  Fe  Fe73  1  0.12662697  0.87855748  0.87113686  1
  Fe  Fe74  1  0.37115168  0.12623138  0.12787204  1
  Fe  Fe75  1  0.00063212  0.49954527  -0.00002995  1
  Fe  Fe76  1  0.62371139  0.12456431  0.62315195  1
  Fe  Fe77  1  0.62452293  0.62432367  0.12916096  1
  Fe  Fe78  1  0.75075876  -0.00066267  0.25078445  1
  Fe  Fe79  1  0.12503082  0.62517430  0.87360873  1
  Fe  Fe80  1  0.62422067  0.12460435  0.12713307  1
  Fe  Fe81  1  0.12698715  0.62832221  0.62381635  1
  Fe  Fe82  1  0.37487190  0.87776688  0.37746777  1
  Fe  Fe83  1  -0.00268046  0.75393188  0.74865087  1
  Fe  Fe84  1  0.74952908  0.24880680  0.74852083  1
  Fe  Fe85  1  0.00283364  0.24839183  -0.00029989  1
  Fe  Fe86  1  0.37618354  0.37305933  0.12498254  1
  Fe  Fe87  1  0.12606322  0.37596306  0.87146049  1
  Fe  Fe88  1  0.49774156  0.00241058  0.25228435  1
  Fe  Fe89  1  0.24903268  0.24816069  0.74337410  1
  Co  Co90  1  0.87140622  0.87512466  0.61977525  1
  Co  Co91  1  0.62442154  0.12299548  0.87258440  1
  Co  Co92  1  0.25052522  0.25314064  0.25074267  1
  Co  Co93  1  0.25608185  0.00260017  0.74850722  1
  Co  Co94  1  0.37187436  0.62818592  0.62289533  1
  Co  Co95  1  0.12242609  0.37824270  0.62525334  1
  Co  Co96  1  0.62330595  0.87591292  0.12683973  1
  Co  Co97  1  0.00256345  0.00070295  -0.00120254  1
  Co  Co98  1  0.74615387  0.24968254  0.50115888  1
  Co  Co99  1  0.12302030  0.11839905  0.62684584  1
  Co  Co100  1  0.87394531  0.87607707  0.87860025  1
  Co  Co101  1  0.50144507  -0.00171753  0.49934426  1
  Co  Co102  1  0.24925921  -0.00272524  0.50087581  1
  Co  Co103  1  0.25000534  0.75205859  0.49705156  1
  Co  Co104  1  0.25281869  -0.00372407  0.24938001  1
  Co  Co105  1  0.49982637  0.50276924  0.74590282  1
  Co  Co106  1  -0.00524097  -0.00428148  0.74842942  1
  Co  Co107  1  0.00595476  0.24675733  0.49974644  1
  Co  Co108  1  0.24491737  0.25170738  0.50599429  1
  Co  Co109  1  0.87423110  0.87636292  0.37632469  1
  Co  Co110  1  0.62321929  0.37275504  0.12655566  1
  Co  Co111  1  0.75079750  0.50035915  0.25207191  1
  Co  Co112  1  0.25234710  0.74983047  0.75370801  1
  Co  Co113  1  0.37790163  0.87705058  0.87648735  1
  Co  Co114  1  0.50363274  0.24889971  0.49603589  1
  Co  Co115  1  0.87830286  0.62673104  0.37541343  1
  Co  Co116  1  0.00182307  0.75386664  0.50130329  1
  Co  Co117  1  0.37402294  0.62530551  0.12691517  1
  Co  Co118  1  -0.00010928  0.00326072  0.25416950  1
  Co  Co119  1  0.12731774  0.12302957  0.12732227  1
  Co  Co120  1  0.49979239  0.00426498  0.00274468  1
  Co  Co121  1  0.37795500  0.37211359  0.62389116  1
  Co  Co122  1  0.87518151  0.37011057  0.37637195  1
  Co  Co123  1  0.62784917  0.62724476  0.62455356  1
  Co  Co124  1  0.36947335  0.12556419  0.37951518  1
  Co  Co125  1  0.62155835  0.62531454  0.37437086  1
  Co  Co126  1  0.62646004  0.12257120  0.37525047  1
  Co  Co127  1  0.37518775  0.62221374  0.87518968  1
