# generated using pymatgen
data_Fe45Co19
_symmetry_space_group_name_H-M   'P 1'
_cell_length_a   11.41501492
_cell_length_b   11.41472340
_cell_length_c   11.41495080
_cell_angle_alpha   90.00465407
_cell_angle_beta   89.99400007
_cell_angle_gamma   90.00151783
_symmetry_Int_Tables_number   1
_chemical_formula_structural   Fe45Co19
_chemical_formula_sum   'Fe90 Co38'
_cell_volume   1487.35937708
_cell_formula_units_Z   2
loop_
 _symmetry_equiv_pos_site_id
 _symmetry_equiv_pos_as_xyz
  1  'x, y, z'
loop_
 _atom_site_type_symbol
 _atom_site_label
 _atom_site_symmetry_multiplicity
 _atom_site_fract_x
 _atom_site_fract_y
 _atom_site_fract_z
 _atom_site_occupancy
  Fe  Fe0  1  0.75152720  0.50164313  0.25076267  1
  Fe  Fe1  1  0.24856162  0.25069269  0.00244638  1
  Fe  Fe2  1  0.87457421  0.87618616  0.12559455  1
  Fe  Fe3  1  0.12685268  0.37331681  0.87320543  1
  Fe  Fe4  1  0.75169079  0.24981228  0.25112090  1
  Fe  Fe5  1  0.75046430  0.24351895  0.74494659  1
  Fe  Fe6  1  0.49914873  0.00005856  0.25315210  1
  Fe  Fe7  1  0.12208733  0.12674479  0.62602193  1
  Fe  Fe8  1  0.00173022  0.75053046  -0.00204822  1
  Fe  Fe9  1  0.62481215  0.62521240  0.87419099  1
  Fe  Fe10  1  0.62564745  0.87929200  0.62889432  1
  Fe  Fe11  1  0.49949806  0.49845497  0.75194128  1
  Fe  Fe12  1  0.25187405  0.25050299  0.74621221  1
  Fe  Fe13  1  0.37068378  0.87178988  0.87595760  1
  Fe  Fe14  1  0.37788040  0.62505654  0.12380897  1
  Fe  Fe15  1  0.12946232  0.62948235  0.87327421  1
  Fe  Fe16  1  0.75068602  0.24852113  -0.00019764  1
  Fe  Fe17  1  0.37490562  0.12287007  0.12591541  1
  Fe  Fe18  1  0.62520420  0.37163437  0.62075653  1
  Fe  Fe19  1  0.24763597  -0.00073348  0.00023474  1
  Fe  Fe20  1  0.88048512  0.12314542  0.87204461  1
  Fe  Fe21  1  0.49642075  0.24868642  0.74518127  1
  Fe  Fe22  1  0.00108638  -0.00049843  0.25056889  1
  Fe  Fe23  1  0.87745644  0.12356190  0.37682080  1
  Fe  Fe24  1  0.74981916  0.00243575  -0.00209017  1
  Fe  Fe25  1  0.49941638  0.25116342  0.00049449  1
  Fe  Fe26  1  0.37536961  0.87584069  0.12618463  1
  Fe  Fe27  1  0.87548327  0.62764530  0.62342510  1
  Fe  Fe28  1  0.50075030  0.74962253  0.25166656  1
  Fe  Fe29  1  0.00082332  0.25173083  -0.00005009  1
  Fe  Fe30  1  0.62740848  0.87649136  0.87232205  1
  Fe  Fe31  1  0.74842152  0.49961780  0.00000424  1
  Fe  Fe32  1  0.75074882  0.00170262  0.50247622  1
  Fe  Fe33  1  0.62840567  0.87509015  0.37403322  1
  Fe  Fe34  1  0.62620345  0.62418860  0.37638629  1
  Fe  Fe35  1  0.00204206  0.49903585  0.75038501  1
  Fe  Fe36  1  0.87527093  0.87783784  0.87301140  1
  Fe  Fe37  1  0.74998614  0.00203815  0.25094311  1
  Fe  Fe38  1  0.12580164  0.87297561  0.37451093  1
  Fe  Fe39  1  0.62571577  0.37082646  0.87309845  1
  Fe  Fe40  1  0.62552747  0.87548847  0.12533659  1
  Fe  Fe41  1  0.37420842  0.12719394  0.87484462  1
  Fe  Fe42  1  0.49835399  0.49939128  0.25373631  1
  Fe  Fe43  1  0.37288857  0.37583076  0.12709765  1
  Fe  Fe44  1  0.50161600  0.75298695  0.50039051  1
  Fe  Fe45  1  0.00147878  0.50003323  0.50041496  1
  Fe  Fe46  1  0.00165357  -0.00326716  0.50127775  1
  Fe  Fe47  1  0.12619219  0.12596750  0.37411950  1
  Fe  Fe48  1  0.62391665  0.12902579  0.37991527  1
  Fe  Fe49  1  0.87651651  0.37331332  0.62473518  1
  Fe  Fe50  1  0.12912192  0.37675011  0.37185956  1
  Fe  Fe51  1  0.37628980  0.62292970  0.62452405  1
  Fe  Fe52  1  -0.00088099  0.74801696  0.25207645  1
  Fe  Fe53  1  0.12465112  0.87408409  0.12498007  1
  Fe  Fe54  1  0.00095270  0.75114348  0.74925713  1
  Fe  Fe55  1  0.37114730  0.87491642  0.37603046  1
  Fe  Fe56  1  0.12214372  0.12385068  0.87291613  1
  Fe  Fe57  1  0.25078011  0.49980271  0.74971482  1
  Fe  Fe58  1  0.49782271  0.75073147  0.74948364  1
  Fe  Fe59  1  0.12297699  0.37969306  0.13017367  1
  Fe  Fe60  1  0.74913772  0.50067321  0.74668568  1
  Fe  Fe61  1  0.24909171  -0.00059805  0.74962854  1
  Fe  Fe62  1  0.87252161  0.87382410  0.62527940  1
  Fe  Fe63  1  0.87331967  0.37436848  0.87301681  1
  Fe  Fe64  1  0.62491663  0.62567210  0.62371116  1
  Fe  Fe65  1  0.37152823  0.12242966  0.37772308  1
  Fe  Fe66  1  0.87742972  0.12483071  0.12533969  1
  Fe  Fe67  1  0.50068221  0.74961113  -0.00131989  1
  Fe  Fe68  1  0.49937854  0.49566831  0.49664615  1
  Fe  Fe69  1  0.25304247  0.25017811  0.50311274  1
  Fe  Fe70  1  0.62523303  0.37538705  0.12796295  1
  Fe  Fe71  1  0.12354583  0.12519020  0.12679755  1
  Fe  Fe72  1  0.87478248  0.62370239  0.87396894  1
  Fe  Fe73  1  0.49980513  0.00001178  -0.00310970  1
  Fe  Fe74  1  0.62343859  0.12509426  0.12481711  1
  Fe  Fe75  1  0.87232570  0.37465803  0.37678564  1
  Fe  Fe76  1  0.75091118  0.74796641  0.24965913  1
  Fe  Fe77  1  0.00150155  0.25268087  0.49845777  1
  Fe  Fe78  1  0.50005046  0.49884020  -0.00253706  1
  Fe  Fe79  1  0.87858787  0.62274519  0.12202001  1
  Fe  Fe80  1  0.24933771  0.50220258  0.49968986  1
  Fe  Fe81  1  0.87840047  0.37720849  0.12467445  1
  Fe  Fe82  1  0.24854043  0.74730487  0.50213558  1
  Fe  Fe83  1  0.24971093  0.50142385  0.00005476  1
  Fe  Fe84  1  0.37527511  0.87984011  0.62262184  1
  Fe  Fe85  1  0.24912529  0.74526030  0.24841730  1
  Fe  Fe86  1  0.74943321  0.74856921  -0.00044750  1
  Fe  Fe87  1  0.12667636  0.87207034  0.62576638  1
  Fe  Fe88  1  0.87493151  0.62854116  0.38100711  1
  Fe  Fe89  1  0.49703496  0.25120567  0.25409683  1
  Co  Co90  1  0.12378271  0.62521210  0.37670882  1
  Co  Co91  1  0.88284909  0.12577312  0.62439791  1
  Co  Co92  1  0.24914632  0.74833154  0.00543672  1
  Co  Co93  1  0.37390637  0.37910671  0.62530635  1
  Co  Co94  1  0.25380218  0.75115794  0.74436929  1
  Co  Co95  1  -0.00019669  0.25121676  0.25136359  1
  Co  Co96  1  0.74629343  0.75211056  0.50123263  1
  Co  Co97  1  0.50115973  -0.00308485  0.49528613  1
  Co  Co98  1  0.74952824  0.74801136  0.75040552  1
  Co  Co99  1  0.75097762  0.00633716  0.74843792  1
  Co  Co100  1  0.12721501  0.87257493  0.87472403  1
  Co  Co101  1  0.62252734  0.12726447  0.87367163  1
  Co  Co102  1  0.00258620  -0.00495784  0.74631154  1
  Co  Co103  1  0.62829610  0.37381820  0.37640937  1
  Co  Co104  1  0.00190538  -0.00112122  0.00144310  1
  Co  Co105  1  0.24454633  -0.00018767  0.50122968  1
  Co  Co106  1  0.00244495  0.75222223  0.50143679  1
  Co  Co107  1  0.75074168  0.50041970  0.50273559  1
  Co  Co108  1  0.49706132  -0.00056387  0.75449173  1
  Co  Co109  1  0.37624617  0.62789293  0.37831731  1
  Co  Co110  1  0.61807143  0.12294947  0.62157490  1
  Co  Co111  1  0.37291107  0.62609782  0.87429437  1
  Co  Co112  1  0.12578110  0.37517083  0.62405945  1
  Co  Co113  1  0.24869898  -0.00035717  0.24934284  1
  Co  Co114  1  0.11992745  0.62172451  0.12517698  1
  Co  Co115  1  0.75236881  0.24652945  0.50296418  1
  Co  Co116  1  0.62336747  0.62403087  0.12575105  1
  Co  Co117  1  0.37638803  0.11908410  0.62247523  1
  Co  Co118  1  -0.00322594  0.50171823  0.25593686  1
  Co  Co119  1  0.12433563  0.62459847  0.62640881  1
  Co  Co120  1  0.25172303  0.50701224  0.24986699  1
  Co  Co121  1  0.25080953  0.24797125  0.24799471  1
  Co  Co122  1  0.87465146  0.87534924  0.37556716  1
  Co  Co123  1  0.00289400  0.49866898  -0.00630449  1
  Co  Co124  1  0.49372485  0.25347869  0.49944524  1
  Co  Co125  1  0.37433796  0.37273078  0.87473353  1
  Co  Co126  1  0.00084049  0.25419490  0.75052884  1
  Co  Co127  1  0.36847908  0.37534426  0.37331307  1
