# generated using pymatgen
data_Fe45Co19
_symmetry_space_group_name_H-M   'P 1'
_cell_length_a   11.41571472
_cell_length_b   11.41557057
_cell_length_c   11.41439038
_cell_angle_alpha   90.00273969
_cell_angle_beta   90.00559127
_cell_angle_gamma   90.00398636
_symmetry_Int_Tables_number   1
_chemical_formula_structural   Fe45Co19
_chemical_formula_sum   'Fe90 Co38'
_cell_volume   1487.48792344
_cell_formula_units_Z   2
loop_
 _symmetry_equiv_pos_site_id
 _symmetry_equiv_pos_as_xyz
  1  'x, y, z'
loop_
 _atom_site_type_symbol
 _atom_site_label
 _atom_site_symmetry_multiplicity
 _atom_site_fract_x
 _atom_site_fract_y
 _atom_site_fract_z
 _atom_site_occupancy
  Fe  Fe0  1  0.49583761  0.75256693  0.24352781  1
  Fe  Fe1  1  0.12389898  0.37568029  0.87764946  1
  Fe  Fe2  1  0.12825751  0.87944102  0.12687975  1
  Fe  Fe3  1  0.74886827  0.24806721  0.50075771  1
  Fe  Fe4  1  0.50198902  0.25114151  0.74393493  1
  Fe  Fe5  1  0.62507169  0.12452481  0.12676443  1
  Fe  Fe6  1  0.12468608  0.62028892  0.12248287  1
  Fe  Fe7  1  0.37446825  0.62425679  0.62518923  1
  Fe  Fe8  1  0.37374055  0.87558014  0.87836049  1
  Fe  Fe9  1  0.62373921  0.12784899  0.37328571  1
  Fe  Fe10  1  0.50042786  0.49757722  0.25090819  1
  Fe  Fe11  1  0.12180919  0.12556465  0.87308845  1
  Fe  Fe12  1  0.24741675  0.24893067  0.74906022  1
  Fe  Fe13  1  -0.00080949  0.75227456  0.24747967  1
  Fe  Fe14  1  0.62404419  0.37053970  0.37386315  1
  Fe  Fe15  1  0.12679841  0.12468306  0.12878532  1
  Fe  Fe16  1  0.24947167  0.49928283  0.75087054  1
  Fe  Fe17  1  0.24912808  -0.00563202  0.49721739  1
  Fe  Fe18  1  0.49957477  0.50007428  -0.00187963  1
  Fe  Fe19  1  0.24926741  0.24913370  0.00096676  1
  Fe  Fe20  1  0.50103929  0.75202994  0.75186211  1
  Fe  Fe21  1  0.75065113  0.74959106  0.49977481  1
  Fe  Fe22  1  0.49957877  0.49849501  0.50068098  1
  Fe  Fe23  1  0.12685347  0.87445782  0.87576343  1
  Fe  Fe24  1  0.87552604  0.12287272  0.12741080  1
  Fe  Fe25  1  0.00235846  -0.00107842  0.49388046  1
  Fe  Fe26  1  0.49983437  -0.00083005  0.49838577  1
  Fe  Fe27  1  0.12759775  0.63021491  0.37375883  1
  Fe  Fe28  1  0.12390189  0.62463566  0.87862499  1
  Fe  Fe29  1  0.25210554  0.74924076  0.00523677  1
  Fe  Fe30  1  0.62651416  0.37435540  0.87598748  1
  Fe  Fe31  1  0.37394904  0.62602348  0.87646796  1
  Fe  Fe32  1  0.12449776  0.37066836  0.37217690  1
  Fe  Fe33  1  0.74846076  -0.00022615  0.49828647  1
  Fe  Fe34  1  0.24958919  0.75133991  0.74677407  1
  Fe  Fe35  1  0.62263306  0.62322533  0.12426015  1
  Fe  Fe36  1  -0.00148004  0.49830480  0.75297628  1
  Fe  Fe37  1  0.50013794  0.49814039  0.74893691  1
  Fe  Fe38  1  0.75018311  -0.00084987  0.25042802  1
  Fe  Fe39  1  0.24937366  0.49917437  0.25021735  1
  Fe  Fe40  1  0.75133512  0.75143765  0.24734500  1
  Fe  Fe41  1  0.75010759  0.49968668  0.25171384  1
  Fe  Fe42  1  0.24994078  0.25028135  0.50151087  1
  Fe  Fe43  1  0.87626887  0.87644953  0.62366681  1
  Fe  Fe44  1  0.00108459  0.00133964  0.25536517  1
  Fe  Fe45  1  0.87143211  0.87278089  0.88172676  1
  Fe  Fe46  1  0.00064362  0.75167451  0.49839423  1
  Fe  Fe47  1  0.62613933  0.87668551  0.12005316  1
  Fe  Fe48  1  -0.00069293  0.75325460  0.75128198  1
  Fe  Fe49  1  0.62525370  0.62484526  0.62584821  1
  Fe  Fe50  1  0.00006480  0.50046186  0.49606486  1
  Fe  Fe51  1  0.62453876  0.12641454  0.87389777  1
  Fe  Fe52  1  0.75104977  -0.00127967  0.75300180  1
  Fe  Fe53  1  0.12411469  0.37639555  0.62454536  1
  Fe  Fe54  1  0.37402536  0.37703096  0.12418426  1
  Fe  Fe55  1  0.12396296  0.62574887  0.62526661  1
  Fe  Fe56  1  0.75071314  0.50168473  0.49615646  1
  Fe  Fe57  1  0.87770792  0.12262291  0.62613661  1
  Fe  Fe58  1  0.49776774  0.75114527  0.50102272  1
  Fe  Fe59  1  0.25034384  0.00043330  0.75153580  1
  Fe  Fe60  1  0.74912521  0.24887940  0.00303361  1
  Fe  Fe61  1  0.74931470  0.24985724  0.74731564  1
  Fe  Fe62  1  0.62606093  0.62879856  0.87633337  1
  Fe  Fe63  1  0.87708428  0.12794117  0.87432484  1
  Fe  Fe64  1  0.87529410  0.37407972  0.12740881  1
  Fe  Fe65  1  0.62360266  0.62764543  0.37290529  1
  Fe  Fe66  1  0.62452003  0.87307435  0.37384705  1
  Fe  Fe67  1  0.37642049  0.37143329  0.37584964  1
  Fe  Fe68  1  0.50044025  0.24940603  0.00315417  1
  Fe  Fe69  1  0.37525851  0.12742965  0.37526212  1
  Fe  Fe70  1  0.87736377  0.62553035  0.12438233  1
  Fe  Fe71  1  0.49808138  -0.00079516  0.25087861  1
  Fe  Fe72  1  0.87517148  0.37509633  0.62415224  1
  Fe  Fe73  1  0.62477518  0.87604542  0.62660610  1
  Fe  Fe74  1  0.87627739  0.62904058  0.87832818  1
  Fe  Fe75  1  0.50026415  -0.00071286  0.75268675  1
  Fe  Fe76  1  0.37525236  0.37156257  0.87353451  1
  Fe  Fe77  1  0.75211786  0.50094149  0.75162279  1
  Fe  Fe78  1  -0.00004087  0.49848164  0.25180206  1
  Fe  Fe79  1  -0.00077433  0.24770072  0.49788912  1
  Fe  Fe80  1  0.37544356  0.12371421  0.62462189  1
  Fe  Fe81  1  0.37350651  0.62873440  0.37339336  1
  Fe  Fe82  1  0.24972765  0.50070687  0.49868066  1
  Fe  Fe83  1  0.37163661  0.12094969  0.12472574  1
  Fe  Fe84  1  0.12236086  0.12072828  0.62601336  1
  Fe  Fe85  1  0.75229721  0.50019481  -0.00005131  1
  Fe  Fe86  1  0.00061861  0.25146917  0.00271147  1
  Fe  Fe87  1  0.00041498  -0.00059815  -0.00091278  1
  Fe  Fe88  1  0.50085169  0.00074331  -0.00268265  1
  Fe  Fe89  1  0.87631508  0.62520795  0.62434997  1
  Co  Co90  1  0.49780864  0.24917667  0.24580332  1
  Co  Co91  1  -0.00047988  0.24728823  0.25146410  1
  Co  Co92  1  0.37266184  0.37529504  0.62556089  1
  Co  Co93  1  0.87389477  0.87459388  0.37400836  1
  Co  Co94  1  0.24729688  0.00382217  -0.00462122  1
  Co  Co95  1  0.87351108  0.37062124  0.87537124  1
  Co  Co96  1  0.25044348  0.75200766  0.50470315  1
  Co  Co97  1  0.62501116  0.12030435  0.62619644  1
  Co  Co98  1  0.87469483  0.37277344  0.37451377  1
  Co  Co99  1  0.00177064  0.25226894  0.74821704  1
  Co  Co100  1  0.87137379  0.12462220  0.37429425  1
  Co  Co101  1  -0.00234623  -0.00407923  0.75500531  1
  Co  Co102  1  0.25039830  0.00083740  0.25617621  1
  Co  Co103  1  0.75040675  0.00478111  -0.00119043  1
  Co  Co104  1  0.62739260  0.87361915  0.87844166  1
  Co  Co105  1  0.37693399  0.87696362  0.62650581  1
  Co  Co106  1  0.74983206  0.24964043  0.24832313  1
  Co  Co107  1  0.37377058  0.87081004  0.37294723  1
  Co  Co108  1  0.87512594  0.87906342  0.12448271  1
  Co  Co109  1  0.75114124  0.75130046  0.74841195  1
  Co  Co110  1  0.37151589  0.88287848  0.12219024  1
  Co  Co111  1  -0.00365370  0.49725091  -0.00135707  1
  Co  Co112  1  0.12439403  0.37594726  0.12558787  1
  Co  Co113  1  0.12856484  0.86890850  0.37188102  1
  Co  Co114  1  0.00303873  0.75374281  0.00286926  1
  Co  Co115  1  0.50171962  0.24957510  0.50451086  1
  Co  Co116  1  0.62828113  0.37876304  0.62364284  1
  Co  Co117  1  0.87563122  0.62760616  0.37301748  1
  Co  Co118  1  0.37713859  0.12809167  0.87393491  1
  Co  Co119  1  0.74917883  0.74777672  0.00524185  1
  Co  Co120  1  0.12253035  0.87725948  0.62630295  1
  Co  Co121  1  0.37641445  0.61910530  0.12502903  1
  Co  Co122  1  0.25316876  0.74852308  0.24225527  1
  Co  Co123  1  0.25185130  0.49869180  -0.00153218  1
  Co  Co124  1  0.12893167  0.12833200  0.37483573  1
  Co  Co125  1  0.25248456  0.25045760  0.24740721  1
  Co  Co126  1  0.62558857  0.37676290  0.12493051  1
  Co  Co127  1  0.49700325  0.75062593  0.00266910  1
