# generated using pymatgen
data_Fe45Co19
_symmetry_space_group_name_H-M   'P 1'
_cell_length_a   11.41608030
_cell_length_b   11.41525126
_cell_length_c   11.41512128
_cell_angle_alpha   89.99095981
_cell_angle_beta   89.99621351
_cell_angle_gamma   90.00076051
_symmetry_Int_Tables_number   1
_chemical_formula_structural   Fe45Co19
_chemical_formula_sum   'Fe90 Co38'
_cell_volume   1487.58918887
_cell_formula_units_Z   2
loop_
 _symmetry_equiv_pos_site_id
 _symmetry_equiv_pos_as_xyz
  1  'x, y, z'
loop_
 _atom_site_type_symbol
 _atom_site_label
 _atom_site_symmetry_multiplicity
 _atom_site_fract_x
 _atom_site_fract_y
 _atom_site_fract_z
 _atom_site_occupancy
  Fe  Fe0  1  0.87653414  0.37282844  0.62441432  1
  Fe  Fe1  1  0.87814228  0.12390063  0.62809698  1
  Fe  Fe2  1  0.74861470  0.74914621  0.50178237  1
  Fe  Fe3  1  0.37326860  0.37514048  0.87642632  1
  Fe  Fe4  1  0.74921231  0.50060785  0.50482118  1
  Fe  Fe5  1  0.24961858  0.24923069  0.00259236  1
  Fe  Fe6  1  0.62332547  0.12816588  0.62188959  1
  Fe  Fe7  1  0.50395156  -0.00303916  0.00228389  1
  Fe  Fe8  1  0.37560624  0.62702711  0.12404489  1
  Fe  Fe9  1  0.87491287  0.62426165  0.87288810  1
  Fe  Fe10  1  0.62496175  0.62851217  0.12274265  1
  Fe  Fe11  1  0.37184334  0.12456130  0.37250540  1
  Fe  Fe12  1  0.24893679  0.00068310  0.00494552  1
  Fe  Fe13  1  0.49907288  0.00008600  0.49801107  1
  Fe  Fe14  1  -0.00197661  0.74859474  -0.00050359  1
  Fe  Fe15  1  0.12454266  0.37444829  0.62366640  1
  Fe  Fe16  1  0.37421200  0.12265763  0.87634656  1
  Fe  Fe17  1  0.37403721  0.87495819  0.62510881  1
  Fe  Fe18  1  0.74937801  0.25076904  0.74924392  1
  Fe  Fe19  1  0.75243447  0.74815102  0.24912934  1
  Fe  Fe20  1  0.74963043  0.49998929  0.24778293  1
  Fe  Fe21  1  0.24856045  0.00240996  0.50014019  1
  Fe  Fe22  1  0.50052800  0.49859898  0.24943700  1
  Fe  Fe23  1  0.75173584  0.25000761  0.24945614  1
  Fe  Fe24  1  0.62674309  0.37727910  0.87418897  1
  Fe  Fe25  1  -0.00238166  0.00484822  -0.00340728  1
  Fe  Fe26  1  0.00171136  0.75133931  0.75109513  1
  Fe  Fe27  1  0.12471071  0.87929967  0.37432284  1
  Fe  Fe28  1  -0.00010530  0.75280607  0.25037335  1
  Fe  Fe29  1  0.87775178  0.87639894  0.62457555  1
  Fe  Fe30  1  0.87482470  0.87537847  0.37749603  1
  Fe  Fe31  1  0.37309078  0.37352787  0.62295775  1
  Fe  Fe32  1  0.00233296  0.49663901  0.25053517  1
  Fe  Fe33  1  0.37337598  0.87684341  0.37326491  1
  Fe  Fe34  1  0.75157005  0.24763351  0.00109010  1
  Fe  Fe35  1  0.25021588  0.74886885  0.75600260  1
  Fe  Fe36  1  0.87751962  0.62331538  0.37595201  1
  Fe  Fe37  1  0.74875022  0.74990819  0.74946346  1
  Fe  Fe38  1  0.50048392  0.75095731  0.25087380  1
  Fe  Fe39  1  0.62501506  0.12513570  0.87625227  1
  Fe  Fe40  1  0.24658044  0.74832291  0.49869403  1
  Fe  Fe41  1  0.62422299  0.62391754  0.87337009  1
  Fe  Fe42  1  0.49929330  0.25194199  0.25182590  1
  Fe  Fe43  1  0.49860487  0.49858059  0.00091589  1
  Fe  Fe44  1  0.37536382  0.62611262  0.62741003  1
  Fe  Fe45  1  0.49953566  0.25212904  0.75117657  1
  Fe  Fe46  1  0.62547207  0.62430752  0.37552361  1
  Fe  Fe47  1  0.75243067  0.50228197  0.00117415  1
  Fe  Fe48  1  0.12297542  0.12356435  0.62656379  1
  Fe  Fe49  1  0.37949180  0.12692629  0.12582372  1
  Fe  Fe50  1  0.87874300  0.12325734  0.37078609  1
  Fe  Fe51  1  0.24877728  -0.00068019  0.75022279  1
  Fe  Fe52  1  0.24834838  0.49804942  0.24766030  1
  Fe  Fe53  1  0.75124544  0.00207725  0.50120144  1
  Fe  Fe54  1  0.37133074  0.37499959  0.37654565  1
  Fe  Fe55  1  0.24624949  0.50414236  0.50048430  1
  Fe  Fe56  1  0.00165384  0.24642026  0.75600098  1
  Fe  Fe57  1  0.37567538  0.12530635  0.62521178  1
  Fe  Fe58  1  0.12386854  0.62604596  0.12440910  1
  Fe  Fe59  1  0.50139160  -0.00216491  0.75121014  1
  Fe  Fe60  1  -0.00117357  0.50080762  -0.00019412  1
  Fe  Fe61  1  0.74827204  0.00226549  0.00388072  1
  Fe  Fe62  1  0.62689571  0.37301569  0.37857992  1
  Fe  Fe63  1  0.74905465  0.00133241  0.24607194  1
  Fe  Fe64  1  0.50078840  0.49934123  0.50217775  1
  Fe  Fe65  1  0.24603847  0.25208994  0.24905133  1
  Fe  Fe66  1  0.24928308  0.50230047  0.75218570  1
  Fe  Fe67  1  0.62638845  0.87626713  0.37398702  1
  Fe  Fe68  1  0.12629686  0.87616068  0.87875174  1
  Fe  Fe69  1  0.00031547  0.49989202  0.74961601  1
  Fe  Fe70  1  0.87844736  0.37213314  0.12363030  1
  Fe  Fe71  1  0.62423572  0.37244106  0.12406651  1
  Fe  Fe72  1  0.74769392  -0.00065518  0.74732550  1
  Fe  Fe73  1  0.25056016  0.50207717  0.00067783  1
  Fe  Fe74  1  0.50072197  0.75065787  0.49993469  1
  Fe  Fe75  1  0.12396964  0.87505547  0.62515483  1
  Fe  Fe76  1  0.87498203  0.37719323  0.37793498  1
  Fe  Fe77  1  0.87809769  0.62654216  0.62406373  1
  Fe  Fe78  1  0.87366052  0.87500054  0.12278298  1
  Fe  Fe79  1  0.37643579  0.87326748  0.12376655  1
  Fe  Fe80  1  0.12519630  0.37433015  0.87812285  1
  Fe  Fe81  1  0.49964709  0.75408645  0.75370203  1
  Fe  Fe82  1  0.00261800  0.24748533  0.49608142  1
  Fe  Fe83  1  0.37358673  0.62507389  0.37342336  1
  Fe  Fe84  1  0.87470283  0.37418581  0.87505328  1
  Fe  Fe85  1  0.11833782  0.12609699  0.12857249  1
  Fe  Fe86  1  0.87220143  0.87740881  0.87424341  1
  Fe  Fe87  1  0.62505739  0.12592596  0.37435513  1
  Fe  Fe88  1  0.24698071  0.75296154  0.24777919  1
  Fe  Fe89  1  0.25000147  0.24920402  0.75003208  1
  Co  Co90  1  0.49671156  0.25025332  0.49833134  1
  Co  Co91  1  0.00015841  0.00092798  0.49973586  1
  Co  Co92  1  0.00137373  0.25535121  0.25456262  1
  Co  Co93  1  -0.00160144  -0.00540167  0.24868674  1
  Co  Co94  1  0.37902351  0.62306005  0.87532370  1
  Co  Co95  1  0.49963811  0.25204322  -0.00375032  1
  Co  Co96  1  0.86920557  0.12332623  0.87251872  1
  Co  Co97  1  0.37150948  0.88035494  0.87718889  1
  Co  Co98  1  0.12779249  0.37638376  0.37889020  1
  Co  Co99  1  0.00260720  0.50211688  0.50139619  1
  Co  Co100  1  0.62996801  0.87482486  0.87640943  1
  Co  Co101  1  0.50058737  -0.00088976  0.24891052  1
  Co  Co102  1  0.12229319  0.62407357  0.87628205  1
  Co  Co103  1  0.49918688  0.49528543  0.74815210  1
  Co  Co104  1  0.13112280  0.12416404  0.87590073  1
  Co  Co105  1  0.12389954  0.62507977  0.37050427  1
  Co  Co106  1  0.62652570  0.37135439  0.62273819  1
  Co  Co107  1  0.62734042  0.86981064  0.12647055  1
  Co  Co108  1  0.75546228  0.24693854  0.49919080  1
  Co  Co109  1  0.00323989  0.75031995  0.49846230  1
  Co  Co110  1  0.49904676  0.75307955  -0.00418010  1
  Co  Co111  1  0.37572254  0.37386124  0.12487598  1
  Co  Co112  1  0.12459912  0.12050306  0.36949276  1
  Co  Co113  1  0.87871140  0.12742344  0.12771106  1
  Co  Co114  1  0.87776160  0.62393214  0.12795670  1
  Co  Co115  1  0.00219175  0.00034462  0.75480748  1
  Co  Co116  1  0.25020196  -0.00155667  0.24453189  1
  Co  Co117  1  0.75231320  0.49984252  0.74690013  1
  Co  Co118  1  0.75324727  0.74662433  -0.00090919  1
  Co  Co119  1  0.24661472  0.24533551  0.50029826  1
  Co  Co120  1  0.12158361  0.87495289  0.12048330  1
  Co  Co121  1  0.62422785  0.87576676  0.62309394  1
  Co  Co122  1  -0.00141062  0.24519677  -0.00555431  1
  Co  Co123  1  0.62205577  0.62591070  0.62857377  1
  Co  Co124  1  0.12173544  0.37409788  0.12033512  1
  Co  Co125  1  0.12514171  0.62637527  0.62825078  1
  Co  Co126  1  0.25080226  0.74815894  -0.00158918  1
  Co  Co127  1  0.62216699  0.12941477  0.12570624  1
