# generated using pymatgen
data_Fe45Co19
_symmetry_space_group_name_H-M   'P 1'
_cell_length_a   11.41600920
_cell_length_b   11.41523765
_cell_length_c   11.41626514
_cell_angle_alpha   89.99466229
_cell_angle_beta   89.99565558
_cell_angle_gamma   90.00306221
_symmetry_Int_Tables_number   1
_chemical_formula_structural   Fe45Co19
_chemical_formula_sum   'Fe90 Co38'
_cell_volume   1487.72722447
_cell_formula_units_Z   2
loop_
 _symmetry_equiv_pos_site_id
 _symmetry_equiv_pos_as_xyz
  1  'x, y, z'
loop_
 _atom_site_type_symbol
 _atom_site_label
 _atom_site_symmetry_multiplicity
 _atom_site_fract_x
 _atom_site_fract_y
 _atom_site_fract_z
 _atom_site_occupancy
  Fe  Fe0  1  0.50071133  -0.00155246  0.25093682  1
  Fe  Fe1  1  0.24559949  0.25409162  -0.00249411  1
  Fe  Fe2  1  0.49839902  -0.00136398  0.00021512  1
  Fe  Fe3  1  0.12487592  0.12508736  0.12326260  1
  Fe  Fe4  1  0.75197165  0.50069889  0.24978654  1
  Fe  Fe5  1  0.75337855  0.50107115  0.74771916  1
  Fe  Fe6  1  0.24960901  0.25153965  0.75110019  1
  Fe  Fe7  1  0.37371766  0.87460367  0.37530947  1
  Fe  Fe8  1  0.75104436  0.50123748  -0.00037801  1
  Fe  Fe9  1  0.25200183  0.49933837  0.75040838  1
  Fe  Fe10  1  0.62548965  0.62430530  0.87405112  1
  Fe  Fe11  1  0.74905627  0.75102675  0.50031373  1
  Fe  Fe12  1  0.00485455  0.74982887  0.49691703  1
  Fe  Fe13  1  0.00099685  0.25225422  0.25153202  1
  Fe  Fe14  1  0.75392169  0.49710868  0.50352818  1
  Fe  Fe15  1  0.49915011  0.74825573  0.74664062  1
  Fe  Fe16  1  0.37480990  0.62462835  0.87522639  1
  Fe  Fe17  1  0.87238627  0.12695020  0.37285342  1
  Fe  Fe18  1  0.37450868  0.87325136  0.87419745  1
  Fe  Fe19  1  0.74854962  -0.00436066  0.24976041  1
  Fe  Fe20  1  0.62573304  0.62411100  0.37578773  1
  Fe  Fe21  1  0.49762387  0.74926719  0.50107143  1
  Fe  Fe22  1  0.00111742  0.25335574  0.49681453  1
  Fe  Fe23  1  0.12705553  0.62373050  0.87634994  1
  Fe  Fe24  1  0.37204324  0.12702951  0.37482446  1
  Fe  Fe25  1  0.49774526  0.50015973  0.25148906  1
  Fe  Fe26  1  0.24822637  -0.00263892  0.74907655  1
  Fe  Fe27  1  0.87735947  0.87312384  0.62479561  1
  Fe  Fe28  1  0.00017594  0.74752222  0.75037638  1
  Fe  Fe29  1  0.75155916  0.25171604  0.50186609  1
  Fe  Fe30  1  0.62737788  0.12418284  0.37657320  1
  Fe  Fe31  1  0.87845101  0.37646385  0.87513931  1
  Fe  Fe32  1  0.49937417  0.25079619  0.50184585  1
  Fe  Fe33  1  0.74994987  0.25029879  0.00052800  1
  Fe  Fe34  1  0.00344932  0.24817793  0.75384868  1
  Fe  Fe35  1  0.62355704  0.12214240  0.62390315  1
  Fe  Fe36  1  0.24789362  0.25175227  0.24936053  1
  Fe  Fe37  1  0.12761479  0.62238477  0.12668444  1
  Fe  Fe38  1  0.24894848  -0.00137768  0.24835777  1
  Fe  Fe39  1  0.50115874  0.24938829  0.25030011  1
  Fe  Fe40  1  0.37308916  0.12579150  0.87625113  1
  Fe  Fe41  1  0.62275691  0.37739247  0.87572937  1
  Fe  Fe42  1  0.37710941  0.37471585  0.12282458  1
  Fe  Fe43  1  -0.00135240  0.00005380  0.49896133  1
  Fe  Fe44  1  0.75071019  0.75126140  0.00123845  1
  Fe  Fe45  1  0.87422489  0.87427322  0.37443236  1
  Fe  Fe46  1  0.12677244  0.12529961  0.37572483  1
  Fe  Fe47  1  0.87618308  0.37407331  0.12505674  1
  Fe  Fe48  1  0.62443257  0.12498205  0.87532148  1
  Fe  Fe49  1  0.37271561  0.62551407  0.12524690  1
  Fe  Fe50  1  0.74859637  0.25117751  0.74928946  1
  Fe  Fe51  1  0.62217965  0.61990727  0.62381825  1
  Fe  Fe52  1  0.62672778  0.37551495  0.37549081  1
  Fe  Fe53  1  0.00094291  0.74859821  0.25176465  1
  Fe  Fe54  1  0.00206526  0.74847828  -0.00026705  1
  Fe  Fe55  1  0.62107775  0.87965039  0.62195282  1
  Fe  Fe56  1  0.25119489  0.75123520  0.74577965  1
  Fe  Fe57  1  0.37797648  0.37652028  0.87736024  1
  Fe  Fe58  1  0.62318141  0.37603228  0.12448191  1
  Fe  Fe59  1  0.62490159  0.12443397  0.12466363  1
  Fe  Fe60  1  0.74876465  0.74952522  0.74676542  1
  Fe  Fe61  1  0.62393130  0.87423800  0.87516033  1
  Fe  Fe62  1  -0.00293877  0.50434501  0.74731539  1
  Fe  Fe63  1  0.87467895  0.62639706  0.12515674  1
  Fe  Fe64  1  0.75110065  -0.00235891  0.00072219  1
  Fe  Fe65  1  0.00200206  -0.00186823  -0.00067671  1
  Fe  Fe66  1  0.24904569  0.49998156  0.49883906  1
  Fe  Fe67  1  0.00123013  -0.00102708  0.24975926  1
  Fe  Fe68  1  0.24814871  -0.00511371  0.00054692  1
  Fe  Fe69  1  0.37554654  0.12357616  0.62540912  1
  Fe  Fe70  1  0.12437692  0.12432850  0.62448660  1
  Fe  Fe71  1  0.24975369  -0.00268773  0.50166913  1
  Fe  Fe72  1  0.49969505  0.25150210  0.74835124  1
  Fe  Fe73  1  0.49866646  0.74911138  0.00138098  1
  Fe  Fe74  1  0.75054008  -0.00068311  0.74850752  1
  Fe  Fe75  1  0.87620826  0.12698055  0.62588474  1
  Fe  Fe76  1  0.87565093  0.12625450  0.12516840  1
  Fe  Fe77  1  0.12611059  0.62610913  0.62180057  1
  Fe  Fe78  1  0.87660760  0.62181281  0.37771407  1
  Fe  Fe79  1  0.12538713  0.37469553  0.62562226  1
  Fe  Fe80  1  0.50155269  0.75181483  0.25089615  1
  Fe  Fe81  1  0.37384275  0.12614897  0.12368075  1
  Fe  Fe82  1  0.37216985  0.37243912  0.37666164  1
  Fe  Fe83  1  0.62553632  0.62680848  0.12693132  1
  Fe  Fe84  1  0.24681504  0.75110440  0.25156425  1
  Fe  Fe85  1  0.00109914  -0.00034151  0.75182099  1
  Fe  Fe86  1  0.37209066  0.62604659  0.37632594  1
  Fe  Fe87  1  0.87618768  0.12612195  0.87633150  1
  Fe  Fe88  1  0.12377166  0.37932525  0.12543385  1
  Fe  Fe89  1  0.87595000  0.87238103  0.87452110  1
  Co  Co90  1  0.12668414  0.37794941  0.37407811  1
  Co  Co91  1  0.25078495  0.49903749  -0.00058841  1
  Co  Co92  1  0.12177129  0.87480728  0.62522277  1
  Co  Co93  1  0.12482452  0.87217026  0.87376729  1
  Co  Co94  1  0.37422099  0.37754568  0.62306180  1
  Co  Co95  1  0.74858612  0.25078266  0.24855179  1
  Co  Co96  1  0.49741482  0.49901515  0.49603140  1
  Co  Co97  1  0.00099769  0.49727519  0.50253917  1
  Co  Co98  1  0.37794358  0.87692972  0.62517162  1
  Co  Co99  1  0.49649172  0.00166446  0.49544068  1
  Co  Co100  1  0.50004541  0.50460448  0.00139084  1
  Co  Co101  1  0.24910113  0.75229169  0.50116394  1
  Co  Co102  1  0.00297922  0.25072792  -0.00076652  1
  Co  Co103  1  0.49766155  0.50020873  0.75098160  1
  Co  Co104  1  0.50127902  0.24796531  -0.00025270  1
  Co  Co105  1  0.62355328  0.37857901  0.62480885  1
  Co  Co106  1  0.87284346  0.62664111  0.87538685  1
  Co  Co107  1  0.12747863  0.12292588  0.87639275  1
  Co  Co108  1  -0.00221919  0.50012275  0.24993986  1
  Co  Co109  1  0.12575430  0.62072395  0.37385209  1
  Co  Co110  1  0.25428738  0.49864629  0.25023444  1
  Co  Co111  1  0.62472493  0.87421368  0.37787764  1
  Co  Co112  1  0.62433904  0.87297187  0.12462225  1
  Co  Co113  1  0.75390732  -0.00017934  0.50122761  1
  Co  Co114  1  0.12412060  0.87299351  0.12620186  1
  Co  Co115  1  0.87681326  0.87361028  0.12562314  1
  Co  Co116  1  0.49993974  0.00092558  0.75347784  1
  Co  Co117  1  0.24950836  0.75033931  0.00045949  1
  Co  Co118  1  0.37430657  0.62202381  0.62267549  1
  Co  Co119  1  0.87845206  0.37145775  0.62823206  1
  Co  Co120  1  0.12096054  0.38078781  0.87271675  1
  Co  Co121  1  0.87379821  0.37618090  0.37387011  1
  Co  Co122  1  0.37462394  0.87379274  0.12694980  1
  Co  Co123  1  0.87616445  0.62827740  0.62090645  1
  Co  Co124  1  0.24838723  0.24957603  0.50229915  1
  Co  Co125  1  0.12569210  0.87738634  0.37422458  1
  Co  Co126  1  0.75173221  0.75015491  0.25253436  1
  Co  Co127  1  -0.00040955  0.50341247  0.00094158  1
