# generated using pymatgen
data_Fe45Co19
_symmetry_space_group_name_H-M   'P 1'
_cell_length_a   11.41493105
_cell_length_b   11.41540236
_cell_length_c   11.41625771
_cell_angle_alpha   89.99800111
_cell_angle_beta   90.00435824
_cell_angle_gamma   89.99767272
_symmetry_Int_Tables_number   1
_chemical_formula_structural   Fe45Co19
_chemical_formula_sum   'Fe90 Co38'
_cell_volume   1487.60722286
_cell_formula_units_Z   2
loop_
 _symmetry_equiv_pos_site_id
 _symmetry_equiv_pos_as_xyz
  1  'x, y, z'
loop_
 _atom_site_type_symbol
 _atom_site_label
 _atom_site_symmetry_multiplicity
 _atom_site_fract_x
 _atom_site_fract_y
 _atom_site_fract_z
 _atom_site_occupancy
  Fe  Fe0  1  0.74710083  0.74741954  0.50234772  1
  Fe  Fe1  1  0.62763322  0.37345478  0.37682108  1
  Fe  Fe2  1  0.24969781  0.74911619  0.75140582  1
  Fe  Fe3  1  0.25128064  0.74797412  0.24919848  1
  Fe  Fe4  1  0.37711217  0.62442603  0.62444218  1
  Fe  Fe5  1  0.12481092  0.62439596  0.12588543  1
  Fe  Fe6  1  0.87541465  0.87400597  0.87571968  1
  Fe  Fe7  1  0.62425005  0.87372971  0.37514946  1
  Fe  Fe8  1  0.62542526  0.87387091  0.87268798  1
  Fe  Fe9  1  0.62320405  0.37806093  0.12416236  1
  Fe  Fe10  1  0.74742129  0.74815158  -0.00066344  1
  Fe  Fe11  1  0.00120666  0.74931815  0.00126807  1
  Fe  Fe12  1  -0.00125484  0.74823657  0.75009840  1
  Fe  Fe13  1  0.87611185  0.12655046  0.87602583  1
  Fe  Fe14  1  0.37436527  0.12818323  0.12564905  1
  Fe  Fe15  1  0.87345470  0.62308373  0.12151183  1
  Fe  Fe16  1  0.37315447  0.87448645  0.62484855  1
  Fe  Fe17  1  0.49854970  0.49601189  0.74919891  1
  Fe  Fe18  1  0.49696381  0.00026509  0.75046169  1
  Fe  Fe19  1  0.12389311  0.62328877  0.37396587  1
  Fe  Fe20  1  0.12556435  0.87523043  0.37422890  1
  Fe  Fe21  1  0.37762922  0.37456909  0.12524978  1
  Fe  Fe22  1  0.62316615  0.62646682  0.87353937  1
  Fe  Fe23  1  0.75160584  0.00064401  0.75095889  1
  Fe  Fe24  1  0.62525678  0.12615109  0.37595966  1
  Fe  Fe25  1  0.37749118  0.37320189  0.37396141  1
  Fe  Fe26  1  0.49944079  -0.00001974  0.50174871  1
  Fe  Fe27  1  0.00099502  0.74951206  0.50052145  1
  Fe  Fe28  1  0.24813505  0.00427196  0.25111194  1
  Fe  Fe29  1  0.62460771  0.87183477  0.62833691  1
  Fe  Fe30  1  0.74863188  0.00068769  0.50018581  1
  Fe  Fe31  1  0.87172985  0.87821156  0.12434938  1
  Fe  Fe32  1  0.00077683  0.00143148  0.74963089  1
  Fe  Fe33  1  0.12529669  0.12517296  0.87603298  1
  Fe  Fe34  1  0.25028118  0.25135272  0.75104658  1
  Fe  Fe35  1  0.12514625  0.37315565  0.12585616  1
  Fe  Fe36  1  0.87412120  0.87384324  0.37558696  1
  Fe  Fe37  1  -0.00078293  0.49869869  0.24895744  1
  Fe  Fe38  1  0.12528386  0.62276734  0.62505338  1
  Fe  Fe39  1  0.49733422  0.25260255  0.74857194  1
  Fe  Fe40  1  0.62729149  0.87763961  0.12422621  1
  Fe  Fe41  1  0.24955182  0.74924342  0.49923478  1
  Fe  Fe42  1  0.37531246  0.87451920  0.37528245  1
  Fe  Fe43  1  0.74903036  0.50007988  0.24969661  1
  Fe  Fe44  1  0.75554847  0.24967666  0.74812725  1
  Fe  Fe45  1  -0.00022710  0.00266664  0.24850518  1
  Fe  Fe46  1  -0.00138064  0.00378166  0.00250885  1
  Fe  Fe47  1  0.38128606  0.62398871  0.12298524  1
  Fe  Fe48  1  0.74885593  0.24977601  0.24959816  1
  Fe  Fe49  1  -0.00091866  0.75043684  0.24858228  1
  Fe  Fe50  1  0.50106452  0.00062802  0.24960009  1
  Fe  Fe51  1  0.50411571  0.49881107  0.50225385  1
  Fe  Fe52  1  0.37295985  0.12639534  0.62540476  1
  Fe  Fe53  1  0.62272739  0.62670399  0.37277755  1
  Fe  Fe54  1  0.49949004  0.00111750  -0.00169891  1
  Fe  Fe55  1  0.50023528  0.25054097  -0.00084700  1
  Fe  Fe56  1  0.24759829  0.25265884  0.49780121  1
  Fe  Fe57  1  0.37334615  0.87408321  0.12272147  1
  Fe  Fe58  1  0.62405075  0.12629323  0.87347191  1
  Fe  Fe59  1  0.37836416  0.62586672  0.37510272  1
  Fe  Fe60  1  -0.00115834  0.49617690  0.50093698  1
  Fe  Fe61  1  0.50265286  0.25145835  0.50272206  1
  Fe  Fe62  1  0.75163935  0.25173387  -0.00100556  1
  Fe  Fe63  1  0.87540359  0.62387814  0.37506991  1
  Fe  Fe64  1  0.87508555  0.37516994  0.12258755  1
  Fe  Fe65  1  0.00081057  0.24868463  0.24879920  1
  Fe  Fe66  1  0.12268126  0.62317306  0.87501427  1
  Fe  Fe67  1  0.62553204  0.37373888  0.87262936  1
  Fe  Fe68  1  0.00055317  -0.00069643  0.49962263  1
  Fe  Fe69  1  0.11856956  0.37459179  0.87210497  1
  Fe  Fe70  1  0.62633585  0.12636446  0.62675295  1
  Fe  Fe71  1  0.24890645  0.49714856  0.49929452  1
  Fe  Fe72  1  0.62822250  0.12255394  0.12345491  1
  Fe  Fe73  1  0.37645439  0.62366884  0.87759690  1
  Fe  Fe74  1  0.12721336  0.87611321  0.87763986  1
  Fe  Fe75  1  0.25018600  0.25068020  -0.00195481  1
  Fe  Fe76  1  0.74918188  0.74941191  0.24814133  1
  Fe  Fe77  1  0.75366161  0.50142536  0.75324705  1
  Fe  Fe78  1  0.12708404  0.87588680  0.62511473  1
  Fe  Fe79  1  0.87444101  0.12631323  0.37501889  1
  Fe  Fe80  1  0.87423787  0.87503812  0.62505402  1
  Fe  Fe81  1  0.24866378  0.49864115  -0.00010502  1
  Fe  Fe82  1  0.25104759  0.49726756  0.74982912  1
  Fe  Fe83  1  0.12744018  0.87628994  0.12354340  1
  Fe  Fe84  1  0.87360969  0.62398882  0.62349364  1
  Fe  Fe85  1  0.25227392  0.49849321  0.25076628  1
  Fe  Fe86  1  -0.00337606  0.25424237  0.50280925  1
  Fe  Fe87  1  0.37599839  0.12708521  0.37427241  1
  Fe  Fe88  1  0.12593041  0.12482848  0.62306338  1
  Fe  Fe89  1  0.37196258  0.87515093  0.87754396  1
  Co  Co90  1  0.25177170  0.00378973  0.00048965  1
  Co  Co91  1  0.37599228  0.12636167  0.87414651  1
  Co  Co92  1  0.50071190  0.75023146  0.50157879  1
  Co  Co93  1  0.75263654  0.24911807  0.50199312  1
  Co  Co94  1  0.62311928  0.62534872  0.63061773  1
  Co  Co95  1  0.50049349  0.75253329  0.24780119  1
  Co  Co96  1  0.88016838  0.37434790  0.87519900  1
  Co  Co97  1  0.12284297  0.37616303  0.37357072  1
  Co  Co98  1  0.24921622  0.74580276  0.00039709  1
  Co  Co99  1  0.12237253  0.12669783  0.37791060  1
  Co  Co100  1  0.87018334  0.12466008  0.12550101  1
  Co  Co101  1  0.25096490  0.00083125  0.49855769  1
  Co  Co102  1  0.62224833  0.62260124  0.12505603  1
  Co  Co103  1  0.37399913  0.37433649  0.62302172  1
  Co  Co104  1  0.75048463  0.00159189  -0.00561318  1
  Co  Co105  1  0.50068055  0.49806518  0.25278019  1
  Co  Co106  1  0.50283001  0.49812101  -0.00348497  1
  Co  Co107  1  0.00154841  0.49903785  0.00141247  1
  Co  Co108  1  0.63011327  0.37489642  0.62697457  1
  Co  Co109  1  0.74732857  0.50262960  0.49897086  1
  Co  Co110  1  -0.00104233  0.24784707  0.00202952  1
  Co  Co111  1  0.12776148  0.12664973  0.12361215  1
  Co  Co112  1  0.24997942  0.00120119  0.75033911  1
  Co  Co113  1  0.87708750  0.62433070  0.88024640  1
  Co  Co114  1  0.87319612  0.37518583  0.37354256  1
  Co  Co115  1  0.12433592  0.37550451  0.62823799  1
  Co  Co116  1  0.24826878  0.25052701  0.25226749  1
  Co  Co117  1  0.87465303  0.12103187  0.62313180  1
  Co  Co118  1  0.75461879  0.74813955  0.75073149  1
  Co  Co119  1  0.37548041  0.37533740  0.87700910  1
  Co  Co120  1  -0.00269816  0.24714965  0.74580048  1
  Co  Co121  1  0.49549867  0.75105182  0.75152131  1
  Co  Co122  1  0.50212873  0.75167127  -0.00026854  1
  Co  Co123  1  0.74974544  0.00091369  0.25431728  1
  Co  Co124  1  0.74812451  0.49837123  -0.00260976  1
  Co  Co125  1  -0.00354984  0.50247034  0.74834977  1
  Co  Co126  1  0.87149319  0.37850052  0.62636275  1
  Co  Co127  1  0.50415782  0.24972591  0.24903209  1
