# generated using pymatgen
data_Fe45Co19
_symmetry_space_group_name_H-M   'P 1'
_cell_length_a   11.41571385
_cell_length_b   11.41646730
_cell_length_c   11.41558603
_cell_angle_alpha   90.00410020
_cell_angle_beta   89.99877251
_cell_angle_gamma   89.99982241
_symmetry_Int_Tables_number   1
_chemical_formula_structural   Fe45Co19
_chemical_formula_sum   'Fe90 Co38'
_cell_volume   1487.76048960
_cell_formula_units_Z   2
loop_
 _symmetry_equiv_pos_site_id
 _symmetry_equiv_pos_as_xyz
  1  'x, y, z'
loop_
 _atom_site_type_symbol
 _atom_site_label
 _atom_site_symmetry_multiplicity
 _atom_site_fract_x
 _atom_site_fract_y
 _atom_site_fract_z
 _atom_site_occupancy
  Fe  Fe0  1  0.75199862  0.74889298  0.50182498  1
  Fe  Fe1  1  0.62783320  0.62413616  0.87733773  1
  Fe  Fe2  1  0.74993588  0.24967619  0.00218371  1
  Fe  Fe3  1  -0.00096342  0.25184767  0.74638576  1
  Fe  Fe4  1  0.50020360  0.24854998  0.50137094  1
  Fe  Fe5  1  0.00148659  0.00065058  0.25211492  1
  Fe  Fe6  1  -0.00044596  0.75156029  0.00001002  1
  Fe  Fe7  1  0.37594460  0.37591863  0.12556629  1
  Fe  Fe8  1  0.00167702  0.25209193  0.50041103  1
  Fe  Fe9  1  0.87301369  0.62445548  0.12449493  1
  Fe  Fe10  1  0.62430465  0.37648587  0.62237330  1
  Fe  Fe11  1  0.62380218  0.87412757  0.37520932  1
  Fe  Fe12  1  0.62619659  0.12405768  0.62619078  1
  Fe  Fe13  1  0.37590870  0.62500017  0.12260974  1
  Fe  Fe14  1  0.87305490  0.12362280  0.12750882  1
  Fe  Fe15  1  -0.00582071  0.75040208  0.74784616  1
  Fe  Fe16  1  0.49981339  0.24917866  0.74955441  1
  Fe  Fe17  1  0.12502281  0.87413044  0.87112999  1
  Fe  Fe18  1  0.12517269  0.62605191  0.37678351  1
  Fe  Fe19  1  0.25380315  0.75316912  -0.00412215  1
  Fe  Fe20  1  0.87385779  0.37227625  0.37128800  1
  Fe  Fe21  1  0.00194819  -0.00027743  -0.00083980  1
  Fe  Fe22  1  0.24890180  0.25441918  0.50512907  1
  Fe  Fe23  1  0.75319799  0.49842317  0.75230382  1
  Fe  Fe24  1  0.25031118  0.49858713  -0.00051394  1
  Fe  Fe25  1  0.24939793  -0.00418699  0.50616515  1
  Fe  Fe26  1  0.12556115  0.87452903  0.37704759  1
  Fe  Fe27  1  0.00120913  0.75007779  0.24917220  1
  Fe  Fe28  1  0.12806760  0.12647883  0.87200472  1
  Fe  Fe29  1  0.49977534  -0.00110872  0.50312130  1
  Fe  Fe30  1  0.12543703  0.62627776  0.87390173  1
  Fe  Fe31  1  0.12701326  0.62648780  0.12327072  1
  Fe  Fe32  1  0.74854307  0.24938071  0.49875988  1
  Fe  Fe33  1  0.49766987  -0.00068588  0.25077070  1
  Fe  Fe34  1  0.62532818  0.37414191  0.87620224  1
  Fe  Fe35  1  0.50291089  0.50185567  0.25340633  1
  Fe  Fe36  1  0.50030637  0.50110674  0.75096899  1
  Fe  Fe37  1  0.00108989  0.24888841  0.00209371  1
  Fe  Fe38  1  0.25076781  0.49882424  0.74927664  1
  Fe  Fe39  1  0.62637685  0.87623338  0.63012988  1
  Fe  Fe40  1  0.62597241  0.12567553  0.87609162  1
  Fe  Fe41  1  0.37284454  0.12332017  0.37720319  1
  Fe  Fe42  1  0.87479289  0.87499198  0.37528578  1
  Fe  Fe43  1  0.62751437  0.62331507  0.62456632  1
  Fe  Fe44  1  0.37357988  0.12474508  0.62737865  1
  Fe  Fe45  1  0.49790282  0.75128506  -0.00442808  1
  Fe  Fe46  1  0.74991181  0.50168816  0.49376787  1
  Fe  Fe47  1  0.37190292  0.12128254  0.12303297  1
  Fe  Fe48  1  0.49914874  0.24907902  0.00170271  1
  Fe  Fe49  1  0.62491434  0.12379007  0.37286615  1
  Fe  Fe50  1  -0.00107492  0.49821719  0.49803161  1
  Fe  Fe51  1  0.49786136  0.75165166  0.24977293  1
  Fe  Fe52  1  0.37021992  0.12405906  0.87297152  1
  Fe  Fe53  1  0.62390663  0.87666423  0.12468788  1
  Fe  Fe54  1  -0.00479388  0.49846817  0.75164302  1
  Fe  Fe55  1  0.74974549  0.74905203  0.25012008  1
  Fe  Fe56  1  0.87576791  0.12555145  0.87511646  1
  Fe  Fe57  1  0.37648784  0.62708908  0.37679222  1
  Fe  Fe58  1  -0.00314481  0.75045776  0.50241982  1
  Fe  Fe59  1  0.24965330  0.50102791  0.25165666  1
  Fe  Fe60  1  0.37550959  0.37435960  0.87492262  1
  Fe  Fe61  1  -0.00119436  0.49956230  -0.00112980  1
  Fe  Fe62  1  0.12450891  0.37274210  0.87389401  1
  Fe  Fe63  1  0.00130943  0.50116071  0.25135328  1
  Fe  Fe64  1  0.87588661  0.12399621  0.62265723  1
  Fe  Fe65  1  -0.00104085  -0.00065686  0.74743588  1
  Fe  Fe66  1  0.24949433  0.25067164  0.25033265  1
  Fe  Fe67  1  0.37777433  0.37469256  0.37676045  1
  Fe  Fe68  1  0.49943655  0.75122318  0.50375567  1
  Fe  Fe69  1  0.25142572  0.49835177  0.50149260  1
  Fe  Fe70  1  0.62615056  0.62380328  0.12264832  1
  Fe  Fe71  1  0.87400407  0.12578363  0.37260354  1
  Fe  Fe72  1  0.37624166  0.62552065  0.62771412  1
  Fe  Fe73  1  0.87273688  0.62772050  0.87784816  1
  Fe  Fe74  1  0.12682882  0.12515034  0.37739198  1
  Fe  Fe75  1  0.62727005  0.87540385  0.86972308  1
  Fe  Fe76  1  0.12882232  0.12330298  0.12478189  1
  Fe  Fe77  1  0.62631878  0.37801589  0.12489632  1
  Fe  Fe78  1  0.12823966  0.87565227  0.12540868  1
  Fe  Fe79  1  0.87468210  0.87608919  0.12406625  1
  Fe  Fe80  1  0.75042193  -0.00132353  -0.00158023  1
  Fe  Fe81  1  0.75078721  0.25010626  0.74850058  1
  Fe  Fe82  1  0.87330351  0.37556659  0.12761659  1
  Fe  Fe83  1  0.75006197  0.00020276  0.49935577  1
  Fe  Fe84  1  0.50213932  0.24727495  0.24861646  1
  Fe  Fe85  1  0.49728625  -0.00172832  -0.00365247  1
  Fe  Fe86  1  0.25235617  0.75187073  0.25128271  1
  Fe  Fe87  1  0.12476227  0.37480042  0.12558534  1
  Fe  Fe88  1  0.12229235  0.62407393  0.62576943  1
  Fe  Fe89  1  0.25189698  0.75278692  0.50448753  1
  Co  Co90  1  0.24951618  -0.00395363  -0.00443230  1
  Co  Co91  1  0.00272351  0.24796782  0.24931649  1
  Co  Co92  1  0.74862133  0.75242462  0.00027899  1
  Co  Co93  1  0.24966775  -0.00136179  0.25273012  1
  Co  Co94  1  0.87224719  0.37565962  0.62197407  1
  Co  Co95  1  0.87523118  0.37008943  0.87642935  1
  Co  Co96  1  0.12232483  0.37829424  0.62702081  1
  Co  Co97  1  0.12604605  0.37514861  0.37491676  1
  Co  Co98  1  0.62206900  0.63060394  0.37659317  1
  Co  Co99  1  0.50194649  0.00522734  0.75009153  1
  Co  Co100  1  0.37327401  0.62366723  0.87503965  1
  Co  Co101  1  0.49957174  0.50285953  0.49966413  1
  Co  Co102  1  0.50329070  0.74456387  0.75211803  1
  Co  Co103  1  0.24996165  0.25168310  0.00054418  1
  Co  Co104  1  0.62481417  0.11977505  0.12345175  1
  Co  Co105  1  0.25050228  0.25273057  0.74641659  1
  Co  Co106  1  0.75270038  0.49845952  -0.00213358  1
  Co  Co107  1  0.12377902  0.12625630  0.62452066  1
  Co  Co108  1  0.62199995  0.37257967  0.37722956  1
  Co  Co109  1  0.38002453  0.87466135  0.63249183  1
  Co  Co110  1  0.37989742  0.37574408  0.62530543  1
  Co  Co111  1  0.49954170  0.49984367  -0.00117709  1
  Co  Co112  1  0.75250194  0.74833083  0.74816277  1
  Co  Co113  1  0.87398613  0.87557480  0.87490819  1
  Co  Co114  1  0.37438048  0.87682567  0.12462787  1
  Co  Co115  1  0.74964750  -0.00205728  0.25129962  1
  Co  Co116  1  0.75208160  0.00378136  0.75005700  1
  Co  Co117  1  0.24644691  -0.00192608  0.74532967  1
  Co  Co118  1  -0.00023528  0.00025341  0.49856142  1
  Co  Co119  1  0.37612365  0.87612466  0.37762304  1
  Co  Co120  1  0.74472772  0.24913838  0.24852033  1
  Co  Co121  1  0.12031489  0.87211322  0.62552927  1
  Co  Co122  1  0.87273546  0.87842830  0.62479377  1
  Co  Co123  1  0.74727605  0.50278200  0.25513978  1
  Co  Co124  1  0.87802046  0.62736193  0.37391921  1
  Co  Co125  1  0.87451885  0.62116202  0.62375907  1
  Co  Co126  1  0.24910441  0.74965344  0.74791646  1
  Co  Co127  1  0.37617799  0.87620628  0.86580135  1
