# generated using pymatgen
data_Fe45Co19
_symmetry_space_group_name_H-M   'P 1'
_cell_length_a   11.41714805
_cell_length_b   11.41649225
_cell_length_c   11.41624501
_cell_angle_alpha   89.99897477
_cell_angle_beta   90.01196384
_cell_angle_gamma   90.00623341
_symmetry_Int_Tables_number   1
_chemical_formula_structural   Fe45Co19
_chemical_formula_sum   'Fe90 Co38'
_cell_volume   1488.03651282
_cell_formula_units_Z   2
loop_
 _symmetry_equiv_pos_site_id
 _symmetry_equiv_pos_as_xyz
  1  'x, y, z'
loop_
 _atom_site_type_symbol
 _atom_site_label
 _atom_site_symmetry_multiplicity
 _atom_site_fract_x
 _atom_site_fract_y
 _atom_site_fract_z
 _atom_site_occupancy
  Fe  Fe0  1  0.62668887  0.37427663  0.12343118  1
  Fe  Fe1  1  0.25405683  0.75199129  0.00141687  1
  Fe  Fe2  1  0.00306881  0.24967692  0.24853995  1
  Fe  Fe3  1  0.24927593  0.00169007  0.25216440  1
  Fe  Fe4  1  0.12891542  0.37905139  0.62358493  1
  Fe  Fe5  1  0.74822284  0.00334761  0.25472604  1
  Fe  Fe6  1  -0.00219333  0.25198506  0.50298325  1
  Fe  Fe7  1  0.37651888  0.62431178  0.12901158  1
  Fe  Fe8  1  0.49836506  0.75151765  0.00152278  1
  Fe  Fe9  1  0.74773688  0.74990318  0.25230252  1
  Fe  Fe10  1  0.25453723  0.25436201  0.49849869  1
  Fe  Fe11  1  0.37589580  0.12492765  0.12570613  1
  Fe  Fe12  1  0.37396202  0.87346915  0.62683712  1
  Fe  Fe13  1  0.74555031  0.49891559  0.25147116  1
  Fe  Fe14  1  -0.00091997  0.50024001  0.00016297  1
  Fe  Fe15  1  0.24686894  0.74508437  0.74831833  1
  Fe  Fe16  1  0.50261941  0.74920874  0.74802403  1
  Fe  Fe17  1  0.87525148  0.37822081  0.87356205  1
  Fe  Fe18  1  0.25026886  0.00084826  0.75224606  1
  Fe  Fe19  1  0.37792011  0.87475454  0.37304400  1
  Fe  Fe20  1  0.12627929  0.12325476  0.12314038  1
  Fe  Fe21  1  0.25145250  0.49924544  -0.00035654  1
  Fe  Fe22  1  0.87417790  0.62497354  0.37375889  1
  Fe  Fe23  1  0.12725706  0.37488731  0.12494371  1
  Fe  Fe24  1  0.62033056  0.62441123  0.37867921  1
  Fe  Fe25  1  0.12492573  0.62514927  0.37622523  1
  Fe  Fe26  1  0.12683894  0.87342148  0.62184367  1
  Fe  Fe27  1  0.49802659  0.00134098  -0.00432801  1
  Fe  Fe28  1  0.62084130  0.62300863  0.62109041  1
  Fe  Fe29  1  0.62374877  0.87370149  0.37960875  1
  Fe  Fe30  1  0.50181590  0.25345608  0.74508484  1
  Fe  Fe31  1  0.12544536  0.87408165  0.12833183  1
  Fe  Fe32  1  0.74785983  0.00059333  0.74898453  1
  Fe  Fe33  1  0.75423015  0.00325037  0.49761778  1
  Fe  Fe34  1  0.12758153  0.37675954  0.37514340  1
  Fe  Fe35  1  0.12322529  0.87274764  0.37331587  1
  Fe  Fe36  1  0.50056597  0.24891364  0.00023377  1
  Fe  Fe37  1  0.12347501  0.12560201  0.37730774  1
  Fe  Fe38  1  0.62522292  0.37550078  0.87530862  1
  Fe  Fe39  1  0.25342686  -0.00018629  -0.00399550  1
  Fe  Fe40  1  0.12711651  0.62728044  0.12518159  1
  Fe  Fe41  1  0.37399458  0.12558861  0.62552660  1
  Fe  Fe42  1  0.87592609  0.12434604  0.87184459  1
  Fe  Fe43  1  0.25300299  -0.00049274  0.49842068  1
  Fe  Fe44  1  0.87229570  0.87118056  0.62631103  1
  Fe  Fe45  1  0.74645190  0.50540042  0.75367241  1
  Fe  Fe46  1  0.87304883  0.37809200  0.62737697  1
  Fe  Fe47  1  -0.00122361  0.49915776  0.49962640  1
  Fe  Fe48  1  0.87404665  0.87509108  0.12960324  1
  Fe  Fe49  1  0.24600582  0.24861224  0.75203551  1
  Fe  Fe50  1  -0.00266505  0.75038405  0.00051226  1
  Fe  Fe51  1  0.37344515  0.37608168  0.87060696  1
  Fe  Fe52  1  0.87332100  0.12522003  0.12787518  1
  Fe  Fe53  1  0.75070135  0.00108341  -0.00269765  1
  Fe  Fe54  1  0.74981564  0.24883693  0.74857545  1
  Fe  Fe55  1  -0.00298048  0.75040444  0.49968019  1
  Fe  Fe56  1  0.37630421  0.87667764  0.12871425  1
  Fe  Fe57  1  0.62534948  0.62525393  0.12281857  1
  Fe  Fe58  1  0.25003064  0.24917729  -0.00223001  1
  Fe  Fe59  1  0.87368397  0.87109473  0.87037030  1
  Fe  Fe60  1  0.49944347  0.49776159  0.00108408  1
  Fe  Fe61  1  -0.00170633  -0.00106143  -0.00015883  1
  Fe  Fe62  1  -0.00060473  0.25019234  -0.00156887  1
  Fe  Fe63  1  0.12558861  0.12382096  0.62323888  1
  Fe  Fe64  1  0.37719296  0.62398627  0.87264189  1
  Fe  Fe65  1  0.00137694  0.50065942  0.24877975  1
  Fe  Fe66  1  0.38001223  0.62044405  0.37171379  1
  Fe  Fe67  1  0.25538430  0.74670528  0.49856658  1
  Fe  Fe68  1  0.62467075  0.12672564  0.61930868  1
  Fe  Fe69  1  0.62530155  0.87639833  0.12391528  1
  Fe  Fe70  1  0.50404482  0.00236249  0.25158308  1
  Fe  Fe71  1  0.62072640  0.37203785  0.37964074  1
  Fe  Fe72  1  0.00620977  0.50434086  0.75167518  1
  Fe  Fe73  1  0.74446940  0.24663911  0.25283925  1
  Fe  Fe74  1  0.75046879  0.24900310  -0.00208047  1
  Fe  Fe75  1  0.87473912  0.37345543  0.37337091  1
  Fe  Fe76  1  0.87160583  0.62276062  0.12574713  1
  Fe  Fe77  1  0.37418285  0.37360563  0.13112037  1
  Fe  Fe78  1  0.62555448  0.87415130  0.62067951  1
  Fe  Fe79  1  0.87215751  0.37535376  0.12686394  1
  Fe  Fe80  1  0.62384703  0.87424373  0.87526041  1
  Fe  Fe81  1  0.87562481  0.62619944  0.62731234  1
  Fe  Fe82  1  0.38051139  0.12896784  0.37605476  1
  Fe  Fe83  1  0.00236842  0.25042848  0.74951227  1
  Fe  Fe84  1  -0.00322796  -0.00019958  0.49953165  1
  Fe  Fe85  1  0.12651917  0.87327168  0.87553741  1
  Fe  Fe86  1  0.00121705  -0.00167140  0.74833968  1
  Fe  Fe87  1  0.50002282  0.00070389  0.74925595  1
  Fe  Fe88  1  0.75024791  0.74803960  -0.00331087  1
  Fe  Fe89  1  0.75028848  0.49990109  0.49933630  1
  Co  Co90  1  0.87688068  0.62582973  0.87324973  1
  Co  Co91  1  0.61904955  0.12797591  0.38432318  1
  Co  Co92  1  -0.00134401  0.74669473  0.24912294  1
  Co  Co93  1  0.37579611  0.87166166  0.87069756  1
  Co  Co94  1  0.24840500  0.24732122  0.25139250  1
  Co  Co95  1  0.24330948  0.50616766  0.75238483  1
  Co  Co96  1  0.49549060  0.74977883  0.50127781  1
  Co  Co97  1  0.00069090  0.00117054  0.25036342  1
  Co  Co98  1  0.00454239  0.74921656  0.74905505  1
  Co  Co99  1  0.74947710  0.50009326  -0.00200215  1
  Co  Co100  1  0.49504983  0.49235357  0.50369842  1
  Co  Co101  1  0.87521100  0.87292557  0.37315592  1
  Co  Co102  1  0.25561749  0.50046688  0.49736105  1
  Co  Co103  1  0.36628073  0.38025561  0.63338901  1
  Co  Co104  1  0.37701699  0.62094144  0.62926233  1
  Co  Co105  1  0.62385109  0.12618465  0.87380790  1
  Co  Co106  1  0.12460613  0.62480216  0.61759350  1
  Co  Co107  1  0.12576462  0.37601471  0.87641860  1
  Co  Co108  1  0.74408016  0.74647023  0.75006036  1
  Co  Co109  1  0.49336584  0.25950146  0.50780557  1
  Co  Co110  1  0.50366068  0.49672481  0.74864202  1
  Co  Co111  1  0.87582878  0.12558748  0.62646145  1
  Co  Co112  1  0.75395108  0.24994912  0.50051980  1
  Co  Co113  1  0.62583866  0.12218846  0.12135175  1
  Co  Co114  1  0.75067878  0.74755336  0.50031477  1
  Co  Co115  1  0.50411614  0.24766216  0.24698061  1
  Co  Co116  1  0.61945323  0.62490503  0.87909025  1
  Co  Co117  1  0.49572532  -0.00200680  0.50282622  1
  Co  Co118  1  0.24748921  0.50103871  0.24987202  1
  Co  Co119  1  0.25239724  0.74940114  0.25213999  1
  Co  Co120  1  0.87817837  0.12947112  0.37331478  1
  Co  Co121  1  0.37711551  0.12884394  0.87207252  1
  Co  Co122  1  0.50245087  0.75095452  0.24954357  1
  Co  Co123  1  0.63235190  0.37684623  0.62380655  1
  Co  Co124  1  0.50537417  0.49873207  0.24684962  1
  Co  Co125  1  0.37734906  0.37564447  0.36689476  1
  Co  Co126  1  0.12348901  0.12297367  0.87580530  1
  Co  Co127  1  0.12616331  0.62811063  0.88198862  1
