# generated using pymatgen
data_Fe45Co19
_symmetry_space_group_name_H-M   'P 1'
_cell_length_a   11.41495271
_cell_length_b   11.41552406
_cell_length_c   11.41526903
_cell_angle_alpha   89.99070751
_cell_angle_beta   90.00149471
_cell_angle_gamma   90.00609461
_symmetry_Int_Tables_number   1
_chemical_formula_structural   Fe45Co19
_chemical_formula_sum   'Fe90 Co38'
_cell_volume   1487.49704999
_cell_formula_units_Z   2
loop_
 _symmetry_equiv_pos_site_id
 _symmetry_equiv_pos_as_xyz
  1  'x, y, z'
loop_
 _atom_site_type_symbol
 _atom_site_label
 _atom_site_symmetry_multiplicity
 _atom_site_fract_x
 _atom_site_fract_y
 _atom_site_fract_z
 _atom_site_occupancy
  Fe  Fe0  1  0.12915145  0.11877095  0.87475869  1
  Fe  Fe1  1  0.74799701  0.25111316  0.25033151  1
  Fe  Fe2  1  0.62712685  0.62182588  0.87630982  1
  Fe  Fe3  1  0.25211575  0.50029560  0.49903622  1
  Fe  Fe4  1  0.87628366  0.12740100  0.12444375  1
  Fe  Fe5  1  0.50181313  0.74784585  0.49808678  1
  Fe  Fe6  1  0.87246779  0.87399217  0.12698898  1
  Fe  Fe7  1  0.37550703  0.37362335  0.87863492  1
  Fe  Fe8  1  0.25055813  0.49765160  0.75113636  1
  Fe  Fe9  1  -0.00318387  0.49935742  0.75210898  1
  Fe  Fe10  1  0.75015994  0.74947366  0.75210625  1
  Fe  Fe11  1  0.37341072  0.87399205  0.37552583  1
  Fe  Fe12  1  -0.00678770  0.49803702  0.00152289  1
  Fe  Fe13  1  0.74968149  -0.00149546  0.00123521  1
  Fe  Fe14  1  0.49705726  -0.00057848  0.74702805  1
  Fe  Fe15  1  0.24866435  0.75095280  -0.00036704  1
  Fe  Fe16  1  -0.00017379  -0.00146459  0.75166232  1
  Fe  Fe17  1  0.50031116  0.25213916  0.25024541  1
  Fe  Fe18  1  0.24831494  0.74976159  0.75045828  1
  Fe  Fe19  1  0.37403361  0.87488475  0.87298626  1
  Fe  Fe20  1  0.62778941  0.87686689  0.37171209  1
  Fe  Fe21  1  0.12446793  0.87554519  0.62565390  1
  Fe  Fe22  1  0.12453963  0.37571688  0.12541926  1
  Fe  Fe23  1  0.12449391  0.62148652  0.37353376  1
  Fe  Fe24  1  0.24823645  0.25067038  0.25092270  1
  Fe  Fe25  1  0.24792815  0.24970358  -0.00059004  1
  Fe  Fe26  1  0.12316925  0.37477008  0.62533136  1
  Fe  Fe27  1  0.25284562  0.50048419  0.00200845  1
  Fe  Fe28  1  0.37234285  0.12585790  0.87331624  1
  Fe  Fe29  1  0.37495338  0.12826433  0.12413181  1
  Fe  Fe30  1  0.62589669  0.12470550  0.37533077  1
  Fe  Fe31  1  0.12611664  0.87719453  0.37503873  1
  Fe  Fe32  1  0.87359304  0.12485865  0.87622557  1
  Fe  Fe33  1  0.37617945  0.12720854  0.37708380  1
  Fe  Fe34  1  -0.00087163  0.00153158  0.24917794  1
  Fe  Fe35  1  0.49399786  0.49878493  0.24928383  1
  Fe  Fe36  1  0.50226750  0.74860127  0.25090570  1
  Fe  Fe37  1  -0.00100948  0.74921447  0.49812186  1
  Fe  Fe38  1  0.24623076  0.24946020  0.50189816  1
  Fe  Fe39  1  0.62438902  0.12384801  0.12516830  1
  Fe  Fe40  1  0.62583159  0.37729765  0.87651198  1
  Fe  Fe41  1  0.87489214  0.87283654  0.62583612  1
  Fe  Fe42  1  0.87536027  0.12517557  0.37685117  1
  Fe  Fe43  1  0.50014915  0.00064525  0.24987772  1
  Fe  Fe44  1  0.37639714  0.37316737  0.62411597  1
  Fe  Fe45  1  0.12334864  0.12260248  0.37852128  1
  Fe  Fe46  1  -0.00160101  0.49912507  0.50053002  1
  Fe  Fe47  1  0.50449714  0.25470618  0.49874499  1
  Fe  Fe48  1  0.00020607  0.75006667  0.75316720  1
  Fe  Fe49  1  0.87246600  0.87522874  0.37217011  1
  Fe  Fe50  1  0.24812691  0.74823646  0.24935474  1
  Fe  Fe51  1  0.74948811  0.25399109  0.50050491  1
  Fe  Fe52  1  0.62528619  0.12274937  0.87439864  1
  Fe  Fe53  1  0.49916532  -0.00071075  0.50139788  1
  Fe  Fe54  1  0.62366742  0.87296141  0.62662082  1
  Fe  Fe55  1  0.62634557  0.62240342  0.12369279  1
  Fe  Fe56  1  0.74969812  0.25027524  0.74844748  1
  Fe  Fe57  1  0.49854224  0.50062948  0.75086864  1
  Fe  Fe58  1  0.37417394  0.62601640  0.87617811  1
  Fe  Fe59  1  0.12337577  0.62252572  0.87683175  1
  Fe  Fe60  1  0.75033458  0.00070615  0.74792475  1
  Fe  Fe61  1  0.37601176  0.62643025  0.62393711  1
  Fe  Fe62  1  0.62497322  0.62334332  0.62608130  1
  Fe  Fe63  1  0.75101980  0.00021350  0.50098092  1
  Fe  Fe64  1  0.74820015  0.75256287  -0.00160808  1
  Fe  Fe65  1  0.50118737  0.25144942  0.75218233  1
  Fe  Fe66  1  0.24801575  0.74849603  0.49977550  1
  Fe  Fe67  1  -0.00125449  0.74660443  0.25111046  1
  Fe  Fe68  1  0.50264274  0.75020299  -0.00149309  1
  Fe  Fe69  1  0.49968869  -0.00034249  0.00057617  1
  Fe  Fe70  1  0.37636460  0.87260259  0.12614260  1
  Fe  Fe71  1  0.62282060  0.37764017  0.12363112  1
  Fe  Fe72  1  0.87959792  0.12793800  0.62254686  1
  Fe  Fe73  1  0.75073405  0.74787328  0.49779457  1
  Fe  Fe74  1  0.12321496  0.62359803  0.62648610  1
  Fe  Fe75  1  0.25025277  0.00220433  0.24797514  1
  Fe  Fe76  1  0.12407717  0.87786241  0.12343977  1
  Fe  Fe77  1  0.00327520  0.25086242  0.25267893  1
  Fe  Fe78  1  -0.00064587  0.75371050  -0.00315060  1
  Fe  Fe79  1  0.87483842  0.37766410  0.37191601  1
  Fe  Fe80  1  0.74782403  0.25177532  0.00046626  1
  Fe  Fe81  1  0.75448211  0.49884095  0.75059842  1
  Fe  Fe82  1  0.75040543  0.49712157  0.50317540  1
  Fe  Fe83  1  0.62390391  0.12649894  0.62433579  1
  Fe  Fe84  1  0.12359640  0.62428581  0.12326419  1
  Fe  Fe85  1  0.62633736  0.61859196  0.37346705  1
  Fe  Fe86  1  0.00369028  0.25121278  0.75363387  1
  Fe  Fe87  1  0.00271998  0.24940108  -0.00188145  1
  Fe  Fe88  1  0.25159242  0.00203689  0.50614587  1
  Fe  Fe89  1  0.25408697  0.49999350  0.24836184  1
  Co  Co90  1  0.87695535  0.36878319  0.12636272  1
  Co  Co91  1  -0.00168365  -0.00371426  0.49963928  1
  Co  Co92  1  -0.00276408  0.50206362  0.24598770  1
  Co  Co93  1  0.12496964  0.37906027  0.87809308  1
  Co  Co94  1  0.62647099  0.87535356  0.12804292  1
  Co  Co95  1  0.87254385  0.87650656  0.87426458  1
  Co  Co96  1  0.49753561  0.50197440  0.00009915  1
  Co  Co97  1  0.12636374  0.38004084  0.37374039  1
  Co  Co98  1  0.62423457  0.37611620  0.62847463  1
  Co  Co99  1  0.24694821  0.25231070  0.75002145  1
  Co  Co100  1  0.25335700  0.00046292  0.74271625  1
  Co  Co101  1  0.12865888  0.87917088  0.87493264  1
  Co  Co102  1  0.75116806  0.00400139  0.24907631  1
  Co  Co103  1  0.50064845  0.74653111  0.75196265  1
  Co  Co104  1  -0.00226444  -0.00042907  0.00027643  1
  Co  Co105  1  0.50288804  0.24784064  -0.00177333  1
  Co  Co106  1  0.87459957  0.62634050  0.87655851  1
  Co  Co107  1  0.00118845  0.25445830  0.49566876  1
  Co  Co108  1  0.25314185  -0.00056469  0.00351891  1
  Co  Co109  1  0.62394993  0.87760150  0.87210312  1
  Co  Co110  1  0.37822799  0.13171889  0.62478736  1
  Co  Co111  1  0.87779292  0.37232777  0.62728157  1
  Co  Co112  1  0.37408030  0.37252927  0.37736846  1
  Co  Co113  1  0.11912918  0.12537485  0.62513714  1
  Co  Co114  1  0.75462615  0.50055552  0.24393545  1
  Co  Co115  1  0.74927324  0.74493834  0.25205450  1
  Co  Co116  1  0.37423373  0.62709031  0.37513326  1
  Co  Co117  1  0.37555066  0.62935870  0.12467218  1
  Co  Co118  1  0.37503178  0.37097643  0.12184020  1
  Co  Co119  1  0.87379090  0.37141413  0.87472369  1
  Co  Co120  1  0.12444193  0.12474161  0.12356914  1
  Co  Co121  1  0.75488918  0.49644778  0.00189256  1
  Co  Co122  1  0.87431986  0.62057178  0.37657648  1
  Co  Co123  1  0.62575994  0.37977085  0.37098587  1
  Co  Co124  1  0.37645957  0.86884443  0.62358323  1
  Co  Co125  1  0.87531749  0.62599297  0.62535745  1
  Co  Co126  1  0.87327909  0.63027194  0.12180456  1
  Co  Co127  1  0.49941577  0.49950224  0.50049967  1
