# generated using pymatgen
data_Fe45Co19
_symmetry_space_group_name_H-M   'P 1'
_cell_length_a   11.41594802
_cell_length_b   11.41389790
_cell_length_c   11.41560663
_cell_angle_alpha   90.00989003
_cell_angle_beta   89.99783343
_cell_angle_gamma   90.00762228
_symmetry_Int_Tables_number   1
_chemical_formula_structural   Fe45Co19
_chemical_formula_sum   'Fe90 Co38'
_cell_volume   1487.45881624
_cell_formula_units_Z   2
loop_
 _symmetry_equiv_pos_site_id
 _symmetry_equiv_pos_as_xyz
  1  'x, y, z'
loop_
 _atom_site_type_symbol
 _atom_site_label
 _atom_site_symmetry_multiplicity
 _atom_site_fract_x
 _atom_site_fract_y
 _atom_site_fract_z
 _atom_site_occupancy
  Fe  Fe0  1  0.24924527  0.25028651  0.75019346  1
  Fe  Fe1  1  0.50362949  0.75320373  0.50264765  1
  Fe  Fe2  1  0.87502006  0.87518478  0.37652312  1
  Fe  Fe3  1  0.87789863  0.62287279  0.12566078  1
  Fe  Fe4  1  0.37634864  0.37468189  0.12540198  1
  Fe  Fe5  1  0.49731933  0.24657674  -0.00222937  1
  Fe  Fe6  1  0.12507570  0.62435084  0.37577087  1
  Fe  Fe7  1  0.12509223  0.87622057  0.12504814  1
  Fe  Fe8  1  0.12305380  0.87600878  0.62527457  1
  Fe  Fe9  1  0.00077181  0.24878038  0.00073497  1
  Fe  Fe10  1  0.62541308  0.37445413  0.87622077  1
  Fe  Fe11  1  0.62595004  0.12547884  0.37686723  1
  Fe  Fe12  1  0.37621792  0.87572320  0.12462776  1
  Fe  Fe13  1  0.24930559  0.50088570  0.00054494  1
  Fe  Fe14  1  0.62373913  0.37484205  0.62742449  1
  Fe  Fe15  1  0.37235264  0.37346629  0.87532424  1
  Fe  Fe16  1  0.62336753  0.62554925  0.12321896  1
  Fe  Fe17  1  0.24993579  0.50256197  0.24826955  1
  Fe  Fe18  1  0.24995984  0.75023956  0.74745579  1
  Fe  Fe19  1  -0.00064368  0.24782969  0.74877043  1
  Fe  Fe20  1  0.49742341  0.25208836  0.49984025  1
  Fe  Fe21  1  0.74892200  -0.00189218  0.50308739  1
  Fe  Fe22  1  0.37765782  0.87778385  0.37790349  1
  Fe  Fe23  1  0.25049904  -0.00027832  0.25187286  1
  Fe  Fe24  1  0.87614256  0.87570998  0.87402925  1
  Fe  Fe25  1  0.12479081  0.12351310  0.12421445  1
  Fe  Fe26  1  0.62687437  0.87422134  0.87335913  1
  Fe  Fe27  1  0.49766265  0.50249092  -0.00212672  1
  Fe  Fe28  1  0.75060574  0.75147254  0.00102806  1
  Fe  Fe29  1  0.74907540  0.49678511  0.24692490  1
  Fe  Fe30  1  0.00055564  0.75043229  0.00011516  1
  Fe  Fe31  1  0.74722192  0.49718581  0.50057153  1
  Fe  Fe32  1  -0.00116704  0.00311833  0.50236732  1
  Fe  Fe33  1  0.62617651  0.12463968  0.12312807  1
  Fe  Fe34  1  0.12578961  0.37384813  0.37354965  1
  Fe  Fe35  1  0.87496303  0.37221978  0.62433670  1
  Fe  Fe36  1  0.87306119  0.62470940  0.37558024  1
  Fe  Fe37  1  0.25231718  0.24755890  0.24814478  1
  Fe  Fe38  1  0.50053161  0.74816544  0.74979990  1
  Fe  Fe39  1  0.50065791  0.50216818  0.75231371  1
  Fe  Fe40  1  0.75173371  0.50150027  0.75040452  1
  Fe  Fe41  1  0.62773714  0.12775917  0.62610294  1
  Fe  Fe42  1  -0.00171879  0.74453126  0.74676489  1
  Fe  Fe43  1  0.87679606  0.87933399  0.12318235  1
  Fe  Fe44  1  0.12628457  0.12627527  0.37754310  1
  Fe  Fe45  1  0.25354111  0.49676849  0.50058383  1
  Fe  Fe46  1  0.50054130  0.00174671  -0.00375310  1
  Fe  Fe47  1  0.49895324  0.24728024  0.25001986  1
  Fe  Fe48  1  0.00031823  0.49866114  0.50002154  1
  Fe  Fe49  1  0.00134793  0.75020529  0.25079983  1
  Fe  Fe50  1  0.37708721  0.62418905  0.37654812  1
  Fe  Fe51  1  0.74780949  0.75303351  0.50315150  1
  Fe  Fe52  1  0.87147788  0.12800001  0.37687586  1
  Fe  Fe53  1  0.49860642  0.74835131  -0.00230779  1
  Fe  Fe54  1  -0.00252064  0.24865445  0.24957767  1
  Fe  Fe55  1  0.74887424  -0.00068135  0.24855177  1
  Fe  Fe56  1  0.49920173  0.00187173  0.75006151  1
  Fe  Fe57  1  0.12441602  0.62361244  0.87295077  1
  Fe  Fe58  1  0.37322888  0.12433567  0.62526762  1
  Fe  Fe59  1  0.74868142  0.75246864  0.24797152  1
  Fe  Fe60  1  0.50010936  0.24856715  0.75260136  1
  Fe  Fe61  1  0.00198767  0.50033369  -0.00128425  1
  Fe  Fe62  1  0.00051144  0.00434020  0.74857084  1
  Fe  Fe63  1  0.62536299  0.62489233  0.37682539  1
  Fe  Fe64  1  0.50131877  0.75174698  0.25085303  1
  Fe  Fe65  1  0.12443619  0.87448068  0.87329022  1
  Fe  Fe66  1  0.75088973  0.25118058  0.00262128  1
  Fe  Fe67  1  0.87424973  0.37259797  0.37412827  1
  Fe  Fe68  1  0.12881460  0.12668789  0.87504325  1
  Fe  Fe69  1  0.24945992  0.75039640  0.25070581  1
  Fe  Fe70  1  0.50069459  0.50058659  0.25020568  1
  Fe  Fe71  1  0.25000109  -0.00150049  0.50140181  1
  Fe  Fe72  1  0.25066804  0.00099077  -0.00163331  1
  Fe  Fe73  1  0.37362631  0.87562813  0.87247408  1
  Fe  Fe74  1  0.12291950  0.37425890  0.62612134  1
  Fe  Fe75  1  0.24980976  0.75172321  0.50041143  1
  Fe  Fe76  1  0.25062321  0.74734458  0.00104287  1
  Fe  Fe77  1  0.50113403  0.00020873  0.25126675  1
  Fe  Fe78  1  0.00003428  0.74896250  0.50105709  1
  Fe  Fe79  1  0.24882560  0.49904849  0.74961453  1
  Fe  Fe80  1  0.87721794  0.37564257  0.87459574  1
  Fe  Fe81  1  -0.00014500  0.00139659  0.25156751  1
  Fe  Fe82  1  0.75181121  0.00254851  0.75005751  1
  Fe  Fe83  1  0.87275193  0.12479982  0.87769668  1
  Fe  Fe84  1  0.12297643  0.37529729  0.12591092  1
  Fe  Fe85  1  0.37675703  0.62332246  0.62428145  1
  Fe  Fe86  1  0.62358871  0.37301049  0.37286460  1
  Fe  Fe87  1  0.75035003  0.49906016  0.00151829  1
  Fe  Fe88  1  0.25296298  0.25290424  0.50001366  1
  Fe  Fe89  1  0.75169020  0.74565080  0.74814361  1
  Co  Co90  1  0.87900933  0.37599717  0.12459187  1
  Co  Co91  1  0.87292347  0.62328058  0.62027689  1
  Co  Co92  1  -0.00053554  0.49985276  0.25363434  1
  Co  Co93  1  0.37652975  0.37504244  0.63002673  1
  Co  Co94  1  0.37167498  0.62472291  0.87204530  1
  Co  Co95  1  0.62397889  0.62262917  0.62380092  1
  Co  Co96  1  0.37519842  0.87555563  0.62530024  1
  Co  Co97  1  0.62664743  0.87578723  0.63035789  1
  Co  Co98  1  0.75024323  0.25154669  0.24618390  1
  Co  Co99  1  0.62770564  0.62526733  0.87619926  1
  Co  Co100  1  0.87659443  0.87536625  0.62674847  1
  Co  Co101  1  0.25055446  0.24994866  0.00230532  1
  Co  Co102  1  0.00076350  0.25031158  0.49986929  1
  Co  Co103  1  0.74655114  0.25335287  0.49979661  1
  Co  Co104  1  0.74812548  -0.00186011  -0.00097013  1
  Co  Co105  1  0.24812750  -0.00102203  0.74953922  1
  Co  Co106  1  0.62012932  0.37370917  0.12271706  1
  Co  Co107  1  0.62843005  0.12618677  0.87486256  1
  Co  Co108  1  0.50272671  0.00057663  0.50441086  1
  Co  Co109  1  0.49876906  0.49548294  0.49897162  1
  Co  Co110  1  0.12240611  0.62511359  0.12578600  1
  Co  Co111  1  0.12337335  0.87605567  0.37655690  1
  Co  Co112  1  0.75103200  0.25196026  0.75248184  1
  Co  Co113  1  0.87575549  0.62418731  0.87774955  1
  Co  Co114  1  0.37480075  0.12329342  0.37766800  1
  Co  Co115  1  0.87130664  0.12869802  0.62255751  1
  Co  Co116  1  0.37073381  0.12556408  0.87269603  1
  Co  Co117  1  0.62224060  0.87567133  0.12317478  1
  Co  Co118  1  0.87419056  0.12225007  0.12330818  1
  Co  Co119  1  0.12727312  0.62296658  0.62337769  1
  Co  Co120  1  0.00269737  0.00091213  -0.00327975  1
  Co  Co121  1  0.62561626  0.87677926  0.37551930  1
  Co  Co122  1  0.12829352  0.12657766  0.62295438  1
  Co  Co123  1  -0.00220713  0.50167976  0.74793463  1
  Co  Co124  1  0.37481834  0.37485197  0.36941215  1
  Co  Co125  1  0.37667841  0.62572227  0.12673379  1
  Co  Co126  1  0.12453016  0.37426277  0.87350610  1
  Co  Co127  1  0.37566381  0.12257538  0.12511857  1
