# generated using pymatgen
data_Fe45Co19
_symmetry_space_group_name_H-M   'P 1'
_cell_length_a   11.41523341
_cell_length_b   11.41501199
_cell_length_c   11.41572763
_cell_angle_alpha   90.00765703
_cell_angle_beta   90.00072826
_cell_angle_gamma   89.99771032
_symmetry_Int_Tables_number   1
_chemical_formula_structural   Fe45Co19
_chemical_formula_sum   'Fe90 Co38'
_cell_volume   1487.52667375
_cell_formula_units_Z   2
loop_
 _symmetry_equiv_pos_site_id
 _symmetry_equiv_pos_as_xyz
  1  'x, y, z'
loop_
 _atom_site_type_symbol
 _atom_site_label
 _atom_site_symmetry_multiplicity
 _atom_site_fract_x
 _atom_site_fract_y
 _atom_site_fract_z
 _atom_site_occupancy
  Fe  Fe0  1  0.12513148  0.37554476  0.37516813  1
  Fe  Fe1  1  0.37482722  0.37428553  0.62571192  1
  Fe  Fe2  1  0.00022388  0.75094426  0.24951245  1
  Fe  Fe3  1  0.62139012  0.86832466  0.87688720  1
  Fe  Fe4  1  0.75003285  0.74959306  0.50231696  1
  Fe  Fe5  1  0.00037891  0.50110635  0.50153912  1
  Fe  Fe6  1  0.62917964  0.37510617  0.87735493  1
  Fe  Fe7  1  0.25227334  0.50010886  -0.00140438  1
  Fe  Fe8  1  0.74676019  -0.00002308  -0.00248961  1
  Fe  Fe9  1  0.37583885  0.62715726  0.62519872  1
  Fe  Fe10  1  0.12387204  0.62318027  0.37258808  1
  Fe  Fe11  1  0.87502536  0.62394320  0.37186974  1
  Fe  Fe12  1  0.12394200  0.62371577  0.12607540  1
  Fe  Fe13  1  0.12668344  0.37783411  0.62749141  1
  Fe  Fe14  1  0.24869168  0.25053170  0.75249858  1
  Fe  Fe15  1  0.74957857  -0.00073124  0.25043387  1
  Fe  Fe16  1  0.37663038  0.62883148  0.87431912  1
  Fe  Fe17  1  0.62398677  0.37822946  0.37421708  1
  Fe  Fe18  1  0.87218303  0.37729649  0.12284036  1
  Fe  Fe19  1  0.37312229  0.62617398  0.12770363  1
  Fe  Fe20  1  0.74810381  0.24983113  0.50058602  1
  Fe  Fe21  1  0.25079869  0.49753589  0.24973485  1
  Fe  Fe22  1  0.50203766  0.25124827  0.75055149  1
  Fe  Fe23  1  0.87702564  0.87305538  0.62350648  1
  Fe  Fe24  1  0.12463916  0.87340015  0.62254548  1
  Fe  Fe25  1  -0.00490037  0.50132304  -0.00312465  1
  Fe  Fe26  1  0.87424318  0.87096436  0.87556762  1
  Fe  Fe27  1  0.62248192  0.62763658  0.62677492  1
  Fe  Fe28  1  0.74926140  0.50291990  0.75376944  1
  Fe  Fe29  1  0.25114540  0.74946733  0.00237067  1
  Fe  Fe30  1  0.49949861  0.75018966  0.24840909  1
  Fe  Fe31  1  0.62315535  0.12135232  0.62593669  1
  Fe  Fe32  1  0.74839220  -0.00481718  0.74975611  1
  Fe  Fe33  1  0.75032029  0.75160820  0.24792069  1
  Fe  Fe34  1  0.25077023  0.24965084  0.49959744  1
  Fe  Fe35  1  0.37354226  0.87196705  0.37485639  1
  Fe  Fe36  1  0.87615162  0.87735201  0.37755063  1
  Fe  Fe37  1  0.74768012  0.24983660  0.24894520  1
  Fe  Fe38  1  0.61995710  0.12055547  0.12620172  1
  Fe  Fe39  1  0.87824216  0.62872421  0.62869365  1
  Fe  Fe40  1  0.25572848  0.00408187  0.00183229  1
  Fe  Fe41  1  0.87451017  0.87469166  0.12304972  1
  Fe  Fe42  1  0.87249653  0.12563042  0.87511640  1
  Fe  Fe43  1  0.00104362  0.24922319  0.50189532  1
  Fe  Fe44  1  0.12645239  0.87688075  0.12529470  1
  Fe  Fe45  1  0.24956668  0.75007509  0.74965873  1
  Fe  Fe46  1  0.12849000  0.87764495  0.87722269  1
  Fe  Fe47  1  0.50029564  0.50310898  -0.00096378  1
  Fe  Fe48  1  0.24904056  0.24669881  -0.00044021  1
  Fe  Fe49  1  0.49937537  0.49985306  0.50060281  1
  Fe  Fe50  1  0.74984700  0.50185219  0.50152667  1
  Fe  Fe51  1  0.24780047  0.74702316  0.49934960  1
  Fe  Fe52  1  0.62408961  0.12290771  0.37529426  1
  Fe  Fe53  1  0.00016203  0.74867854  -0.00048096  1
  Fe  Fe54  1  0.87336802  0.37551950  0.62610985  1
  Fe  Fe55  1  0.87592509  0.12259854  0.37574880  1
  Fe  Fe56  1  0.00161793  0.25063172  0.75284093  1
  Fe  Fe57  1  0.00056705  0.00121328  -0.00026025  1
  Fe  Fe58  1  0.62626972  0.37805879  0.12313775  1
  Fe  Fe59  1  0.49612326  -0.00440050  0.75162169  1
  Fe  Fe60  1  0.37761874  0.12665499  0.37388660  1
  Fe  Fe61  1  -0.00045575  0.25065998  0.24790962  1
  Fe  Fe62  1  0.25114540  0.00235732  0.50125310  1
  Fe  Fe63  1  0.87453576  0.12323970  0.12447366  1
  Fe  Fe64  1  0.25247817  0.24995182  0.24860052  1
  Fe  Fe65  1  0.87465745  0.37646223  0.37490851  1
  Fe  Fe66  1  0.25332612  0.00084793  0.24705005  1
  Fe  Fe67  1  0.12590621  0.62328705  0.87407339  1
  Fe  Fe68  1  0.37782634  0.37326972  0.12472138  1
  Fe  Fe69  1  0.49806473  -0.00297189  0.50089392  1
  Fe  Fe70  1  0.62585243  0.87418504  0.37729206  1
  Fe  Fe71  1  0.12451509  0.37581086  0.12250795  1
  Fe  Fe72  1  0.62476064  0.62496488  0.37410192  1
  Fe  Fe73  1  0.87381298  0.12378364  0.62491910  1
  Fe  Fe74  1  0.12272166  0.12368931  0.37184150  1
  Fe  Fe75  1  0.25453259  -0.00122343  0.74949888  1
  Fe  Fe76  1  0.74803209  0.24946788  0.74880051  1
  Fe  Fe77  1  0.50040090  0.50027280  0.75268548  1
  Fe  Fe78  1  0.37453354  0.37371747  0.87596463  1
  Fe  Fe79  1  0.62883486  0.62367479  0.12355328  1
  Fe  Fe80  1  0.00132767  0.24897827  -0.00237838  1
  Fe  Fe81  1  0.37572931  0.62463681  0.37297741  1
  Fe  Fe82  1  -0.00113854  0.49925953  0.75353345  1
  Fe  Fe83  1  0.25083992  0.50070311  0.50144021  1
  Fe  Fe84  1  0.12395779  0.87705086  0.37478888  1
  Fe  Fe85  1  0.50307921  0.24640423  -0.00181219  1
  Fe  Fe86  1  0.12566389  0.12420929  0.62729384  1
  Fe  Fe87  1  0.00027530  -0.00158983  0.75040864  1
  Fe  Fe88  1  0.62023433  0.87690871  0.12239643  1
  Fe  Fe89  1  0.50077470  0.25197138  0.50042359  1
  Co  Co90  1  0.00123766  0.00174184  0.50238522  1
  Co  Co91  1  0.74683599  0.24590124  0.00305082  1
  Co  Co92  1  0.62638410  0.12395984  0.87121647  1
  Co  Co93  1  0.75304980  0.50504108  -0.00483334  1
  Co  Co94  1  0.12345731  0.62465669  0.62770166  1
  Co  Co95  1  0.37260789  0.87179675  0.62168444  1
  Co  Co96  1  0.37462476  0.12741099  0.87258314  1
  Co  Co97  1  0.74796707  0.75201132  0.74746398  1
  Co  Co98  1  0.87383063  0.63218969  0.87176011  1
  Co  Co99  1  0.00065886  0.49838184  0.24882166  1
  Co  Co100  1  0.37431433  0.87060924  0.87848981  1
  Co  Co101  1  0.49715922  0.00186417  -0.00637125  1
  Co  Co102  1  0.62329656  0.63099784  0.87483077  1
  Co  Co103  1  0.50247000  0.25275914  0.25089148  1
  Co  Co104  1  0.49823553  -0.00400449  0.25421831  1
  Co  Co105  1  0.50033144  0.75060716  0.49828763  1
  Co  Co106  1  0.37647251  0.37638628  0.37476565  1
  Co  Co107  1  0.74957402  -0.00050257  0.50140555  1
  Co  Co108  1  0.62604202  0.37704642  0.62576133  1
  Co  Co109  1  0.87441378  0.62469970  0.12777840  1
  Co  Co110  1  0.49777185  0.74649400  0.00474850  1
  Co  Co111  1  0.74919412  0.49888282  0.25028424  1
  Co  Co112  1  0.00514317  0.75352403  0.75315119  1
  Co  Co113  1  0.12623376  0.12159423  0.87479834  1
  Co  Co114  1  0.12671313  0.37784551  0.87602697  1
  Co  Co115  1  0.00095488  0.74865075  0.49747965  1
  Co  Co116  1  0.75070774  0.74899486  0.00160386  1
  Co  Co117  1  -0.00130352  -0.00168180  0.24784414  1
  Co  Co118  1  0.12418349  0.12424121  0.12579637  1
  Co  Co119  1  0.25365282  0.50154732  0.75067687  1
  Co  Co120  1  0.62306380  0.87457955  0.62354698  1
  Co  Co121  1  0.87052885  0.37046836  0.87566175  1
  Co  Co122  1  0.37749923  0.87581418  0.12354299  1
  Co  Co123  1  0.49726531  0.75327399  0.74761153  1
  Co  Co124  1  0.37705640  0.12705443  0.62614651  1
  Co  Co125  1  0.24889000  0.75080712  0.24922670  1
  Co  Co126  1  0.38119862  0.12551971  0.12653993  1
  Co  Co127  1  0.49937122  0.50127514  0.24727413  1
