# generated using pymatgen
data_Fe45Co19
_symmetry_space_group_name_H-M   'P 1'
_cell_length_a   11.41534794
_cell_length_b   11.41583207
_cell_length_c   11.41607888
_cell_angle_alpha   89.99627322
_cell_angle_beta   90.00501343
_cell_angle_gamma   90.00025303
_symmetry_Int_Tables_number   1
_chemical_formula_structural   Fe45Co19
_chemical_formula_sum   'Fe90 Co38'
_cell_volume   1487.69424616
_cell_formula_units_Z   2
loop_
 _symmetry_equiv_pos_site_id
 _symmetry_equiv_pos_as_xyz
  1  'x, y, z'
loop_
 _atom_site_type_symbol
 _atom_site_label
 _atom_site_symmetry_multiplicity
 _atom_site_fract_x
 _atom_site_fract_y
 _atom_site_fract_z
 _atom_site_occupancy
  Fe  Fe0  1  0.87539421  0.12724158  0.12384660  1
  Fe  Fe1  1  0.12382500  0.37494836  0.62507978  1
  Fe  Fe2  1  0.62363652  0.12581758  0.12552891  1
  Fe  Fe3  1  0.75374091  0.50009929  0.00213130  1
  Fe  Fe4  1  0.12402084  0.12339462  0.37606956  1
  Fe  Fe5  1  0.62714408  0.87829934  0.87362533  1
  Fe  Fe6  1  0.75035440  0.49788817  0.50170583  1
  Fe  Fe7  1  -0.00043050  -0.00113913  0.74799186  1
  Fe  Fe8  1  0.62594745  0.37775740  0.87055714  1
  Fe  Fe9  1  0.37572659  0.37173848  0.87713362  1
  Fe  Fe10  1  0.24876359  0.49994116  0.24830498  1
  Fe  Fe11  1  0.25243714  0.00138505  0.24797118  1
  Fe  Fe12  1  0.62631013  0.62240813  0.87316378  1
  Fe  Fe13  1  0.50307294  0.74889422  -0.00137963  1
  Fe  Fe14  1  0.74976195  0.74920554  0.75016730  1
  Fe  Fe15  1  0.37913451  0.12222027  0.62567414  1
  Fe  Fe16  1  0.62229577  0.12244550  0.62889931  1
  Fe  Fe17  1  0.12077279  0.62976563  0.12594289  1
  Fe  Fe18  1  0.62418426  0.62221052  0.62692425  1
  Fe  Fe19  1  0.25166602  0.49957319  0.74959719  1
  Fe  Fe20  1  0.12719052  0.12351227  0.87474471  1
  Fe  Fe21  1  -0.00145734  -0.00191959  0.24875496  1
  Fe  Fe22  1  0.25087310  0.50034888  0.50051956  1
  Fe  Fe23  1  0.49969026  0.00422292  -0.00377183  1
  Fe  Fe24  1  0.24962184  0.74944904  0.74799187  1
  Fe  Fe25  1  0.38094061  0.37568891  0.62380776  1
  Fe  Fe26  1  0.12437054  0.12430694  0.12445199  1
  Fe  Fe27  1  0.87467405  0.62684024  0.87659437  1
  Fe  Fe28  1  0.37678283  0.37492008  0.37575730  1
  Fe  Fe29  1  0.87344906  0.87483112  0.87262035  1
  Fe  Fe30  1  0.12427012  0.12495686  0.62411907  1
  Fe  Fe31  1  0.24849552  0.49979093  0.00166301  1
  Fe  Fe32  1  0.37651093  0.12869249  0.12093146  1
  Fe  Fe33  1  0.00210889  -0.00470161  0.00011338  1
  Fe  Fe34  1  0.75110851  0.75216496  0.49832559  1
  Fe  Fe35  1  0.62438671  0.87748749  0.62877823  1
  Fe  Fe36  1  0.62787078  0.62432898  0.37374263  1
  Fe  Fe37  1  0.74903620  0.24989465  -0.00193297  1
  Fe  Fe38  1  0.12395770  0.37551984  0.37486717  1
  Fe  Fe39  1  0.75061156  0.25071805  0.25212744  1
  Fe  Fe40  1  0.00075420  0.25039741  -0.00252055  1
  Fe  Fe41  1  0.87436763  0.12313943  0.37609292  1
  Fe  Fe42  1  0.74914880  0.25058095  0.74867678  1
  Fe  Fe43  1  0.12328433  0.37588865  0.87362339  1
  Fe  Fe44  1  0.25065456  0.24957493  0.24978816  1
  Fe  Fe45  1  0.12496428  0.62443649  0.87542977  1
  Fe  Fe46  1  0.37684131  0.37280328  0.12336063  1
  Fe  Fe47  1  0.12323677  0.62213699  0.37498956  1
  Fe  Fe48  1  0.50135225  0.75101579  0.50064466  1
  Fe  Fe49  1  0.62453977  0.37269393  0.37889703  1
  Fe  Fe50  1  0.24949234  0.75024276  0.25108015  1
  Fe  Fe51  1  0.87462261  0.12445777  0.87446062  1
  Fe  Fe52  1  0.49908559  0.75056494  0.75049604  1
  Fe  Fe53  1  0.37468573  0.87634022  0.37849044  1
  Fe  Fe54  1  0.50180240  0.75214448  0.24999434  1
  Fe  Fe55  1  0.50222808  0.49916255  0.25086694  1
  Fe  Fe56  1  -0.00258022  0.75252091  0.49500512  1
  Fe  Fe57  1  0.62500206  0.37332406  0.12532845  1
  Fe  Fe58  1  0.62516626  0.87890981  0.37421765  1
  Fe  Fe59  1  0.75147629  -0.00050387  0.00064411  1
  Fe  Fe60  1  0.37610901  0.62563175  0.62338221  1
  Fe  Fe61  1  0.87589895  0.12584733  0.62583277  1
  Fe  Fe62  1  0.12653701  0.87914694  0.37592283  1
  Fe  Fe63  1  0.62495736  0.87500307  0.12353119  1
  Fe  Fe64  1  0.62931053  0.62631778  0.12733645  1
  Fe  Fe65  1  -0.00272391  0.49865565  0.49990492  1
  Fe  Fe66  1  0.25036047  0.25093708  0.74860655  1
  Fe  Fe67  1  0.25196189  0.24835215  0.50028389  1
  Fe  Fe68  1  0.37558425  0.62507262  0.37453364  1
  Fe  Fe69  1  0.87490450  0.62778760  0.62341945  1
  Fe  Fe70  1  -0.00449304  0.50053740  0.00321258  1
  Fe  Fe71  1  0.75094676  0.00039365  0.50359596  1
  Fe  Fe72  1  0.37570710  0.62601919  0.12446868  1
  Fe  Fe73  1  0.12239526  0.37430504  0.12617665  1
  Fe  Fe74  1  0.87459127  0.37211005  0.62568305  1
  Fe  Fe75  1  0.12397479  0.62482835  0.62368923  1
  Fe  Fe76  1  0.75046636  -0.00043725  0.24710748  1
  Fe  Fe77  1  -0.00174502  0.25059660  0.25150349  1
  Fe  Fe78  1  0.37328676  0.62601481  0.87713938  1
  Fe  Fe79  1  -0.00108823  0.24900044  0.49959170  1
  Fe  Fe80  1  0.37943257  0.12386078  0.37540972  1
  Fe  Fe81  1  0.25234277  -0.00043224  0.74879355  1
  Fe  Fe82  1  0.62326627  0.12297369  0.37363811  1
  Fe  Fe83  1  0.00109555  0.75121619  0.75078307  1
  Fe  Fe84  1  0.12650327  0.87494077  0.62178256  1
  Fe  Fe85  1  0.37198704  0.87416244  0.87679166  1
  Fe  Fe86  1  0.50143317  0.50017861  -0.00008336  1
  Fe  Fe87  1  0.37459458  0.87415454  0.12226740  1
  Fe  Fe88  1  -0.00383236  0.49974027  0.74992584  1
  Fe  Fe89  1  0.87505967  0.86846561  0.12585502  1
  Co  Co90  1  0.74809770  0.75042002  -0.00291501  1
  Co  Co91  1  0.50215300  -0.00123989  0.50090145  1
  Co  Co92  1  0.87540933  0.37429219  0.37625612  1
  Co  Co93  1  0.24835777  -0.00072162  0.00241676  1
  Co  Co94  1  0.87473985  0.37079466  0.12545708  1
  Co  Co95  1  0.00051372  0.24887167  0.75099492  1
  Co  Co96  1  0.24614460  0.75019954  0.00070684  1
  Co  Co97  1  0.50055651  0.25077808  0.25063100  1
  Co  Co98  1  0.62232517  0.37795832  0.62688807  1
  Co  Co99  1  -0.00159726  0.75144017  0.25703922  1
  Co  Co100  1  0.49579791  -0.00009337  0.75518288  1
  Co  Co101  1  0.50164770  0.24725845  0.50185614  1
  Co  Co102  1  0.12857209  0.87631086  0.87195697  1
  Co  Co103  1  0.36983880  0.12885322  0.87757516  1
  Co  Co104  1  0.25076737  0.00398827  0.50035449  1
  Co  Co105  1  0.75070470  0.49580398  0.24942090  1
  Co  Co106  1  0.24884238  0.74770887  0.49902043  1
  Co  Co107  1  0.74825492  0.24747593  0.50217978  1
  Co  Co108  1  0.75477936  0.50073452  0.74831427  1
  Co  Co109  1  0.37442755  0.87510904  0.62246426  1
  Co  Co110  1  0.74937407  0.75334694  0.25376420  1
  Co  Co111  1  0.87456426  0.37327105  0.87440254  1
  Co  Co112  1  0.49848640  -0.00103946  0.24707924  1
  Co  Co113  1  -0.00335965  0.50033767  0.24719260  1
  Co  Co114  1  0.24473196  0.25160571  0.00116713  1
  Co  Co115  1  0.87464041  0.87279985  0.62576199  1
  Co  Co116  1  0.50141860  0.24826510  0.75256897  1
  Co  Co117  1  0.87191345  0.62180563  0.37273684  1
  Co  Co118  1  -0.00187039  -0.00020965  0.50269332  1
  Co  Co119  1  0.50064308  0.50277510  0.49776999  1
  Co  Co120  1  0.49674616  0.50172072  0.75191008  1
  Co  Co121  1  0.12496401  0.87289473  0.12879270  1
  Co  Co122  1  0.00217882  0.75345395  -0.00333344  1
  Co  Co123  1  0.87304520  0.63125212  0.12707875  1
  Co  Co124  1  0.50547034  0.24845466  -0.00407494  1
  Co  Co125  1  0.75359688  0.00039111  0.74799605  1
  Co  Co126  1  0.62969479  0.12186364  0.87174012  1
  Co  Co127  1  0.87222778  0.88070744  0.37525895  1
