# generated using pymatgen
data_Fe45Co19
_symmetry_space_group_name_H-M   'P 1'
_cell_length_a   11.40697169
_cell_length_b   11.40707308
_cell_length_c   11.40724940
_cell_angle_alpha   89.99749574
_cell_angle_beta   89.98913709
_cell_angle_gamma   90.01039432
_symmetry_Int_Tables_number   1
_chemical_formula_structural   Fe45Co19
_chemical_formula_sum   'Fe90 Co38'
_cell_volume   1484.31306052
_cell_formula_units_Z   2
loop_
 _symmetry_equiv_pos_site_id
 _symmetry_equiv_pos_as_xyz
  1  'x, y, z'
loop_
 _atom_site_type_symbol
 _atom_site_label
 _atom_site_symmetry_multiplicity
 _atom_site_fract_x
 _atom_site_fract_y
 _atom_site_fract_z
 _atom_site_occupancy
  Fe  Fe0  1  0.12550357  0.87461959  0.37726554  1
  Fe  Fe1  1  0.62491462  0.87354177  0.37541978  1
  Fe  Fe2  1  0.62439055  0.62110454  0.37315753  1
  Fe  Fe3  1  0.25414963  0.75283667  0.24991216  1
  Fe  Fe4  1  0.87386248  0.12579633  0.12413316  1
  Fe  Fe5  1  0.74901592  0.24993047  0.49700371  1
  Fe  Fe6  1  0.37463257  0.62306547  0.87568965  1
  Fe  Fe7  1  0.75238592  0.74846138  0.25295389  1
  Fe  Fe8  1  0.49520495  0.75180168  0.24884268  1
  Fe  Fe9  1  0.12475429  0.13403353  0.62922877  1
  Fe  Fe10  1  0.00401269  0.00425629  0.50244124  1
  Fe  Fe11  1  0.37195680  0.87871035  0.62031172  1
  Fe  Fe12  1  0.00413104  0.49441692  0.74735953  1
  Fe  Fe13  1  0.62673181  0.87296725  0.62481541  1
  Fe  Fe14  1  0.62531438  0.37267110  0.62506862  1
  Fe  Fe15  1  0.12275974  0.37139112  0.37605215  1
  Fe  Fe16  1  0.37539775  0.37624466  0.87709594  1
  Fe  Fe17  1  0.37650803  0.12180533  0.87714660  1
  Fe  Fe18  1  0.24897327  0.24844784  -0.00123155  1
  Fe  Fe19  1  0.75510279  0.75016339  0.74741092  1
  Fe  Fe20  1  0.50450755  0.50188920  -0.00114342  1
  Fe  Fe21  1  0.75297853  0.24893200  0.75268794  1
  Fe  Fe22  1  0.24657330  0.50012556  0.00035866  1
  Fe  Fe23  1  -0.00110556  0.74699049  0.50432365  1
  Fe  Fe24  1  0.24665219  0.00103662  0.75104040  1
  Fe  Fe25  1  0.12306854  0.12707934  0.12709707  1
  Fe  Fe26  1  0.74715826  0.00249960  0.50063953  1
  Fe  Fe27  1  0.25146786  0.75162625  0.75123996  1
  Fe  Fe28  1  0.50073720  0.25182127  0.24957446  1
  Fe  Fe29  1  0.50264421  0.24778416  0.49816054  1
  Fe  Fe30  1  0.62977686  0.37735261  0.12388999  1
  Fe  Fe31  1  0.24734175  0.49545555  0.74771389  1
  Fe  Fe32  1  0.12608891  0.62628266  0.37462767  1
  Fe  Fe33  1  0.87561385  0.62455849  0.12529741  1
  Fe  Fe34  1  0.11935643  0.12735193  0.87258829  1
  Fe  Fe35  1  0.87584945  0.87350308  0.12460655  1
  Fe  Fe36  1  0.12380511  0.62603316  0.87098261  1
  Fe  Fe37  1  0.87421495  0.12282900  0.62917858  1
  Fe  Fe38  1  0.49994337  -0.00274253  0.24951143  1
  Fe  Fe39  1  0.62759423  0.12464812  0.12856151  1
  Fe  Fe40  1  0.25001005  -0.00132046  0.25020922  1
  Fe  Fe41  1  0.00063434  0.75058521  -0.00241105  1
  Fe  Fe42  1  0.37712411  0.37662578  0.37588628  1
  Fe  Fe43  1  0.49793345  0.25044423  0.75087542  1
  Fe  Fe44  1  0.87046967  0.37731794  0.87963609  1
  Fe  Fe45  1  -0.00186182  0.49672958  0.24775686  1
  Fe  Fe46  1  0.87680323  0.87522652  0.37947006  1
  Fe  Fe47  1  0.37407148  0.62276889  0.37524009  1
  Fe  Fe48  1  0.75239985  0.25632603  0.25359828  1
  Fe  Fe49  1  0.74983889  0.00162563  -0.00244020  1
  Fe  Fe50  1  0.75243334  0.74603357  0.50271056  1
  Fe  Fe51  1  0.87977446  0.88095310  0.87139627  1
  Fe  Fe52  1  0.50253086  -0.00130172  0.74890607  1
  Fe  Fe53  1  0.49750647  0.74890388  0.00229055  1
  Fe  Fe54  1  0.37433025  0.12456367  0.62484737  1
  Fe  Fe55  1  0.25008468  0.24799323  0.49693264  1
  Fe  Fe56  1  0.62455634  0.87124783  0.87466731  1
  Fe  Fe57  1  0.62562101  0.12606265  0.87206542  1
  Fe  Fe58  1  0.37475587  0.37706854  0.12283151  1
  Fe  Fe59  1  0.37202165  0.37339763  0.62365334  1
  Fe  Fe60  1  0.37362821  0.88000040  0.87961828  1
  Fe  Fe61  1  0.49562490  0.75056718  0.74846902  1
  Fe  Fe62  1  0.87386222  0.37620065  0.62114922  1
  Fe  Fe63  1  0.87618880  0.62045505  0.37695915  1
  Fe  Fe64  1  0.62645301  0.62482565  0.12746863  1
  Fe  Fe65  1  0.37125539  0.62337714  0.62331424  1
  Fe  Fe66  1  0.25236127  0.25012498  0.24986390  1
  Fe  Fe67  1  0.75124199  -0.00240886  0.25140844  1
  Fe  Fe68  1  0.12500803  0.87406441  0.12390524  1
  Fe  Fe69  1  0.37532762  0.12093687  0.37578416  1
  Fe  Fe70  1  0.12542044  0.87128563  0.62566827  1
  Fe  Fe71  1  0.00648085  0.49979026  0.50418649  1
  Fe  Fe72  1  0.62621827  0.87365977  0.12447060  1
  Fe  Fe73  1  0.87572552  0.12440885  0.37443634  1
  Fe  Fe74  1  0.50416028  0.00213678  0.50036122  1
  Fe  Fe75  1  0.87757629  0.62258321  0.87190551  1
  Fe  Fe76  1  -0.00222977  0.25096167  -0.00105462  1
  Fe  Fe77  1  -0.00461494  0.25400099  0.25002013  1
  Fe  Fe78  1  0.50186867  0.50014294  0.75032615  1
  Fe  Fe79  1  0.50145973  0.50001332  0.50205065  1
  Fe  Fe80  1  0.00224545  0.49843936  0.00159256  1
  Fe  Fe81  1  0.24953848  0.49822426  0.25024282  1
  Fe  Fe82  1  0.00016249  -0.00177284  0.24971725  1
  Fe  Fe83  1  0.75249522  0.74839781  -0.00311612  1
  Fe  Fe84  1  0.50347600  0.24998458  0.00053928  1
  Fe  Fe85  1  0.49782360  0.74942277  0.49939299  1
  Fe  Fe86  1  0.37612653  0.12094152  0.12200291  1
  Fe  Fe87  1  0.25025359  0.75008226  0.00003354  1
  Fe  Fe88  1  0.12504129  0.62665184  0.12714478  1
  Fe  Fe89  1  0.74576521  0.50178739  0.75016874  1
  Co  Co90  1  0.25101853  0.74884459  0.49871062  1
  Co  Co91  1  -0.00357356  0.75079592  0.74707009  1
  Co  Co92  1  0.25384850  0.25044581  0.75464549  1
  Co  Co93  1  0.37408977  0.87920908  0.37930299  1
  Co  Co94  1  0.87641435  0.61923933  0.62692528  1
  Co  Co95  1  0.74881631  0.24487743  -0.00241746  1
  Co  Co96  1  0.12600203  0.37263130  0.12545754  1
  Co  Co97  1  -0.00248497  0.24585265  0.50031108  1
  Co  Co98  1  0.12776199  0.62777635  0.62853784  1
  Co  Co99  1  0.24352870  0.00421912  0.50191595  1
  Co  Co100  1  0.37386294  0.87980944  0.12009081  1
  Co  Co101  1  0.12722476  0.36665334  0.62353276  1
  Co  Co102  1  0.87048721  0.37567893  0.11860662  1
  Co  Co103  1  0.12373833  0.12757412  0.37034754  1
  Co  Co104  1  -0.00628606  0.25626398  0.75217534  1
  Co  Co105  1  0.74534662  0.50138307  0.50128332  1
  Co  Co106  1  0.62368833  0.62833483  0.62678269  1
  Co  Co107  1  0.00451819  -0.00037402  0.74579720  1
  Co  Co108  1  0.87779716  0.37902372  0.38151884  1
  Co  Co109  1  0.37311589  0.62202633  0.12480512  1
  Co  Co110  1  0.62333529  0.63097015  0.87202344  1
  Co  Co111  1  0.24661236  0.49845069  0.49968160  1
  Co  Co112  1  0.12307073  0.87359157  0.87371430  1
  Co  Co113  1  0.62618004  0.12772615  0.62783480  1
  Co  Co114  1  -0.00146608  0.75079291  0.25243054  1
  Co  Co115  1  0.74654521  0.50619892  -0.00155065  1
  Co  Co116  1  0.00072521  -0.00001583  0.00285465  1
  Co  Co117  1  0.62373166  0.37814597  0.37491098  1
  Co  Co118  1  0.49889188  0.49962835  0.24781065  1
  Co  Co119  1  0.62651205  0.37345515  0.87447210  1
  Co  Co120  1  0.50684796  0.00082254  -0.00029862  1
  Co  Co121  1  0.75424750  0.49810864  0.25056080  1
  Co  Co122  1  0.12602262  0.37276918  0.87598809  1
  Co  Co123  1  0.24316120  0.00301978  -0.00140631  1
  Co  Co124  1  0.87483847  0.87995393  0.62332881  1
  Co  Co125  1  0.74650945  -0.00155356  0.75154688  1
  Co  Co126  1  0.87867089  0.12071888  0.87283848  1
  Co  Co127  1  0.62569588  0.12509149  0.37069373  1
