# generated using pymatgen
data_Fe45Co19
_symmetry_space_group_name_H-M   'P 1'
_cell_length_a   11.41507555
_cell_length_b   11.41472503
_cell_length_c   11.41497783
_cell_angle_alpha   90.00101040
_cell_angle_beta   90.00519769
_cell_angle_gamma   89.99369944
_symmetry_Int_Tables_number   1
_chemical_formula_structural   Fe45Co19
_chemical_formula_sum   'Fe90 Co38'
_cell_volume   1487.37100952
_cell_formula_units_Z   2
loop_
 _symmetry_equiv_pos_site_id
 _symmetry_equiv_pos_as_xyz
  1  'x, y, z'
loop_
 _atom_site_type_symbol
 _atom_site_label
 _atom_site_symmetry_multiplicity
 _atom_site_fract_x
 _atom_site_fract_y
 _atom_site_fract_z
 _atom_site_occupancy
  Fe  Fe0  1  0.12715242  0.62354953  0.12786841  1
  Fe  Fe1  1  0.37421090  0.12773308  0.87612531  1
  Fe  Fe2  1  0.87709715  0.12714131  0.62430909  1
  Fe  Fe3  1  0.62589921  0.87317203  0.12882898  1
  Fe  Fe4  1  0.75047424  -0.00147188  0.49923493  1
  Fe  Fe5  1  -0.00166401  -0.00123901  0.49837794  1
  Fe  Fe6  1  0.24800138  0.25416703  0.74602884  1
  Fe  Fe7  1  0.49794948  -0.00136366  0.25237713  1
  Fe  Fe8  1  0.50119663  0.25206482  0.25041561  1
  Fe  Fe9  1  0.62289386  0.37879943  0.62404118  1
  Fe  Fe10  1  0.87202013  0.86919462  0.37570214  1
  Fe  Fe11  1  0.12429159  0.87479539  0.87332617  1
  Fe  Fe12  1  0.37334312  0.62540960  0.87409619  1
  Fe  Fe13  1  0.62516694  0.87452050  0.87328739  1
  Fe  Fe14  1  0.37505505  0.12643217  0.62303356  1
  Fe  Fe15  1  0.62589687  0.12321401  0.37377897  1
  Fe  Fe16  1  0.62115666  0.62403615  0.12806671  1
  Fe  Fe17  1  -0.00083577  0.50168765  0.00257495  1
  Fe  Fe18  1  0.62577696  0.37848754  0.12734537  1
  Fe  Fe19  1  0.37421757  0.87530331  0.87428730  1
  Fe  Fe20  1  0.49899657  -0.00305010  0.49663621  1
  Fe  Fe21  1  -0.00009163  0.25131652  0.00185720  1
  Fe  Fe22  1  0.12499705  0.62546682  0.87419008  1
  Fe  Fe23  1  0.87597333  0.37711063  0.87577172  1
  Fe  Fe24  1  0.24958066  0.25177344  0.25033840  1
  Fe  Fe25  1  0.12808744  0.87676399  0.62596886  1
  Fe  Fe26  1  0.37531468  0.37240993  0.87770500  1
  Fe  Fe27  1  -0.00052383  0.50099509  0.25083322  1
  Fe  Fe28  1  -0.00117573  0.25243646  0.24980230  1
  Fe  Fe29  1  -0.00118549  -0.00124154  0.74873191  1
  Fe  Fe30  1  0.50130847  0.25129271  0.74927307  1
  Fe  Fe31  1  0.62546786  0.37648904  0.87476214  1
  Fe  Fe32  1  0.87935831  0.37402519  0.62383925  1
  Fe  Fe33  1  0.00612246  0.74757335  0.50097962  1
  Fe  Fe34  1  -0.00114468  -0.00144203  0.00067981  1
  Fe  Fe35  1  0.62527171  0.12274754  0.62437030  1
  Fe  Fe36  1  0.75377589  0.50331054  0.74884430  1
  Fe  Fe37  1  0.25270141  -0.00064789  0.25177521  1
  Fe  Fe38  1  0.12562428  0.12553097  0.37537375  1
  Fe  Fe39  1  0.25116146  0.00101821  0.49842900  1
  Fe  Fe40  1  0.12591171  0.12459345  0.87368001  1
  Fe  Fe41  1  0.12417082  0.12483603  0.12592458  1
  Fe  Fe42  1  0.49873789  -0.00043632  0.74960496  1
  Fe  Fe43  1  0.75134675  0.50218776  0.50113560  1
  Fe  Fe44  1  0.13257999  0.62179764  0.62693406  1
  Fe  Fe45  1  0.49525941  0.49975198  0.74923828  1
  Fe  Fe46  1  0.75021257  0.25151773  0.00242990  1
  Fe  Fe47  1  0.37395670  0.87077988  0.62188924  1
  Fe  Fe48  1  0.74965002  0.25191680  0.49953848  1
  Fe  Fe49  1  0.37388727  0.37426252  0.12283286  1
  Fe  Fe50  1  0.62414642  0.37988445  0.37488049  1
  Fe  Fe51  1  0.12682321  0.37672277  0.37759608  1
  Fe  Fe52  1  0.87421156  0.87097811  0.12652692  1
  Fe  Fe53  1  0.49945955  0.74910079  0.25417260  1
  Fe  Fe54  1  0.12212086  0.12719626  0.62325718  1
  Fe  Fe55  1  0.37481843  0.12741681  0.12436753  1
  Fe  Fe56  1  0.49525656  0.50587989  0.50036251  1
  Fe  Fe57  1  0.50081391  0.74911638  0.74715210  1
  Fe  Fe58  1  0.12740939  0.87445613  0.37374330  1
  Fe  Fe59  1  0.87509067  0.12534721  0.87518302  1
  Fe  Fe60  1  0.25044232  0.50034784  0.00135530  1
  Fe  Fe61  1  0.87306063  0.12619069  0.37318219  1
  Fe  Fe62  1  0.87373788  0.86915866  0.62456685  1
  Fe  Fe63  1  0.75037738  0.25165411  0.74824334  1
  Fe  Fe64  1  -0.00340707  -0.00105659  0.25132049  1
  Fe  Fe65  1  0.12399956  0.37596143  0.87523708  1
  Fe  Fe66  1  0.37494226  0.87331288  0.12573891  1
  Fe  Fe67  1  0.25052997  0.00016073  -0.00022664  1
  Fe  Fe68  1  -0.00070491  0.50287717  0.74809162  1
  Fe  Fe69  1  0.24900464  0.75010165  0.00101492  1
  Fe  Fe70  1  0.00149347  0.50403308  0.49949404  1
  Fe  Fe71  1  0.37418210  0.37371166  0.37771363  1
  Fe  Fe72  1  0.87775026  0.86726015  0.87316561  1
  Fe  Fe73  1  0.74955159  0.74672478  0.00016438  1
  Fe  Fe74  1  0.75194970  0.50405337  0.00028991  1
  Fe  Fe75  1  0.75304620  0.50436928  0.25040303  1
  Fe  Fe76  1  0.74193900  0.74578036  0.49977527  1
  Fe  Fe77  1  0.75163712  -0.00258482  0.74915268  1
  Fe  Fe78  1  0.49908605  0.49970440  0.00100455  1
  Fe  Fe79  1  0.12531609  0.87601033  0.12645691  1
  Fe  Fe80  1  0.36927404  0.62816208  0.37452552  1
  Fe  Fe81  1  0.62554577  0.12446871  0.87530188  1
  Fe  Fe82  1  0.50133407  0.24981468  0.49942443  1
  Fe  Fe83  1  0.00094856  0.74751252  0.25125809  1
  Fe  Fe84  1  0.62713688  0.12440313  0.12690066  1
  Fe  Fe85  1  0.87454640  0.37654139  0.37508059  1
  Fe  Fe86  1  0.62416469  0.62385843  0.87248676  1
  Fe  Fe87  1  0.50016739  0.00024853  0.00075207  1
  Fe  Fe88  1  0.49987569  0.74914550  -0.00015848  1
  Fe  Fe89  1  0.75190668  -0.00239131  0.00161662  1
  Co  Co90  1  0.87876073  0.62863420  0.87497650  1
  Co  Co91  1  0.62375299  0.87614859  0.62466869  1
  Co  Co92  1  0.37471453  0.62621056  0.12503660  1
  Co  Co93  1  0.24925371  0.75131995  0.75239203  1
  Co  Co94  1  0.12857464  0.62334609  0.37184124  1
  Co  Co95  1  0.25130927  0.00122011  0.74835092  1
  Co  Co96  1  0.62377912  0.61984600  0.37275824  1
  Co  Co97  1  0.25148489  0.49474949  0.75067613  1
  Co  Co98  1  0.74725214  0.74731372  0.74943827  1
  Co  Co99  1  0.87423664  0.62877180  0.62251669  1
  Co  Co100  1  0.87453379  0.37670679  0.12536043  1
  Co  Co101  1  0.50416914  0.25068560  0.00172577  1
  Co  Co102  1  0.37026480  0.62823100  0.62636952  1
  Co  Co103  1  0.00439866  0.74779804  0.74485794  1
  Co  Co104  1  0.25111352  0.49872158  0.50022656  1
  Co  Co105  1  0.75285549  -0.00115981  0.24998525  1
  Co  Co106  1  0.87762104  0.62614061  0.12499905  1
  Co  Co107  1  0.37743683  0.37579763  0.62178688  1
  Co  Co108  1  0.12506072  0.37662229  0.12535341  1
  Co  Co109  1  0.25274433  0.49763898  0.24971106  1
  Co  Co110  1  0.49350980  0.49966880  0.25054209  1
  Co  Co111  1  0.62298410  0.62052069  0.62695354  1
  Co  Co112  1  0.24671324  0.25055377  0.00055643  1
  Co  Co113  1  0.37470236  0.12719589  0.37514534  1
  Co  Co114  1  0.24551273  0.74912505  0.49924863  1
  Co  Co115  1  0.74931489  0.74449522  0.25062853  1
  Co  Co116  1  0.74895802  0.25263335  0.25141517  1
  Co  Co117  1  0.50337912  0.74657968  0.49879731  1
  Co  Co118  1  0.24937317  0.25083186  0.50210702  1
  Co  Co119  1  -0.00137839  0.24987599  0.49536647  1
  Co  Co120  1  0.37308615  0.87100669  0.37734849  1
  Co  Co121  1  0.87638458  0.12619364  0.12553514  1
  Co  Co122  1  0.87620633  0.62758213  0.37825832  1
  Co  Co123  1  0.12060876  0.37529244  0.62164032  1
  Co  Co124  1  0.00058429  0.25073925  0.75224318  1
  Co  Co125  1  0.00376576  0.74967300  0.00332302  1
  Co  Co126  1  0.24878695  0.75093445  0.24782898  1
  Co  Co127  1  0.62657248  0.87600138  0.37298147  1
