# generated using pymatgen
data_Fe45Co19
_symmetry_space_group_name_H-M   'P 1'
_cell_length_a   11.41410430
_cell_length_b   11.41515072
_cell_length_c   11.41491117
_cell_angle_alpha   89.99278846
_cell_angle_beta   89.99407908
_cell_angle_gamma   89.99498669
_symmetry_Int_Tables_number   1
_chemical_formula_structural   Fe45Co19
_chemical_formula_sum   'Fe90 Co38'
_cell_volume   1487.29122429
_cell_formula_units_Z   2
loop_
 _symmetry_equiv_pos_site_id
 _symmetry_equiv_pos_as_xyz
  1  'x, y, z'
loop_
 _atom_site_type_symbol
 _atom_site_label
 _atom_site_symmetry_multiplicity
 _atom_site_fract_x
 _atom_site_fract_y
 _atom_site_fract_z
 _atom_site_occupancy
  Fe  Fe0  1  0.87615119  0.62335602  0.87586262  1
  Fe  Fe1  1  0.37560014  0.12415055  0.62528058  1
  Fe  Fe2  1  0.74899570  0.75002654  0.25044619  1
  Fe  Fe3  1  -0.00210256  0.25186867  0.49667245  1
  Fe  Fe4  1  0.62441775  0.62408017  0.62556610  1
  Fe  Fe5  1  0.12374261  0.87453862  0.12477230  1
  Fe  Fe6  1  0.37686537  0.62447519  0.12575004  1
  Fe  Fe7  1  0.87650515  0.62397534  0.62544200  1
  Fe  Fe8  1  0.12445436  0.62491715  0.87829338  1
  Fe  Fe9  1  -0.00223047  0.74937291  0.25055796  1
  Fe  Fe10  1  0.87191269  0.62296825  0.12442461  1
  Fe  Fe11  1  0.87437842  0.37566525  0.62541551  1
  Fe  Fe12  1  0.62420245  0.62443244  0.87646820  1
  Fe  Fe13  1  0.74909168  0.49835008  0.75037968  1
  Fe  Fe14  1  0.25033342  0.00016047  0.50020631  1
  Fe  Fe15  1  0.12383674  0.12726323  0.12732549  1
  Fe  Fe16  1  0.37248598  0.87606614  0.87108739  1
  Fe  Fe17  1  -0.00743709  0.24557009  0.25146405  1
  Fe  Fe18  1  0.74918128  0.74983715  0.75016248  1
  Fe  Fe19  1  0.12434647  0.37526283  0.37118538  1
  Fe  Fe20  1  0.00167142  0.50223447  0.25005371  1
  Fe  Fe21  1  0.62527416  0.12686068  0.87433159  1
  Fe  Fe22  1  0.37573907  0.37698195  0.62474048  1
  Fe  Fe23  1  0.37653751  0.87620057  0.37348994  1
  Fe  Fe24  1  0.37996428  0.37380093  0.13021699  1
  Fe  Fe25  1  0.00006694  0.25326783  0.75179839  1
  Fe  Fe26  1  0.00335004  -0.00103742  0.74888778  1
  Fe  Fe27  1  0.37463557  0.12533613  0.12673139  1
  Fe  Fe28  1  0.24751876  0.49985404  0.74878697  1
  Fe  Fe29  1  0.75253691  0.74969683  -0.00108613  1
  Fe  Fe30  1  0.25076916  0.74837360  0.49908658  1
  Fe  Fe31  1  0.50178698  0.25263932  0.74877183  1
  Fe  Fe32  1  0.37262985  0.87509325  0.62826579  1
  Fe  Fe33  1  0.24882743  0.49910529  0.49758636  1
  Fe  Fe34  1  0.00005644  0.49600423  -0.00055072  1
  Fe  Fe35  1  0.50280381  0.74743758  0.24940985  1
  Fe  Fe36  1  0.50390910  0.49896829  0.49892000  1
  Fe  Fe37  1  0.87564219  0.87428189  0.62527963  1
  Fe  Fe38  1  0.12470884  0.62535797  0.12458119  1
  Fe  Fe39  1  0.12351669  0.62639992  0.62187626  1
  Fe  Fe40  1  0.25092163  0.75044603  -0.00110890  1
  Fe  Fe41  1  0.37660836  0.62393042  0.62812858  1
  Fe  Fe42  1  0.87428780  0.12733437  0.62443970  1
  Fe  Fe43  1  0.62710580  0.12659121  0.37682346  1
  Fe  Fe44  1  0.12366678  0.87454317  0.37495124  1
  Fe  Fe45  1  0.62410603  0.87404240  0.37734096  1
  Fe  Fe46  1  0.87460637  0.87810113  0.37456527  1
  Fe  Fe47  1  0.87280222  0.87924747  0.12487201  1
  Fe  Fe48  1  0.74953921  0.00160108  0.74874497  1
  Fe  Fe49  1  0.37425615  0.37517139  0.87547729  1
  Fe  Fe50  1  0.74121313  0.49841828  0.24949830  1
  Fe  Fe51  1  0.62608145  0.87516210  0.12337089  1
  Fe  Fe52  1  0.87192400  0.62187906  0.37467413  1
  Fe  Fe53  1  0.50066854  0.00237348  0.00021144  1
  Fe  Fe54  1  0.75233679  0.25472734  0.49713034  1
  Fe  Fe55  1  0.62639094  0.37391718  0.87649720  1
  Fe  Fe56  1  0.37879036  0.37706249  0.36979172  1
  Fe  Fe57  1  -0.00027937  0.00150935  0.00104937  1
  Fe  Fe58  1  0.25053731  0.00088366  0.00071220  1
  Fe  Fe59  1  0.75209470  0.74817294  0.50116383  1
  Fe  Fe60  1  0.12465993  0.12754148  0.62376550  1
  Fe  Fe61  1  0.12547603  0.12445884  0.37312076  1
  Fe  Fe62  1  0.37617452  0.87550482  0.12641886  1
  Fe  Fe63  1  0.75364783  0.25059911  -0.00087706  1
  Fe  Fe64  1  0.49945317  0.75076456  0.50278038  1
  Fe  Fe65  1  0.24996755  0.25142304  0.74788235  1
  Fe  Fe66  1  0.87386949  0.37568563  0.12586602  1
  Fe  Fe67  1  0.24962474  0.25257698  0.00370450  1
  Fe  Fe68  1  0.00394696  0.75224771  0.75087092  1
  Fe  Fe69  1  0.49953206  0.25011992  0.50020245  1
  Fe  Fe70  1  0.37467820  0.12564777  0.87344443  1
  Fe  Fe71  1  0.62952144  0.12802552  0.12562940  1
  Fe  Fe72  1  0.24939155  0.74835215  0.25066015  1
  Fe  Fe73  1  0.87566574  0.12610989  0.87516835  1
  Fe  Fe74  1  0.49879828  0.75069473  -0.00210921  1
  Fe  Fe75  1  0.24880966  0.49568153  0.00494367  1
  Fe  Fe76  1  0.74813173  -0.00058474  0.50207591  1
  Fe  Fe77  1  0.37691987  0.62278509  0.37244629  1
  Fe  Fe78  1  0.00204498  0.49671026  0.75126900  1
  Fe  Fe79  1  0.50295067  0.00021707  0.74639911  1
  Fe  Fe80  1  0.62489467  0.87515174  0.87457447  1
  Fe  Fe81  1  0.00041045  -0.00044181  0.50075225  1
  Fe  Fe82  1  0.50266520  0.00232947  0.25015133  1
  Fe  Fe83  1  0.37392506  0.12329640  0.37329296  1
  Fe  Fe84  1  0.25072002  0.25222550  0.49788198  1
  Fe  Fe85  1  0.37560910  0.62316110  0.87376607  1
  Fe  Fe86  1  0.87690333  0.87594918  0.87592894  1
  Fe  Fe87  1  0.12579969  0.12786483  0.87599412  1
  Fe  Fe88  1  -0.00035831  0.49954999  0.49876830  1
  Fe  Fe89  1  0.50323734  0.49777771  0.00317284  1
  Co  Co90  1  -0.00206127  0.25132373  0.00068500  1
  Co  Co91  1  0.49901920  0.24892727  -0.00084626  1
  Co  Co92  1  0.24653866  0.74721236  0.75097456  1
  Co  Co93  1  0.74763777  0.00049702  0.25197224  1
  Co  Co94  1  0.50098414  0.75030416  0.75005229  1
  Co  Co95  1  0.62629948  0.87389439  0.62386848  1
  Co  Co96  1  0.50691435  0.50382684  0.24774937  1
  Co  Co97  1  0.12044119  0.37249940  0.12993310  1
  Co  Co98  1  0.24969313  0.50029048  0.24879087  1
  Co  Co99  1  0.74956371  0.25031503  0.75046262  1
  Co  Co100  1  0.62587039  0.62921963  0.12097921  1
  Co  Co101  1  0.12791718  0.37342341  0.87549351  1
  Co  Co102  1  0.62661053  0.12808884  0.62232663  1
  Co  Co103  1  0.12617328  0.87333443  0.62153368  1
  Co  Co104  1  0.50009888  0.24500452  0.25111696  1
  Co  Co105  1  0.87071339  0.12217577  0.12308400  1
  Co  Co106  1  0.75624523  0.25022299  0.25350681  1
  Co  Co107  1  -0.00124674  0.00172701  0.24981025  1
  Co  Co108  1  0.62228629  0.37189641  0.37271022  1
  Co  Co109  1  0.74819145  0.49865055  0.00083344  1
  Co  Co110  1  -0.00340003  0.74944789  0.00241159  1
  Co  Co111  1  0.62501466  0.36758534  0.12658016  1
  Co  Co112  1  0.62616101  0.37426057  0.62379424  1
  Co  Co113  1  0.74882537  0.00061001  -0.00358716  1
  Co  Co114  1  0.87335267  0.37545796  0.87527405  1
  Co  Co115  1  0.12436023  0.62486920  0.37542221  1
  Co  Co116  1  0.12453481  0.37407347  0.62327346  1
  Co  Co117  1  0.50196915  0.49693256  0.75149729  1
  Co  Co118  1  0.25145399  0.25112779  0.25037599  1
  Co  Co119  1  0.87541994  0.38110660  0.37309059  1
  Co  Co120  1  -0.00373774  0.74946702  0.49696549  1
  Co  Co121  1  0.87250818  0.12005268  0.37838231  1
  Co  Co122  1  0.62532051  0.62719699  0.37811913  1
  Co  Co123  1  0.24611851  0.00169352  0.74907868  1
  Co  Co124  1  0.74843310  0.49902958  0.50071884  1
  Co  Co125  1  0.12543056  0.87542071  0.87892424  1
  Co  Co126  1  0.24926361  -0.00106570  0.24940236  1
  Co  Co127  1  0.49967568  0.00016509  0.50101985  1
