# generated using pymatgen
data_Fe45Co19
_symmetry_space_group_name_H-M   'P 1'
_cell_length_a   11.41645647
_cell_length_b   11.41532272
_cell_length_c   11.41459817
_cell_angle_alpha   90.01516467
_cell_angle_beta   90.00043548
_cell_angle_gamma   89.99292046
_symmetry_Int_Tables_number   1
_chemical_formula_structural   Fe45Co19
_chemical_formula_sum   'Fe90 Co38'
_cell_volume   1487.57930563
_cell_formula_units_Z   2
loop_
 _symmetry_equiv_pos_site_id
 _symmetry_equiv_pos_as_xyz
  1  'x, y, z'
loop_
 _atom_site_type_symbol
 _atom_site_label
 _atom_site_symmetry_multiplicity
 _atom_site_fract_x
 _atom_site_fract_y
 _atom_site_fract_z
 _atom_site_occupancy
  Fe  Fe0  1  0.12815169  0.87514258  0.62673754  1
  Fe  Fe1  1  0.87375044  0.62500002  0.62435724  1
  Fe  Fe2  1  0.24996373  0.49895561  -0.00097409  1
  Fe  Fe3  1  -0.00044897  0.24684399  0.25004361  1
  Fe  Fe4  1  0.87879619  0.87749234  0.37651915  1
  Fe  Fe5  1  0.12643619  0.62614002  0.62480795  1
  Fe  Fe6  1  0.74779407  -0.00494612  -0.00169107  1
  Fe  Fe7  1  0.75031291  0.24929210  0.25206719  1
  Fe  Fe8  1  0.49624359  0.75080377  0.50019396  1
  Fe  Fe9  1  0.37551667  0.37549776  0.12560830  1
  Fe  Fe10  1  0.62055775  0.87777827  0.62784227  1
  Fe  Fe11  1  0.74857799  0.49875203  0.75048890  1
  Fe  Fe12  1  0.87382592  0.12171281  0.87325932  1
  Fe  Fe13  1  0.87402289  0.87833141  0.62489621  1
  Fe  Fe14  1  0.24937243  0.25091451  0.75084393  1
  Fe  Fe15  1  0.75036248  0.25020279  0.75041255  1
  Fe  Fe16  1  0.75036058  0.75051461  0.25261237  1
  Fe  Fe17  1  0.25166266  0.00106536  0.00077759  1
  Fe  Fe18  1  -0.00140620  0.24635665  0.74650182  1
  Fe  Fe19  1  0.00061792  0.00138204  0.00228766  1
  Fe  Fe20  1  0.12297123  0.37397563  0.37725720  1
  Fe  Fe21  1  0.12180741  0.37117792  0.12192333  1
  Fe  Fe22  1  0.50060160  0.50221199  -0.00256920  1
  Fe  Fe23  1  0.50106149  0.50218890  0.25245749  1
  Fe  Fe24  1  0.25175684  -0.00137501  0.50129525  1
  Fe  Fe25  1  0.87385314  0.12368779  0.12601445  1
  Fe  Fe26  1  0.50203235  0.50302843  0.75177043  1
  Fe  Fe27  1  0.12717991  0.62632576  0.12541785  1
  Fe  Fe28  1  0.37440716  0.12585010  0.87536363  1
  Fe  Fe29  1  0.37289148  0.62336397  0.62549952  1
  Fe  Fe30  1  0.00171800  0.75091956  0.50065657  1
  Fe  Fe31  1  0.74867021  0.75444419  0.75239613  1
  Fe  Fe32  1  0.25283730  0.75042557  0.00037569  1
  Fe  Fe33  1  0.74867249  0.75226054  0.49895105  1
  Fe  Fe34  1  0.12360543  0.87541526  0.87462773  1
  Fe  Fe35  1  0.12243341  0.37328826  0.87758776  1
  Fe  Fe36  1  0.62601150  0.12435188  0.87521005  1
  Fe  Fe37  1  0.37149731  0.12382283  0.62564102  1
  Fe  Fe38  1  0.12513271  0.37114588  0.62191198  1
  Fe  Fe39  1  0.75053145  0.24933399  0.49810768  1
  Fe  Fe40  1  0.62545316  0.37460713  0.12493269  1
  Fe  Fe41  1  0.62457134  0.37575553  0.37734259  1
  Fe  Fe42  1  -0.00059460  0.74849332  0.00015494  1
  Fe  Fe43  1  0.49927869  0.24803251  0.50046862  1
  Fe  Fe44  1  0.37634495  0.12400195  0.37393285  1
  Fe  Fe45  1  0.75184388  0.49911854  0.00192373  1
  Fe  Fe46  1  0.62667937  0.62439843  0.62294059  1
  Fe  Fe47  1  0.37581780  0.37597973  0.62528405  1
  Fe  Fe48  1  0.12634809  0.62455132  0.87378613  1
  Fe  Fe49  1  0.00197682  0.50030975  0.74843940  1
  Fe  Fe50  1  0.24915657  0.50165903  0.25012914  1
  Fe  Fe51  1  0.37551438  0.37598959  0.87291829  1
  Fe  Fe52  1  0.74932555  0.75500337  -0.00281359  1
  Fe  Fe53  1  0.62538924  0.12509922  0.12578058  1
  Fe  Fe54  1  0.00074736  0.74974805  0.24947493  1
  Fe  Fe55  1  0.24835769  0.49993919  0.49919155  1
  Fe  Fe56  1  0.62584953  0.62795274  0.12562482  1
  Fe  Fe57  1  0.87389554  0.62571159  0.87453806  1
  Fe  Fe58  1  0.00170847  0.00234027  0.74606288  1
  Fe  Fe59  1  0.49948477  -0.00079782  0.24834693  1
  Fe  Fe60  1  0.62427223  0.37594560  0.62341211  1
  Fe  Fe61  1  0.87557936  0.87507826  0.12573343  1
  Fe  Fe62  1  0.12608968  0.12618207  0.87612239  1
  Fe  Fe63  1  0.12650666  0.87532016  0.37255169  1
  Fe  Fe64  1  0.37846687  0.87454563  0.87100056  1
  Fe  Fe65  1  0.87702378  0.37721061  0.37642418  1
  Fe  Fe66  1  0.12662890  0.87465738  0.12598482  1
  Fe  Fe67  1  0.75150603  0.25147627  0.00045954  1
  Fe  Fe68  1  0.50101581  0.25030720  0.25032242  1
  Fe  Fe69  1  0.37544903  0.37635540  0.37601744  1
  Fe  Fe70  1  0.25156161  0.75092683  0.49772024  1
  Fe  Fe71  1  0.74995499  0.50167247  0.25055402  1
  Fe  Fe72  1  0.87516211  0.37562523  0.62227023  1
  Fe  Fe73  1  0.25030179  0.00177501  0.24612318  1
  Fe  Fe74  1  -0.00060401  0.75057558  0.74952254  1
  Fe  Fe75  1  0.62885276  0.12140026  0.62358081  1
  Fe  Fe76  1  0.87694670  0.62440179  0.37740867  1
  Fe  Fe77  1  0.25229881  0.75103451  0.75114433  1
  Fe  Fe78  1  0.74858829  -0.00140833  0.25235708  1
  Fe  Fe79  1  0.49905659  0.74846235  -0.00067194  1
  Fe  Fe80  1  0.12394828  0.12395723  0.37811621  1
  Fe  Fe81  1  0.87741896  0.37581370  0.87647158  1
  Fe  Fe82  1  0.62032705  0.87513453  0.37463776  1
  Fe  Fe83  1  -0.00064032  0.50219282  0.24695983  1
  Fe  Fe84  1  0.87696205  0.12032896  0.37934236  1
  Fe  Fe85  1  0.50036368  -0.00135095  0.00144075  1
  Fe  Fe86  1  0.49446873  0.74942875  0.25016238  1
  Fe  Fe87  1  0.25018288  0.24880656  0.24875203  1
  Fe  Fe88  1  0.50210402  0.24823312  0.74989831  1
  Fe  Fe89  1  0.49944965  0.25119735  0.00003461  1
  Co  Co90  1  0.74654538  -0.00349376  0.49637951  1
  Co  Co91  1  0.49899776  0.00489854  0.74915483  1
  Co  Co92  1  0.62942532  0.62586707  0.87635248  1
  Co  Co93  1  0.37342164  0.62369943  0.37584056  1
  Co  Co94  1  0.00146220  0.00074417  0.24786599  1
  Co  Co95  1  0.25252160  0.74846394  0.24991950  1
  Co  Co96  1  0.25347601  0.25012975  0.49770459  1
  Co  Co97  1  0.37159807  0.62419122  0.87357517  1
  Co  Co98  1  0.37713756  0.12635946  0.12551688  1
  Co  Co99  1  0.88020861  0.87643260  0.87434496  1
  Co  Co100  1  0.62527658  0.37436984  0.87548636  1
  Co  Co101  1  0.62428625  0.87292813  0.12749511  1
  Co  Co102  1  0.37490228  0.62299042  0.12475428  1
  Co  Co103  1  0.74892705  -0.00406151  0.75310160  1
  Co  Co104  1  0.37400369  0.87531759  0.12492527  1
  Co  Co105  1  0.00157374  0.50130227  0.50224623  1
  Co  Co106  1  0.87681570  0.37298574  0.12572181  1
  Co  Co107  1  0.74941083  0.50095673  0.49822246  1
  Co  Co108  1  0.49994314  0.74384155  0.74918961  1
  Co  Co109  1  0.00360706  -0.00155756  0.50460406  1
  Co  Co110  1  -0.00358110  0.24632592  -0.00027234  1
  Co  Co111  1  0.24725485  0.49751593  0.74913349  1
  Co  Co112  1  0.12403793  0.62599173  0.37452723  1
  Co  Co113  1  0.12549710  0.12774069  0.12302392  1
  Co  Co114  1  0.12961496  0.12698198  0.62310597  1
  Co  Co115  1  0.87216038  0.62862099  0.12471167  1
  Co  Co116  1  0.62222103  0.12396706  0.37502624  1
  Co  Co117  1  0.62344551  0.62785126  0.37573787  1
  Co  Co118  1  0.49790260  0.00020047  0.50112391  1
  Co  Co119  1  -0.00236118  0.24747081  0.50134043  1
  Co  Co120  1  0.37627132  0.87561880  0.62885360  1
  Co  Co121  1  0.49996589  0.50120422  0.49951356  1
  Co  Co122  1  0.25284338  0.25096495  0.00079273  1
  Co  Co123  1  0.61820773  0.87508565  0.87116532  1
  Co  Co124  1  -0.00031219  0.50372949  0.00148997  1
  Co  Co125  1  0.24969027  -0.00029579  0.75240561  1
  Co  Co126  1  0.86974542  0.12099559  0.62270330  1
  Co  Co127  1  0.37332073  0.87740884  0.37341548  1
