# generated using pymatgen
data_Fe45Co19
_symmetry_space_group_name_H-M   'P 1'
_cell_length_a   11.41610133
_cell_length_b   11.41429402
_cell_length_c   11.41571069
_cell_angle_alpha   90.00766197
_cell_angle_beta   89.99675943
_cell_angle_gamma   89.99660939
_symmetry_Int_Tables_number   1
_chemical_formula_structural   Fe45Co19
_chemical_formula_sum   'Fe90 Co38'
_cell_volume   1487.54399385
_cell_formula_units_Z   2
loop_
 _symmetry_equiv_pos_site_id
 _symmetry_equiv_pos_as_xyz
  1  'x, y, z'
loop_
 _atom_site_type_symbol
 _atom_site_label
 _atom_site_symmetry_multiplicity
 _atom_site_fract_x
 _atom_site_fract_y
 _atom_site_fract_z
 _atom_site_occupancy
  Fe  Fe0  1  0.12264143  0.87227472  0.62218315  1
  Fe  Fe1  1  -0.00052276  0.49466367  0.49934124  1
  Fe  Fe2  1  0.50031168  0.50161516  0.75026349  1
  Fe  Fe3  1  0.87519287  0.87558929  0.62383819  1
  Fe  Fe4  1  0.62490963  0.87508074  0.62382547  1
  Fe  Fe5  1  0.62725617  0.62355385  0.87594992  1
  Fe  Fe6  1  0.50221299  0.49798849  0.25141291  1
  Fe  Fe7  1  0.62630530  0.37536789  0.87478925  1
  Fe  Fe8  1  0.37602369  0.37493182  0.12853458  1
  Fe  Fe9  1  0.62619203  0.61940322  0.37943144  1
  Fe  Fe10  1  0.00162311  0.50157374  0.74990532  1
  Fe  Fe11  1  0.74867155  0.74662728  0.25002181  1
  Fe  Fe12  1  0.37829401  0.62598473  0.62184821  1
  Fe  Fe13  1  0.37077933  0.12533991  0.37740996  1
  Fe  Fe14  1  0.49753154  -0.00021657  0.00062672  1
  Fe  Fe15  1  0.87781333  0.62597461  0.62300666  1
  Fe  Fe16  1  0.75051120  0.24988467  0.74883029  1
  Fe  Fe17  1  0.75137891  0.49914699  0.74595407  1
  Fe  Fe18  1  0.74853790  0.00241073  0.24869303  1
  Fe  Fe19  1  0.87586859  0.12854405  0.12772631  1
  Fe  Fe20  1  0.00050432  0.74552672  0.25454045  1
  Fe  Fe21  1  0.37392635  0.87512998  0.87366412  1
  Fe  Fe22  1  0.50062576  0.75018690  -0.00282218  1
  Fe  Fe23  1  0.74967679  0.74969097  0.74996957  1
  Fe  Fe24  1  0.75312429  0.25452854  0.00389271  1
  Fe  Fe25  1  0.87492366  0.12577703  0.62297353  1
  Fe  Fe26  1  0.50129883  0.25187239  0.25338292  1
  Fe  Fe27  1  0.24905102  -0.00129825  0.24712985  1
  Fe  Fe28  1  0.25117068  0.00277614  0.74639177  1
  Fe  Fe29  1  0.37781488  0.87259888  0.62414994  1
  Fe  Fe30  1  0.49874885  0.00358725  0.75000081  1
  Fe  Fe31  1  -0.00035527  0.74920762  -0.00222495  1
  Fe  Fe32  1  0.87658336  0.62262361  0.12488355  1
  Fe  Fe33  1  0.49947150  0.00167562  0.25084108  1
  Fe  Fe34  1  0.49824150  0.24658770  0.75098551  1
  Fe  Fe35  1  0.12949963  0.62116961  0.38161137  1
  Fe  Fe36  1  0.00163139  0.25413803  0.49311289  1
  Fe  Fe37  1  0.24923107  0.49793091  0.00236063  1
  Fe  Fe38  1  0.62345701  0.62379183  0.12251675  1
  Fe  Fe39  1  0.49697408  0.25167118  -0.00219106  1
  Fe  Fe40  1  0.62819435  0.87655055  0.87562926  1
  Fe  Fe41  1  0.62629016  0.12573149  0.37700623  1
  Fe  Fe42  1  0.37277345  0.37525851  0.87149956  1
  Fe  Fe43  1  0.62765680  0.12440048  0.87698333  1
  Fe  Fe44  1  0.12923904  0.12464647  0.87932347  1
  Fe  Fe45  1  0.24914691  0.74805000  0.24965382  1
  Fe  Fe46  1  0.50197670  0.74806244  0.25445291  1
  Fe  Fe47  1  0.87315662  0.12711469  0.37292645  1
  Fe  Fe48  1  0.49762194  0.49831811  -0.00144854  1
  Fe  Fe49  1  -0.00062850  0.24731766  0.75197050  1
  Fe  Fe50  1  0.12545035  0.37617751  0.87220514  1
  Fe  Fe51  1  0.00029594  0.00240208  0.74937436  1
  Fe  Fe52  1  0.62413545  0.12738250  0.12371705  1
  Fe  Fe53  1  0.87199055  0.87708506  0.87580507  1
  Fe  Fe54  1  0.12267316  0.62513844  0.12257335  1
  Fe  Fe55  1  0.75337927  0.25526431  0.49809470  1
  Fe  Fe56  1  0.00256478  0.00293868  0.25140384  1
  Fe  Fe57  1  0.25226579  0.24663809  0.74903977  1
  Fe  Fe58  1  0.75335294  0.49525750  0.00410748  1
  Fe  Fe59  1  0.87256628  0.87584042  0.37340543  1
  Fe  Fe60  1  0.62230579  0.62491675  0.62190045  1
  Fe  Fe61  1  0.49936319  -0.00142415  0.49827730  1
  Fe  Fe62  1  0.24821504  0.74731670  0.74637189  1
  Fe  Fe63  1  0.74918089  0.75076709  0.49939223  1
  Fe  Fe64  1  0.87252407  0.12441046  0.87604586  1
  Fe  Fe65  1  0.37396939  0.87434487  0.37364824  1
  Fe  Fe66  1  -0.00010119  0.00058007  0.49810218  1
  Fe  Fe67  1  0.12587920  0.87507512  0.37554264  1
  Fe  Fe68  1  0.37277319  0.61963297  0.37833031  1
  Fe  Fe69  1  0.24675874  0.50341702  0.74457503  1
  Fe  Fe70  1  0.12037133  0.37845454  0.13028403  1
  Fe  Fe71  1  0.37230102  0.62555125  0.87480421  1
  Fe  Fe72  1  0.12607733  0.12711259  0.61982709  1
  Fe  Fe73  1  0.12603117  0.87524716  0.87444791  1
  Fe  Fe74  1  0.62508234  0.87359946  0.12575025  1
  Fe  Fe75  1  0.25026342  0.25766101  0.49959851  1
  Fe  Fe76  1  0.62538694  0.12524527  0.62155964  1
  Fe  Fe77  1  0.62363459  0.37514780  0.62403914  1
  Fe  Fe78  1  0.87424545  0.62239583  0.87596113  1
  Fe  Fe79  1  0.87092274  0.62022510  0.37674177  1
  Fe  Fe80  1  0.37235523  0.12642468  0.12259326  1
  Fe  Fe81  1  0.87596881  0.87336543  0.12654809  1
  Fe  Fe82  1  -0.00080936  0.25479705  0.00061599  1
  Fe  Fe83  1  0.12660055  0.12447125  0.12189871  1
  Fe  Fe84  1  -0.00002453  -0.00041774  0.00057008  1
  Fe  Fe85  1  0.00036780  0.74836906  0.75175670  1
  Fe  Fe86  1  0.24946497  0.75271019  0.00271360  1
  Fe  Fe87  1  0.24677779  0.25035382  0.25007307  1
  Fe  Fe88  1  0.37732608  0.62622806  0.12529633  1
  Fe  Fe89  1  0.49637034  0.25606296  0.49770168  1
  Co  Co90  1  0.24994756  0.49414659  0.50726191  1
  Co  Co91  1  -0.00057445  0.49650554  -0.00174311  1
  Co  Co92  1  0.25045856  -0.00576923  0.00365394  1
  Co  Co93  1  0.88074427  0.37568698  0.13538767  1
  Co  Co94  1  0.12663149  0.62464848  0.87747313  1
  Co  Co95  1  0.11990622  0.87250363  0.12794623  1
  Co  Co96  1  0.37050966  0.37831072  0.37006533  1
  Co  Co97  1  0.12046870  0.62732553  0.61892783  1
  Co  Co98  1  0.50160744  0.74911154  0.75242775  1
  Co  Co99  1  0.87456570  0.37560616  0.87112890  1
  Co  Co100  1  0.12775355  0.38045003  0.37038659  1
  Co  Co101  1  0.62728617  0.87693499  0.37312613  1
  Co  Co102  1  0.00187613  0.50726824  0.25454469  1
  Co  Co103  1  0.75121046  0.00040477  0.49942927  1
  Co  Co104  1  0.74529572  0.49887414  0.24615176  1
  Co  Co105  1  0.00649185  0.24524967  0.25428931  1
  Co  Co106  1  0.62133941  0.37428567  0.12340279  1
  Co  Co107  1  0.25204417  0.74985256  0.50070735  1
  Co  Co108  1  0.37923883  0.87211730  0.12843562  1
  Co  Co109  1  0.13088050  0.12300640  0.37916168  1
  Co  Co110  1  0.75058929  0.74828573  0.00090120  1
  Co  Co111  1  0.87897274  0.37266661  0.62744123  1
  Co  Co112  1  0.37104009  0.12457450  0.87957129  1
  Co  Co113  1  0.24871165  0.25724924  0.00220419  1
  Co  Co114  1  0.75114784  0.00125677  0.00399921  1
  Co  Co115  1  0.12178012  0.37156175  0.62874416  1
  Co  Co116  1  0.49648664  0.49500543  0.49959588  1
  Co  Co117  1  0.75360839  0.49612600  0.50414726  1
  Co  Co118  1  0.50075961  0.75083588  0.49552562  1
  Co  Co119  1  0.24987940  0.50342768  0.24519628  1
  Co  Co120  1  0.75010569  0.00152555  0.74773657  1
  Co  Co121  1  0.37528687  0.12673231  0.61913443  1
  Co  Co122  1  0.37681585  0.37452342  0.63101167  1
  Co  Co123  1  0.62805571  0.37788777  0.37776450  1
  Co  Co124  1  0.87474956  0.37621591  0.36640228  1
  Co  Co125  1  0.25079598  -0.00397185  0.50251839  1
  Co  Co126  1  -0.00223864  0.75097718  0.49513836  1
  Co  Co127  1  0.74495477  0.25207214  0.24935094  1
