# generated using pymatgen
data_Fe45Co19
_symmetry_space_group_name_H-M   'P 1'
_cell_length_a   11.41600447
_cell_length_b   11.41601484
_cell_length_c   11.41411264
_cell_angle_alpha   89.99943050
_cell_angle_beta   89.99757667
_cell_angle_gamma   89.99633195
_symmetry_Int_Tables_number   1
_chemical_formula_structural   Fe45Co19
_chemical_formula_sum   'Fe90 Co38'
_cell_volume   1487.54738026
_cell_formula_units_Z   2
loop_
 _symmetry_equiv_pos_site_id
 _symmetry_equiv_pos_as_xyz
  1  'x, y, z'
loop_
 _atom_site_type_symbol
 _atom_site_label
 _atom_site_symmetry_multiplicity
 _atom_site_fract_x
 _atom_site_fract_y
 _atom_site_fract_z
 _atom_site_occupancy
  Fe  Fe0  1  0.87274374  0.62958711  0.37598970  1
  Fe  Fe1  1  0.75204728  0.49768502  0.50130848  1
  Fe  Fe2  1  0.00070914  0.00222183  -0.00481781  1
  Fe  Fe3  1  0.62589204  0.12717946  0.37785040  1
  Fe  Fe4  1  0.49970730  0.00127495  0.25332411  1
  Fe  Fe5  1  0.12538094  0.12178287  0.62738924  1
  Fe  Fe6  1  -0.00052706  0.50212038  0.75146661  1
  Fe  Fe7  1  0.12647767  0.87472187  0.37172567  1
  Fe  Fe8  1  0.62928286  0.87252936  0.37411679  1
  Fe  Fe9  1  0.49974076  0.75066141  0.49965152  1
  Fe  Fe10  1  0.50110808  0.25208150  0.25286022  1
  Fe  Fe11  1  0.37394513  0.62252109  0.12638335  1
  Fe  Fe12  1  0.62552241  0.87711980  0.12681444  1
  Fe  Fe13  1  0.74973996  0.25022020  0.00078073  1
  Fe  Fe14  1  0.12230516  0.87776442  0.62952106  1
  Fe  Fe15  1  0.37537841  0.87773767  0.12648830  1
  Fe  Fe16  1  0.50092910  0.00097111  -0.00220087  1
  Fe  Fe17  1  0.12267682  0.87792186  0.12830973  1
  Fe  Fe18  1  0.37486485  0.12516698  0.12562098  1
  Fe  Fe19  1  0.00095783  0.25051572  0.50139545  1
  Fe  Fe20  1  0.75018269  0.24849446  0.24989365  1
  Fe  Fe21  1  0.12678586  0.62346683  0.62343639  1
  Fe  Fe22  1  0.75201666  0.49990983  0.74969214  1
  Fe  Fe23  1  0.50011462  0.74913095  0.74849695  1
  Fe  Fe24  1  0.49705612  0.49904059  0.25481414  1
  Fe  Fe25  1  0.12504952  0.12599058  0.37539387  1
  Fe  Fe26  1  0.13231266  0.62713928  0.37510904  1
  Fe  Fe27  1  0.75045500  0.50169199  0.24940375  1
  Fe  Fe28  1  0.00061886  0.75084250  0.00024573  1
  Fe  Fe29  1  0.62502538  0.62500015  0.87476166  1
  Fe  Fe30  1  -0.00222348  -0.00069223  0.49649369  1
  Fe  Fe31  1  0.24922432  0.75169202  0.00135778  1
  Fe  Fe32  1  0.12490361  0.12297925  0.12512795  1
  Fe  Fe33  1  0.62454076  0.12324104  0.12531592  1
  Fe  Fe34  1  0.87614564  0.37545882  0.12548848  1
  Fe  Fe35  1  0.62268222  0.37405463  0.87295750  1
  Fe  Fe36  1  0.87642028  0.62534633  0.62387158  1
  Fe  Fe37  1  0.37374313  0.12821465  0.37772166  1
  Fe  Fe38  1  0.37474833  0.87507532  0.87384331  1
  Fe  Fe39  1  0.62443875  0.37640573  0.12704180  1
  Fe  Fe40  1  0.24881917  0.49709434  -0.00292518  1
  Fe  Fe41  1  0.62455329  0.62389514  0.62335049  1
  Fe  Fe42  1  0.25088384  0.25175524  0.75059466  1
  Fe  Fe43  1  0.87440835  0.37172029  0.37655846  1
  Fe  Fe44  1  0.50080912  0.49944412  -0.00061586  1
  Fe  Fe45  1  0.49968923  0.74766385  0.24947867  1
  Fe  Fe46  1  0.24832465  -0.00072554  -0.00196970  1
  Fe  Fe47  1  0.12508973  0.62656185  0.87408501  1
  Fe  Fe48  1  0.87728937  0.37266200  0.87508074  1
  Fe  Fe49  1  0.62442528  0.87694510  0.62454822  1
  Fe  Fe50  1  0.74989512  0.49992190  -0.00023317  1
  Fe  Fe51  1  0.12446063  0.37697051  0.62533721  1
  Fe  Fe52  1  0.00135467  0.50126334  0.25343766  1
  Fe  Fe53  1  0.24885061  0.25258833  -0.00278968  1
  Fe  Fe54  1  0.37521151  0.12450672  0.87361762  1
  Fe  Fe55  1  0.37196095  0.87265684  0.37371743  1
  Fe  Fe56  1  0.75272267  -0.00013825  0.49692217  1
  Fe  Fe57  1  0.25008970  -0.00052588  0.49976148  1
  Fe  Fe58  1  0.75042249  -0.00041055  -0.00155020  1
  Fe  Fe59  1  0.37676589  0.87784403  0.62563191  1
  Fe  Fe60  1  0.62696299  0.62604226  0.37553070  1
  Fe  Fe61  1  0.62086386  0.12349721  0.62240822  1
  Fe  Fe62  1  0.62466838  0.87415297  0.87388169  1
  Fe  Fe63  1  0.49712499  0.49785816  0.49622332  1
  Fe  Fe64  1  0.37464408  0.62311429  0.87345711  1
  Fe  Fe65  1  0.37490070  0.37510764  0.12535940  1
  Fe  Fe66  1  0.87735297  0.87302635  0.87304495  1
  Fe  Fe67  1  0.75150518  0.74798953  0.74792607  1
  Fe  Fe68  1  0.24917092  0.75058675  0.74828875  1
  Fe  Fe69  1  0.49993248  0.74908332  0.00151455  1
  Fe  Fe70  1  0.75051530  0.74967135  0.00354508  1
  Fe  Fe71  1  0.24812367  0.25082427  0.24946232  1
  Fe  Fe72  1  0.00142496  0.75128562  0.49929157  1
  Fe  Fe73  1  0.74875741  0.24918427  0.74777599  1
  Fe  Fe74  1  0.12625482  0.62350456  0.12669304  1
  Fe  Fe75  1  0.37223116  0.62320863  0.62262056  1
  Fe  Fe76  1  0.87548435  0.12516463  0.62374799  1
  Fe  Fe77  1  0.62354675  0.37528541  0.62440392  1
  Fe  Fe78  1  0.37799325  0.12305297  0.62334285  1
  Fe  Fe79  1  0.87683394  0.87486782  0.62542249  1
  Fe  Fe80  1  0.87506235  0.12206914  0.12478878  1
  Fe  Fe81  1  -0.00036357  0.49970069  -0.00159014  1
  Fe  Fe82  1  0.87640147  0.62558335  0.12458284  1
  Fe  Fe83  1  0.50016241  0.25001514  -0.00141644  1
  Fe  Fe84  1  0.75012519  0.00206572  0.75115493  1
  Fe  Fe85  1  0.00082314  0.49938184  0.49794296  1
  Fe  Fe86  1  0.00003883  0.24749047  0.75092198  1
  Fe  Fe87  1  0.12348468  0.37591429  0.12507568  1
  Fe  Fe88  1  -0.00026960  0.24886292  0.24877037  1
  Fe  Fe89  1  0.37468899  0.37575736  0.62528431  1
  Co  Co90  1  -0.00311182  0.00148379  0.25446491  1
  Co  Co91  1  0.37009504  0.62873613  0.37678478  1
  Co  Co92  1  0.75015202  0.75067625  0.50415460  1
  Co  Co93  1  0.50020101  0.50134919  0.74801819  1
  Co  Co94  1  0.25179865  -0.00037430  0.75012813  1
  Co  Co95  1  0.87811910  0.87747997  0.12611294  1
  Co  Co96  1  0.75049597  0.74888032  0.24428819  1
  Co  Co97  1  0.12344653  0.87433569  0.87112396  1
  Co  Co98  1  0.25116212  0.00201651  0.25110680  1
  Co  Co99  1  0.00116865  0.74781685  0.25097535  1
  Co  Co100  1  0.24801482  0.49846278  0.75171969  1
  Co  Co101  1  0.49957836  -0.00298980  0.49560904  1
  Co  Co102  1  0.62494290  0.12620339  0.87564687  1
  Co  Co103  1  0.87551659  0.13009156  0.37715229  1
  Co  Co104  1  0.25023338  0.49641647  0.49806016  1
  Co  Co105  1  0.75208909  0.00151537  0.25337839  1
  Co  Co106  1  0.49944989  0.24836679  0.74898225  1
  Co  Co107  1  0.87340150  0.12811968  0.87549405  1
  Co  Co108  1  0.25050343  0.49723994  0.25120405  1
  Co  Co109  1  -0.00018224  0.74656857  0.74802285  1
  Co  Co110  1  0.12443887  0.37221101  0.37574413  1
  Co  Co111  1  0.50087407  0.25406437  0.49927620  1
  Co  Co112  1  0.24883444  0.75508547  0.50424964  1
  Co  Co113  1  0.74933513  0.25032486  0.50346030  1
  Co  Co114  1  0.37821876  0.37672813  0.87346203  1
  Co  Co115  1  0.12748130  0.12600497  0.87319195  1
  Co  Co116  1  0.87833502  0.37463690  0.62545430  1
  Co  Co117  1  0.24780670  0.24922598  0.50437670  1
  Co  Co118  1  0.37015136  0.37034450  0.37578165  1
  Co  Co119  1  0.50121651  0.00021189  0.75251374  1
  Co  Co120  1  0.62976967  0.37580784  0.37530585  1
  Co  Co121  1  -0.00269904  0.00328654  0.75316607  1
  Co  Co122  1  0.87463426  0.62605145  0.87615070  1
  Co  Co123  1  0.62308585  0.62285569  0.12527021  1
  Co  Co124  1  0.87279203  0.87007559  0.37309729  1
  Co  Co125  1  0.12036189  0.37343616  0.87453812  1
  Co  Co126  1  0.25003452  0.75094153  0.24456076  1
  Co  Co127  1  0.00065799  0.24700239  0.00203404  1
