# generated using pymatgen
data_Fe45Co19
_symmetry_space_group_name_H-M   'P 1'
_cell_length_a   11.41603670
_cell_length_b   11.41501093
_cell_length_c   11.41531811
_cell_angle_alpha   90.00546837
_cell_angle_beta   90.00026692
_cell_angle_gamma   90.00192950
_symmetry_Int_Tables_number   1
_chemical_formula_structural   Fe45Co19
_chemical_formula_sum   'Fe90 Co38'
_cell_volume   1487.57785255
_cell_formula_units_Z   2
loop_
 _symmetry_equiv_pos_site_id
 _symmetry_equiv_pos_as_xyz
  1  'x, y, z'
loop_
 _atom_site_type_symbol
 _atom_site_label
 _atom_site_symmetry_multiplicity
 _atom_site_fract_x
 _atom_site_fract_y
 _atom_site_fract_z
 _atom_site_occupancy
  Fe  Fe0  1  -0.00042124  0.00090335  0.49927747  1
  Fe  Fe1  1  0.37618437  0.12484302  0.87368321  1
  Fe  Fe2  1  0.74990075  0.25299406  0.25017949  1
  Fe  Fe3  1  0.62388143  0.37699674  0.62506792  1
  Fe  Fe4  1  0.37188144  0.87217433  0.37271912  1
  Fe  Fe5  1  0.12595820  0.61989375  0.12375241  1
  Fe  Fe6  1  0.74871267  0.75140201  0.24810565  1
  Fe  Fe7  1  0.87657065  0.87337857  0.37529365  1
  Fe  Fe8  1  0.12294148  0.37948537  0.12074799  1
  Fe  Fe9  1  0.00240016  0.50538862  0.75708763  1
  Fe  Fe10  1  0.87413482  0.12480440  0.12223338  1
  Fe  Fe11  1  0.87792323  0.37712489  0.62688240  1
  Fe  Fe12  1  0.87326441  0.37732743  0.87651195  1
  Fe  Fe13  1  0.87653443  0.37796469  0.12197779  1
  Fe  Fe14  1  0.75343822  0.49853617  0.49852076  1
  Fe  Fe15  1  0.00577957  0.74724587  0.49643687  1
  Fe  Fe16  1  0.87836104  0.62622426  0.62719809  1
  Fe  Fe17  1  0.25047945  -0.00141035  0.50091740  1
  Fe  Fe18  1  0.37936809  0.87266136  0.12840690  1
  Fe  Fe19  1  -0.00089121  0.24827144  -0.00416019  1
  Fe  Fe20  1  0.74875939  -0.00334907  -0.00125734  1
  Fe  Fe21  1  0.87401612  0.12354819  0.62665276  1
  Fe  Fe22  1  -0.00340911  0.74699423  -0.00162467  1
  Fe  Fe23  1  0.12564249  0.87428798  0.87819486  1
  Fe  Fe24  1  0.62525074  0.12698647  0.37496468  1
  Fe  Fe25  1  0.24671272  0.50190073  0.75203677  1
  Fe  Fe26  1  0.49885351  0.24954393  0.50297933  1
  Fe  Fe27  1  0.62419255  0.62696437  0.12532635  1
  Fe  Fe28  1  0.12679855  0.12354123  0.37502560  1
  Fe  Fe29  1  0.37591367  0.87316789  0.62581573  1
  Fe  Fe30  1  0.12405175  0.37809138  0.62576457  1
  Fe  Fe31  1  0.37231351  0.12713787  0.37469922  1
  Fe  Fe32  1  0.50117849  -0.00256805  -0.00131136  1
  Fe  Fe33  1  0.24852390  0.25153489  0.24783391  1
  Fe  Fe34  1  0.37326332  0.62751147  0.87373791  1
  Fe  Fe35  1  0.49887536  0.50033109  0.25283691  1
  Fe  Fe36  1  0.25035536  -0.00143531  0.75142678  1
  Fe  Fe37  1  0.50311538  -0.00181997  0.75091170  1
  Fe  Fe38  1  0.25260673  0.75080762  0.00279162  1
  Fe  Fe39  1  0.62484333  0.12392405  0.62585422  1
  Fe  Fe40  1  0.37501787  0.62631819  0.12847669  1
  Fe  Fe41  1  0.62580711  0.12472553  0.12399664  1
  Fe  Fe42  1  0.37749849  0.37483723  0.12288782  1
  Fe  Fe43  1  0.75095604  0.75128146  0.50347219  1
  Fe  Fe44  1  0.36696092  0.62787565  0.37210370  1
  Fe  Fe45  1  -0.00004254  0.00139887  0.24993072  1
  Fe  Fe46  1  0.87271055  0.87136609  0.87343028  1
  Fe  Fe47  1  0.37507776  0.12517776  0.12455784  1
  Fe  Fe48  1  0.50060255  0.50347781  -0.00185524  1
  Fe  Fe49  1  0.00029878  0.00014548  0.75359610  1
  Fe  Fe50  1  0.62559365  0.87447379  0.37688389  1
  Fe  Fe51  1  0.24980168  0.25009836  -0.00165480  1
  Fe  Fe52  1  0.00462475  0.74631617  0.25228084  1
  Fe  Fe53  1  0.00151656  0.24770712  0.75388011  1
  Fe  Fe54  1  0.49651012  0.50169203  0.49918706  1
  Fe  Fe55  1  0.37043026  0.62750581  0.62652595  1
  Fe  Fe56  1  0.75152038  0.49733803  0.25256911  1
  Fe  Fe57  1  0.37744920  0.87130605  0.87324235  1
  Fe  Fe58  1  0.50106278  0.00027412  0.25100224  1
  Fe  Fe59  1  0.62885687  0.63306758  0.87573378  1
  Fe  Fe60  1  0.87552723  0.12689794  0.37542433  1
  Fe  Fe61  1  0.12370618  0.87341371  0.62597102  1
  Fe  Fe62  1  0.37439542  0.37490750  0.62724778  1
  Fe  Fe63  1  0.62718882  0.62431028  0.37622223  1
  Fe  Fe64  1  0.62325579  0.37544026  0.12523016  1
  Fe  Fe65  1  0.50152781  0.24899587  -0.00103416  1
  Fe  Fe66  1  0.87728309  0.87553858  0.12682183  1
  Fe  Fe67  1  0.87744618  0.87511069  0.62394467  1
  Fe  Fe68  1  0.49790023  0.74863861  0.49938084  1
  Fe  Fe69  1  0.74973447  0.25011445  0.75144176  1
  Fe  Fe70  1  0.12555286  0.37819350  0.37504103  1
  Fe  Fe71  1  0.12512225  0.12120225  0.11873010  1
  Fe  Fe72  1  0.75059655  0.25190341  0.50064704  1
  Fe  Fe73  1  0.12237250  0.87770225  0.12121905  1
  Fe  Fe74  1  0.12654685  0.12332125  0.62604907  1
  Fe  Fe75  1  0.74922511  0.50239337  0.75083812  1
  Fe  Fe76  1  0.00174224  0.24943056  0.50150165  1
  Fe  Fe77  1  0.62458079  0.62541102  0.62407480  1
  Fe  Fe78  1  0.74624276  -0.00418503  0.75064207  1
  Fe  Fe79  1  0.50104254  0.50294972  0.75110126  1
  Fe  Fe80  1  0.24878635  0.24825571  0.74983058  1
  Fe  Fe81  1  0.37457987  0.37265920  0.37534397  1
  Fe  Fe82  1  0.87481515  0.62142284  0.12479186  1
  Fe  Fe83  1  0.24900479  -0.00189850  0.24682607  1
  Fe  Fe84  1  0.62444724  0.37412313  0.87502594  1
  Fe  Fe85  1  0.37535734  0.37544451  0.87382363  1
  Fe  Fe86  1  0.00159998  0.25038702  0.24796750  1
  Fe  Fe87  1  0.75031459  -0.00134788  0.25098922  1
  Fe  Fe88  1  0.49885874  0.00038431  0.49964954  1
  Fe  Fe89  1  -0.00045448  0.50398747  0.49561000  1
  Co  Co90  1  0.87189392  0.12341754  0.87397935  1
  Co  Co91  1  0.75079121  0.00035228  0.49945593  1
  Co  Co92  1  0.24830454  0.25093953  0.50208279  1
  Co  Co93  1  0.24621781  0.75205512  0.50116261  1
  Co  Co94  1  0.13319625  0.62049121  0.37246637  1
  Co  Co95  1  0.12917138  0.62918602  0.87863781  1
  Co  Co96  1  0.12688545  0.37507493  0.87622963  1
  Co  Co97  1  -0.00023045  0.50279810  -0.00650660  1
  Co  Co98  1  0.24386963  0.75351621  0.24596647  1
  Co  Co99  1  0.50005848  0.25029723  0.74858409  1
  Co  Co100  1  -0.00535732  -0.00027563  -0.00365310  1
  Co  Co101  1  0.74705098  0.50098173  0.00006177  1
  Co  Co102  1  0.50129342  0.74878296  0.74685989  1
  Co  Co103  1  0.62200134  0.87429252  0.12439604  1
  Co  Co104  1  0.25161630  0.49903134  0.50258413  1
  Co  Co105  1  0.25306866  0.49487874  0.24659474  1
  Co  Co106  1  0.50286859  0.74910327  0.25362475  1
  Co  Co107  1  0.62166825  0.87453902  0.62203493  1
  Co  Co108  1  0.62237798  0.37581244  0.37676376  1
  Co  Co109  1  0.12737904  0.12103346  0.87796669  1
  Co  Co110  1  0.49980112  0.24914992  0.24909434  1
  Co  Co111  1  0.49732123  0.74864878  0.00121956  1
  Co  Co112  1  0.12477860  0.62432043  0.62544919  1
  Co  Co113  1  0.75013598  0.25094603  -0.00033678  1
  Co  Co114  1  0.24731731  0.75139189  0.74955928  1
  Co  Co115  1  0.75307393  0.75196516  0.00564872  1
  Co  Co116  1  0.87744895  0.37213822  0.37556757  1
  Co  Co117  1  0.62443695  0.12596909  0.87545838  1
  Co  Co118  1  0.25606809  -0.00369825  0.00008733  1
  Co  Co119  1  -0.00228246  0.50182324  0.25356465  1
  Co  Co120  1  0.86871854  0.62704717  0.87468352  1
  Co  Co121  1  0.00085345  0.74881097  0.75313187  1
  Co  Co122  1  0.62477055  0.86713962  0.87661689  1
  Co  Co123  1  0.37466774  0.12345772  0.62631424  1
  Co  Co124  1  0.12479478  0.87790356  0.37403319  1
  Co  Co125  1  0.75024020  0.75190698  0.74348533  1
  Co  Co126  1  0.25314504  0.50073812  -0.00069771  1
  Co  Co127  1  0.87177179  0.62923118  0.37372871  1
