# generated using pymatgen
data_Fe45Co19
_symmetry_space_group_name_H-M   'P 1'
_cell_length_a   11.41378682
_cell_length_b   11.41388142
_cell_length_c   11.41371837
_cell_angle_alpha   89.99147675
_cell_angle_beta   89.99421794
_cell_angle_gamma   89.99914863
_symmetry_Int_Tables_number   1
_chemical_formula_structural   Fe45Co19
_chemical_formula_sum   'Fe90 Co38'
_cell_volume   1486.92909100
_cell_formula_units_Z   2
loop_
 _symmetry_equiv_pos_site_id
 _symmetry_equiv_pos_as_xyz
  1  'x, y, z'
loop_
 _atom_site_type_symbol
 _atom_site_label
 _atom_site_symmetry_multiplicity
 _atom_site_fract_x
 _atom_site_fract_y
 _atom_site_fract_z
 _atom_site_occupancy
  Fe  Fe0  1  0.49925589  -0.00019429  0.25047538  1
  Fe  Fe1  1  0.24671693  0.75137866  0.49800708  1
  Fe  Fe2  1  0.25153950  0.49893405  0.24843491  1
  Fe  Fe3  1  0.62403279  0.87456191  0.62599388  1
  Fe  Fe4  1  0.00524782  -0.00025363  0.50026143  1
  Fe  Fe5  1  0.87538012  0.62672843  0.62423822  1
  Fe  Fe6  1  0.12692177  0.62660952  0.12598774  1
  Fe  Fe7  1  0.62406257  0.37566245  0.37705707  1
  Fe  Fe8  1  0.62208288  0.62412666  0.87213273  1
  Fe  Fe9  1  0.12629094  0.87758389  0.87655046  1
  Fe  Fe10  1  0.37877794  0.12411709  0.62592256  1
  Fe  Fe11  1  0.00429421  0.50015143  -0.00281160  1
  Fe  Fe12  1  0.00047183  0.24723037  -0.00032231  1
  Fe  Fe13  1  0.74940772  0.50249324  0.50131216  1
  Fe  Fe14  1  -0.00000550  0.74940550  0.25217658  1
  Fe  Fe15  1  0.12845901  0.62523877  0.62567299  1
  Fe  Fe16  1  0.12871094  0.37308747  0.62526456  1
  Fe  Fe17  1  0.00077816  0.25029275  0.49897295  1
  Fe  Fe18  1  0.87289475  0.37617454  0.37452789  1
  Fe  Fe19  1  0.12755866  0.12458894  0.37041803  1
  Fe  Fe20  1  0.37251972  0.87740280  0.37574299  1
  Fe  Fe21  1  0.74654919  0.25099909  0.75095329  1
  Fe  Fe22  1  -0.00035866  0.25020837  0.24959369  1
  Fe  Fe23  1  0.12694151  0.12210410  0.87665385  1
  Fe  Fe24  1  0.74900402  0.00086892  0.00224017  1
  Fe  Fe25  1  0.62514877  0.62565952  0.37643274  1
  Fe  Fe26  1  0.37564886  0.62540196  0.12228297  1
  Fe  Fe27  1  0.87465149  0.62427513  0.12555831  1
  Fe  Fe28  1  -0.00006832  0.24991270  0.75114277  1
  Fe  Fe29  1  0.62496629  0.87806912  0.87389592  1
  Fe  Fe30  1  0.74692011  0.50093369  0.00089000  1
  Fe  Fe31  1  0.50022906  0.50108040  0.24897362  1
  Fe  Fe32  1  0.87486592  0.37464594  0.87602825  1
  Fe  Fe33  1  0.87474303  0.12342187  0.37486964  1
  Fe  Fe34  1  0.50076411  0.00277508  0.00080333  1
  Fe  Fe35  1  0.75016721  0.75057203  0.74956180  1
  Fe  Fe36  1  0.12780162  0.37483826  0.37523287  1
  Fe  Fe37  1  -0.00073619  0.00042217  0.24684487  1
  Fe  Fe38  1  0.49661395  0.75025292  0.25061064  1
  Fe  Fe39  1  0.62515066  0.87490664  0.37479245  1
  Fe  Fe40  1  0.61975314  0.12537675  0.62931755  1
  Fe  Fe41  1  0.12586834  0.37241540  0.12406590  1
  Fe  Fe42  1  0.37204375  0.62565197  0.37602284  1
  Fe  Fe43  1  0.49733548  0.49564191  0.74592825  1
  Fe  Fe44  1  0.74843185  0.24775685  0.50045809  1
  Fe  Fe45  1  0.12650536  0.12580567  0.62667367  1
  Fe  Fe46  1  0.49908834  0.74976875  0.50182136  1
  Fe  Fe47  1  0.62285128  0.37266790  0.12300606  1
  Fe  Fe48  1  0.87435260  0.87588250  0.37564313  1
  Fe  Fe49  1  0.87554443  0.62433701  0.87562765  1
  Fe  Fe50  1  0.74914705  0.25012491  0.25047901  1
  Fe  Fe51  1  0.87344597  0.12437708  0.12600453  1
  Fe  Fe52  1  0.37743030  0.37546329  0.11936354  1
  Fe  Fe53  1  0.00194187  0.50062542  0.49882012  1
  Fe  Fe54  1  0.87482505  0.87709340  0.87561677  1
  Fe  Fe55  1  0.87708264  0.87427301  0.62315427  1
  Fe  Fe56  1  0.62234655  0.12413318  0.37351527  1
  Fe  Fe57  1  0.74861788  0.75056107  -0.00091696  1
  Fe  Fe58  1  0.25521406  0.24951987  0.75442183  1
  Fe  Fe59  1  0.37393164  0.87999644  0.87814255  1
  Fe  Fe60  1  0.87572861  0.12472581  0.62524797  1
  Fe  Fe61  1  0.00120908  -0.00040003  0.74997232  1
  Fe  Fe62  1  0.25046095  0.49783220  0.75332599  1
  Fe  Fe63  1  0.49795346  0.25044221  0.25120801  1
  Fe  Fe64  1  0.37526811  0.37519162  0.37703195  1
  Fe  Fe65  1  0.74735105  0.00003285  0.50163632  1
  Fe  Fe66  1  0.00414025  0.74919956  0.49607788  1
  Fe  Fe67  1  0.87412199  0.37579723  0.12412550  1
  Fe  Fe68  1  0.25306390  0.24633767  0.49710300  1
  Fe  Fe69  1  -0.00057199  0.75113947  -0.00024036  1
  Fe  Fe70  1  0.37550609  0.12607525  0.12599102  1
  Fe  Fe71  1  0.75139123  0.74996205  0.25060076  1
  Fe  Fe72  1  0.37584294  0.62226038  0.87687148  1
  Fe  Fe73  1  0.00141475  0.75010852  0.75117832  1
  Fe  Fe74  1  0.87298251  0.12279798  0.87396453  1
  Fe  Fe75  1  0.25199422  0.24839812  -0.00126391  1
  Fe  Fe76  1  0.00336012  0.49973466  0.75200172  1
  Fe  Fe77  1  0.49722128  0.75164331  0.75032746  1
  Fe  Fe78  1  0.37201171  0.87688734  0.62212160  1
  Fe  Fe79  1  0.25149495  -0.00107012  0.24643944  1
  Fe  Fe80  1  0.62324393  0.62840074  0.12575575  1
  Fe  Fe81  1  0.74862330  0.49863460  0.74948170  1
  Fe  Fe82  1  0.49696493  0.50062552  0.50465760  1
  Fe  Fe83  1  0.12498804  0.87571197  0.12449357  1
  Fe  Fe84  1  0.25273165  0.75086954  0.00179545  1
  Fe  Fe85  1  0.62319673  0.87468865  0.12575120  1
  Fe  Fe86  1  0.87468420  0.37427565  0.62503968  1
  Fe  Fe87  1  0.00024682  0.50051405  0.25151871  1
  Fe  Fe88  1  0.74528166  0.24694575  -0.00171800  1
  Fe  Fe89  1  0.25108191  0.75234455  0.75178381  1
  Co  Co90  1  0.25140815  0.49930013  0.49996765  1
  Co  Co91  1  0.24771761  0.00236533  0.50139113  1
  Co  Co92  1  0.49846537  0.25536389  0.75399350  1
  Co  Co93  1  0.62355319  0.12450974  0.12904605  1
  Co  Co94  1  0.50124033  0.24391751  -0.00361874  1
  Co  Co95  1  0.50103821  -0.00093718  0.49979395  1
  Co  Co96  1  0.74987391  -0.00075069  0.25012611  1
  Co  Co97  1  0.25331178  0.25261473  0.25002193  1
  Co  Co98  1  0.62331319  0.12112097  0.86897111  1
  Co  Co99  1  0.37907277  0.87567524  0.12411528  1
  Co  Co100  1  0.25027828  0.00021496  0.74800153  1
  Co  Co101  1  0.37720830  0.12137690  0.87338733  1
  Co  Co102  1  0.37802682  0.37842186  0.88151186  1
  Co  Co103  1  0.62203737  0.37668433  0.87744643  1
  Co  Co104  1  0.12553848  0.37040250  0.87474890  1
  Co  Co105  1  -0.00107675  0.00132348  0.00124365  1
  Co  Co106  1  0.49648146  -0.00475990  0.74918522  1
  Co  Co107  1  0.75186819  -0.00140190  0.74612828  1
  Co  Co108  1  0.12724620  0.87748825  0.37060374  1
  Co  Co109  1  0.62485211  0.37330651  0.62249482  1
  Co  Co110  1  0.50368328  0.50320384  0.00223383  1
  Co  Co111  1  0.12688033  0.12651708  0.12599632  1
  Co  Co112  1  0.37493302  0.12157083  0.37337752  1
  Co  Co113  1  0.37128443  0.62711722  0.62589892  1
  Co  Co114  1  0.12959356  0.62390262  0.37285476  1
  Co  Co115  1  0.24558383  0.50060887  -0.00073602  1
  Co  Co116  1  0.87448868  0.87416687  0.12537333  1
  Co  Co117  1  0.74889354  0.75083543  0.50107686  1
  Co  Co118  1  0.37192462  0.37106682  0.62355979  1
  Co  Co119  1  0.74687028  0.49997183  0.24810283  1
  Co  Co120  1  0.25303559  0.75135652  0.24783070  1
  Co  Co121  1  0.87270535  0.62461816  0.37448881  1
  Co  Co122  1  0.12568867  0.87368493  0.62674502  1
  Co  Co123  1  0.25136643  0.00106276  0.00355595  1
  Co  Co124  1  0.12705887  0.62929288  0.87516031  1
  Co  Co125  1  0.49968009  0.75105175  -0.00302095  1
  Co  Co126  1  0.49833853  0.24925615  0.49910847  1
  Co  Co127  1  0.62338865  0.62623082  0.62701106  1
