# generated using pymatgen
data_Fe45Co19
_symmetry_space_group_name_H-M   'P 1'
_cell_length_a   11.41459321
_cell_length_b   11.41501135
_cell_length_c   11.41441755
_cell_angle_alpha   90.00337837
_cell_angle_beta   89.99602215
_cell_angle_gamma   90.00139709
_symmetry_Int_Tables_number   1
_chemical_formula_structural   Fe45Co19
_chemical_formula_sum   'Fe90 Co38'
_cell_volume   1487.27247368
_cell_formula_units_Z   2
loop_
 _symmetry_equiv_pos_site_id
 _symmetry_equiv_pos_as_xyz
  1  'x, y, z'
loop_
 _atom_site_type_symbol
 _atom_site_label
 _atom_site_symmetry_multiplicity
 _atom_site_fract_x
 _atom_site_fract_y
 _atom_site_fract_z
 _atom_site_occupancy
  Fe  Fe0  1  0.12478649  0.87654754  0.62415996  1
  Fe  Fe1  1  0.62481889  0.62489670  0.87355919  1
  Fe  Fe2  1  0.49878510  0.50144046  0.25121516  1
  Fe  Fe3  1  0.37060562  0.62311903  0.37777540  1
  Fe  Fe4  1  0.00162331  0.74751953  0.49838071  1
  Fe  Fe5  1  0.50377227  0.24862883  0.24799276  1
  Fe  Fe6  1  0.49883474  0.00020713  0.00082543  1
  Fe  Fe7  1  0.12620500  0.62187572  0.87712641  1
  Fe  Fe8  1  0.25055858  0.49819202  0.00213203  1
  Fe  Fe9  1  0.37221608  0.12541178  0.62237644  1
  Fe  Fe10  1  0.37481495  0.62673604  0.12538024  1
  Fe  Fe11  1  0.12672656  0.61973072  0.37628402  1
  Fe  Fe12  1  0.25011066  0.74993655  0.75009961  1
  Fe  Fe13  1  0.37753127  0.37405612  0.12587562  1
  Fe  Fe14  1  0.62811562  0.12389745  0.87522334  1
  Fe  Fe15  1  0.12305869  0.87703439  0.87861524  1
  Fe  Fe16  1  0.12353867  0.62423087  0.12417954  1
  Fe  Fe17  1  0.24893357  0.75098944  0.24919768  1
  Fe  Fe18  1  0.87527181  0.37448074  0.87401992  1
  Fe  Fe19  1  0.87674967  0.87329070  0.62638747  1
  Fe  Fe20  1  0.75080806  0.74719859  0.50207732  1
  Fe  Fe21  1  0.37294351  0.87523268  0.62168351  1
  Fe  Fe22  1  0.62998148  0.62304776  0.37492024  1
  Fe  Fe23  1  0.75260250  0.75006078  0.24823272  1
  Fe  Fe24  1  0.75105283  0.75136348  -0.00141387  1
  Fe  Fe25  1  0.75356675  -0.00272664  -0.00449185  1
  Fe  Fe26  1  0.74914698  0.24969507  0.74921837  1
  Fe  Fe27  1  0.24954544  0.75336190  0.00195240  1
  Fe  Fe28  1  0.24972256  0.00089103  0.74970142  1
  Fe  Fe29  1  0.00116683  0.24944114  0.74960287  1
  Fe  Fe30  1  0.74988103  0.25106973  0.50126306  1
  Fe  Fe31  1  0.25036536  0.25412581  0.25312617  1
  Fe  Fe32  1  0.87765884  0.62398905  0.87581819  1
  Fe  Fe33  1  0.50095384  -0.00007246  0.25021104  1
  Fe  Fe34  1  0.62569956  0.37650250  0.62506819  1
  Fe  Fe35  1  0.88153503  0.87460020  0.12238948  1
  Fe  Fe36  1  0.37560818  0.37345883  0.62467847  1
  Fe  Fe37  1  0.50015222  0.74993353  -0.00085989  1
  Fe  Fe38  1  0.75182905  -0.00310080  0.24952822  1
  Fe  Fe39  1  0.62560081  0.37604727  0.87469119  1
  Fe  Fe40  1  0.62646148  0.12352321  0.37529815  1
  Fe  Fe41  1  0.12741160  0.62329162  0.62279010  1
  Fe  Fe42  1  0.50130436  0.00173194  0.74727520  1
  Fe  Fe43  1  0.12694706  0.12589801  0.87532846  1
  Fe  Fe44  1  0.25172250  0.49922915  0.74874879  1
  Fe  Fe45  1  0.50102889  0.24829016  0.75018141  1
  Fe  Fe46  1  0.12434912  0.37469307  0.12817687  1
  Fe  Fe47  1  0.49674361  0.74763266  0.75026794  1
  Fe  Fe48  1  0.75083496  0.75133466  0.75251196  1
  Fe  Fe49  1  0.50005542  0.50153378  0.50184740  1
  Fe  Fe50  1  0.24895801  0.25061688  0.00065852  1
  Fe  Fe51  1  0.37449390  0.87598903  0.37517208  1
  Fe  Fe52  1  0.87404774  0.37524152  0.12418844  1
  Fe  Fe53  1  0.62453384  0.87336400  0.62648345  1
  Fe  Fe54  1  0.87368038  0.12489607  0.12385355  1
  Fe  Fe55  1  0.49679427  0.50275705  0.74974762  1
  Fe  Fe56  1  0.62537185  0.87418698  0.37510761  1
  Fe  Fe57  1  0.00293423  0.74807476  0.75228807  1
  Fe  Fe58  1  0.74876976  -0.00100276  0.50275902  1
  Fe  Fe59  1  0.37464695  0.87590662  0.87601533  1
  Fe  Fe60  1  0.50148278  0.24850497  0.49946740  1
  Fe  Fe61  1  0.50441910  0.24920212  0.00163514  1
  Fe  Fe62  1  0.87307316  0.12429929  0.37489589  1
  Fe  Fe63  1  0.12546606  0.37610733  0.87412551  1
  Fe  Fe64  1  0.12463077  0.12490777  0.37293726  1
  Fe  Fe65  1  0.37301959  0.12482603  0.12525007  1
  Fe  Fe66  1  0.87474329  0.12573258  0.62584017  1
  Fe  Fe67  1  0.37445917  0.12402037  0.37633909  1
  Fe  Fe68  1  0.62639551  0.37806019  0.37510509  1
  Fe  Fe69  1  0.74670354  0.25176801  0.24722834  1
  Fe  Fe70  1  0.24631401  0.25269473  0.49822954  1
  Fe  Fe71  1  0.75119386  0.49916474  0.00101243  1
  Fe  Fe72  1  -0.00110701  0.74765562  0.25063133  1
  Fe  Fe73  1  0.24723575  -0.00234710  0.24575608  1
  Fe  Fe74  1  -0.00200661  0.24898101  0.25148772  1
  Fe  Fe75  1  -0.00175905  0.00174297  0.75213306  1
  Fe  Fe76  1  0.75351696  0.50143084  0.74537023  1
  Fe  Fe77  1  0.12320489  0.87651009  0.37339692  1
  Fe  Fe78  1  0.00004326  0.24979284  -0.00025343  1
  Fe  Fe79  1  0.00039958  0.00225573  0.49938714  1
  Fe  Fe80  1  0.62649639  0.62412168  0.12669465  1
  Fe  Fe81  1  0.49897713  0.50108483  -0.00138703  1
  Fe  Fe82  1  0.12004345  0.37554571  0.62321677  1
  Fe  Fe83  1  0.62318499  0.87462014  0.12506853  1
  Fe  Fe84  1  0.87639243  0.87440028  0.37640058  1
  Fe  Fe85  1  -0.00376365  0.50209461  0.24914987  1
  Fe  Fe86  1  0.87558064  0.37706418  0.37837680  1
  Fe  Fe87  1  0.37246054  0.12608649  0.87519524  1
  Fe  Fe88  1  0.37470421  0.37360570  0.87494100  1
  Fe  Fe89  1  0.49922679  0.74889036  0.49875575  1
  Co  Co90  1  0.12494981  0.12417089  0.62549888  1
  Co  Co91  1  0.74787858  0.25237720  0.00243521  1
  Co  Co92  1  0.62846325  0.11982251  0.12378110  1
  Co  Co93  1  0.87983834  0.87339913  0.87457866  1
  Co  Co94  1  0.87319090  0.12893611  0.87431994  1
  Co  Co95  1  0.62397414  0.62622442  0.62702290  1
  Co  Co96  1  0.87807420  0.37117248  0.62428891  1
  Co  Co97  1  0.00153534  0.24669241  0.49795218  1
  Co  Co98  1  0.62176086  0.87532869  0.87377359  1
  Co  Co99  1  0.37198091  0.62577187  0.87648226  1
  Co  Co100  1  0.00057532  0.00560876  -0.00115632  1
  Co  Co101  1  0.11964134  0.37904788  0.37402128  1
  Co  Co102  1  0.37846120  0.37472655  0.37497596  1
  Co  Co103  1  0.00025230  0.49702074  0.00035369  1
  Co  Co104  1  0.75349555  0.49909065  0.24909702  1
  Co  Co105  1  0.62692699  0.12589485  0.62468995  1
  Co  Co106  1  -0.00485669  0.50367762  0.50178185  1
  Co  Co107  1  0.24698236  0.00006013  0.49864338  1
  Co  Co108  1  0.25207738  0.49808987  0.24875307  1
  Co  Co109  1  0.37777594  0.87392405  0.12642398  1
  Co  Co110  1  0.50011949  0.74776783  0.25362581  1
  Co  Co111  1  0.87251211  0.62549319  0.37534910  1
  Co  Co112  1  0.24993034  0.49305826  0.50029614  1
  Co  Co113  1  0.37074919  0.62584389  0.62152689  1
  Co  Co114  1  0.75411962  0.50155557  0.50553825  1
  Co  Co115  1  0.11877370  0.87451463  0.12353297  1
  Co  Co116  1  0.24878475  0.25114014  0.74765536  1
  Co  Co117  1  -0.00049838  0.50085302  0.74939511  1
  Co  Co118  1  0.75037516  -0.00159698  0.75055441  1
  Co  Co119  1  -0.00076565  0.00161153  0.24991682  1
  Co  Co120  1  0.00048894  0.74699489  -0.00194330  1
  Co  Co121  1  0.24767977  0.75275263  0.49794400  1
  Co  Co122  1  0.62327876  0.37995546  0.12554658  1
  Co  Co123  1  0.12517628  0.12828822  0.12710720  1
  Co  Co124  1  0.87791928  0.63021608  0.62718849  1
  Co  Co125  1  0.87512946  0.62540206  0.12229757  1
  Co  Co126  1  0.24864014  -0.00083320  0.00282774  1
  Co  Co127  1  0.50190915  -0.00040769  0.50063280  1
