# generated using pymatgen
data_Fe45Co19
_symmetry_space_group_name_H-M   'P 1'
_cell_length_a   11.41486441
_cell_length_b   11.41476469
_cell_length_c   11.41607290
_cell_angle_alpha   89.99871966
_cell_angle_beta   89.99994405
_cell_angle_gamma   89.99660205
_symmetry_Int_Tables_number   1
_chemical_formula_structural   Fe45Co19
_chemical_formula_sum   'Fe90 Co38'
_cell_volume   1487.49136268
_cell_formula_units_Z   2
loop_
 _symmetry_equiv_pos_site_id
 _symmetry_equiv_pos_as_xyz
  1  'x, y, z'
loop_
 _atom_site_type_symbol
 _atom_site_label
 _atom_site_symmetry_multiplicity
 _atom_site_fract_x
 _atom_site_fract_y
 _atom_site_fract_z
 _atom_site_occupancy
  Fe  Fe0  1  0.87332834  0.62446319  0.87873701  1
  Fe  Fe1  1  0.12094123  0.37504722  0.87003821  1
  Fe  Fe2  1  0.37378996  0.87656874  0.62798188  1
  Fe  Fe3  1  -0.00002037  -0.00173641  0.00184948  1
  Fe  Fe4  1  0.37102024  0.37221572  0.62265912  1
  Fe  Fe5  1  0.12272276  0.87696372  0.37539714  1
  Fe  Fe6  1  -0.00176713  0.24763497  0.24665516  1
  Fe  Fe7  1  0.37472532  0.87563657  0.37349814  1
  Fe  Fe8  1  0.37725122  0.62139923  0.87405298  1
  Fe  Fe9  1  0.24990657  0.49948859  0.75007423  1
  Fe  Fe10  1  0.50112134  0.50129289  0.24986954  1
  Fe  Fe11  1  0.87775133  0.12721937  0.87888728  1
  Fe  Fe12  1  0.24908736  0.25300587  -0.00270764  1
  Fe  Fe13  1  0.74986275  0.25261754  -0.00150125  1
  Fe  Fe14  1  0.12538999  0.62368877  0.62517812  1
  Fe  Fe15  1  0.50050160  0.00132620  0.50276081  1
  Fe  Fe16  1  0.12006848  0.12313602  0.37487607  1
  Fe  Fe17  1  0.24901244  -0.00037280  0.24967656  1
  Fe  Fe18  1  0.74989174  0.75127969  0.49811640  1
  Fe  Fe19  1  0.75055453  0.74866082  0.25141579  1
  Fe  Fe20  1  0.49841184  0.25264515  0.00000167  1
  Fe  Fe21  1  0.24990813  0.50065328  0.00048748  1
  Fe  Fe22  1  0.50148298  0.24759566  0.25112094  1
  Fe  Fe23  1  0.00226366  0.25209384  0.50301903  1
  Fe  Fe24  1  0.62590866  0.62316399  0.62489870  1
  Fe  Fe25  1  0.00018795  0.49987046  -0.00086520  1
  Fe  Fe26  1  0.49907162  -0.00049070  0.00022375  1
  Fe  Fe27  1  0.12377083  0.12637859  0.87489233  1
  Fe  Fe28  1  0.62679659  0.87729362  0.12460608  1
  Fe  Fe29  1  0.37485687  0.37366842  0.37393166  1
  Fe  Fe30  1  0.24893918  0.24837089  0.25179439  1
  Fe  Fe31  1  0.74862913  0.74749621  0.75214286  1
  Fe  Fe32  1  0.74817453  0.25115082  0.49636971  1
  Fe  Fe33  1  0.24481127  0.50534071  0.25212999  1
  Fe  Fe34  1  -0.00024075  0.75140575  0.50197099  1
  Fe  Fe35  1  0.00169367  0.74822161  0.24921378  1
  Fe  Fe36  1  0.24945115  0.75078836  0.49965324  1
  Fe  Fe37  1  0.49803035  0.25368272  0.74988463  1
  Fe  Fe38  1  0.62522777  0.87566991  0.87534517  1
  Fe  Fe39  1  0.37358341  0.12716115  0.62638104  1
  Fe  Fe40  1  0.37306034  0.87229099  0.12670021  1
  Fe  Fe41  1  0.12794413  0.12895993  0.62758372  1
  Fe  Fe42  1  0.00192447  0.49646865  0.50013796  1
  Fe  Fe43  1  0.75182088  0.25196490  0.75373544  1
  Fe  Fe44  1  0.87688503  0.62434338  0.37659050  1
  Fe  Fe45  1  0.37330981  0.37592084  0.12657236  1
  Fe  Fe46  1  0.50150946  0.75071040  0.50011192  1
  Fe  Fe47  1  0.12675511  0.87140365  0.87391313  1
  Fe  Fe48  1  0.75146320  0.50100824  0.25051860  1
  Fe  Fe49  1  0.87731767  0.37445371  0.37285661  1
  Fe  Fe50  1  0.37685217  0.12471718  0.37627176  1
  Fe  Fe51  1  0.12813526  0.86939944  0.12262995  1
  Fe  Fe52  1  0.12555259  0.12513791  0.12282215  1
  Fe  Fe53  1  0.62648589  0.62426879  0.12303691  1
  Fe  Fe54  1  0.37442545  0.12453024  0.87344654  1
  Fe  Fe55  1  0.87562427  0.37471633  0.62797150  1
  Fe  Fe56  1  0.24840441  0.00105386  0.50125777  1
  Fe  Fe57  1  0.62450372  0.87879480  0.37382280  1
  Fe  Fe58  1  0.37573927  0.62512456  0.37624058  1
  Fe  Fe59  1  0.37394234  0.62286457  0.62229283  1
  Fe  Fe60  1  0.37356055  0.12556247  0.12346261  1
  Fe  Fe61  1  0.62537946  0.37541898  0.12590133  1
  Fe  Fe62  1  0.87620925  0.62537970  0.12232953  1
  Fe  Fe63  1  0.87313464  0.87432212  0.12290512  1
  Fe  Fe64  1  -0.00187126  0.00177235  0.74692487  1
  Fe  Fe65  1  0.25044997  -0.00104463  -0.00157915  1
  Fe  Fe66  1  0.49968950  0.74753080  -0.00029066  1
  Fe  Fe67  1  0.87395272  0.62518549  0.62312473  1
  Fe  Fe68  1  -0.00036057  0.74601920  0.75149691  1
  Fe  Fe69  1  0.87377519  0.87483900  0.87449627  1
  Fe  Fe70  1  0.75412649  -0.00016169  0.50107027  1
  Fe  Fe71  1  0.75425481  0.00445188  0.25054120  1
  Fe  Fe72  1  0.75169075  0.24608559  0.25208365  1
  Fe  Fe73  1  0.87524810  0.37492318  0.12376042  1
  Fe  Fe74  1  0.62728487  0.87503201  0.62650378  1
  Fe  Fe75  1  0.62150790  0.38077129  0.87566478  1
  Fe  Fe76  1  0.74840487  0.49761420  0.49826179  1
  Fe  Fe77  1  0.37438910  0.87593580  0.87125055  1
  Fe  Fe78  1  0.24487260  0.49575367  0.49644519  1
  Fe  Fe79  1  0.12544250  0.87308108  0.62844231  1
  Fe  Fe80  1  0.75192490  0.50016866  0.75196690  1
  Fe  Fe81  1  0.87946127  0.87862969  0.37545584  1
  Fe  Fe82  1  0.50154096  0.74928543  0.25098225  1
  Fe  Fe83  1  0.75163577  0.00212033  0.74978926  1
  Fe  Fe84  1  0.50379686  0.49528281  0.50046442  1
  Fe  Fe85  1  0.62322770  0.12475048  0.87570596  1
  Fe  Fe86  1  0.50036591  0.74779122  0.74869236  1
  Fe  Fe87  1  0.12442048  0.37660501  0.12761553  1
  Fe  Fe88  1  0.62588356  0.12361232  0.12364271  1
  Fe  Fe89  1  0.62613002  0.12806793  0.62507866  1
  Co  Co90  1  0.12698376  0.62534577  0.87652615  1
  Co  Co91  1  0.87462252  0.12654931  0.11956672  1
  Co  Co92  1  0.00081503  0.50301087  0.24958859  1
  Co  Co93  1  0.24715348  0.24985480  0.49663396  1
  Co  Co94  1  0.74784176  0.74922833  -0.00100903  1
  Co  Co95  1  0.87903519  0.37410556  0.87501323  1
  Co  Co96  1  -0.00219853  0.50421503  0.75043968  1
  Co  Co97  1  0.75082937  0.00056619  -0.00170765  1
  Co  Co98  1  0.50167871  0.25224858  0.50019629  1
  Co  Co99  1  0.49864085  0.00081087  0.24761722  1
  Co  Co100  1  0.87173282  0.12943009  0.62368404  1
  Co  Co101  1  0.62525770  0.37493800  0.37105688  1
  Co  Co102  1  0.25544081  0.74729848  -0.00330066  1
  Co  Co103  1  0.62509884  0.62382419  0.37610105  1
  Co  Co104  1  0.00000149  -0.00017206  0.50833131  1
  Co  Co105  1  0.00275089  0.25273140  0.00196891  1
  Co  Co106  1  0.37658957  0.37857122  0.87720389  1
  Co  Co107  1  0.49797289  0.50121901  0.00491989  1
  Co  Co108  1  0.24786262  0.00082199  0.75001275  1
  Co  Co109  1  0.49819589  0.49758997  0.74455466  1
  Co  Co110  1  0.62873344  0.37399123  0.62807050  1
  Co  Co111  1  0.87412627  0.87135971  0.62803748  1
  Co  Co112  1  0.00006091  -0.00039842  0.24311105  1
  Co  Co113  1  0.12205591  0.37183511  0.37037763  1
  Co  Co114  1  0.37290146  0.62573288  0.12833017  1
  Co  Co115  1  0.75112194  0.49806656  -0.00051221  1
  Co  Co116  1  0.12189979  0.62700740  0.37874467  1
  Co  Co117  1  0.25215195  0.25237959  0.75423288  1
  Co  Co118  1  0.62264874  0.62034226  0.87509090  1
  Co  Co119  1  -0.00255703  0.75084050  -0.00254196  1
  Co  Co120  1  0.12534969  0.37470196  0.63015195  1
  Co  Co121  1  0.62389345  0.12249027  0.37641558  1
  Co  Co122  1  0.25181173  0.74694639  0.74910712  1
  Co  Co123  1  0.50208532  0.00097184  0.74886364  1
  Co  Co124  1  0.88109580  0.12400461  0.37801057  1
  Co  Co125  1  -0.00242190  0.24794330  0.74752462  1
  Co  Co126  1  0.24718238  0.74720117  0.25356476  1
  Co  Co127  1  0.12427158  0.62778091  0.12060283  1
