# generated using pymatgen
data_Fe45Co19
_symmetry_space_group_name_H-M   'P 1'
_cell_length_a   11.41335915
_cell_length_b   11.41450464
_cell_length_c   11.41418065
_cell_angle_alpha   89.99895444
_cell_angle_beta   90.00122691
_cell_angle_gamma   89.98937433
_symmetry_Int_Tables_number   1
_chemical_formula_structural   Fe45Co19
_chemical_formula_sum   'Fe90 Co38'
_cell_volume   1487.01478592
_cell_formula_units_Z   2
loop_
 _symmetry_equiv_pos_site_id
 _symmetry_equiv_pos_as_xyz
  1  'x, y, z'
loop_
 _atom_site_type_symbol
 _atom_site_label
 _atom_site_symmetry_multiplicity
 _atom_site_fract_x
 _atom_site_fract_y
 _atom_site_fract_z
 _atom_site_occupancy
  Fe  Fe0  1  0.50257354  -0.00255097  0.49826763  1
  Fe  Fe1  1  0.87560104  0.87530332  0.37878195  1
  Fe  Fe2  1  0.12335621  0.37641261  0.87568469  1
  Fe  Fe3  1  0.00037414  -0.00143429  -0.00154035  1
  Fe  Fe4  1  0.87342504  0.87564362  0.12395737  1
  Fe  Fe5  1  0.74823172  0.50174113  0.74853148  1
  Fe  Fe6  1  -0.00244269  0.74523210  0.74780817  1
  Fe  Fe7  1  -0.00061857  0.00098730  0.25062840  1
  Fe  Fe8  1  0.62814833  0.12696578  0.12411892  1
  Fe  Fe9  1  0.62587603  0.12701348  0.37556337  1
  Fe  Fe10  1  0.75345867  0.74817799  0.49882557  1
  Fe  Fe11  1  0.12304421  0.12489194  0.87491085  1
  Fe  Fe12  1  0.37508223  0.37573938  0.12448991  1
  Fe  Fe13  1  0.12332903  0.62300933  0.87474043  1
  Fe  Fe14  1  0.25097984  0.75043727  0.49978914  1
  Fe  Fe15  1  0.25164795  0.24972112  -0.00342876  1
  Fe  Fe16  1  0.62590694  0.37311875  0.87498408  1
  Fe  Fe17  1  0.12124483  0.87220335  0.62496709  1
  Fe  Fe18  1  0.87322179  0.62431980  0.12526914  1
  Fe  Fe19  1  0.12320109  0.87379727  0.37704820  1
  Fe  Fe20  1  -0.00652162  0.25156079  0.00345332  1
  Fe  Fe21  1  0.24892313  0.49973611  0.24889835  1
  Fe  Fe22  1  0.87393951  0.37690727  0.62574338  1
  Fe  Fe23  1  0.50209661  -0.00133179  0.25146623  1
  Fe  Fe24  1  0.50097448  0.75394497  0.25455517  1
  Fe  Fe25  1  0.24851446  0.49804438  0.49988915  1
  Fe  Fe26  1  0.24831600  0.25117074  0.25128161  1
  Fe  Fe27  1  0.75091056  -0.00035273  0.25171052  1
  Fe  Fe28  1  0.62490725  0.37397920  0.62535949  1
  Fe  Fe29  1  0.12425766  0.87381456  0.12353398  1
  Fe  Fe30  1  0.62759158  0.37264901  0.12659403  1
  Fe  Fe31  1  0.24767051  0.00006080  0.74968979  1
  Fe  Fe32  1  0.74859770  0.50121960  0.25280809  1
  Fe  Fe33  1  0.12252313  0.12748815  0.62470049  1
  Fe  Fe34  1  0.87234817  0.12462897  0.87374879  1
  Fe  Fe35  1  0.37418602  0.37498612  0.62753753  1
  Fe  Fe36  1  0.50045657  0.25143875  0.49911790  1
  Fe  Fe37  1  -0.00330748  0.74833500  -0.00208312  1
  Fe  Fe38  1  0.12406752  0.37510027  0.12344111  1
  Fe  Fe39  1  0.00001327  0.25206497  0.74819634  1
  Fe  Fe40  1  0.50132692  0.49865722  -0.00091128  1
  Fe  Fe41  1  0.37580709  0.62557640  0.12461030  1
  Fe  Fe42  1  0.00228938  0.50218759  0.50658449  1
  Fe  Fe43  1  0.74722542  -0.00002536  -0.00412750  1
  Fe  Fe44  1  0.49928211  0.25049442  0.75083198  1
  Fe  Fe45  1  0.12068824  0.12827732  0.37603415  1
  Fe  Fe46  1  0.37697171  0.12168790  0.87539604  1
  Fe  Fe47  1  0.87477483  0.37814876  0.87397103  1
  Fe  Fe48  1  0.00116670  0.50068110  0.24788520  1
  Fe  Fe49  1  0.62513800  0.62711407  0.87431483  1
  Fe  Fe50  1  0.24929846  0.75140033  -0.00298690  1
  Fe  Fe51  1  0.50740463  -0.00194835  0.74986827  1
  Fe  Fe52  1  0.87732085  0.37840167  0.37611178  1
  Fe  Fe53  1  0.87290050  0.87479361  0.87244347  1
  Fe  Fe54  1  0.37614843  0.12447269  0.62557893  1
  Fe  Fe55  1  0.37532490  0.62465670  0.37492239  1
  Fe  Fe56  1  0.37418792  0.12222444  0.12376708  1
  Fe  Fe57  1  -0.00245514  0.00011789  0.74726705  1
  Fe  Fe58  1  0.74948498  0.24664310  0.74877152  1
  Fe  Fe59  1  0.37829227  0.87440783  0.62389651  1
  Fe  Fe60  1  0.37619866  0.62155338  0.87472646  1
  Fe  Fe61  1  0.50324219  0.49840199  0.49960670  1
  Fe  Fe62  1  0.24945961  0.49771350  0.75130022  1
  Fe  Fe63  1  0.62644024  0.62662003  0.37555729  1
  Fe  Fe64  1  0.37523584  0.12478629  0.37472442  1
  Fe  Fe65  1  0.12427275  0.62464125  0.37607242  1
  Fe  Fe66  1  0.24762884  0.00002090  0.25034907  1
  Fe  Fe67  1  0.25194210  0.75202531  0.75178937  1
  Fe  Fe68  1  0.87851427  0.12573732  0.37848231  1
  Fe  Fe69  1  0.62833709  0.87233492  0.12466511  1
  Fe  Fe70  1  0.50017908  0.24983480  0.00002444  1
  Fe  Fe71  1  0.62278570  0.62825113  0.62491774  1
  Fe  Fe72  1  0.75128835  0.25061201  0.50111201  1
  Fe  Fe73  1  0.62591401  0.62794990  0.12618081  1
  Fe  Fe74  1  0.25036171  0.75025518  0.25075693  1
  Fe  Fe75  1  0.75052021  0.75124287  0.74983954  1
  Fe  Fe76  1  0.12296473  0.12564957  0.12398455  1
  Fe  Fe77  1  0.37631730  0.37484215  0.37295556  1
  Fe  Fe78  1  0.24819279  0.25171292  0.50023477  1
  Fe  Fe79  1  0.37385874  0.87680759  0.12377175  1
  Fe  Fe80  1  0.37661372  0.87924856  0.87689984  1
  Fe  Fe81  1  0.75148678  0.00167126  0.50746351  1
  Fe  Fe82  1  -0.00357830  0.74938756  0.25202060  1
  Fe  Fe83  1  0.75030592  0.50119027  -0.00084699  1
  Fe  Fe84  1  0.12520775  0.62565375  0.12233163  1
  Fe  Fe85  1  0.75598178  0.24940074  0.24903069  1
  Fe  Fe86  1  0.24762119  -0.00014167  0.50092981  1
  Fe  Fe87  1  0.50236634  0.49871880  0.25115896  1
  Fe  Fe88  1  0.50091039  0.75137121  -0.00201012  1
  Fe  Fe89  1  0.37712936  0.62525358  0.62563113  1
  Co  Co90  1  0.62714544  0.87259782  0.87494480  1
  Co  Co91  1  0.13002011  0.62664350  0.62720709  1
  Co  Co92  1  0.12738125  0.37403419  0.62801457  1
  Co  Co93  1  0.87099235  0.62338325  0.62522497  1
  Co  Co94  1  0.75387639  0.25144857  0.00067718  1
  Co  Co95  1  0.75260862  0.74804061  -0.00043002  1
  Co  Co96  1  0.25034856  0.24765153  0.75225852  1
  Co  Co97  1  0.63086240  0.87566252  0.37807134  1
  Co  Co98  1  0.62279697  0.12717658  0.62401548  1
  Co  Co99  1  0.87613331  0.87309542  0.62553877  1
  Co  Co100  1  0.87333592  0.11942943  0.12224541  1
  Co  Co101  1  0.49924847  0.24811200  0.24833515  1
  Co  Co102  1  0.50560037  0.00011283  0.00186825  1
  Co  Co103  1  -0.00134521  0.74521179  0.50119907  1
  Co  Co104  1  0.74591850  0.49935457  0.50034629  1
  Co  Co105  1  0.62602387  0.12814019  0.87533029  1
  Co  Co106  1  0.37588266  0.37621279  0.87332713  1
  Co  Co107  1  0.49842782  0.75104991  0.75314621  1
  Co  Co108  1  0.12145056  0.87395011  0.87199608  1
  Co  Co109  1  -0.00261121  0.50100766  0.00025178  1
  Co  Co110  1  0.62662178  0.37077482  0.37254296  1
  Co  Co111  1  0.12059935  0.37605032  0.37405009  1
  Co  Co112  1  -0.00005949  -0.00018356  0.50179944  1
  Co  Co113  1  0.49894434  0.75090261  0.49559626  1
  Co  Co114  1  0.00030922  0.25421053  0.50296370  1
  Co  Co115  1  0.62479586  0.87028208  0.62323823  1
  Co  Co116  1  0.74747446  0.00100235  0.74649657  1
  Co  Co117  1  0.87630444  0.61974975  0.37621821  1
  Co  Co118  1  0.00018676  0.50171607  0.74622463  1
  Co  Co119  1  0.50256933  0.49970582  0.74936463  1
  Co  Co120  1  0.75367910  0.74926716  0.25239029  1
  Co  Co121  1  0.87414453  0.62280614  0.87314826  1
  Co  Co122  1  0.25053164  0.49990620  -0.00019076  1
  Co  Co123  1  0.87224399  0.38066516  0.12661923  1
  Co  Co124  1  0.37207384  0.87704964  0.37495751  1
  Co  Co125  1  -0.00460550  0.24974236  0.24595296  1
  Co  Co126  1  0.24568205  -0.00057206  -0.00188342  1
  Co  Co127  1  0.87802343  0.12771747  0.62601350  1
