# generated using pymatgen
data_Fe45Co19
_symmetry_space_group_name_H-M   'P 1'
_cell_length_a   11.41560692
_cell_length_b   11.41480648
_cell_length_c   11.41463043
_cell_angle_alpha   90.00809629
_cell_angle_beta   89.99924974
_cell_angle_gamma   89.99040383
_symmetry_Int_Tables_number   1
_chemical_formula_structural   Fe45Co19
_chemical_formula_sum   'Fe90 Co38'
_cell_volume   1487.40557016
_cell_formula_units_Z   2
loop_
 _symmetry_equiv_pos_site_id
 _symmetry_equiv_pos_as_xyz
  1  'x, y, z'
loop_
 _atom_site_type_symbol
 _atom_site_label
 _atom_site_symmetry_multiplicity
 _atom_site_fract_x
 _atom_site_fract_y
 _atom_site_fract_z
 _atom_site_occupancy
  Fe  Fe0  1  0.50500807  0.74719627  0.50218767  1
  Fe  Fe1  1  0.00246226  0.24492201  0.49657547  1
  Fe  Fe2  1  0.37397127  0.62582106  0.37671800  1
  Fe  Fe3  1  0.49873934  0.00052172  0.75065242  1
  Fe  Fe4  1  0.37154167  0.12500878  0.37661307  1
  Fe  Fe5  1  0.75221216  0.74932444  0.00264956  1
  Fe  Fe6  1  0.37316675  0.12567312  0.12324559  1
  Fe  Fe7  1  0.50006955  0.49870755  -0.00166905  1
  Fe  Fe8  1  0.12120596  0.87672291  0.87403113  1
  Fe  Fe9  1  0.75276877  0.49705589  0.00461694  1
  Fe  Fe10  1  0.49805448  0.00074451  0.50225977  1
  Fe  Fe11  1  0.87805237  0.12382110  0.62265397  1
  Fe  Fe12  1  0.87722800  0.62726790  0.13247927  1
  Fe  Fe13  1  0.00053610  0.50236335  -0.00254616  1
  Fe  Fe14  1  0.12819974  0.87895868  0.37847455  1
  Fe  Fe15  1  0.87465990  0.62457469  0.87409105  1
  Fe  Fe16  1  0.87737524  0.87623880  0.62191881  1
  Fe  Fe17  1  0.24523773  0.24868100  0.74602172  1
  Fe  Fe18  1  0.50168009  0.74870710  -0.00065355  1
  Fe  Fe19  1  0.37486119  0.87443924  0.12266916  1
  Fe  Fe20  1  0.50070816  0.75125628  0.24992587  1
  Fe  Fe21  1  0.62402987  0.12772128  0.12190502  1
  Fe  Fe22  1  0.37446108  0.87384799  0.87487334  1
  Fe  Fe23  1  0.12249986  0.62493194  0.12669149  1
  Fe  Fe24  1  0.24831223  -0.00015824  -0.00099651  1
  Fe  Fe25  1  0.24414988  0.25062204  0.00163227  1
  Fe  Fe26  1  0.62872621  0.87696169  0.87531298  1
  Fe  Fe27  1  0.12395798  0.37936208  0.87373772  1
  Fe  Fe28  1  0.37392495  0.62555868  0.12331577  1
  Fe  Fe29  1  0.75393977  0.00048244  0.74989169  1
  Fe  Fe30  1  0.24801449  0.49969819  0.74701399  1
  Fe  Fe31  1  0.87495996  0.62428899  0.62461219  1
  Fe  Fe32  1  0.37254401  0.37341142  0.37661443  1
  Fe  Fe33  1  0.62516171  0.87654828  0.12274727  1
  Fe  Fe34  1  0.50277577  0.24978244  0.75177704  1
  Fe  Fe35  1  0.37568300  0.37318724  0.62535409  1
  Fe  Fe36  1  0.24616324  0.74909441  -0.00125823  1
  Fe  Fe37  1  -0.00084040  0.25306461  0.74951217  1
  Fe  Fe38  1  0.37220497  0.12639888  0.87334276  1
  Fe  Fe39  1  -0.00116038  0.74981928  0.75162004  1
  Fe  Fe40  1  0.75017791  0.24926924  0.50165729  1
  Fe  Fe41  1  0.24539665  0.24974617  0.24626056  1
  Fe  Fe42  1  0.75113611  0.00073183  0.24815821  1
  Fe  Fe43  1  0.49950403  0.00259636  -0.00251684  1
  Fe  Fe44  1  0.87777501  0.37634329  0.62296387  1
  Fe  Fe45  1  0.62809469  0.12471077  0.37502224  1
  Fe  Fe46  1  0.62566048  0.87756181  0.37564911  1
  Fe  Fe47  1  0.62721916  0.62349919  0.12905343  1
  Fe  Fe48  1  0.24679067  0.75336481  0.74841802  1
  Fe  Fe49  1  0.37127693  0.37420727  0.87565937  1
  Fe  Fe50  1  0.37232952  0.62478080  0.87462100  1
  Fe  Fe51  1  0.62502121  0.37565006  0.37440155  1
  Fe  Fe52  1  0.37445958  0.37446513  0.12223727  1
  Fe  Fe53  1  0.62574739  0.37695157  0.62401335  1
  Fe  Fe54  1  0.88411366  0.37272130  0.12608537  1
  Fe  Fe55  1  0.74980170  0.50263032  0.49632362  1
  Fe  Fe56  1  0.50320304  0.74985168  0.74957339  1
  Fe  Fe57  1  0.24791046  0.75101508  0.24988542  1
  Fe  Fe58  1  -0.00003725  0.50326253  0.49631567  1
  Fe  Fe59  1  0.37424458  0.87495461  0.37782251  1
  Fe  Fe60  1  0.50114333  0.49740236  0.75196144  1
  Fe  Fe61  1  0.37711787  0.62485244  0.62598248  1
  Fe  Fe62  1  0.12254665  0.62439686  0.62594649  1
  Fe  Fe63  1  0.24759517  0.75235323  0.50395426  1
  Fe  Fe64  1  0.87701323  0.37270664  0.37426489  1
  Fe  Fe65  1  0.75006436  0.75074725  0.74790957  1
  Fe  Fe66  1  0.12069545  0.87752876  0.12324659  1
  Fe  Fe67  1  0.49882300  0.24915378  0.24992664  1
  Fe  Fe68  1  0.87946217  0.87324110  0.12535075  1
  Fe  Fe69  1  0.25077271  -0.00013454  0.24818305  1
  Fe  Fe70  1  0.62606467  0.12316595  0.62590601  1
  Fe  Fe71  1  0.49890400  0.49878047  0.25089280  1
  Fe  Fe72  1  0.12594447  0.37516246  0.37590763  1
  Fe  Fe73  1  0.87275478  0.87462299  0.37529844  1
  Fe  Fe74  1  0.87348810  0.13160925  0.87568152  1
  Fe  Fe75  1  0.74659298  0.74835469  0.49987900  1
  Fe  Fe76  1  0.24850298  0.49961230  0.24881457  1
  Fe  Fe77  1  0.63089269  0.36947005  0.87883457  1
  Fe  Fe78  1  0.12365337  0.12121085  0.87158818  1
  Fe  Fe79  1  0.49859637  0.00099015  0.24927662  1
  Fe  Fe80  1  0.88202304  0.12845583  0.12657668  1
  Fe  Fe81  1  0.00040004  0.00272785  0.25547446  1
  Fe  Fe82  1  0.75025090  0.25263342  0.24677693  1
  Fe  Fe83  1  0.75430743  0.00243616  0.00002246  1
  Fe  Fe84  1  0.50044713  0.25019820  0.50014647  1
  Fe  Fe85  1  0.24637875  0.24599675  0.50564584  1
  Fe  Fe86  1  0.00127655  0.74887114  0.49604762  1
  Fe  Fe87  1  0.62859532  0.62403115  0.87488345  1
  Fe  Fe88  1  0.24995135  0.49925246  0.50314543  1
  Fe  Fe89  1  0.75251180  0.49641439  0.75016802  1
  Co  Co90  1  0.12896371  0.62379221  0.37588685  1
  Co  Co91  1  -0.00187824  0.00341929  0.49300635  1
  Co  Co92  1  0.75266932  0.25065198  0.74450808  1
  Co  Co93  1  0.11752494  0.88046031  0.62545508  1
  Co  Co94  1  0.49962057  0.49998423  0.49905569  1
  Co  Co95  1  0.74842272  0.75455774  0.25035172  1
  Co  Co96  1  0.87150252  0.62772190  0.37088673  1
  Co  Co97  1  0.00015807  0.74736704  -0.00143590  1
  Co  Co98  1  0.24783170  0.50073379  0.00111476  1
  Co  Co99  1  0.00410330  0.75180314  0.25527558  1
  Co  Co100  1  0.12485810  0.62376656  0.87202890  1
  Co  Co101  1  0.25241772  0.00106730  0.50861409  1
  Co  Co102  1  0.62933785  0.12663173  0.87500117  1
  Co  Co103  1  0.11985801  0.37714778  0.12576963  1
  Co  Co104  1  -0.00144167  0.49958026  0.75002493  1
  Co  Co105  1  0.75170387  0.00034740  0.50098273  1
  Co  Co106  1  0.86930740  0.12753985  0.37315945  1
  Co  Co107  1  0.13189704  0.12238354  0.37564792  1
  Co  Co108  1  -0.00784342  -0.00168452  0.75505292  1
  Co  Co109  1  0.00129002  0.50157515  0.25558980  1
  Co  Co110  1  0.62618474  0.87814037  0.62663455  1
  Co  Co111  1  0.62673327  0.62332521  0.37022535  1
  Co  Co112  1  0.62125386  0.37349485  0.12349955  1
  Co  Co113  1  0.75271825  0.49381062  0.24877472  1
  Co  Co114  1  0.62617535  0.62059850  0.62753187  1
  Co  Co115  1  0.87305089  0.87071498  0.87700963  1
  Co  Co116  1  0.25272864  -0.00244955  0.74586263  1
  Co  Co117  1  0.11848364  0.11790884  0.62804230  1
  Co  Co118  1  0.00546140  0.25010427  -0.00400488  1
  Co  Co119  1  0.37774323  0.87113195  0.62475558  1
  Co  Co120  1  0.37684479  0.12847779  0.62693130  1
  Co  Co121  1  0.12092099  0.12152806  0.12391555  1
  Co  Co122  1  -0.00424311  0.00126962  -0.00407920  1
  Co  Co123  1  0.75388860  0.25075336  0.00598149  1
  Co  Co124  1  0.87470901  0.37341459  0.87637953  1
  Co  Co125  1  0.00530254  0.24684364  0.25562845  1
  Co  Co126  1  0.12078576  0.37584274  0.62318551  1
  Co  Co127  1  0.49711148  0.24905525  -0.00216249  1
