# generated using pymatgen
data_Fe45Co19
_symmetry_space_group_name_H-M   'P 1'
_cell_length_a   11.41521292
_cell_length_b   11.41416102
_cell_length_c   11.41438846
_cell_angle_alpha   90.00724462
_cell_angle_beta   90.00069522
_cell_angle_gamma   90.00802084
_symmetry_Int_Tables_number   1
_chemical_formula_structural   Fe45Co19
_chemical_formula_sum   'Fe90 Co38'
_cell_volume   1487.23861136
_cell_formula_units_Z   2
loop_
 _symmetry_equiv_pos_site_id
 _symmetry_equiv_pos_as_xyz
  1  'x, y, z'
loop_
 _atom_site_type_symbol
 _atom_site_label
 _atom_site_symmetry_multiplicity
 _atom_site_fract_x
 _atom_site_fract_y
 _atom_site_fract_z
 _atom_site_occupancy
  Fe  Fe0  1  0.62442611  0.87552271  0.37546615  1
  Fe  Fe1  1  0.24937493  0.75109719  0.50010477  1
  Fe  Fe2  1  0.24879883  0.24853423  0.24862493  1
  Fe  Fe3  1  0.87664018  0.37603295  0.87575258  1
  Fe  Fe4  1  0.62345739  0.37604830  0.12568415  1
  Fe  Fe5  1  0.49794176  0.74879333  0.49888001  1
  Fe  Fe6  1  0.37654481  0.37547431  0.62482159  1
  Fe  Fe7  1  0.50064757  0.50175148  0.75029766  1
  Fe  Fe8  1  0.75287291  0.75213366  -0.00095896  1
  Fe  Fe9  1  0.24909119  0.75173790  -0.00043925  1
  Fe  Fe10  1  0.49913250  0.50157044  -0.00156734  1
  Fe  Fe11  1  0.74934746  0.50102886  0.74961604  1
  Fe  Fe12  1  0.00106607  0.25059376  0.49946748  1
  Fe  Fe13  1  0.62601672  0.62896930  0.87428172  1
  Fe  Fe14  1  0.24763438  -0.00011489  0.75171419  1
  Fe  Fe15  1  0.37559581  0.37661192  0.37406017  1
  Fe  Fe16  1  0.62533701  0.37660577  0.37516799  1
  Fe  Fe17  1  0.49890530  0.00007573  -0.00361278  1
  Fe  Fe18  1  0.87506687  0.87423126  0.37256039  1
  Fe  Fe19  1  0.50080064  0.24672032  0.25112520  1
  Fe  Fe20  1  0.37710886  0.37700543  0.12647173  1
  Fe  Fe21  1  0.50128205  0.24708638  0.75213980  1
  Fe  Fe22  1  0.62264849  0.87539447  0.62615526  1
  Fe  Fe23  1  0.87718134  0.37465074  0.62604811  1
  Fe  Fe24  1  0.75055819  0.25041027  0.24749050  1
  Fe  Fe25  1  0.37626924  0.87636444  0.62790206  1
  Fe  Fe26  1  0.00199748  0.50084190  0.49721776  1
  Fe  Fe27  1  0.12313664  0.87426695  0.37398284  1
  Fe  Fe28  1  0.74635893  0.74763659  0.24811888  1
  Fe  Fe29  1  0.24984977  0.25080301  0.49917282  1
  Fe  Fe30  1  0.50318763  0.50803232  0.25278104  1
  Fe  Fe31  1  0.00225793  0.50275184  0.25098201  1
  Fe  Fe32  1  0.62615068  0.12293831  0.12270928  1
  Fe  Fe33  1  0.25113868  -0.00334067  0.00019792  1
  Fe  Fe34  1  0.62578600  0.12138215  0.62391764  1
  Fe  Fe35  1  0.37473976  0.62704353  0.12514059  1
  Fe  Fe36  1  0.24917476  0.25187162  0.00127038  1
  Fe  Fe37  1  0.75259391  -0.00454635  -0.00154399  1
  Fe  Fe38  1  0.75041339  -0.00010101  0.24959160  1
  Fe  Fe39  1  0.49819760  0.00075958  0.25088669  1
  Fe  Fe40  1  0.12421440  0.37580392  0.62580068  1
  Fe  Fe41  1  0.49699546  0.75135635  -0.00285829  1
  Fe  Fe42  1  0.24838543  0.50010316  0.49685302  1
  Fe  Fe43  1  0.62550073  0.37309512  0.87487599  1
  Fe  Fe44  1  0.62327827  0.87399926  0.12400781  1
  Fe  Fe45  1  0.75034901  0.49795292  0.50222454  1
  Fe  Fe46  1  0.12368050  0.12381187  0.87976632  1
  Fe  Fe47  1  0.24758865  0.50197460  0.24971771  1
  Fe  Fe48  1  0.49942742  0.24790731  -0.00131848  1
  Fe  Fe49  1  0.75211314  0.25261521  0.00272524  1
  Fe  Fe50  1  0.75349407  0.75451733  0.50394848  1
  Fe  Fe51  1  0.74930431  0.25101505  0.74897675  1
  Fe  Fe52  1  0.50058234  0.00004833  0.75566067  1
  Fe  Fe53  1  0.37577003  0.87354266  0.37256040  1
  Fe  Fe54  1  0.24822198  0.24969149  0.75083661  1
  Fe  Fe55  1  0.37366290  0.37531125  0.87488108  1
  Fe  Fe56  1  0.37470473  0.62444912  0.62461878  1
  Fe  Fe57  1  0.87468760  0.12515879  0.87593421  1
  Fe  Fe58  1  0.12174012  0.87812708  0.12464311  1
  Fe  Fe59  1  0.87526759  0.62527570  0.12252280  1
  Fe  Fe60  1  0.00273175  0.50226687  -0.00152903  1
  Fe  Fe61  1  0.87728232  0.12212530  0.12326599  1
  Fe  Fe62  1  0.87435320  0.12272985  0.62459756  1
  Fe  Fe63  1  0.12460882  0.62614395  0.62279181  1
  Fe  Fe64  1  0.25089272  -0.00200920  0.49892477  1
  Fe  Fe65  1  0.00135218  0.24900847  0.75197918  1
  Fe  Fe66  1  0.12016271  0.87409632  0.62819506  1
  Fe  Fe67  1  0.00007265  0.24823895  0.24692344  1
  Fe  Fe68  1  0.24877500  0.50066706  0.75251338  1
  Fe  Fe69  1  0.12497143  0.12384536  0.62326317  1
  Fe  Fe70  1  0.87487531  0.62662973  0.37594163  1
  Fe  Fe71  1  0.37496293  0.12300067  0.62523604  1
  Fe  Fe72  1  0.00132368  0.50326521  0.75260257  1
  Fe  Fe73  1  0.87343212  0.12434936  0.37563135  1
  Fe  Fe74  1  0.00019745  0.74898004  0.24769327  1
  Fe  Fe75  1  0.74746149  0.50316864  0.24788431  1
  Fe  Fe76  1  0.62466275  0.62619975  0.62363956  1
  Fe  Fe77  1  0.50121024  0.24784716  0.49864927  1
  Fe  Fe78  1  0.24935609  0.74939287  0.75187542  1
  Fe  Fe79  1  0.37269827  0.12286834  0.12493257  1
  Fe  Fe80  1  0.24937137  0.75193748  0.24750744  1
  Fe  Fe81  1  0.74970469  -0.00342354  0.75059287  1
  Fe  Fe82  1  0.12320292  0.37578799  0.12409109  1
  Fe  Fe83  1  0.74797820  0.25057221  0.50083590  1
  Fe  Fe84  1  0.87669192  0.62736849  0.62548318  1
  Fe  Fe85  1  -0.00238410  -0.00243960  0.49971401  1
  Fe  Fe86  1  0.12636758  0.12260017  0.37307207  1
  Fe  Fe87  1  0.88072240  0.87119642  0.87007235  1
  Fe  Fe88  1  0.74856762  0.49962262  0.00017186  1
  Fe  Fe89  1  0.87556240  0.37537245  0.37293326  1
  Co  Co90  1  0.75304289  -0.00418612  0.50106323  1
  Co  Co91  1  0.00166071  0.00428278  0.75106049  1
  Co  Co92  1  0.50305148  0.74665274  0.25219917  1
  Co  Co93  1  -0.00140391  0.75184914  0.50016934  1
  Co  Co94  1  0.25132218  -0.00229099  0.25000920  1
  Co  Co95  1  0.37289599  0.62552658  0.87560210  1
  Co  Co96  1  0.37093490  0.12434246  0.87516982  1
  Co  Co97  1  0.12515990  0.12087156  0.12336218  1
  Co  Co98  1  0.00292055  0.74383758  0.75224183  1
  Co  Co99  1  -0.00368408  -0.00396511  -0.00003839  1
  Co  Co100  1  0.75066802  0.75048845  0.74826457  1
  Co  Co101  1  0.62759817  0.12275628  0.37519196  1
  Co  Co102  1  0.88075194  0.87503233  0.63115401  1
  Co  Co103  1  0.62956430  0.62704430  0.38198571  1
  Co  Co104  1  -0.00141023  0.00038391  0.25011722  1
  Co  Co105  1  0.49833535  0.74889599  0.75002543  1
  Co  Co106  1  0.12529127  0.62964413  0.37511305  1
  Co  Co107  1  0.87424893  0.87285506  0.12804292  1
  Co  Co108  1  -0.00060622  0.25043828  0.00174915  1
  Co  Co109  1  0.12810589  0.62602624  0.87834513  1
  Co  Co110  1  0.12337275  0.87457739  0.87358959  1
  Co  Co111  1  0.37176303  0.12462431  0.37511341  1
  Co  Co112  1  0.87360708  0.62573242  0.87709893  1
  Co  Co113  1  0.37004607  0.62703317  0.37366136  1
  Co  Co114  1  0.37874331  0.87403945  0.12539538  1
  Co  Co115  1  0.12581917  0.62605883  0.12403647  1
  Co  Co116  1  0.37312131  0.87447220  0.87290565  1
  Co  Co117  1  0.62460333  0.62858958  0.11886545  1
  Co  Co118  1  0.62997730  0.12505708  0.87718627  1
  Co  Co119  1  0.12501648  0.37566175  0.87556716  1
  Co  Co120  1  0.62430254  0.87173753  0.87546761  1
  Co  Co121  1  0.62261794  0.37508782  0.62537186  1
  Co  Co122  1  0.87705823  0.37985144  0.12538468  1
  Co  Co123  1  0.49879401  0.50210171  0.49855887  1
  Co  Co124  1  0.25106977  0.49906889  0.00175075  1
  Co  Co125  1  0.49796697  -0.00048376  0.49764831  1
  Co  Co126  1  0.00031485  0.75103494  0.00070988  1
  Co  Co127  1  0.12449125  0.37343369  0.37331780  1
