# generated using pymatgen
data_Fe45Co19
_symmetry_space_group_name_H-M   'P 1'
_cell_length_a   11.41545409
_cell_length_b   11.41590587
_cell_length_c   11.41680875
_cell_angle_alpha   90.00351923
_cell_angle_beta   90.00526634
_cell_angle_gamma   90.01038983
_symmetry_Int_Tables_number   1
_chemical_formula_structural   Fe45Co19
_chemical_formula_sum   'Fe90 Co38'
_cell_volume   1487.81278624
_cell_formula_units_Z   2
loop_
 _symmetry_equiv_pos_site_id
 _symmetry_equiv_pos_as_xyz
  1  'x, y, z'
loop_
 _atom_site_type_symbol
 _atom_site_label
 _atom_site_symmetry_multiplicity
 _atom_site_fract_x
 _atom_site_fract_y
 _atom_site_fract_z
 _atom_site_occupancy
  Fe  Fe0  1  0.87439367  0.37601050  0.12555240  1
  Fe  Fe1  1  0.00156176  0.25101591  0.24899450  1
  Fe  Fe2  1  0.24814198  0.74962741  0.74877366  1
  Fe  Fe3  1  0.62206946  0.12693350  0.62882773  1
  Fe  Fe4  1  0.62124130  0.62010910  0.11983730  1
  Fe  Fe5  1  0.37286052  0.87418159  0.87523255  1
  Fe  Fe6  1  0.37690006  0.62569832  0.87747363  1
  Fe  Fe7  1  0.12589301  0.37703143  0.62466818  1
  Fe  Fe8  1  0.62409011  0.12501419  0.37438894  1
  Fe  Fe9  1  0.00485199  0.25290434  0.00307963  1
  Fe  Fe10  1  -0.00230477  0.49948378  0.25270139  1
  Fe  Fe11  1  0.49849290  0.25103441  -0.00097438  1
  Fe  Fe12  1  0.12316382  0.62594557  0.62469558  1
  Fe  Fe13  1  0.00049581  0.75165831  0.49881948  1
  Fe  Fe14  1  0.62528595  0.12724606  0.87134003  1
  Fe  Fe15  1  0.24865323  -0.00157875  0.49629372  1
  Fe  Fe16  1  0.49869674  0.25300873  0.25207348  1
  Fe  Fe17  1  0.37839185  0.62532516  0.62463150  1
  Fe  Fe18  1  0.87440606  0.12653966  0.37580403  1
  Fe  Fe19  1  0.38129577  0.62334826  0.12308724  1
  Fe  Fe20  1  0.62480536  0.12428135  0.12557693  1
  Fe  Fe21  1  0.24908911  0.50164556  0.74981510  1
  Fe  Fe22  1  0.74974982  0.25155044  0.50215464  1
  Fe  Fe23  1  0.50117296  0.00027424  -0.00371093  1
  Fe  Fe24  1  0.87240911  0.87858841  0.12498711  1
  Fe  Fe25  1  0.00219756  0.49914519  0.75170706  1
  Fe  Fe26  1  0.12177544  0.12057918  0.62222378  1
  Fe  Fe27  1  0.00306139  0.49683304  -0.00163507  1
  Fe  Fe28  1  0.87086426  0.62444654  0.37567075  1
  Fe  Fe29  1  0.24939158  0.00075068  0.00104835  1
  Fe  Fe30  1  0.12227654  0.62470250  0.12657562  1
  Fe  Fe31  1  0.37736590  0.12367383  0.12577820  1
  Fe  Fe32  1  0.62665744  0.87799295  0.12287772  1
  Fe  Fe33  1  0.87463908  0.37422662  0.87448027  1
  Fe  Fe34  1  0.00232577  0.25097922  0.74902529  1
  Fe  Fe35  1  0.12703793  0.37381387  0.37403999  1
  Fe  Fe36  1  0.25008069  0.24709388  0.24872514  1
  Fe  Fe37  1  0.00016511  -0.00081259  0.25494454  1
  Fe  Fe38  1  0.62921801  0.37948832  0.37492396  1
  Fe  Fe39  1  0.87725456  0.12182887  0.62656902  1
  Fe  Fe40  1  0.50006794  -0.00205300  0.49966046  1
  Fe  Fe41  1  0.25095816  0.50350718  0.49751916  1
  Fe  Fe42  1  0.87727691  0.62485147  0.62606735  1
  Fe  Fe43  1  0.25005816  0.75010858  0.50074317  1
  Fe  Fe44  1  0.75065054  0.24910110  0.00098393  1
  Fe  Fe45  1  0.37306325  0.37691847  0.12425387  1
  Fe  Fe46  1  0.50093863  0.49831240  0.75383624  1
  Fe  Fe47  1  0.25167050  0.24797440  0.50155536  1
  Fe  Fe48  1  0.37486559  0.87487888  0.62654699  1
  Fe  Fe49  1  0.25419560  0.50422823  0.25221429  1
  Fe  Fe50  1  0.87140303  0.87276998  0.37441986  1
  Fe  Fe51  1  0.49931198  0.50169020  0.49557377  1
  Fe  Fe52  1  0.37629694  0.37666540  0.62373159  1
  Fe  Fe53  1  0.50151524  -0.00117067  0.25197077  1
  Fe  Fe54  1  0.62603515  0.87207871  0.37520707  1
  Fe  Fe55  1  0.74782930  0.74658990  0.24535331  1
  Fe  Fe56  1  0.75026827  0.25040878  0.24972350  1
  Fe  Fe57  1  0.62772241  0.37363722  0.87428531  1
  Fe  Fe58  1  0.12468827  0.62653641  0.87637235  1
  Fe  Fe59  1  0.00173636  0.75338455  0.75121062  1
  Fe  Fe60  1  0.24621091  -0.00074143  0.75026191  1
  Fe  Fe61  1  0.12633138  0.12814872  0.87631929  1
  Fe  Fe62  1  0.74936556  0.00120824  0.50126404  1
  Fe  Fe63  1  0.62463594  0.87447922  0.62693645  1
  Fe  Fe64  1  0.12478380  0.62917345  0.37229270  1
  Fe  Fe65  1  0.74750368  0.50187513  0.74813177  1
  Fe  Fe66  1  0.87073457  0.87493044  0.87420206  1
  Fe  Fe67  1  0.37827646  0.12288215  0.62667111  1
  Fe  Fe68  1  0.37337935  0.12688574  0.87345826  1
  Fe  Fe69  1  0.87471404  0.12308726  0.12536300  1
  Fe  Fe70  1  0.74792621  0.74718840  0.50432906  1
  Fe  Fe71  1  0.87747431  0.87762297  0.62651006  1
  Fe  Fe72  1  0.37645350  0.87070409  0.37285391  1
  Fe  Fe73  1  0.87558810  0.62174641  0.12209474  1
  Fe  Fe74  1  0.87199720  0.62549844  0.87538605  1
  Fe  Fe75  1  0.24856621  0.00077748  0.25270522  1
  Fe  Fe76  1  -0.00106988  0.25202138  0.49971101  1
  Fe  Fe77  1  0.36662204  0.37189680  0.87642384  1
  Fe  Fe78  1  0.37728490  0.87534475  0.12540500  1
  Fe  Fe79  1  0.50196378  0.74953358  0.75136560  1
  Fe  Fe80  1  0.87434310  0.37686640  0.62521796  1
  Fe  Fe81  1  0.25115389  0.74773237  0.00380650  1
  Fe  Fe82  1  -0.00052623  0.49957739  0.49720560  1
  Fe  Fe83  1  -0.00215559  0.75137907  0.00077649  1
  Fe  Fe84  1  0.49929802  0.25135003  0.49814975  1
  Fe  Fe85  1  0.12378328  0.87386592  0.12704116  1
  Fe  Fe86  1  0.00084184  -0.00092821  -0.00223747  1
  Fe  Fe87  1  0.62470233  0.37718683  0.12525542  1
  Fe  Fe88  1  0.62939969  0.87245585  0.87523056  1
  Fe  Fe89  1  0.87470567  0.12588213  0.87348490  1
  Co  Co90  1  0.49864456  0.49426703  -0.00481711  1
  Co  Co91  1  0.37190918  0.37319374  0.37584593  1
  Co  Co92  1  0.75083947  0.50127730  0.50383535  1
  Co  Co93  1  0.00274312  -0.00183696  0.75460766  1
  Co  Co94  1  0.24938719  0.24826657  0.74336980  1
  Co  Co95  1  0.62604976  0.62455640  0.37598534  1
  Co  Co96  1  0.12351925  0.87603146  0.62323068  1
  Co  Co97  1  0.12322314  0.12020810  0.12609276  1
  Co  Co98  1  0.12583546  0.86907305  0.37148153  1
  Co  Co99  1  0.25357690  0.74752136  0.24554866  1
  Co  Co100  1  0.62227049  0.37573868  0.62360092  1
  Co  Co101  1  0.74954996  0.00106221  0.25248544  1
  Co  Co102  1  0.62617631  0.62605402  0.87810174  1
  Co  Co103  1  0.74922911  0.74767751  0.74649993  1
  Co  Co104  1  0.24880898  0.50390983  0.00052063  1
  Co  Co105  1  0.12423274  0.12811771  0.37625364  1
  Co  Co106  1  0.12976480  0.37328636  0.87412509  1
  Co  Co107  1  0.74883116  0.00336062  -0.00235327  1
  Co  Co108  1  0.75083987  0.50261250  0.24750739  1
  Co  Co109  1  0.50061138  0.75150273  0.50154349  1
  Co  Co110  1  0.49782477  0.49926908  0.25374457  1
  Co  Co111  1  0.12809720  0.87158404  0.87891507  1
  Co  Co112  1  0.37690689  0.12419396  0.37459247  1
  Co  Co113  1  0.75074750  0.74884811  0.00423204  1
  Co  Co114  1  0.12852670  0.37968839  0.12885081  1
  Co  Co115  1  0.75104900  0.25122094  0.74741056  1
  Co  Co116  1  0.75084699  0.49761188  -0.00077224  1
  Co  Co117  1  0.50063452  0.75365906  -0.00078059  1
  Co  Co118  1  -0.00033784  -0.00303534  0.49369319  1
  Co  Co119  1  0.87226800  0.37487568  0.37461330  1
  Co  Co120  1  0.24753196  0.24816636  0.00632697  1
  Co  Co121  1  0.74932304  0.00110849  0.74878178  1
  Co  Co122  1  0.50073067  -0.00299062  0.75234796  1
  Co  Co123  1  0.37858141  0.63202719  0.37522443  1
  Co  Co124  1  0.50456911  0.74954601  0.24662605  1
  Co  Co125  1  -0.00603118  0.74944820  0.24892037  1
  Co  Co126  1  0.62062181  0.62319473  0.62447041  1
  Co  Co127  1  0.49710753  0.25403482  0.75141429  1
