# generated using pymatgen
data_Fe45Co19
_symmetry_space_group_name_H-M   'P 1'
_cell_length_a   11.41553841
_cell_length_b   11.41543167
_cell_length_c   11.41462353
_cell_angle_alpha   89.99655221
_cell_angle_beta   89.99456077
_cell_angle_gamma   90.00581384
_symmetry_Int_Tables_number   1
_chemical_formula_structural   Fe45Co19
_chemical_formula_sum   'Fe90 Co38'
_cell_volume   1487.47722892
_cell_formula_units_Z   2
loop_
 _symmetry_equiv_pos_site_id
 _symmetry_equiv_pos_as_xyz
  1  'x, y, z'
loop_
 _atom_site_type_symbol
 _atom_site_label
 _atom_site_symmetry_multiplicity
 _atom_site_fract_x
 _atom_site_fract_y
 _atom_site_fract_z
 _atom_site_occupancy
  Fe  Fe0  1  0.12837973  0.37706512  0.87616683  1
  Fe  Fe1  1  0.75129364  0.00222989  0.49979813  1
  Fe  Fe2  1  0.25016213  0.25087532  0.24746066  1
  Fe  Fe3  1  -0.00052117  0.74773851  0.24909104  1
  Fe  Fe4  1  0.25228537  0.25146206  0.75053730  1
  Fe  Fe5  1  0.24662946  -0.00314062  0.50065248  1
  Fe  Fe6  1  0.74983745  0.50137358  0.24943407  1
  Fe  Fe7  1  0.12585873  0.62400653  0.37742276  1
  Fe  Fe8  1  0.87522164  0.62552615  0.37717410  1
  Fe  Fe9  1  0.87312601  0.37441239  0.87537634  1
  Fe  Fe10  1  0.49666672  0.24698504  0.24949944  1
  Fe  Fe11  1  0.49907793  -0.00055783  0.75281950  1
  Fe  Fe12  1  0.00252797  0.74771648  -0.00192371  1
  Fe  Fe13  1  0.75045677  0.24927268  0.24931469  1
  Fe  Fe14  1  0.12592921  0.37558121  0.62417740  1
  Fe  Fe15  1  0.37568027  0.87381739  0.62434570  1
  Fe  Fe16  1  0.74716847  0.49805260  0.74865980  1
  Fe  Fe17  1  0.87378840  0.12386932  0.12519202  1
  Fe  Fe18  1  0.12383330  0.12334181  0.62680564  1
  Fe  Fe19  1  0.37567052  0.37364000  0.37842785  1
  Fe  Fe20  1  0.62470152  0.87706491  0.37240947  1
  Fe  Fe21  1  0.25157937  0.75011068  0.24964762  1
  Fe  Fe22  1  0.49984809  0.00078423  0.49893599  1
  Fe  Fe23  1  0.49826368  0.49997466  0.25079240  1
  Fe  Fe24  1  0.37389395  0.12374369  0.87906875  1
  Fe  Fe25  1  0.62325702  0.37310820  0.37684968  1
  Fe  Fe26  1  0.74984305  0.49925578  0.00169232  1
  Fe  Fe27  1  0.87622388  0.37524708  0.12539375  1
  Fe  Fe28  1  0.12669763  0.87493237  0.87341658  1
  Fe  Fe29  1  0.74424407  -0.00078851  0.00329014  1
  Fe  Fe30  1  0.75109900  0.00328864  0.74965462  1
  Fe  Fe31  1  0.49788450  0.75195773  0.25139618  1
  Fe  Fe32  1  0.12458645  0.37541011  0.37573088  1
  Fe  Fe33  1  0.62295819  0.62694722  0.12536835  1
  Fe  Fe34  1  0.12872429  0.12544220  0.12406541  1
  Fe  Fe35  1  0.12535579  0.87434190  0.12635874  1
  Fe  Fe36  1  0.25177635  0.49975392  0.25073749  1
  Fe  Fe37  1  -0.00134173  0.24714214  0.49855256  1
  Fe  Fe38  1  0.49889964  0.50077971  -0.00122775  1
  Fe  Fe39  1  0.49915610  0.24711920  0.00229257  1
  Fe  Fe40  1  0.37512434  0.62713996  0.38144437  1
  Fe  Fe41  1  0.12754396  0.12504351  0.87515343  1
  Fe  Fe42  1  0.37385465  0.87441481  0.37692584  1
  Fe  Fe43  1  0.24979250  0.25057633  0.50205125  1
  Fe  Fe44  1  0.00145294  0.50092144  -0.00012757  1
  Fe  Fe45  1  0.49846729  0.25196200  0.74910073  1
  Fe  Fe46  1  0.62036944  0.62395414  0.62493681  1
  Fe  Fe47  1  0.25057243  -0.00098366  0.75113225  1
  Fe  Fe48  1  0.37438017  0.12475541  0.62444353  1
  Fe  Fe49  1  0.87799907  0.87815785  0.37189606  1
  Fe  Fe50  1  0.00337115  0.00169653  0.49649996  1
  Fe  Fe51  1  0.24956457  0.75023584  0.74802339  1
  Fe  Fe52  1  0.87302069  0.12584015  0.87652727  1
  Fe  Fe53  1  0.00052223  0.74956718  0.75076662  1
  Fe  Fe54  1  0.87694244  0.87604237  0.12569615  1
  Fe  Fe55  1  0.87297851  0.87546429  0.87509996  1
  Fe  Fe56  1  0.00246605  -0.00012280  -0.00055257  1
  Fe  Fe57  1  0.75089225  0.75018430  0.74813440  1
  Fe  Fe58  1  0.00196235  0.24721237  0.24979920  1
  Fe  Fe59  1  -0.00068045  0.24896318  0.75144167  1
  Fe  Fe60  1  0.62521827  0.62530914  0.87460195  1
  Fe  Fe61  1  0.87866991  0.87913203  0.62609699  1
  Fe  Fe62  1  0.74729287  0.75166635  0.00190913  1
  Fe  Fe63  1  0.87587726  0.37462912  0.37500640  1
  Fe  Fe64  1  0.75119294  0.75038151  0.24887843  1
  Fe  Fe65  1  0.87528759  0.62487908  0.62358519  1
  Fe  Fe66  1  -0.00073695  0.49953341  0.74896834  1
  Fe  Fe67  1  0.37178974  0.12459389  0.37582429  1
  Fe  Fe68  1  0.25650930  0.49851478  0.74837663  1
  Fe  Fe69  1  0.37589257  0.62810069  0.12177932  1
  Fe  Fe70  1  -0.00052389  0.50166269  0.25002030  1
  Fe  Fe71  1  0.62376862  0.62591804  0.37526541  1
  Fe  Fe72  1  0.62523755  0.12815969  0.62425240  1
  Fe  Fe73  1  0.62368569  0.37388904  0.12516109  1
  Fe  Fe74  1  0.87213353  0.37225095  0.62437808  1
  Fe  Fe75  1  0.37331583  0.62738791  0.87682785  1
  Fe  Fe76  1  0.12666585  0.62255411  0.62407959  1
  Fe  Fe77  1  0.74783623  0.49896071  0.49998227  1
  Fe  Fe78  1  0.62575534  0.12422403  0.37218709  1
  Fe  Fe79  1  0.62421066  0.87684291  0.62682503  1
  Fe  Fe80  1  0.87411146  0.62467502  0.87539714  1
  Fe  Fe81  1  0.49954476  0.75141048  0.75221449  1
  Fe  Fe82  1  0.37329268  0.37472889  0.12194248  1
  Fe  Fe83  1  0.00188755  0.25086075  0.00027409  1
  Fe  Fe84  1  0.74921137  0.75312191  0.50080819  1
  Fe  Fe85  1  0.12669040  0.62306923  0.12436668  1
  Fe  Fe86  1  0.62512353  0.12618315  0.87612685  1
  Fe  Fe87  1  0.00369130  0.75222061  0.50072702  1
  Fe  Fe88  1  0.62438629  0.37354792  0.87514198  1
  Fe  Fe89  1  0.25119898  -0.00142985  0.24824180  1
  Co  Co90  1  0.37667964  0.87497166  0.12165602  1
  Co  Co91  1  0.12253185  0.87828613  0.62892721  1
  Co  Co92  1  0.24856961  -0.00233037  0.00017411  1
  Co  Co93  1  0.00401088  0.00398451  0.24836905  1
  Co  Co94  1  0.62787495  0.87525209  0.87115238  1
  Co  Co95  1  0.75205837  0.24705371  0.49856422  1
  Co  Co96  1  0.12948413  0.12613954  0.37423262  1
  Co  Co97  1  0.12721910  0.62238094  0.87212440  1
  Co  Co98  1  0.75013895  0.24903730  0.75001907  1
  Co  Co99  1  -0.00045716  0.00152327  0.75538665  1
  Co  Co100  1  -0.00091947  0.49882963  0.50131714  1
  Co  Co101  1  0.87437950  0.62482973  0.12310082  1
  Co  Co102  1  0.24565033  0.75318543  0.50173295  1
  Co  Co103  1  0.49967166  0.49943692  0.49970757  1
  Co  Co104  1  0.87410227  0.12177605  0.37110298  1
  Co  Co105  1  0.62309987  0.12518379  0.12778151  1
  Co  Co106  1  0.37504128  0.37210745  0.87881085  1
  Co  Co107  1  0.37377585  0.12218363  0.12190965  1
  Co  Co108  1  0.49661642  0.49886437  0.75215602  1
  Co  Co109  1  0.25242873  0.49907106  0.50021516  1
  Co  Co110  1  0.12542081  0.37704437  0.12568604  1
  Co  Co111  1  0.24844040  0.25058754  0.00081016  1
  Co  Co112  1  0.25097661  0.50063558  0.00034429  1
  Co  Co113  1  0.37919613  0.37358640  0.62195830  1
  Co  Co114  1  0.87840664  0.12384820  0.62626759  1
  Co  Co115  1  0.37708322  0.62846092  0.62178312  1
  Co  Co116  1  0.50239507  0.75430767  -0.00389737  1
  Co  Co117  1  0.49894425  0.24616256  0.49883285  1
  Co  Co118  1  0.49573043  0.00149772  0.25082906  1
  Co  Co119  1  0.50295481  0.75362234  0.49955345  1
  Co  Co120  1  0.62296360  0.37245803  0.62348294  1
  Co  Co121  1  0.61994523  0.87351316  0.12941606  1
  Co  Co122  1  0.50353623  -0.00248015  -0.00162155  1
  Co  Co123  1  0.24696339  0.75066510  0.00057624  1
  Co  Co124  1  0.12454428  0.87419979  0.37004828  1
  Co  Co125  1  0.74965456  0.25004260  0.00209906  1
  Co  Co126  1  0.74907612  -0.00146109  0.24647382  1
  Co  Co127  1  0.37227431  0.87465552  0.87642028  1
