# generated using pymatgen
data_Fe45Co19
_symmetry_space_group_name_H-M   'P 1'
_cell_length_a   11.41492979
_cell_length_b   11.41423718
_cell_length_c   11.41342045
_cell_angle_alpha   90.01047604
_cell_angle_beta   90.00096308
_cell_angle_gamma   90.00044380
_symmetry_Int_Tables_number   1
_chemical_formula_structural   Fe45Co19
_chemical_formula_sum   'Fe90 Co38'
_cell_volume   1487.08552496
_cell_formula_units_Z   2
loop_
 _symmetry_equiv_pos_site_id
 _symmetry_equiv_pos_as_xyz
  1  'x, y, z'
loop_
 _atom_site_type_symbol
 _atom_site_label
 _atom_site_symmetry_multiplicity
 _atom_site_fract_x
 _atom_site_fract_y
 _atom_site_fract_z
 _atom_site_occupancy
  Fe  Fe0  1  0.12668918  0.37154120  0.37743721  1
  Fe  Fe1  1  0.25086665  0.74798836  0.74841183  1
  Fe  Fe2  1  0.37472493  0.12494850  0.12609346  1
  Fe  Fe3  1  -0.00131462  0.49936137  0.49683782  1
  Fe  Fe4  1  0.12190720  0.36896046  0.12130504  1
  Fe  Fe5  1  0.12271477  0.87615574  0.87601012  1
  Fe  Fe6  1  0.00255897  0.49922835  0.25285716  1
  Fe  Fe7  1  0.12264037  0.12963966  0.88021836  1
  Fe  Fe8  1  -0.00040825  0.49815008  -0.00099170  1
  Fe  Fe9  1  0.37500708  0.12706942  0.62351075  1
  Fe  Fe10  1  0.87848637  0.12439326  0.12569174  1
  Fe  Fe11  1  0.50042260  0.00050559  0.49924687  1
  Fe  Fe12  1  0.75141878  0.00058670  0.00242264  1
  Fe  Fe13  1  0.12609818  0.12899540  0.62058226  1
  Fe  Fe14  1  0.12444855  0.87398017  0.62353089  1
  Fe  Fe15  1  0.24647449  0.00174578  0.74885543  1
  Fe  Fe16  1  0.12401481  0.87515435  0.12533733  1
  Fe  Fe17  1  0.74770208  0.50100165  0.74888127  1
  Fe  Fe18  1  0.87548622  0.62321921  0.62301029  1
  Fe  Fe19  1  -0.00190862  0.24815654  0.25341284  1
  Fe  Fe20  1  0.62503642  0.87469263  0.37524757  1
  Fe  Fe21  1  0.12501633  0.62399217  0.12467106  1
  Fe  Fe22  1  0.12158602  0.37495202  0.62647789  1
  Fe  Fe23  1  0.50189701  0.00084212  0.74977790  1
  Fe  Fe24  1  0.87694454  0.87765109  0.62378207  1
  Fe  Fe25  1  0.74923772  0.25058697  0.74713641  1
  Fe  Fe26  1  0.49911173  0.74837983  0.74951497  1
  Fe  Fe27  1  0.87594395  0.62486618  0.87517923  1
  Fe  Fe28  1  0.87523286  0.37754621  0.62445897  1
  Fe  Fe29  1  0.37453899  0.12524435  0.87474849  1
  Fe  Fe30  1  0.50057644  0.00253698  0.25123636  1
  Fe  Fe31  1  0.74633570  0.50295610  0.25388873  1
  Fe  Fe32  1  0.63042936  0.12904187  0.37668618  1
  Fe  Fe33  1  0.62364413  0.87597731  0.12576233  1
  Fe  Fe34  1  0.62693404  0.37160372  0.12861452  1
  Fe  Fe35  1  0.37100040  0.87901493  0.37261182  1
  Fe  Fe36  1  0.87588244  0.37502624  0.87270728  1
  Fe  Fe37  1  0.25203129  0.74917228  0.49931181  1
  Fe  Fe38  1  0.50351178  0.49416347  0.49290191  1
  Fe  Fe39  1  0.12447759  0.62301719  0.87426628  1
  Fe  Fe40  1  0.62374574  0.62464362  0.62147955  1
  Fe  Fe41  1  0.75199289  0.75028757  0.00014072  1
  Fe  Fe42  1  0.74916014  0.00240760  0.24922780  1
  Fe  Fe43  1  0.75088492  0.75020897  0.49874876  1
  Fe  Fe44  1  0.12472266  0.62292417  0.62319908  1
  Fe  Fe45  1  0.25067457  0.49763969  0.75009427  1
  Fe  Fe46  1  0.49802792  0.25115896  -0.00029691  1
  Fe  Fe47  1  0.00403072  0.00189384  0.49637449  1
  Fe  Fe48  1  0.37392585  0.87632568  0.87464582  1
  Fe  Fe49  1  0.87852846  0.87507841  0.12675846  1
  Fe  Fe50  1  0.75093572  0.74935468  0.25110744  1
  Fe  Fe51  1  -0.00153332  0.24837573  0.75026965  1
  Fe  Fe52  1  0.38096703  0.37324715  0.62716887  1
  Fe  Fe53  1  0.49643449  0.75008583  0.49863591  1
  Fe  Fe54  1  0.24962344  0.49490764  -0.00041650  1
  Fe  Fe55  1  0.74921367  0.49937738  -0.00022760  1
  Fe  Fe56  1  0.50018693  0.00009875  0.00091797  1
  Fe  Fe57  1  0.87856887  0.87821798  0.87464193  1
  Fe  Fe58  1  0.62471251  0.87399296  0.87526972  1
  Fe  Fe59  1  0.25111968  0.74951222  0.00161814  1
  Fe  Fe60  1  0.62286923  0.12733799  0.62269416  1
  Fe  Fe61  1  0.62372050  0.37378542  0.87381917  1
  Fe  Fe62  1  0.25111152  0.25239384  0.75190446  1
  Fe  Fe63  1  0.74956353  0.75018244  0.74937361  1
  Fe  Fe64  1  0.49689302  0.74910845  0.24813355  1
  Fe  Fe65  1  0.50170316  0.50184304  0.75086399  1
  Fe  Fe66  1  0.24921541  0.24984497  0.24961750  1
  Fe  Fe67  1  0.00027033  0.74904566  0.75004923  1
  Fe  Fe68  1  0.25076844  0.74916842  0.24886110  1
  Fe  Fe69  1  0.00610131  0.00503209  0.25280967  1
  Fe  Fe70  1  0.62736837  0.12682121  0.87718909  1
  Fe  Fe71  1  0.74818463  -0.00110275  0.74739778  1
  Fe  Fe72  1  0.50019404  0.25014949  0.25372961  1
  Fe  Fe73  1  0.37596439  0.37724963  0.12933593  1
  Fe  Fe74  1  0.37485747  0.62274204  0.87686643  1
  Fe  Fe75  1  0.00224560  0.74761526  0.25268050  1
  Fe  Fe76  1  0.00081793  0.74873035  0.49628833  1
  Fe  Fe77  1  0.37515054  0.87674063  0.62628284  1
  Fe  Fe78  1  0.50118212  0.49991028  0.00259407  1
  Fe  Fe79  1  0.49736897  0.74923263  0.00244017  1
  Fe  Fe80  1  0.25111782  0.49593723  0.50057537  1
  Fe  Fe81  1  0.37288199  0.61820003  0.37034205  1
  Fe  Fe82  1  0.36848358  0.12510992  0.37817927  1
  Fe  Fe83  1  0.87609717  0.12252269  0.62283130  1
  Fe  Fe84  1  0.87621300  0.62295234  0.12685460  1
  Fe  Fe85  1  0.24852458  0.00179853  0.00368286  1
  Fe  Fe86  1  0.86904660  0.37269455  0.37458345  1
  Fe  Fe87  1  0.62475874  0.62643026  0.12548607  1
  Fe  Fe88  1  0.87575748  0.87802647  0.37446228  1
  Fe  Fe89  1  0.75417711  0.25019576  0.00318512  1
  Co  Co90  1  0.24830769  -0.00181694  0.50268019  1
  Co  Co91  1  0.25544107  0.25319454  -0.00148858  1
  Co  Co92  1  0.87571461  0.62432232  0.37409978  1
  Co  Co93  1  0.75134758  0.25096728  0.50598908  1
  Co  Co94  1  0.87452404  0.37955240  0.12957241  1
  Co  Co95  1  -0.00061542  0.74865354  0.00007002  1
  Co  Co96  1  0.00347710  0.00272347  0.74898427  1
  Co  Co97  1  0.75385329  0.24487383  0.24483616  1
  Co  Co98  1  0.50091476  0.24705923  0.75151972  1
  Co  Co99  1  0.12153644  0.37220990  0.87510163  1
  Co  Co100  1  0.37928591  0.37660857  0.87263559  1
  Co  Co101  1  0.50681209  0.49761895  0.25238579  1
  Co  Co102  1  0.12779030  0.87452597  0.37436357  1
  Co  Co103  1  0.62299103  0.87220017  0.62347810  1
  Co  Co104  1  0.62417733  0.62562056  0.87577137  1
  Co  Co105  1  -0.00324596  0.25117804  0.49858155  1
  Co  Co106  1  0.13041044  0.12946613  0.37941395  1
  Co  Co107  1  0.87176387  0.12497898  0.37772107  1
  Co  Co108  1  0.49863436  0.25152694  0.49478353  1
  Co  Co109  1  0.37445327  0.87871573  0.12601325  1
  Co  Co110  1  0.24544741  0.00346711  0.24703513  1
  Co  Co111  1  0.25341100  0.25693471  0.50314867  1
  Co  Co112  1  0.24304095  0.49579868  0.24769034  1
  Co  Co113  1  0.37656185  0.62108655  0.62263815  1
  Co  Co114  1  0.12868552  0.62344009  0.37684034  1
  Co  Co115  1  0.87315954  0.12331671  0.87299294  1
  Co  Co116  1  0.74791267  0.50014064  0.49799923  1
  Co  Co117  1  0.62240778  0.62966765  0.37650937  1
  Co  Co118  1  0.63330556  0.36715213  0.37314636  1
  Co  Co119  1  0.62161102  0.37518414  0.62538351  1
  Co  Co120  1  -0.00877555  0.25118505  -0.00068139  1
  Co  Co121  1  0.12416003  0.13217316  0.12153545  1
  Co  Co122  1  0.00027661  0.00153264  0.00159141  1
  Co  Co123  1  0.37340729  0.61941611  0.12759706  1
  Co  Co124  1  0.74787988  -0.00103638  0.50067364  1
  Co  Co125  1  -0.00083512  0.50117355  0.75100310  1
  Co  Co126  1  0.37226377  0.37709891  0.37033984  1
  Co  Co127  1  0.62257605  0.12660581  0.12392984  1
