# generated using pymatgen
data_Fe45Co19
_symmetry_space_group_name_H-M   'P 1'
_cell_length_a   11.41564987
_cell_length_b   11.41498408
_cell_length_c   11.41577575
_cell_angle_alpha   90.00009375
_cell_angle_beta   90.00370437
_cell_angle_gamma   89.98914204
_symmetry_Int_Tables_number   1
_chemical_formula_structural   Fe45Co19
_chemical_formula_sum   'Fe90 Co38'
_cell_volume   1487.58356192
_cell_formula_units_Z   2
loop_
 _symmetry_equiv_pos_site_id
 _symmetry_equiv_pos_as_xyz
  1  'x, y, z'
loop_
 _atom_site_type_symbol
 _atom_site_label
 _atom_site_symmetry_multiplicity
 _atom_site_fract_x
 _atom_site_fract_y
 _atom_site_fract_z
 _atom_site_occupancy
  Fe  Fe0  1  0.87379287  0.87469988  0.37591477  1
  Fe  Fe1  1  0.24944241  0.74824573  0.49870856  1
  Fe  Fe2  1  0.75062800  0.24865369  -0.00411420  1
  Fe  Fe3  1  0.62519050  0.12323771  0.37508691  1
  Fe  Fe4  1  0.12512386  0.87536256  0.37657396  1
  Fe  Fe5  1  0.50098624  0.25110695  0.50017123  1
  Fe  Fe6  1  0.12441312  0.37332524  0.62346258  1
  Fe  Fe7  1  0.37313597  0.87598313  0.12455371  1
  Fe  Fe8  1  0.87537134  0.12313097  0.12434077  1
  Fe  Fe9  1  -0.00058991  0.24967096  0.25020525  1
  Fe  Fe10  1  -0.00171044  0.75116508  0.24891238  1
  Fe  Fe11  1  0.74971411  0.25098424  0.49998886  1
  Fe  Fe12  1  0.75165675  0.50412432  0.50001107  1
  Fe  Fe13  1  0.62196067  0.87490438  0.87363303  1
  Fe  Fe14  1  0.37451072  0.37851882  0.12035462  1
  Fe  Fe15  1  -0.00251696  0.49923599  0.25043995  1
  Fe  Fe16  1  0.12597897  0.12460018  0.37592054  1
  Fe  Fe17  1  0.37481626  0.37942603  0.87737778  1
  Fe  Fe18  1  0.50291746  -0.00153837  0.50241319  1
  Fe  Fe19  1  0.62587511  0.37656419  0.37593694  1
  Fe  Fe20  1  0.37468650  0.12351452  0.37647730  1
  Fe  Fe21  1  0.25139801  0.74851196  0.75115263  1
  Fe  Fe22  1  0.37593513  0.87617496  0.37816410  1
  Fe  Fe23  1  0.62295890  0.86775247  0.62737188  1
  Fe  Fe24  1  0.25181569  0.25024316  0.75016056  1
  Fe  Fe25  1  0.12446693  0.12197637  0.86956392  1
  Fe  Fe26  1  0.24698465  0.00171813  0.50587680  1
  Fe  Fe27  1  0.12401937  0.62383372  0.87396622  1
  Fe  Fe28  1  0.00149955  0.00063255  0.00061514  1
  Fe  Fe29  1  0.75037493  0.24970257  0.25079796  1
  Fe  Fe30  1  0.12560287  0.87754784  0.87169008  1
  Fe  Fe31  1  0.87496142  0.87000061  0.62528101  1
  Fe  Fe32  1  0.87403462  0.37522571  0.12317354  1
  Fe  Fe33  1  0.62586316  0.87516866  0.12554688  1
  Fe  Fe34  1  -0.00213351  0.50032161  0.50093550  1
  Fe  Fe35  1  0.62470617  0.62592057  0.12644436  1
  Fe  Fe36  1  0.75530472  0.49873620  0.75013124  1
  Fe  Fe37  1  0.12446947  0.62597530  0.12541012  1
  Fe  Fe38  1  0.50079310  0.25014963  0.75175803  1
  Fe  Fe39  1  0.75050274  -0.00045525  -0.00088118  1
  Fe  Fe40  1  0.12330955  0.37718475  0.87426000  1
  Fe  Fe41  1  0.25132999  0.74965482  0.25000019  1
  Fe  Fe42  1  0.12232892  0.62526541  0.37523265  1
  Fe  Fe43  1  0.50083802  0.24976169  -0.00137129  1
  Fe  Fe44  1  0.49855471  0.50403723  0.74914116  1
  Fe  Fe45  1  0.74969571  0.50186298  -0.00049589  1
  Fe  Fe46  1  -0.00132859  0.74962478  -0.00028192  1
  Fe  Fe47  1  0.37685394  0.87094891  0.62512468  1
  Fe  Fe48  1  0.25024247  0.25013155  0.25031165  1
  Fe  Fe49  1  0.62594213  0.12697887  0.62825233  1
  Fe  Fe50  1  0.37372729  0.37665998  0.37879174  1
  Fe  Fe51  1  0.62562580  0.37536496  0.87411997  1
  Fe  Fe52  1  0.75094831  0.75068297  0.25182783  1
  Fe  Fe53  1  0.62679699  0.62645189  0.87107855  1
  Fe  Fe54  1  -0.00141563  0.25041465  0.49953495  1
  Fe  Fe55  1  0.37366964  0.37648569  0.62262665  1
  Fe  Fe56  1  0.50059317  0.49817503  0.24719023  1
  Fe  Fe57  1  0.37515948  0.87802964  0.87198071  1
  Fe  Fe58  1  0.87457512  0.12274239  0.37712752  1
  Fe  Fe59  1  0.12432192  0.37498876  0.12420536  1
  Fe  Fe60  1  0.49936114  0.25151882  0.24872562  1
  Fe  Fe61  1  0.12323423  0.62769481  0.62487549  1
  Fe  Fe62  1  0.00250661  -0.00184651  0.50552423  1
  Fe  Fe63  1  0.87523352  0.63014096  0.62691306  1
  Fe  Fe64  1  0.37668151  0.12580735  0.62648581  1
  Fe  Fe65  1  0.24955062  0.50048609  0.24909885  1
  Fe  Fe66  1  0.87770761  0.87605224  0.87437594  1
  Fe  Fe67  1  0.12610154  0.37463917  0.37743489  1
  Fe  Fe68  1  0.25139248  0.74874741  -0.00034957  1
  Fe  Fe69  1  0.24885398  0.50055212  0.74778018  1
  Fe  Fe70  1  0.24784787  0.24813831  -0.00174836  1
  Fe  Fe71  1  0.50035476  -0.00030342  0.24982075  1
  Fe  Fe72  1  0.75231079  0.74956672  -0.00123308  1
  Fe  Fe73  1  0.50240329  0.50481018  0.50379353  1
  Fe  Fe74  1  -0.00109372  0.50183794  -0.00071501  1
  Fe  Fe75  1  0.37630763  0.62364832  0.37617464  1
  Fe  Fe76  1  0.49878552  0.00160827  -0.00160665  1
  Fe  Fe77  1  0.00010747  -0.00090457  0.24913112  1
  Fe  Fe78  1  0.49819980  0.74663277  -0.00237590  1
  Fe  Fe79  1  0.12700693  0.87665906  0.12484823  1
  Fe  Fe80  1  0.37096346  0.12307196  0.12364023  1
  Fe  Fe81  1  0.75184519  0.50023036  0.25075341  1
  Fe  Fe82  1  0.00053013  0.24761052  -0.00108266  1
  Fe  Fe83  1  0.87398724  0.12586717  0.62733243  1
  Fe  Fe84  1  0.62586365  0.12431559  0.12435787  1
  Fe  Fe85  1  0.49948585  0.75090055  0.25168660  1
  Fe  Fe86  1  0.74903281  -0.00138793  0.75041193  1
  Fe  Fe87  1  0.74799635  -0.00312745  0.50175037  1
  Fe  Fe88  1  -0.00550735  0.25300515  0.75148568  1
  Fe  Fe89  1  0.62745054  0.37581893  0.62639911  1
  Co  Co90  1  0.24580580  0.50157209  0.00103480  1
  Co  Co91  1  0.87391444  0.37344403  0.62363111  1
  Co  Co92  1  0.49642653  0.74520724  0.75237450  1
  Co  Co93  1  0.24738103  0.50213282  0.50086169  1
  Co  Co94  1  0.12626680  0.86958294  0.62696299  1
  Co  Co95  1  0.50426105  0.74655166  0.49899907  1
  Co  Co96  1  0.37613472  0.62351289  0.12390792  1
  Co  Co97  1  0.87396125  0.37494957  0.37583649  1
  Co  Co98  1  0.75088688  0.00036960  0.24984404  1
  Co  Co99  1  0.62510553  0.87641475  0.37381356  1
  Co  Co100  1  0.25004823  0.00043330  0.74465091  1
  Co  Co101  1  0.87559695  0.37692916  0.87787939  1
  Co  Co102  1  0.12214938  0.13033339  0.62911320  1
  Co  Co103  1  0.00028901  0.75035338  0.75256593  1
  Co  Co104  1  0.50494192  0.50284854  -0.00143128  1
  Co  Co105  1  0.74683044  0.74820527  0.49617174  1
  Co  Co106  1  0.62960990  0.62823801  0.63034933  1
  Co  Co107  1  0.87474329  0.62510883  0.12473945  1
  Co  Co108  1  0.12643502  0.12298149  0.12596649  1
  Co  Co109  1  -0.00029094  -0.00339559  0.74479480  1
  Co  Co110  1  0.62499105  0.12391935  0.87378550  1
  Co  Co111  1  0.75174153  0.25057720  0.75302058  1
  Co  Co112  1  0.87435616  0.87515967  0.12457934  1
  Co  Co113  1  0.62399027  0.62294636  0.37200533  1
  Co  Co114  1  0.24897921  -0.00008422  -0.00282579  1
  Co  Co115  1  0.37451575  0.12351950  0.87337996  1
  Co  Co116  1  0.37327771  0.62703636  0.62357425  1
  Co  Co117  1  -0.00139946  0.49965138  0.74769432  1
  Co  Co118  1  0.37220269  0.62068674  0.87705101  1
  Co  Co119  1  0.25069453  0.24752120  0.50051496  1
  Co  Co120  1  0.75250478  0.75351020  0.75438843  1
  Co  Co121  1  -0.00015122  0.75147172  0.49959320  1
  Co  Co122  1  0.87734632  0.62734549  0.37475113  1
  Co  Co123  1  0.24954481  -0.00127771  0.25185197  1
  Co  Co124  1  0.50160173  0.00018041  0.74865206  1
  Co  Co125  1  0.62708136  0.37455913  0.12397376  1
  Co  Co126  1  0.87657851  0.62514621  0.87362739  1
  Co  Co127  1  0.87643521  0.12106685  0.87244264  1
