# generated using pymatgen
data_Fe45Co19
_symmetry_space_group_name_H-M   'P 1'
_cell_length_a   11.41585643
_cell_length_b   11.41472380
_cell_length_c   11.41479288
_cell_angle_alpha   89.99521295
_cell_angle_beta   89.99892288
_cell_angle_gamma   90.00178244
_symmetry_Int_Tables_number   1
_chemical_formula_structural   Fe45Co19
_chemical_formula_sum   'Fe90 Co38'
_cell_volume   1487.44850465
_cell_formula_units_Z   2
loop_
 _symmetry_equiv_pos_site_id
 _symmetry_equiv_pos_as_xyz
  1  'x, y, z'
loop_
 _atom_site_type_symbol
 _atom_site_label
 _atom_site_symmetry_multiplicity
 _atom_site_fract_x
 _atom_site_fract_y
 _atom_site_fract_z
 _atom_site_occupancy
  Fe  Fe0  1  0.12732453  0.12246218  0.12525203  1
  Fe  Fe1  1  0.12708566  0.62268795  0.37416404  1
  Fe  Fe2  1  0.62200314  0.87427643  0.87379035  1
  Fe  Fe3  1  0.87424697  0.37588414  0.62296164  1
  Fe  Fe4  1  0.62459172  0.88013525  0.12773567  1
  Fe  Fe5  1  0.25015883  0.74844408  -0.00102284  1
  Fe  Fe6  1  0.12515834  0.87721274  0.37886481  1
  Fe  Fe7  1  0.12728964  0.37452965  0.12239357  1
  Fe  Fe8  1  0.87589461  0.87573902  0.62306708  1
  Fe  Fe9  1  0.49801551  0.50282053  0.50211742  1
  Fe  Fe10  1  0.25020756  0.74929852  0.50153485  1
  Fe  Fe11  1  0.49928475  0.49974220  0.74883329  1
  Fe  Fe12  1  0.12999926  0.12620464  0.62485408  1
  Fe  Fe13  1  0.62166432  0.12438373  0.62792135  1
  Fe  Fe14  1  0.25208785  0.24793211  -0.00452485  1
  Fe  Fe15  1  0.37156059  0.37241579  0.62575949  1
  Fe  Fe16  1  0.00173508  0.50006025  0.24718313  1
  Fe  Fe17  1  0.87696774  0.37428818  0.87665026  1
  Fe  Fe18  1  -0.00254784  -0.00309275  0.25013353  1
  Fe  Fe19  1  0.74882214  0.24754165  0.24909445  1
  Fe  Fe20  1  0.12546731  0.37664531  0.37591109  1
  Fe  Fe21  1  0.62275483  0.87654267  0.37418847  1
  Fe  Fe22  1  0.87665822  0.12456023  0.37619768  1
  Fe  Fe23  1  0.12324893  0.12669629  0.87242644  1
  Fe  Fe24  1  0.87608383  0.62725163  0.12418443  1
  Fe  Fe25  1  0.62271493  0.12208282  0.37190830  1
  Fe  Fe26  1  0.74974050  -0.00000953  0.49866386  1
  Fe  Fe27  1  0.00063971  0.24866855  0.00018210  1
  Fe  Fe28  1  0.00187017  0.24894154  0.50102015  1
  Fe  Fe29  1  0.50032422  0.25032689  0.00199456  1
  Fe  Fe30  1  0.74929538  0.50077635  0.75083576  1
  Fe  Fe31  1  0.37425445  0.37724922  0.37374207  1
  Fe  Fe32  1  0.49920092  0.74695896  0.50216440  1
  Fe  Fe33  1  0.12813888  0.62515619  0.62794846  1
  Fe  Fe34  1  0.38164062  0.12676904  0.86809734  1
  Fe  Fe35  1  0.25036052  0.25160088  0.25123131  1
  Fe  Fe36  1  0.74918021  0.50001062  0.24903843  1
  Fe  Fe37  1  0.74756133  0.50211802  0.00175066  1
  Fe  Fe38  1  0.74863406  0.75220235  0.00021304  1
  Fe  Fe39  1  0.49640199  0.75235256  0.24698968  1
  Fe  Fe40  1  0.87381277  0.11948308  0.12213550  1
  Fe  Fe41  1  0.49930693  0.00039599  -0.00076273  1
  Fe  Fe42  1  0.24968477  0.49828349  0.75304750  1
  Fe  Fe43  1  0.49797191  0.74960154  0.74853540  1
  Fe  Fe44  1  0.25077999  0.75211695  0.24841232  1
  Fe  Fe45  1  0.87697455  0.62461747  0.87676585  1
  Fe  Fe46  1  0.12753487  0.87572544  0.87438060  1
  Fe  Fe47  1  0.24933712  0.50102989  -0.00020593  1
  Fe  Fe48  1  0.25338073  -0.00079003  0.75047129  1
  Fe  Fe49  1  0.00158175  0.49839207  0.75170153  1
  Fe  Fe50  1  0.62310182  0.62526283  0.87471784  1
  Fe  Fe51  1  0.87380166  0.12544013  0.62586738  1
  Fe  Fe52  1  -0.00010669  0.75345960  0.24869535  1
  Fe  Fe53  1  0.62217477  0.37611790  0.87778313  1
  Fe  Fe54  1  0.49583839  -0.00023372  0.50127798  1
  Fe  Fe55  1  0.75278850  0.75475958  0.25023411  1
  Fe  Fe56  1  0.00157614  0.75042496  0.75061527  1
  Fe  Fe57  1  0.12810966  0.87835904  0.12173073  1
  Fe  Fe58  1  0.75104046  0.74976734  0.75041893  1
  Fe  Fe59  1  0.62532857  0.87350459  0.62486896  1
  Fe  Fe60  1  0.12623470  0.12243068  0.37578721  1
  Fe  Fe61  1  0.62684094  0.37747046  0.62292863  1
  Fe  Fe62  1  0.25434783  -0.00304713  0.25184940  1
  Fe  Fe63  1  0.87447663  0.62291584  0.62418525  1
  Fe  Fe64  1  0.37568019  0.62454536  0.87526920  1
  Fe  Fe65  1  0.49910692  0.25004136  0.24769381  1
  Fe  Fe66  1  0.00092217  0.00020083  0.74831592  1
  Fe  Fe67  1  0.00241285  0.74892527  0.50205018  1
  Fe  Fe68  1  0.87595029  0.37567372  0.37705205  1
  Fe  Fe69  1  0.87670446  0.62420311  0.37658246  1
  Fe  Fe70  1  0.62321332  0.62469805  0.37278245  1
  Fe  Fe71  1  0.87579743  0.12401381  0.87523045  1
  Fe  Fe72  1  0.49840669  0.24974772  0.50130572  1
  Fe  Fe73  1  0.37304334  0.62437275  0.37291194  1
  Fe  Fe74  1  0.49878607  0.50017828  0.24239174  1
  Fe  Fe75  1  0.87371870  0.37441192  0.12340937  1
  Fe  Fe76  1  0.74825910  0.74689471  0.49979135  1
  Fe  Fe77  1  0.87668743  0.87716766  0.87719048  1
  Fe  Fe78  1  0.74772943  0.25019839  0.75157370  1
  Fe  Fe79  1  0.37426721  0.12436766  0.12566799  1
  Fe  Fe80  1  0.74586312  0.24518775  -0.00044678  1
  Fe  Fe81  1  0.12724422  0.37210903  0.62584435  1
  Fe  Fe82  1  0.37364813  0.12501989  0.37679384  1
  Fe  Fe83  1  0.49956692  0.74871390  0.00300164  1
  Fe  Fe84  1  0.00084022  0.24938546  0.24809742  1
  Fe  Fe85  1  0.74731986  -0.00043482  0.75313079  1
  Fe  Fe86  1  0.62344581  0.37602638  0.37388191  1
  Fe  Fe87  1  0.74786846  0.24980001  0.49854458  1
  Fe  Fe88  1  0.00302300  0.74993530  -0.00017979  1
  Fe  Fe89  1  0.37314392  0.87255238  0.62508500  1
  Co  Co90  1  0.25085005  0.49968285  0.50109548  1
  Co  Co91  1  0.25064686  0.75189056  0.75183094  1
  Co  Co92  1  0.25378376  -0.00076999  0.50143291  1
  Co  Co93  1  0.62567679  0.62502150  0.62766864  1
  Co  Co94  1  0.50201978  0.25645827  0.74723546  1
  Co  Co95  1  0.00099234  0.00231681  0.50228591  1
  Co  Co96  1  0.25083648  0.25060013  0.49683389  1
  Co  Co97  1  0.37538345  0.87279107  0.87707628  1
  Co  Co98  1  0.74440864  0.00055760  -0.00428422  1
  Co  Co99  1  0.00110239  0.50082968  0.00130580  1
  Co  Co100  1  -0.00065680  0.25023256  0.74891048  1
  Co  Co101  1  0.87714463  0.87383266  0.38142057  1
  Co  Co102  1  0.61897257  0.12584901  0.87061953  1
  Co  Co103  1  0.37516354  0.87108880  0.37811725  1
  Co  Co104  1  0.50104883  0.50234311  0.00493864  1
  Co  Co105  1  0.74797482  0.50215041  0.49789511  1
  Co  Co106  1  0.37251361  0.87690195  0.12023733  1
  Co  Co107  1  0.37145910  0.62555779  0.62759088  1
  Co  Co108  1  0.00410156  0.00043485  -0.00197720  1
  Co  Co109  1  0.49840307  -0.00531672  0.74737402  1
  Co  Co110  1  0.49296145  -0.00142437  0.25155732  1
  Co  Co111  1  0.24959929  0.49863336  0.24806959  1
  Co  Co112  1  0.00338090  0.50012563  0.50177448  1
  Co  Co113  1  0.37472702  0.12816304  0.62772997  1
  Co  Co114  1  0.12541844  0.62576475  0.12613982  1
  Co  Co115  1  0.25320500  0.00512810  -0.00561270  1
  Co  Co116  1  0.12599412  0.87551424  0.62505438  1
  Co  Co117  1  0.62333324  0.12071469  0.12882738  1
  Co  Co118  1  0.12316244  0.37362265  0.87746646  1
  Co  Co119  1  0.25117009  0.25078430  0.75522133  1
  Co  Co120  1  0.87583984  0.87699686  0.11906421  1
  Co  Co121  1  0.12543623  0.62474333  0.87411017  1
  Co  Co122  1  0.37740320  0.37726903  0.87738276  1
  Co  Co123  1  0.37203626  0.37360041  0.12271038  1
  Co  Co124  1  0.62746952  0.62834658  0.12684504  1
  Co  Co125  1  0.62608810  0.37248876  0.12462828  1
  Co  Co126  1  0.75494204  -0.00200188  0.25223124  1
  Co  Co127  1  0.37171789  0.62578685  0.12532741  1
