# generated using pymatgen
data_Fe45Co19
_symmetry_space_group_name_H-M   'P 1'
_cell_length_a   11.41523438
_cell_length_b   11.41561563
_cell_length_c   11.41520372
_cell_angle_alpha   89.99506999
_cell_angle_beta   89.99642045
_cell_angle_gamma   90.00588679
_symmetry_Int_Tables_number   1
_chemical_formula_structural   Fe45Co19
_chemical_formula_sum   'Fe90 Co38'
_cell_volume   1487.53718906
_cell_formula_units_Z   2
loop_
 _symmetry_equiv_pos_site_id
 _symmetry_equiv_pos_as_xyz
  1  'x, y, z'
loop_
 _atom_site_type_symbol
 _atom_site_label
 _atom_site_symmetry_multiplicity
 _atom_site_fract_x
 _atom_site_fract_y
 _atom_site_fract_z
 _atom_site_occupancy
  Fe  Fe0  1  0.87512768  0.12589611  0.37388962  1
  Fe  Fe1  1  0.37498991  0.87553470  0.87303220  1
  Fe  Fe2  1  0.74873606  0.24938197  0.24922062  1
  Fe  Fe3  1  -0.00037732  0.25079003  0.75158627  1
  Fe  Fe4  1  0.74630645  0.00165515  0.74824921  1
  Fe  Fe5  1  0.62763023  0.62375293  0.87442880  1
  Fe  Fe6  1  0.12620372  0.87473275  0.62637140  1
  Fe  Fe7  1  0.12434241  0.12421979  0.87518583  1
  Fe  Fe8  1  0.87657748  0.37398326  0.12511616  1
  Fe  Fe9  1  0.37498443  0.62436169  0.87417335  1
  Fe  Fe10  1  0.62452546  0.12392948  0.37875806  1
  Fe  Fe11  1  0.62619938  0.37627981  0.62664895  1
  Fe  Fe12  1  0.87116238  0.62597811  0.87761315  1
  Fe  Fe13  1  0.25082182  0.00274881  0.50225833  1
  Fe  Fe14  1  0.37383982  0.87657320  0.62641075  1
  Fe  Fe15  1  0.75153840  0.50148017  0.24751234  1
  Fe  Fe16  1  0.49743880  0.25180507  0.50187744  1
  Fe  Fe17  1  0.12416112  0.12589267  0.12452734  1
  Fe  Fe18  1  0.62714859  0.37615755  0.87592003  1
  Fe  Fe19  1  -0.00031152  0.75070685  0.49995035  1
  Fe  Fe20  1  0.62394835  0.37627435  0.37320108  1
  Fe  Fe21  1  0.74981036  0.24915484  0.75166020  1
  Fe  Fe22  1  0.49938230  -0.00123033  0.25305808  1
  Fe  Fe23  1  0.87309929  0.87409426  0.87527504  1
  Fe  Fe24  1  0.50265501  0.75185296  -0.00060440  1
  Fe  Fe25  1  0.37584812  0.62501000  0.12675399  1
  Fe  Fe26  1  0.50060107  -0.00132717  -0.00136564  1
  Fe  Fe27  1  0.25124796  0.74954393  0.50147250  1
  Fe  Fe28  1  0.37481191  0.37437417  0.37079103  1
  Fe  Fe29  1  -0.00019618  0.74869136  0.75206747  1
  Fe  Fe30  1  -0.00126775  0.50289260  0.00072230  1
  Fe  Fe31  1  0.62588901  0.62384548  0.62548226  1
  Fe  Fe32  1  0.24847231  0.74885483  0.25103277  1
  Fe  Fe33  1  0.12291823  0.62303560  0.12549870  1
  Fe  Fe34  1  0.74976755  -0.00148140  0.25081493  1
  Fe  Fe35  1  0.12541009  0.37451407  0.62352205  1
  Fe  Fe36  1  0.87376704  0.62513456  0.62547756  1
  Fe  Fe37  1  0.37429440  0.37652319  0.87291699  1
  Fe  Fe38  1  0.37594747  0.12524250  0.12652752  1
  Fe  Fe39  1  0.12669470  0.87578478  0.37599616  1
  Fe  Fe40  1  0.62460897  0.62319337  0.37646980  1
  Fe  Fe41  1  -0.00131498  0.49855859  0.50029273  1
  Fe  Fe42  1  0.62453614  0.12382303  0.12370852  1
  Fe  Fe43  1  0.87706141  0.37493578  0.37339679  1
  Fe  Fe44  1  0.37507745  0.87332313  0.12594356  1
  Fe  Fe45  1  0.50247470  0.75221833  0.25246449  1
  Fe  Fe46  1  0.50462791  0.00109384  0.74678119  1
  Fe  Fe47  1  0.49800735  0.49821812  0.50199207  1
  Fe  Fe48  1  -0.00194430  -0.00016228  0.50023897  1
  Fe  Fe49  1  0.75198148  0.49966547  0.50100260  1
  Fe  Fe50  1  0.74752681  -0.00195808  -0.00202031  1
  Fe  Fe51  1  -0.00015716  0.25009854  0.50006761  1
  Fe  Fe52  1  -0.00094491  0.24900298  -0.00132138  1
  Fe  Fe53  1  0.37553242  0.62438569  0.37412003  1
  Fe  Fe54  1  0.49951971  0.25077969  0.00046439  1
  Fe  Fe55  1  0.25223957  0.50248105  0.74830814  1
  Fe  Fe56  1  -0.00051357  -0.00158359  -0.00073924  1
  Fe  Fe57  1  0.87442341  0.12468634  0.12373398  1
  Fe  Fe58  1  0.12412300  0.62318377  0.37566141  1
  Fe  Fe59  1  0.62634600  0.62625937  0.12490231  1
  Fe  Fe60  1  0.37450497  0.12693526  0.37523277  1
  Fe  Fe61  1  0.12559095  0.12796040  0.37531394  1
  Fe  Fe62  1  0.24948692  0.24699469  0.74662335  1
  Fe  Fe63  1  0.50085006  0.74948992  0.74747988  1
  Fe  Fe64  1  0.49877903  0.75170112  0.50055711  1
  Fe  Fe65  1  0.50020467  0.49992547  -0.00065447  1
  Fe  Fe66  1  0.87474625  0.86922240  0.12500968  1
  Fe  Fe67  1  0.87317451  0.87219773  0.37492790  1
  Fe  Fe68  1  -0.00009674  -0.00139167  0.25022147  1
  Fe  Fe69  1  0.75084864  0.25111333  0.49977716  1
  Fe  Fe70  1  0.87505429  0.12711019  0.62632724  1
  Fe  Fe71  1  0.12729431  0.37830408  0.87649273  1
  Fe  Fe72  1  0.00046367  0.00039217  0.74979096  1
  Fe  Fe73  1  0.25184546  0.49766150  0.49952382  1
  Fe  Fe74  1  0.37615244  0.12440456  0.87346166  1
  Fe  Fe75  1  0.87153590  0.87301909  0.62425920  1
  Fe  Fe76  1  0.25109480  0.00035052  -0.00128872  1
  Fe  Fe77  1  0.37590050  0.37723884  0.12846365  1
  Fe  Fe78  1  0.87221462  0.37575207  0.87689148  1
  Fe  Fe79  1  -0.00284197  0.49893534  0.74949897  1
  Fe  Fe80  1  0.50090840  0.24966234  0.74869751  1
  Fe  Fe81  1  0.25025908  0.00071543  0.24937798  1
  Fe  Fe82  1  0.62761375  0.87645530  0.38033941  1
  Fe  Fe83  1  0.25078842  0.25171194  0.00178129  1
  Fe  Fe84  1  0.87656974  0.62663801  0.37128447  1
  Fe  Fe85  1  0.24789950  0.74736295  -0.00271828  1
  Fe  Fe86  1  0.62407831  0.37473415  0.12549109  1
  Fe  Fe87  1  0.12541976  0.87382462  0.12393095  1
  Fe  Fe88  1  0.12665822  0.87406006  0.87353597  1
  Fe  Fe89  1  0.12537458  0.62533557  0.62600448  1
  Co  Co90  1  0.12371059  0.37289775  0.37705972  1
  Co  Co91  1  0.62376237  0.87419217  0.87203945  1
  Co  Co92  1  0.74554139  0.75005115  0.25139404  1
  Co  Co93  1  0.62517684  0.12756385  0.62070545  1
  Co  Co94  1  0.87583919  0.63141872  0.12567505  1
  Co  Co95  1  0.37728264  0.12321197  0.62571013  1
  Co  Co96  1  0.74965336  0.74963280  0.75024273  1
  Co  Co97  1  0.12576584  0.62116252  0.87177283  1
  Co  Co98  1  -0.00010528  0.49927440  0.24964161  1
  Co  Co99  1  0.37578845  0.62444110  0.62365722  1
  Co  Co100  1  0.87405045  0.12322177  0.87473102  1
  Co  Co101  1  0.24769366  0.49911532  0.25038591  1
  Co  Co102  1  0.75019451  0.50062908  0.00394245  1
  Co  Co103  1  0.62433116  0.12637399  0.87745566  1
  Co  Co104  1  0.50130045  0.50208398  0.24921269  1
  Co  Co105  1  0.00285016  0.74879560  -0.00366368  1
  Co  Co106  1  0.74617817  0.75263789  -0.00030619  1
  Co  Co107  1  0.49776804  -0.00160730  0.50054278  1
  Co  Co108  1  0.62779964  0.87326752  0.62108098  1
  Co  Co109  1  0.87460088  0.37266204  0.62470446  1
  Co  Co110  1  0.37517915  0.37634164  0.62846150  1
  Co  Co111  1  0.50062401  0.50123837  0.75084639  1
  Co  Co112  1  0.24818237  0.00247277  0.75005817  1
  Co  Co113  1  0.75118638  0.74564918  0.49932794  1
  Co  Co114  1  0.50203783  0.24785786  0.25013820  1
  Co  Co115  1  0.62340297  0.87741960  0.12580972  1
  Co  Co116  1  0.24768130  0.25216896  0.24735368  1
  Co  Co117  1  0.75194636  0.49948108  0.74905369  1
  Co  Co118  1  0.75015109  0.24933345  0.00089502  1
  Co  Co119  1  0.00078595  0.24954684  0.24873685  1
  Co  Co120  1  0.25125066  0.74845090  0.75048430  1
  Co  Co121  1  0.25281421  0.25073509  0.50237958  1
  Co  Co122  1  0.25236010  0.50110650  0.00159546  1
  Co  Co123  1  0.75338290  0.00204486  0.50193084  1
  Co  Co124  1  0.00354961  0.75168199  0.25188317  1
  Co  Co125  1  0.37228845  0.87460351  0.37460481  1
  Co  Co126  1  0.12174777  0.12551031  0.62410247  1
  Co  Co127  1  0.12251536  0.37666557  0.12222076  1
