# generated using pymatgen
data_Fe45Co19
_symmetry_space_group_name_H-M   'P 1'
_cell_length_a   11.41528216
_cell_length_b   11.41649528
_cell_length_c   11.41608461
_cell_angle_alpha   90.00116479
_cell_angle_beta   89.99797674
_cell_angle_gamma   89.99820589
_symmetry_Int_Tables_number   1
_chemical_formula_structural   Fe45Co19
_chemical_formula_sum   'Fe90 Co38'
_cell_volume   1487.77285553
_cell_formula_units_Z   2
loop_
 _symmetry_equiv_pos_site_id
 _symmetry_equiv_pos_as_xyz
  1  'x, y, z'
loop_
 _atom_site_type_symbol
 _atom_site_label
 _atom_site_symmetry_multiplicity
 _atom_site_fract_x
 _atom_site_fract_y
 _atom_site_fract_z
 _atom_site_occupancy
  Fe  Fe0  1  0.49509513  0.74754574  0.49533366  1
  Fe  Fe1  1  0.12377686  0.62401797  0.12288077  1
  Fe  Fe2  1  0.50329794  0.49609145  0.24850676  1
  Fe  Fe3  1  0.50078596  0.49799987  0.00111722  1
  Fe  Fe4  1  0.75435713  0.50225715  -0.00206462  1
  Fe  Fe5  1  0.12638876  0.12366200  0.87394942  1
  Fe  Fe6  1  0.50349901  0.25387038  0.24950128  1
  Fe  Fe7  1  0.87516303  0.87673328  0.87473099  1
  Fe  Fe8  1  0.37478267  0.37464737  0.87468772  1
  Fe  Fe9  1  0.87444505  0.12166927  0.62812636  1
  Fe  Fe10  1  0.24671955  0.25561945  0.25009056  1
  Fe  Fe11  1  0.25381076  0.50143701  0.50286197  1
  Fe  Fe12  1  0.25284742  0.74791848  0.49735062  1
  Fe  Fe13  1  0.62732873  0.12300653  0.87510033  1
  Fe  Fe14  1  -0.00177192  0.00327338  0.00035868  1
  Fe  Fe15  1  0.75158501  0.24875701  0.50076460  1
  Fe  Fe16  1  0.75080374  0.50297743  0.50209405  1
  Fe  Fe17  1  0.62651358  0.62514796  0.87587230  1
  Fe  Fe18  1  0.50015803  0.25136431  0.00041840  1
  Fe  Fe19  1  0.12408640  0.37646285  0.62628552  1
  Fe  Fe20  1  -0.00144860  0.50251389  0.50086088  1
  Fe  Fe21  1  0.12352392  0.12829830  0.37527038  1
  Fe  Fe22  1  0.74973983  0.25227883  0.25142003  1
  Fe  Fe23  1  0.49647271  0.74879123  -0.00031950  1
  Fe  Fe24  1  0.49717806  0.74999973  0.75388174  1
  Fe  Fe25  1  -0.00140958  0.50174176  0.75706678  1
  Fe  Fe26  1  0.24570145  -0.00596206  0.74950286  1
  Fe  Fe27  1  0.75153112  0.75311056  0.00312977  1
  Fe  Fe28  1  0.25135542  0.00037347  0.49867810  1
  Fe  Fe29  1  0.87648670  0.12393346  0.13076854  1
  Fe  Fe30  1  0.24682364  0.49483617  0.24821766  1
  Fe  Fe31  1  0.25142063  0.50045093  0.74986988  1
  Fe  Fe32  1  0.37433217  0.62190076  0.12544925  1
  Fe  Fe33  1  0.62660843  0.12443879  0.12500249  1
  Fe  Fe34  1  0.62709212  0.12246789  0.37758291  1
  Fe  Fe35  1  0.24778096  0.49784102  0.00007518  1
  Fe  Fe36  1  0.62605132  0.62552300  0.12453181  1
  Fe  Fe37  1  0.50120986  -0.00134562  0.74908736  1
  Fe  Fe38  1  0.37390456  0.87298476  0.62491569  1
  Fe  Fe39  1  0.12453384  0.87405960  0.37589186  1
  Fe  Fe40  1  0.12123698  0.87326686  0.12361061  1
  Fe  Fe41  1  0.88010100  0.37385028  0.12039154  1
  Fe  Fe42  1  0.75368949  0.75012633  0.49826533  1
  Fe  Fe43  1  0.75003933  0.49745641  0.24852806  1
  Fe  Fe44  1  0.37455807  0.12412521  0.62625306  1
  Fe  Fe45  1  0.87429474  0.37644278  0.62936311  1
  Fe  Fe46  1  0.49897212  0.74917263  0.25061232  1
  Fe  Fe47  1  -0.00112728  0.74623523  -0.00121880  1
  Fe  Fe48  1  0.12295232  0.13007561  0.12652178  1
  Fe  Fe49  1  0.00542513  0.75326310  0.75224667  1
  Fe  Fe50  1  0.87738636  0.87614755  0.62632858  1
  Fe  Fe51  1  0.62490308  0.87683510  0.87857118  1
  Fe  Fe52  1  0.87725111  0.87699876  0.37005797  1
  Fe  Fe53  1  0.24922964  0.74935571  0.24893200  1
  Fe  Fe54  1  0.87143348  0.12183635  0.86986980  1
  Fe  Fe55  1  -0.00152958  0.00152476  0.49812563  1
  Fe  Fe56  1  0.87669153  0.62571625  0.12773135  1
  Fe  Fe57  1  0.75041863  0.75314568  0.24807356  1
  Fe  Fe58  1  0.74769616  0.75233336  0.74985655  1
  Fe  Fe59  1  0.87512712  0.37588057  0.37677266  1
  Fe  Fe60  1  0.00160040  0.49820891  0.25095367  1
  Fe  Fe61  1  0.50116202  -0.00003226  0.24985610  1
  Fe  Fe62  1  0.62426760  0.62727266  0.62410170  1
  Fe  Fe63  1  0.37784310  0.37591280  0.37797167  1
  Fe  Fe64  1  0.25084279  0.25090476  0.50138423  1
  Fe  Fe65  1  0.12615169  0.62272972  0.37527728  1
  Fe  Fe66  1  0.75263271  0.24711267  -0.00004438  1
  Fe  Fe67  1  0.37594716  0.87531947  0.12580406  1
  Fe  Fe68  1  0.12387974  0.12344230  0.62504237  1
  Fe  Fe69  1  0.49926138  0.00161331  0.00163610  1
  Fe  Fe70  1  -0.00197669  0.74684129  0.49677400  1
  Fe  Fe71  1  0.37384363  0.12313860  0.87415661  1
  Fe  Fe72  1  0.24704285  -0.00001342  0.24915296  1
  Fe  Fe73  1  0.24933866  0.25125968  0.74963635  1
  Fe  Fe74  1  0.50143413  0.24976395  0.74893412  1
  Fe  Fe75  1  0.62367265  0.87421437  0.62108900  1
  Fe  Fe76  1  0.62447356  0.87681409  0.37631351  1
  Fe  Fe77  1  0.49959348  0.50114409  0.74843761  1
  Fe  Fe78  1  0.62355767  0.37599739  0.62232102  1
  Fe  Fe79  1  0.37589966  0.12572790  0.37350160  1
  Fe  Fe80  1  0.24889094  0.25168594  -0.00020559  1
  Fe  Fe81  1  0.87525785  0.62685068  0.62944906  1
  Fe  Fe82  1  0.25013395  -0.00009816  0.00287895  1
  Fe  Fe83  1  -0.00173127  0.24999301  0.50031756  1
  Fe  Fe84  1  0.62961772  0.37484850  0.87511069  1
  Fe  Fe85  1  0.37478640  0.12861357  0.12680251  1
  Fe  Fe86  1  0.62673913  0.62344521  0.37413040  1
  Fe  Fe87  1  0.62631504  0.12138684  0.62215569  1
  Fe  Fe88  1  0.00033455  0.24989380  0.75195904  1
  Fe  Fe89  1  0.12602109  0.62763603  0.62757783  1
  Co  Co90  1  0.37432188  0.62997837  0.62886093  1
  Co  Co91  1  0.87290665  0.62286289  0.37157785  1
  Co  Co92  1  0.62115909  0.87438107  0.12346375  1
  Co  Co93  1  0.37334986  0.87700982  0.37193127  1
  Co  Co94  1  0.74660228  -0.00373421  0.74815921  1
  Co  Co95  1  0.13003576  0.62689916  0.87509305  1
  Co  Co96  1  0.00407808  -0.00259750  0.75032213  1
  Co  Co97  1  0.87213796  0.37229265  0.87434609  1
  Co  Co98  1  0.88096316  0.87565132  0.12738647  1
  Co  Co99  1  0.74746947  -0.00364546  0.24766444  1
  Co  Co100  1  0.12412307  0.37626203  0.38114293  1
  Co  Co101  1  -0.00283375  0.50479966  -0.00699551  1
  Co  Co102  1  0.87125726  0.63081035  0.87106203  1
  Co  Co103  1  0.87364764  0.12444861  0.37130032  1
  Co  Co104  1  0.12399290  0.37429386  0.87573297  1
  Co  Co105  1  0.37593228  0.37306724  0.62426349  1
  Co  Co106  1  0.50024363  0.24716184  0.50108281  1
  Co  Co107  1  0.25295480  0.75090517  0.00123755  1
  Co  Co108  1  0.37310038  0.62262856  0.87607345  1
  Co  Co109  1  0.75208997  -0.00143905  0.00342775  1
  Co  Co110  1  0.12397747  0.87545715  0.88220499  1
  Co  Co111  1  0.74849494  0.50157200  0.74931462  1
  Co  Co112  1  0.49641919  -0.00082679  0.49980154  1
  Co  Co113  1  0.00112959  0.25387320  0.25349294  1
  Co  Co114  1  0.00229663  0.74660221  0.25230766  1
  Co  Co115  1  0.37508080  0.87852366  0.87643162  1
  Co  Co116  1  0.63011434  0.37422097  0.12088323  1
  Co  Co117  1  0.37402558  0.62034912  0.36955042  1
  Co  Co118  1  0.24817465  0.75505579  0.75334502  1
  Co  Co119  1  0.11759471  0.37364286  0.11858054  1
  Co  Co120  1  0.49811921  0.50449615  0.50165858  1
  Co  Co121  1  0.12443414  0.87318553  0.61823529  1
  Co  Co122  1  0.37470045  0.37381283  0.12447887  1
  Co  Co123  1  0.75402045  -0.00217852  0.50014309  1
  Co  Co124  1  -0.00217723  0.24468656  -0.00540597  1
  Co  Co125  1  0.00480115  0.00154876  0.25084845  1
  Co  Co126  1  0.74740559  0.24950392  0.74704291  1
  Co  Co127  1  0.62571148  0.37632657  0.37973425  1
