# generated using pymatgen
data_Fe45Co19
_symmetry_space_group_name_H-M   'P 1'
_cell_length_a   11.41394880
_cell_length_b   11.41415602
_cell_length_c   11.41417891
_cell_angle_alpha   89.99475358
_cell_angle_beta   90.00441363
_cell_angle_gamma   90.00698621
_symmetry_Int_Tables_number   1
_chemical_formula_structural   Fe45Co19
_chemical_formula_sum   'Fe90 Co38'
_cell_volume   1487.04596867
_cell_formula_units_Z   2
loop_
 _symmetry_equiv_pos_site_id
 _symmetry_equiv_pos_as_xyz
  1  'x, y, z'
loop_
 _atom_site_type_symbol
 _atom_site_label
 _atom_site_symmetry_multiplicity
 _atom_site_fract_x
 _atom_site_fract_y
 _atom_site_fract_z
 _atom_site_occupancy
  Fe  Fe0  1  0.37540244  0.12685078  0.12314933  1
  Fe  Fe1  1  0.25236517  0.74711396  0.50306325  1
  Fe  Fe2  1  0.74879464  0.00110406  0.75083595  1
  Fe  Fe3  1  0.87910410  0.12509925  0.37701435  1
  Fe  Fe4  1  -0.00214720  0.74950966  0.75188602  1
  Fe  Fe5  1  0.25035391  0.74817066  0.25028828  1
  Fe  Fe6  1  0.62382460  0.37496165  0.62497839  1
  Fe  Fe7  1  0.00544070  0.25442531  0.49993179  1
  Fe  Fe8  1  0.49475361  0.75151471  0.75131142  1
  Fe  Fe9  1  0.25371217  0.50522006  0.74493318  1
  Fe  Fe10  1  0.00137901  0.50031424  -0.00184670  1
  Fe  Fe11  1  0.12726824  0.37719879  0.87167043  1
  Fe  Fe12  1  0.37385848  0.37575326  0.61977808  1
  Fe  Fe13  1  0.61857815  0.62498437  0.62452611  1
  Fe  Fe14  1  0.74730949  0.49797369  0.00151062  1
  Fe  Fe15  1  0.12370698  0.12523413  0.62508030  1
  Fe  Fe16  1  0.62358295  0.12898383  0.87750046  1
  Fe  Fe17  1  0.24503325  0.24610884  0.25253429  1
  Fe  Fe18  1  0.87505320  0.12494992  0.87506169  1
  Fe  Fe19  1  0.25135688  0.50233167  0.00312285  1
  Fe  Fe20  1  0.62646635  0.37525933  0.37180402  1
  Fe  Fe21  1  0.25122757  0.25036251  -0.00175347  1
  Fe  Fe22  1  0.62347377  0.87512526  0.87436578  1
  Fe  Fe23  1  0.12475513  0.87299597  0.12589447  1
  Fe  Fe24  1  0.12550262  0.87588353  0.37513144  1
  Fe  Fe25  1  -0.00108806  -0.00315087  -0.00071749  1
  Fe  Fe26  1  0.49903770  0.25194911  0.75070256  1
  Fe  Fe27  1  0.87605502  0.12628127  0.62308587  1
  Fe  Fe28  1  0.37793548  0.62495287  0.37915443  1
  Fe  Fe29  1  0.87466669  0.37488407  0.12541468  1
  Fe  Fe30  1  0.49915218  0.75049883  0.25131567  1
  Fe  Fe31  1  0.87287182  0.37610846  0.87485055  1
  Fe  Fe32  1  0.37455345  0.37828158  0.87498310  1
  Fe  Fe33  1  0.74848766  0.24991083  0.49883659  1
  Fe  Fe34  1  0.87516230  0.87616045  0.37244891  1
  Fe  Fe35  1  0.49748476  0.49808838  0.25006224  1
  Fe  Fe36  1  0.75049655  0.25146461  0.74985388  1
  Fe  Fe37  1  0.12692953  0.37419400  0.12645923  1
  Fe  Fe38  1  0.00050386  0.25212892  0.00026755  1
  Fe  Fe39  1  0.37719479  0.12031162  0.87470488  1
  Fe  Fe40  1  0.75030032  -0.00160817  0.00030314  1
  Fe  Fe41  1  0.00531442  0.49800625  0.50540921  1
  Fe  Fe42  1  0.75070350  -0.00006220  0.49931650  1
  Fe  Fe43  1  -0.00004619  0.50021853  0.24886098  1
  Fe  Fe44  1  0.87564404  0.62349205  0.37577453  1
  Fe  Fe45  1  -0.00061793  0.75136454  -0.00142630  1
  Fe  Fe46  1  0.87161532  0.87338220  0.62782070  1
  Fe  Fe47  1  0.62345976  0.12342701  0.37292033  1
  Fe  Fe48  1  0.12781882  0.87423869  0.87319348  1
  Fe  Fe49  1  0.62401686  0.12542592  0.62451455  1
  Fe  Fe50  1  0.49789136  0.25105899  0.25037073  1
  Fe  Fe51  1  0.12404804  0.12512182  0.87549162  1
  Fe  Fe52  1  0.74756920  0.74832570  0.49850606  1
  Fe  Fe53  1  0.62420957  0.62290764  0.12894996  1
  Fe  Fe54  1  0.62456726  0.87407830  0.62587959  1
  Fe  Fe55  1  0.50112053  -0.00115484  0.49969626  1
  Fe  Fe56  1  0.37660980  0.87077968  0.12020900  1
  Fe  Fe57  1  0.24859395  0.00159810  0.50138796  1
  Fe  Fe58  1  0.25222732  0.24734057  0.74968790  1
  Fe  Fe59  1  0.74864147  0.75149828  0.00000079  1
  Fe  Fe60  1  0.12479245  0.62708202  0.12508508  1
  Fe  Fe61  1  -0.00061980  0.75186553  0.49969037  1
  Fe  Fe62  1  0.87613095  0.12500041  0.12397340  1
  Fe  Fe63  1  0.12654334  0.62430583  0.87231709  1
  Fe  Fe64  1  0.62447502  0.87719590  0.12774642  1
  Fe  Fe65  1  0.12720221  0.87317775  0.62606694  1
  Fe  Fe66  1  0.49911712  0.49678380  0.00341283  1
  Fe  Fe67  1  0.87295793  0.62519505  0.87449337  1
  Fe  Fe68  1  0.37702713  0.12302569  0.62427076  1
  Fe  Fe69  1  0.25156183  0.00055956  0.24833143  1
  Fe  Fe70  1  0.75244379  0.24933145  0.24958320  1
  Fe  Fe71  1  0.62323451  0.12745876  0.12468868  1
  Fe  Fe72  1  0.62161011  0.62211424  0.87341268  1
  Fe  Fe73  1  0.87655286  0.37607170  0.37584105  1
  Fe  Fe74  1  0.75195478  0.74860622  0.25067054  1
  Fe  Fe75  1  0.62589113  0.87689066  0.37212342  1
  Fe  Fe76  1  -0.00104226  0.25430219  0.74921981  1
  Fe  Fe77  1  0.87491197  0.62654992  0.12425781  1
  Fe  Fe78  1  0.24997337  -0.00117593  0.00002900  1
  Fe  Fe79  1  0.37535695  0.12549048  0.37726065  1
  Fe  Fe80  1  0.36977198  0.37414930  0.37880793  1
  Fe  Fe81  1  0.74620044  0.50192713  0.49921258  1
  Fe  Fe82  1  0.37460855  0.87538446  0.37682867  1
  Fe  Fe83  1  0.25162921  0.50351537  0.25001448  1
  Fe  Fe84  1  0.74921179  0.49945032  0.74883534  1
  Fe  Fe85  1  0.00112662  0.00126357  0.24885766  1
  Fe  Fe86  1  0.12376308  0.62493380  0.37621982  1
  Fe  Fe87  1  0.87535952  0.62466434  0.62578927  1
  Fe  Fe88  1  -0.00009797  -0.00135011  0.74925520  1
  Fe  Fe89  1  0.25807259  0.74887449  0.74975631  1
  Co  Co90  1  0.24589195  0.24741781  0.49971681  1
  Co  Co91  1  0.37497344  0.87873751  0.62432814  1
  Co  Co92  1  0.37594118  0.87715821  0.87806234  1
  Co  Co93  1  0.49611734  0.25335514  -0.00105558  1
  Co  Co94  1  0.12552402  0.12513018  0.12165070  1
  Co  Co95  1  0.12769245  0.37832357  0.37222332  1
  Co  Co96  1  0.37125229  0.37278360  0.12770522  1
  Co  Co97  1  -0.00174587  0.49840817  0.74899665  1
  Co  Co98  1  0.24849250  0.74871133  -0.00194214  1
  Co  Co99  1  0.75182050  0.00331743  0.24984106  1
  Co  Co100  1  0.75263344  0.49928625  0.25002781  1
  Co  Co101  1  -0.00093087  -0.00455061  0.50298994  1
  Co  Co102  1  0.37686942  0.62328231  0.87914317  1
  Co  Co103  1  0.00038922  0.74865548  0.25100049  1
  Co  Co104  1  0.50410167  0.74798210  -0.00099431  1
  Co  Co105  1  0.87205741  0.37555889  0.62230837  1
  Co  Co106  1  0.49568053  -0.00007408  0.24879655  1
  Co  Co107  1  0.24643744  0.50383109  0.50319077  1
  Co  Co108  1  0.62353805  0.62528735  0.37136969  1
  Co  Co109  1  0.13059134  0.37425841  0.62969234  1
  Co  Co110  1  0.49787391  0.49686719  0.75039309  1
  Co  Co111  1  0.50154706  0.00079846  0.00145683  1
  Co  Co112  1  0.12201372  0.12047627  0.37689453  1
  Co  Co113  1  0.74689745  0.74695380  0.75026180  1
  Co  Co114  1  0.12301868  0.62906895  0.62814403  1
  Co  Co115  1  0.75157783  0.25065072  0.00138139  1
  Co  Co116  1  0.87543303  0.87411303  0.12739646  1
  Co  Co117  1  0.50156951  0.75420547  0.49861211  1
  Co  Co118  1  0.50137903  0.25066518  0.49933633  1
  Co  Co119  1  0.62532672  0.37343681  0.87597489  1
  Co  Co120  1  0.00217234  0.24957925  0.24972523  1
  Co  Co121  1  0.62523383  0.37273912  0.12659483  1
  Co  Co122  1  0.38300124  0.62273020  0.61938116  1
  Co  Co123  1  0.87216468  0.87446709  0.87204870  1
  Co  Co124  1  0.50307888  0.49632148  0.49504597  1
  Co  Co125  1  0.50221116  -0.00048427  0.75018981  1
  Co  Co126  1  0.24852438  0.00057810  0.75021615  1
  Co  Co127  1  0.37664052  0.62839646  0.12378159  1
