# generated using pymatgen
data_Fe45Co19
_symmetry_space_group_name_H-M   'P 1'
_cell_length_a   11.41417978
_cell_length_b   11.41392404
_cell_length_c   11.41624702
_cell_angle_alpha   90.00317656
_cell_angle_beta   89.99381101
_cell_angle_gamma   89.99868638
_symmetry_Int_Tables_number   1
_chemical_formula_structural   Fe45Co19
_chemical_formula_sum   'Fe90 Co38'
_cell_volume   1487.31528351
_cell_formula_units_Z   2
loop_
 _symmetry_equiv_pos_site_id
 _symmetry_equiv_pos_as_xyz
  1  'x, y, z'
loop_
 _atom_site_type_symbol
 _atom_site_label
 _atom_site_symmetry_multiplicity
 _atom_site_fract_x
 _atom_site_fract_y
 _atom_site_fract_z
 _atom_site_occupancy
  Fe  Fe0  1  0.87361176  0.62271614  0.37272145  1
  Fe  Fe1  1  0.50168447  0.74815656  0.74984426  1
  Fe  Fe2  1  0.25406473  0.25145323  0.75142635  1
  Fe  Fe3  1  0.12617634  0.37631469  0.62638944  1
  Fe  Fe4  1  0.50170079  0.00206897  0.75257726  1
  Fe  Fe5  1  0.25108761  0.25062134  0.24970206  1
  Fe  Fe6  1  0.00053231  0.50169257  0.75170968  1
  Fe  Fe7  1  0.25117877  0.75173289  0.24999485  1
  Fe  Fe8  1  0.12601624  0.87355742  0.37686204  1
  Fe  Fe9  1  0.87530996  0.62332206  0.12606761  1
  Fe  Fe10  1  0.12378949  0.37524435  0.12408875  1
  Fe  Fe11  1  -0.00183921  0.25053557  0.74735255  1
  Fe  Fe12  1  0.62459894  0.12614245  0.12486562  1
  Fe  Fe13  1  0.25195738  -0.00386799  0.75227007  1
  Fe  Fe14  1  0.12436351  0.62475342  0.12654938  1
  Fe  Fe15  1  0.37744082  0.87529939  0.62487132  1
  Fe  Fe16  1  0.12443412  0.37550102  0.37444581  1
  Fe  Fe17  1  0.25275414  0.25209131  0.50008853  1
  Fe  Fe18  1  0.74774090  0.74930026  0.74862712  1
  Fe  Fe19  1  0.74772588  0.49849319  0.50190823  1
  Fe  Fe20  1  0.50016738  0.49749753  0.49959623  1
  Fe  Fe21  1  0.50126682  0.00245052  -0.00169017  1
  Fe  Fe22  1  0.50346512  0.49693384  0.75162033  1
  Fe  Fe23  1  0.50064342  0.00061503  0.25108134  1
  Fe  Fe24  1  0.37471123  0.12444103  0.37517553  1
  Fe  Fe25  1  0.49767037  0.25115267  0.25005809  1
  Fe  Fe26  1  0.87109894  0.62497604  0.87477832  1
  Fe  Fe27  1  0.62494969  0.62500536  0.37447114  1
  Fe  Fe28  1  -0.00151210  0.25183937  0.24983566  1
  Fe  Fe29  1  0.87470688  0.87344331  0.87322960  1
  Fe  Fe30  1  0.00178669  0.50146437  0.49837677  1
  Fe  Fe31  1  -0.00133752  0.74824313  0.50127239  1
  Fe  Fe32  1  0.37629075  0.62432726  0.62492094  1
  Fe  Fe33  1  0.12603937  0.62980497  0.87403013  1
  Fe  Fe34  1  0.37346774  0.12380795  0.12371805  1
  Fe  Fe35  1  0.74725825  0.75057483  0.00281827  1
  Fe  Fe36  1  0.74426143  0.49570361  0.74888251  1
  Fe  Fe37  1  0.12589993  0.87053224  0.62697510  1
  Fe  Fe38  1  0.87259613  0.62293825  0.62665895  1
  Fe  Fe39  1  0.37640301  0.62512984  0.37237277  1
  Fe  Fe40  1  0.49998076  0.50119083  0.00079488  1
  Fe  Fe41  1  0.00058994  0.75066268  -0.00107678  1
  Fe  Fe42  1  0.12645844  0.12518080  0.62555720  1
  Fe  Fe43  1  0.62459724  0.37150927  0.37692296  1
  Fe  Fe44  1  0.87296128  0.87464417  0.37530158  1
  Fe  Fe45  1  0.25128234  0.49954217  0.24960305  1
  Fe  Fe46  1  0.62535172  0.87415909  0.37334920  1
  Fe  Fe47  1  -0.00238184  0.25081754  0.50325511  1
  Fe  Fe48  1  0.74887726  0.00040266  0.25185157  1
  Fe  Fe49  1  0.25159145  0.50143344  0.00103220  1
  Fe  Fe50  1  0.12601914  0.37462814  0.87503705  1
  Fe  Fe51  1  -0.00197520  0.24899538  -0.00067750  1
  Fe  Fe52  1  0.12321745  0.12226294  0.12363616  1
  Fe  Fe53  1  0.12153016  0.87795218  0.12434282  1
  Fe  Fe54  1  0.74933138  0.00160270  -0.00172890  1
  Fe  Fe55  1  0.25061251  0.50118954  0.49843904  1
  Fe  Fe56  1  0.87268014  0.37480682  0.87529125  1
  Fe  Fe57  1  0.12530840  0.12366392  0.87429201  1
  Fe  Fe58  1  0.49965206  0.75020146  0.49946603  1
  Fe  Fe59  1  0.62292148  0.37187136  0.12080489  1
  Fe  Fe60  1  0.62670547  0.87615452  0.62441087  1
  Fe  Fe61  1  0.87728102  0.12187551  0.12566980  1
  Fe  Fe62  1  0.50198791  0.75010450  0.24740178  1
  Fe  Fe63  1  0.12731641  0.62787862  0.62606080  1
  Fe  Fe64  1  0.74949358  0.74942704  0.50064634  1
  Fe  Fe65  1  0.50334019  0.00290053  0.49744582  1
  Fe  Fe66  1  0.75254460  0.25215471  0.24730924  1
  Fe  Fe67  1  0.74847448  0.49865773  0.00029297  1
  Fe  Fe68  1  0.74922758  0.49689239  0.24899594  1
  Fe  Fe69  1  -0.00074529  0.74978879  0.25132216  1
  Fe  Fe70  1  0.75293723  0.25024823  0.50394810  1
  Fe  Fe71  1  0.12455732  0.12460890  0.37621234  1
  Fe  Fe72  1  0.00025758  0.50070115  -0.00129088  1
  Fe  Fe73  1  0.37778240  0.87368708  0.12145650  1
  Fe  Fe74  1  0.37569084  0.12520489  0.62623709  1
  Fe  Fe75  1  0.25142821  -0.00205557  0.50042011  1
  Fe  Fe76  1  0.25004502  -0.00126678  0.25116933  1
  Fe  Fe77  1  0.62640492  0.12736135  0.62655082  1
  Fe  Fe78  1  -0.00112038  -0.00122811  0.50204345  1
  Fe  Fe79  1  0.87233975  0.12655637  0.87127907  1
  Fe  Fe80  1  0.25149205  0.50124450  0.75158477  1
  Fe  Fe81  1  0.25300199  0.25057040  -0.00121624  1
  Fe  Fe82  1  0.62338984  0.87282821  0.87680268  1
  Fe  Fe83  1  0.87487567  0.87710811  0.12572568  1
  Fe  Fe84  1  0.62555481  0.62450974  0.12632377  1
  Fe  Fe85  1  0.24944440  -0.00410005  -0.00430060  1
  Fe  Fe86  1  0.62625812  0.13319541  0.87394877  1
  Fe  Fe87  1  0.87482927  0.12484991  0.37632774  1
  Fe  Fe88  1  0.37653457  0.62895734  0.87827542  1
  Fe  Fe89  1  -0.00133763  -0.00110008  0.74866941  1
  Co  Co90  1  0.37512969  0.62662627  0.12578839  1
  Co  Co91  1  0.25449031  0.75083607  0.75104528  1
  Co  Co92  1  0.37587644  0.37594746  0.37433851  1
  Co  Co93  1  0.87403571  0.37654920  0.37670547  1
  Co  Co94  1  0.74884201  0.74941428  0.24822025  1
  Co  Co95  1  0.37737096  0.87549467  0.37526669  1
  Co  Co96  1  0.49404365  0.24844732  -0.00079760  1
  Co  Co97  1  0.62514699  0.87850803  0.12536918  1
  Co  Co98  1  0.62435687  0.62501427  0.62379995  1
  Co  Co99  1  0.25319305  0.74923264  0.49977356  1
  Co  Co100  1  -0.00031938  0.49848611  0.25078516  1
  Co  Co101  1  0.12629543  0.62597727  0.37308488  1
  Co  Co102  1  0.50463753  0.74718989  0.00358984  1
  Co  Co103  1  -0.00392770  0.74754932  0.74867516  1
  Co  Co104  1  0.50297744  0.49803136  0.24935454  1
  Co  Co105  1  0.12194152  0.87318014  0.87072354  1
  Co  Co106  1  0.62082877  0.37075068  0.62250719  1
  Co  Co107  1  0.37436381  0.37713404  0.62546168  1
  Co  Co108  1  0.87148163  0.11997280  0.62609302  1
  Co  Co109  1  0.87070420  0.87624521  0.62548635  1
  Co  Co110  1  0.87761046  0.38026397  0.62541467  1
  Co  Co111  1  -0.00194504  0.00013090  -0.00457787  1
  Co  Co112  1  0.74681851  -0.00111433  0.75338500  1
  Co  Co113  1  0.24694913  0.75261941  0.00031744  1
  Co  Co114  1  0.62539428  0.36965410  0.87963779  1
  Co  Co115  1  0.62629461  0.62526909  0.87555219  1
  Co  Co116  1  0.49702354  0.25241233  0.75053557  1
  Co  Co117  1  0.37531652  0.37615703  0.12493096  1
  Co  Co118  1  0.00001214  0.00007401  0.25416716  1
  Co  Co119  1  0.49644172  0.24839207  0.50017804  1
  Co  Co120  1  0.74679196  0.00075079  0.49680834  1
  Co  Co121  1  0.37404862  0.12300358  0.87422624  1
  Co  Co122  1  0.38055440  0.87175950  0.87712383  1
  Co  Co123  1  0.37582789  0.37836509  0.87620870  1
  Co  Co124  1  0.75123877  0.25534427  0.74546381  1
  Co  Co125  1  0.62626373  0.13001255  0.37348187  1
  Co  Co126  1  0.75406986  0.24810129  0.00341281  1
  Co  Co127  1  0.87705948  0.37777490  0.12270123  1
