# generated using pymatgen
data_Fe45Co19
_symmetry_space_group_name_H-M   'P 1'
_cell_length_a   11.41511081
_cell_length_b   11.41528985
_cell_length_c   11.41579741
_cell_angle_alpha   90.00958009
_cell_angle_beta   89.99674244
_cell_angle_gamma   90.00392718
_symmetry_Int_Tables_number   1
_chemical_formula_structural   Fe45Co19
_chemical_formula_sum   'Fe90 Co38'
_cell_volume   1487.55598629
_cell_formula_units_Z   2
loop_
 _symmetry_equiv_pos_site_id
 _symmetry_equiv_pos_as_xyz
  1  'x, y, z'
loop_
 _atom_site_type_symbol
 _atom_site_label
 _atom_site_symmetry_multiplicity
 _atom_site_fract_x
 _atom_site_fract_y
 _atom_site_fract_z
 _atom_site_occupancy
  Fe  Fe0  1  0.75071212  0.50068289  0.74991089  1
  Fe  Fe1  1  0.87761138  0.62534028  0.62164300  1
  Fe  Fe2  1  0.37748886  0.12254593  0.62909685  1
  Fe  Fe3  1  0.24814133  0.75105907  0.24829628  1
  Fe  Fe4  1  0.24789076  -0.00126051  -0.00244433  1
  Fe  Fe5  1  0.12183036  0.62543938  0.62366177  1
  Fe  Fe6  1  0.49959372  0.75132553  0.75031002  1
  Fe  Fe7  1  0.62279838  0.87644913  0.62455913  1
  Fe  Fe8  1  0.87522477  0.37229936  0.87448357  1
  Fe  Fe9  1  0.62178353  0.12347633  0.62463600  1
  Fe  Fe10  1  0.37586227  0.37510585  0.62675394  1
  Fe  Fe11  1  0.12664323  0.62427769  0.12384055  1
  Fe  Fe12  1  0.74934366  -0.00107344  0.75036564  1
  Fe  Fe13  1  0.37208926  0.87403818  0.87288421  1
  Fe  Fe14  1  0.37575246  0.87725022  0.62641060  1
  Fe  Fe15  1  0.62338435  0.37436102  0.62486826  1
  Fe  Fe16  1  0.62438025  0.12496207  0.87408840  1
  Fe  Fe17  1  0.75266868  0.75108194  0.74751824  1
  Fe  Fe18  1  0.00034713  0.50073206  -0.00105338  1
  Fe  Fe19  1  0.49863225  0.49997255  0.25042720  1
  Fe  Fe20  1  0.37093225  0.62957081  0.87754886  1
  Fe  Fe21  1  0.75189255  0.49949585  0.49885243  1
  Fe  Fe22  1  0.12240266  0.87316182  0.62497295  1
  Fe  Fe23  1  0.24849180  0.50196489  0.75098434  1
  Fe  Fe24  1  0.49877542  0.50026130  -0.00081344  1
  Fe  Fe25  1  0.12735000  0.86962398  0.87193427  1
  Fe  Fe26  1  0.62356146  0.37228479  0.37533189  1
  Fe  Fe27  1  0.00217204  0.75109652  0.00152723  1
  Fe  Fe28  1  0.37657957  0.87450832  0.37282681  1
  Fe  Fe29  1  0.87605021  0.62703822  0.87631610  1
  Fe  Fe30  1  0.75288101  0.24892733  0.24709754  1
  Fe  Fe31  1  0.75064993  -0.00023360  -0.00168581  1
  Fe  Fe32  1  0.24906680  0.24924549  0.24724334  1
  Fe  Fe33  1  0.62369894  0.37567096  0.12391260  1
  Fe  Fe34  1  0.87943879  0.87216584  0.37186351  1
  Fe  Fe35  1  0.37517673  0.87793773  0.12756069  1
  Fe  Fe36  1  0.62665371  0.62829162  0.87664940  1
  Fe  Fe37  1  0.87543374  0.12129320  0.62513280  1
  Fe  Fe38  1  0.50006545  -0.00082611  -0.00206941  1
  Fe  Fe39  1  0.00046680  0.24441813  0.24729364  1
  Fe  Fe40  1  0.49790801  0.24947539  0.24901083  1
  Fe  Fe41  1  0.75195776  0.49899304  0.00116683  1
  Fe  Fe42  1  0.87989258  0.88217981  0.12819765  1
  Fe  Fe43  1  0.50002885  0.50035037  0.75327573  1
  Fe  Fe44  1  0.12319548  0.37395963  0.12468223  1
  Fe  Fe45  1  0.00141664  -0.00150053  0.49578403  1
  Fe  Fe46  1  0.12524170  0.37277112  0.87450265  1
  Fe  Fe47  1  0.12786634  0.12724384  0.87523640  1
  Fe  Fe48  1  -0.00120244  0.25315916  0.50305074  1
  Fe  Fe49  1  0.49796925  0.24823723  -0.00073854  1
  Fe  Fe50  1  0.74934285  0.75238176  0.00466342  1
  Fe  Fe51  1  0.12219820  0.88133850  0.12974092  1
  Fe  Fe52  1  0.37278002  0.37128790  0.87480940  1
  Fe  Fe53  1  0.12493969  0.12440647  0.62333849  1
  Fe  Fe54  1  0.37708351  0.62504657  0.62411973  1
  Fe  Fe55  1  0.62710080  0.12121962  0.12710125  1
  Fe  Fe56  1  0.74998852  0.24925236  0.74827410  1
  Fe  Fe57  1  0.24920081  0.49942354  0.49966417  1
  Fe  Fe58  1  0.87547702  0.12617941  0.37591044  1
  Fe  Fe59  1  0.62324124  0.12523373  0.37475859  1
  Fe  Fe60  1  0.37073652  0.12373848  0.12276457  1
  Fe  Fe61  1  0.74970274  -0.00182932  0.49686929  1
  Fe  Fe62  1  -0.00241685  0.24514969  0.00325695  1
  Fe  Fe63  1  0.75076428  0.75271804  0.50036904  1
  Fe  Fe64  1  0.00046779  0.50382414  0.25385548  1
  Fe  Fe65  1  0.87587362  0.37458068  0.37407134  1
  Fe  Fe66  1  0.37402183  0.62484882  0.12402336  1
  Fe  Fe67  1  0.00046307  0.49995003  0.75039575  1
  Fe  Fe68  1  0.24941408  0.49784633  -0.00029304  1
  Fe  Fe69  1  0.25253167  0.25161366  0.50381935  1
  Fe  Fe70  1  0.00020013  0.25062053  0.74709262  1
  Fe  Fe71  1  0.75007322  0.49938044  0.24968057  1
  Fe  Fe72  1  0.62499929  0.62760948  0.37454426  1
  Fe  Fe73  1  0.62647219  0.37394349  0.87625803  1
  Fe  Fe74  1  0.75480375  0.24791023  0.00342642  1
  Fe  Fe75  1  0.62329426  0.62595266  0.62451544  1
  Fe  Fe76  1  0.24895633  -0.00127587  0.49807914  1
  Fe  Fe77  1  0.37395451  0.12620476  0.37623646  1
  Fe  Fe78  1  0.37391439  0.62680547  0.37434984  1
  Fe  Fe79  1  0.24988304  0.75107297  0.50106688  1
  Fe  Fe80  1  0.87489390  0.62478099  0.12660555  1
  Fe  Fe81  1  0.87500441  0.87499050  0.87436649  1
  Fe  Fe82  1  0.75005635  0.25001405  0.50183613  1
  Fe  Fe83  1  0.49961074  0.49906206  0.49746055  1
  Fe  Fe84  1  0.25016022  0.49785562  0.24953000  1
  Fe  Fe85  1  0.74758872  0.75210980  0.24625816  1
  Fe  Fe86  1  0.50208963  0.75222142  0.00365357  1
  Fe  Fe87  1  0.12570707  0.37341330  0.37648530  1
  Fe  Fe88  1  0.61905135  0.87512913  0.37171459  1
  Fe  Fe89  1  0.00151574  -0.00053873  0.75229147  1
  Co  Co90  1  0.00446025  0.00628113  0.25717953  1
  Co  Co91  1  0.24712350  0.75363618  0.00533174  1
  Co  Co92  1  0.12651122  0.37646623  0.62429658  1
  Co  Co93  1  0.12882088  0.62642125  0.37654024  1
  Co  Co94  1  0.87167772  0.62850967  0.37425796  1
  Co  Co95  1  0.50059484  0.74792344  0.24623827  1
  Co  Co96  1  0.75104549  -0.00103908  0.25554189  1
  Co  Co97  1  0.37277591  0.12319100  0.87438614  1
  Co  Co98  1  0.87549971  0.11562073  0.12694766  1
  Co  Co99  1  0.00293661  0.74633302  0.24807940  1
  Co  Co100  1  0.87810821  0.87783651  0.62437536  1
  Co  Co101  1  -0.00156220  0.74956545  0.75098663  1
  Co  Co102  1  0.49961192  0.25010297  0.75193749  1
  Co  Co103  1  0.00270742  0.00037956  -0.00621828  1
  Co  Co104  1  0.12731013  0.13028400  0.37972860  1
  Co  Co105  1  0.49893955  0.00047295  0.49822517  1
  Co  Co106  1  0.00039962  0.74917328  0.49736572  1
  Co  Co107  1  0.12684983  0.62794450  0.87578876  1
  Co  Co108  1  0.62747533  0.87198062  0.87509442  1
  Co  Co109  1  0.37597356  0.37449588  0.12423742  1
  Co  Co110  1  0.24837476  0.00229323  0.25482244  1
  Co  Co111  1  0.87476894  0.12502944  0.87168942  1
  Co  Co112  1  0.62424652  0.88151682  0.12741082  1
  Co  Co113  1  0.49705724  0.00423122  0.25008910  1
  Co  Co114  1  0.24903428  0.25089711  0.00133783  1
  Co  Co115  1  0.12479646  0.87194739  0.37324354  1
  Co  Co116  1  0.87382992  0.37660291  0.62521745  1
  Co  Co117  1  0.49795510  0.24983698  0.50082346  1
  Co  Co118  1  0.37318220  0.37403129  0.37486244  1
  Co  Co119  1  0.24992433  0.24862538  0.74803480  1
  Co  Co120  1  0.12688941  0.12036298  0.12282000  1
  Co  Co121  1  0.49902512  0.75048690  0.50036012  1
  Co  Co122  1  0.62492472  0.62163496  0.12356794  1
  Co  Co123  1  0.87771532  0.37687084  0.12637539  1
  Co  Co124  1  0.50164005  -0.00199560  0.75367649  1
  Co  Co125  1  -0.00106236  0.49972527  0.49639869  1
  Co  Co126  1  0.24677794  0.00037418  0.74968825  1
  Co  Co127  1  0.25032708  0.74764506  0.74539193  1
