# generated using pymatgen
data_Fe45Co19
_symmetry_space_group_name_H-M   'P 1'
_cell_length_a   11.41546270
_cell_length_b   11.41428205
_cell_length_c   11.41554514
_cell_angle_alpha   90.00086976
_cell_angle_beta   90.00914141
_cell_angle_gamma   90.00667950
_symmetry_Int_Tables_number   1
_chemical_formula_structural   Fe45Co19
_chemical_formula_sum   'Fe90 Co38'
_cell_volume   1487.43763615
_cell_formula_units_Z   2
loop_
 _symmetry_equiv_pos_site_id
 _symmetry_equiv_pos_as_xyz
  1  'x, y, z'
loop_
 _atom_site_type_symbol
 _atom_site_label
 _atom_site_symmetry_multiplicity
 _atom_site_fract_x
 _atom_site_fract_y
 _atom_site_fract_z
 _atom_site_occupancy
  Fe  Fe0  1  -0.00381299  0.00325720  0.49739395  1
  Fe  Fe1  1  0.12525786  0.62576229  0.12613909  1
  Fe  Fe2  1  0.50103338  0.74948211  0.00041973  1
  Fe  Fe3  1  0.24879962  0.24874699  0.74835915  1
  Fe  Fe4  1  0.50231556  -0.00290267  0.75098851  1
  Fe  Fe5  1  0.12533275  0.87538876  0.37337423  1
  Fe  Fe6  1  -0.00027259  0.75020797  0.49935769  1
  Fe  Fe7  1  0.62665400  0.62611034  0.37499236  1
  Fe  Fe8  1  0.37526831  0.37461008  0.87469346  1
  Fe  Fe9  1  0.87505817  0.12267236  0.12689634  1
  Fe  Fe10  1  0.12248261  0.37215849  0.12486272  1
  Fe  Fe11  1  0.86902950  0.12289431  0.86844479  1
  Fe  Fe12  1  0.75167924  -0.00118045  0.50438706  1
  Fe  Fe13  1  0.00069868  0.75232002  0.75086118  1
  Fe  Fe14  1  0.74972767  0.25099395  0.24884947  1
  Fe  Fe15  1  0.50091170  0.49863247  0.74908521  1
  Fe  Fe16  1  0.62546610  0.62533206  0.87590150  1
  Fe  Fe17  1  0.62587553  0.62643488  0.62522592  1
  Fe  Fe18  1  -0.00094653  0.75210407  0.24861743  1
  Fe  Fe19  1  0.12420039  0.87616030  0.62509111  1
  Fe  Fe20  1  0.50093440  0.00060638  0.49937947  1
  Fe  Fe21  1  0.37534575  0.12414868  0.62627388  1
  Fe  Fe22  1  0.37435076  0.62554071  0.62522132  1
  Fe  Fe23  1  0.75050457  0.49715681  0.74956877  1
  Fe  Fe24  1  0.74665364  0.75215196  0.24777271  1
  Fe  Fe25  1  0.62681681  0.37756049  0.12270681  1
  Fe  Fe26  1  0.87721524  0.37481119  0.87307866  1
  Fe  Fe27  1  0.00082292  0.00195893  -0.00356355  1
  Fe  Fe28  1  -0.00252482  0.24714425  0.25253800  1
  Fe  Fe29  1  0.87143825  0.62261444  0.12574765  1
  Fe  Fe30  1  0.37604133  0.87656756  0.37424281  1
  Fe  Fe31  1  -0.00103914  0.24542796  -0.00242828  1
  Fe  Fe32  1  0.62923009  0.12398396  0.62985620  1
  Fe  Fe33  1  0.12711889  0.62720150  0.37298495  1
  Fe  Fe34  1  0.37658657  0.62490953  0.12589542  1
  Fe  Fe35  1  0.12145424  0.12471219  0.62638119  1
  Fe  Fe36  1  0.24721606  0.00273045  -0.00185137  1
  Fe  Fe37  1  0.50053109  0.75292272  0.75037437  1
  Fe  Fe38  1  0.25201079  0.24629440  0.24847400  1
  Fe  Fe39  1  0.12447081  0.37169103  0.37635766  1
  Fe  Fe40  1  0.74908243  0.24649167  -0.00098758  1
  Fe  Fe41  1  0.24723836  0.49991900  0.74844248  1
  Fe  Fe42  1  0.37395908  0.87721407  0.87507732  1
  Fe  Fe43  1  0.74848105  0.75108560  0.00129295  1
  Fe  Fe44  1  0.50034782  0.24531297  0.24915855  1
  Fe  Fe45  1  0.37936111  0.88034140  0.12435315  1
  Fe  Fe46  1  0.75536438  0.24894307  0.50586531  1
  Fe  Fe47  1  0.49848740  0.49952525  0.50124418  1
  Fe  Fe48  1  0.87353020  0.62660394  0.37332725  1
  Fe  Fe49  1  0.50212675  0.49910390  0.24945794  1
  Fe  Fe50  1  0.50274621  0.24540898  -0.00039990  1
  Fe  Fe51  1  0.12251952  0.37361917  0.87484604  1
  Fe  Fe52  1  0.37439554  0.37158879  0.37698378  1
  Fe  Fe53  1  0.87572345  0.62623114  0.62669410  1
  Fe  Fe54  1  0.25117697  0.00107983  0.50168541  1
  Fe  Fe55  1  0.74784017  -0.00238706  0.24869124  1
  Fe  Fe56  1  0.24803713  0.24651798  0.00033088  1
  Fe  Fe57  1  0.12288382  0.87743521  0.12478555  1
  Fe  Fe58  1  0.12548759  0.62822420  0.87632237  1
  Fe  Fe59  1  0.37484720  0.12465336  0.87390728  1
  Fe  Fe60  1  0.25032658  0.49906487  0.00084744  1
  Fe  Fe61  1  0.37359445  0.62638619  0.37329152  1
  Fe  Fe62  1  0.62482043  0.37485881  0.87673202  1
  Fe  Fe63  1  0.25184664  0.00178590  0.24922150  1
  Fe  Fe64  1  0.87414964  0.37604995  0.12408176  1
  Fe  Fe65  1  0.24889278  0.49877292  0.50218403  1
  Fe  Fe66  1  0.37621050  0.37282259  0.12347094  1
  Fe  Fe67  1  0.62544210  0.37320675  0.37816258  1
  Fe  Fe68  1  0.11907339  0.37198102  0.62522003  1
  Fe  Fe69  1  0.00108303  0.50279431  0.50085219  1
  Fe  Fe70  1  0.62813544  0.12471944  0.37545510  1
  Fe  Fe71  1  -0.00147094  0.50244628  -0.00109149  1
  Fe  Fe72  1  0.25079619  0.49888450  0.24951048  1
  Fe  Fe73  1  0.37462156  0.62393651  0.87475830  1
  Fe  Fe74  1  0.49994602  0.75128618  0.49937282  1
  Fe  Fe75  1  0.25097533  0.75227931  0.50081038  1
  Fe  Fe76  1  0.87497139  0.62819351  0.87422473  1
  Fe  Fe77  1  0.12547047  0.12526716  0.37411178  1
  Fe  Fe78  1  -0.00025079  -0.00255216  0.75340677  1
  Fe  Fe79  1  0.50195787  0.25176346  0.74860650  1
  Fe  Fe80  1  0.25045866  0.75192384  0.00245797  1
  Fe  Fe81  1  0.74954021  0.75735354  0.74830312  1
  Fe  Fe82  1  0.87542514  0.87750598  0.12136419  1
  Fe  Fe83  1  -0.00085154  0.49979142  0.25025644  1
  Fe  Fe84  1  0.75131159  0.50069840  0.50136602  1
  Fe  Fe85  1  0.50365509  0.75316872  0.24840830  1
  Fe  Fe86  1  0.49925141  0.24901560  0.50303670  1
  Fe  Fe87  1  0.87531809  0.37489592  0.37691781  1
  Fe  Fe88  1  0.87217879  0.87420514  0.37625645  1
  Fe  Fe89  1  0.25025082  0.75276994  0.74831256  1
  Co  Co90  1  0.74854005  0.49782710  0.25309808  1
  Co  Co91  1  0.00139568  0.50394108  0.75170878  1
  Co  Co92  1  0.24949649  0.00021042  0.74917397  1
  Co  Co93  1  -0.00488862  0.24359866  0.49854451  1
  Co  Co94  1  0.74904753  0.00308094  -0.00208106  1
  Co  Co95  1  0.86956954  0.12309141  0.37194153  1
  Co  Co96  1  0.74976051  0.25631548  0.74749685  1
  Co  Co97  1  0.62537638  0.37618258  0.62208458  1
  Co  Co98  1  0.75128759  0.74960416  0.50215259  1
  Co  Co99  1  0.24884498  0.24849489  0.50365707  1
  Co  Co100  1  0.37409435  0.37480226  0.62610371  1
  Co  Co101  1  0.87882097  0.87539627  0.62333939  1
  Co  Co102  1  0.62734455  0.87618602  0.37799715  1
  Co  Co103  1  0.12624025  0.87299032  0.87565041  1
  Co  Co104  1  0.12509461  0.62826500  0.62477120  1
  Co  Co105  1  0.12153808  0.12415486  0.12741083  1
  Co  Co106  1  0.62569599  0.12165523  0.12663564  1
  Co  Co107  1  0.00007230  0.74859280  0.00230129  1
  Co  Co108  1  0.50121070  0.00231072  0.25420696  1
  Co  Co109  1  0.37602414  0.87559303  0.62520755  1
  Co  Co110  1  0.12571349  0.12528474  0.87214383  1
  Co  Co111  1  0.75198929  0.49980929  -0.00461186  1
  Co  Co112  1  0.62483166  0.87506187  0.87912406  1
  Co  Co113  1  0.87604778  0.87420596  0.87939179  1
  Co  Co114  1  0.87357292  0.12208816  0.63217936  1
  Co  Co115  1  0.74889494  -0.01013722  0.74910464  1
  Co  Co116  1  -0.00206221  -0.00135209  0.25315682  1
  Co  Co117  1  0.37483273  0.12603244  0.37790542  1
  Co  Co118  1  0.62700890  0.62168573  0.12354756  1
  Co  Co119  1  0.62285632  0.87380993  0.62162717  1
  Co  Co120  1  0.25101524  0.75312718  0.24777456  1
  Co  Co121  1  0.37666979  0.12236959  0.12204493  1
  Co  Co122  1  0.88112471  0.37670833  0.62563175  1
  Co  Co123  1  0.62918197  0.12492913  0.86830484  1
  Co  Co124  1  0.50327330  0.00483495  -0.00518991  1
  Co  Co125  1  0.62248426  0.87999246  0.12126343  1
  Co  Co126  1  -0.00174609  0.24711004  0.75155963  1
  Co  Co127  1  0.49904116  0.50063717  -0.00029785  1
