# generated using pymatgen
data_Fe45Co19
_symmetry_space_group_name_H-M   'P 1'
_cell_length_a   11.41574749
_cell_length_b   11.41587839
_cell_length_c   11.41446971
_cell_angle_alpha   89.99315831
_cell_angle_beta   89.99510267
_cell_angle_gamma   89.99459443
_symmetry_Int_Tables_number   1
_chemical_formula_structural   Fe45Co19
_chemical_formula_sum   'Fe90 Co38'
_cell_volume   1487.54263201
_cell_formula_units_Z   2
loop_
 _symmetry_equiv_pos_site_id
 _symmetry_equiv_pos_as_xyz
  1  'x, y, z'
loop_
 _atom_site_type_symbol
 _atom_site_label
 _atom_site_symmetry_multiplicity
 _atom_site_fract_x
 _atom_site_fract_y
 _atom_site_fract_z
 _atom_site_occupancy
  Fe  Fe0  1  -0.00112750  0.00161605  0.50011115  1
  Fe  Fe1  1  0.25263455  0.25158643  0.74962491  1
  Fe  Fe2  1  0.50229531  0.49965840  0.25332750  1
  Fe  Fe3  1  0.49870701  -0.00140747  0.50254322  1
  Fe  Fe4  1  0.87655301  0.37360617  0.87464607  1
  Fe  Fe5  1  0.49800333  0.25150615  0.74599124  1
  Fe  Fe6  1  0.87651823  0.87333506  0.87644777  1
  Fe  Fe7  1  0.12384736  0.87137613  0.37664851  1
  Fe  Fe8  1  0.74979368  0.00253443  0.49700483  1
  Fe  Fe9  1  0.87551709  0.87502470  0.37545965  1
  Fe  Fe10  1  0.12691483  0.12739326  0.87515611  1
  Fe  Fe11  1  0.87270419  0.12378328  0.12652235  1
  Fe  Fe12  1  0.74715088  -0.00066237  -0.00225951  1
  Fe  Fe13  1  0.74692667  0.74949762  0.50100417  1
  Fe  Fe14  1  0.25539117  -0.00017863  0.75452256  1
  Fe  Fe15  1  0.50065734  0.50073712  0.74961412  1
  Fe  Fe16  1  0.24825808  0.50247301  0.48915245  1
  Fe  Fe17  1  0.25119741  0.74851597  0.00041219  1
  Fe  Fe18  1  0.74787161  0.25048877  0.00097514  1
  Fe  Fe19  1  0.74825353  0.49968517  0.75277838  1
  Fe  Fe20  1  0.12544386  0.37689630  0.87719961  1
  Fe  Fe21  1  0.49931513  0.24996971  0.50224475  1
  Fe  Fe22  1  0.12548250  0.87199701  0.87442619  1
  Fe  Fe23  1  0.50071868  0.75031617  0.24660766  1
  Fe  Fe24  1  0.37732150  0.87035066  0.37775117  1
  Fe  Fe25  1  0.12569750  0.62490686  0.62022979  1
  Fe  Fe26  1  0.50113503  0.50563567  0.49614823  1
  Fe  Fe27  1  0.37205158  0.37868338  0.12791277  1
  Fe  Fe28  1  0.25048992  0.74877236  0.74696917  1
  Fe  Fe29  1  0.74778994  0.00026982  0.25246980  1
  Fe  Fe30  1  0.00163240  -0.00110606  0.24972824  1
  Fe  Fe31  1  0.74851220  0.49789078  0.25570305  1
  Fe  Fe32  1  0.49895098  0.50222063  0.00005566  1
  Fe  Fe33  1  0.74793242  -0.00095662  0.75403918  1
  Fe  Fe34  1  0.37660830  0.62758964  0.87281270  1
  Fe  Fe35  1  0.25151388  0.00092433  0.49595122  1
  Fe  Fe36  1  0.13142952  0.12240789  0.12676361  1
  Fe  Fe37  1  0.37773715  0.12605688  0.37405793  1
  Fe  Fe38  1  0.49956911  0.74815028  0.74083482  1
  Fe  Fe39  1  0.87455267  0.62286793  0.12491681  1
  Fe  Fe40  1  0.00174347  0.50109936  0.74914262  1
  Fe  Fe41  1  0.12688813  0.37674782  0.62144154  1
  Fe  Fe42  1  0.13048653  0.37922903  0.12617499  1
  Fe  Fe43  1  0.00243129  0.49903785  0.25290601  1
  Fe  Fe44  1  0.49946497  0.24988597  0.00425578  1
  Fe  Fe45  1  0.24945690  0.50141616  0.75209885  1
  Fe  Fe46  1  0.00208751  0.25145021  0.00421855  1
  Fe  Fe47  1  0.87407795  0.37587408  0.62421743  1
  Fe  Fe48  1  0.49605731  -0.00044759  0.75068430  1
  Fe  Fe49  1  0.87497729  0.87667101  0.12349291  1
  Fe  Fe50  1  0.62171596  0.12760090  0.87486747  1
  Fe  Fe51  1  0.75004070  0.24780643  0.49844778  1
  Fe  Fe52  1  0.12213781  0.12935195  0.37236772  1
  Fe  Fe53  1  0.88041315  0.36994969  0.37622925  1
  Fe  Fe54  1  0.62731577  0.62316155  0.12544089  1
  Fe  Fe55  1  0.87331708  0.12459617  0.62826915  1
  Fe  Fe56  1  0.37509705  0.37382272  0.87591494  1
  Fe  Fe57  1  0.62665073  0.37834854  0.62203574  1
  Fe  Fe58  1  0.87736863  0.62538376  0.87588528  1
  Fe  Fe59  1  0.74756399  0.74929686  0.75089224  1
  Fe  Fe60  1  0.00028836  -0.00040217  0.74975869  1
  Fe  Fe61  1  0.87346052  0.62348303  0.62300633  1
  Fe  Fe62  1  0.00102169  0.74918969  0.00240898  1
  Fe  Fe63  1  0.37325360  0.37997661  0.62112058  1
  Fe  Fe64  1  0.12673803  0.62162503  0.12495032  1
  Fe  Fe65  1  0.62492493  0.87510521  0.12149104  1
  Fe  Fe66  1  0.49989144  -0.00063905  0.24832931  1
  Fe  Fe67  1  0.62476859  0.12346257  0.62599062  1
  Fe  Fe68  1  0.37143839  0.87814611  0.12293709  1
  Fe  Fe69  1  0.00336935  0.00024422  0.00062606  1
  Fe  Fe70  1  0.12831741  0.87642840  0.62279596  1
  Fe  Fe71  1  -0.00047358  0.75105307  0.24786396  1
  Fe  Fe72  1  0.87271049  0.37641999  0.12548763  1
  Fe  Fe73  1  0.25164582  0.25040422  0.49711647  1
  Fe  Fe74  1  0.37076253  0.12154468  0.12348391  1
  Fe  Fe75  1  0.50035087  0.25025692  0.24753196  1
  Fe  Fe76  1  0.24882696  0.75018857  0.25157342  1
  Fe  Fe77  1  0.37173495  0.62072358  0.13010101  1
  Fe  Fe78  1  0.00110633  0.74934139  0.74660089  1
  Fe  Fe79  1  0.74875634  0.50141500  -0.00267596  1
  Fe  Fe80  1  0.87259080  0.87624719  0.62545726  1
  Fe  Fe81  1  0.00173354  0.25109362  0.74755175  1
  Fe  Fe82  1  0.62321411  0.37424092  0.87594741  1
  Fe  Fe83  1  0.61952568  0.86921015  0.87767695  1
  Fe  Fe84  1  0.87595531  0.12747751  0.87501980  1
  Fe  Fe85  1  0.75037803  0.75134460  0.24837953  1
  Fe  Fe86  1  0.62219476  0.87293203  0.37671907  1
  Fe  Fe87  1  0.12899587  0.12376654  0.62606707  1
  Fe  Fe88  1  0.74564924  0.24971158  0.25218526  1
  Fe  Fe89  1  0.87694574  0.62682709  0.37658912  1
  Co  Co90  1  0.49608868  0.74611836  0.00687954  1
  Co  Co91  1  0.75083249  0.74856744  0.00092058  1
  Co  Co92  1  0.62028655  0.12456920  0.37498758  1
  Co  Co93  1  0.24686766  0.49982313  0.26053659  1
  Co  Co94  1  0.62493759  0.62919143  0.37286145  1
  Co  Co95  1  0.12006663  0.36822970  0.37502110  1
  Co  Co96  1  0.87854642  0.12730401  0.37065645  1
  Co  Co97  1  0.75179390  0.49906024  0.49469280  1
  Co  Co98  1  0.62614081  0.87818363  0.62503459  1
  Co  Co99  1  0.37907123  0.37479633  0.37477427  1
  Co  Co100  1  0.37827788  0.86873971  0.87491912  1
  Co  Co101  1  0.37337068  0.12467576  0.62441322  1
  Co  Co102  1  -0.00265350  0.75244361  0.50348007  1
  Co  Co103  1  0.37138839  0.87612197  0.62302641  1
  Co  Co104  1  0.12036515  0.63101705  0.37596285  1
  Co  Co105  1  0.62886296  0.61966208  0.62468673  1
  Co  Co106  1  0.62587891  0.12315440  0.12587837  1
  Co  Co107  1  0.62108137  0.62817176  0.87555202  1
  Co  Co108  1  0.74801702  0.25139569  0.74894408  1
  Co  Co109  1  0.37891212  0.62987269  0.37261096  1
  Co  Co110  1  0.37154988  0.62003503  0.62321099  1
  Co  Co111  1  0.62195718  0.37306594  0.37715317  1
  Co  Co112  1  0.12435995  0.62567321  0.87655419  1
  Co  Co113  1  0.00084972  0.49935476  0.49853108  1
  Co  Co114  1  0.62545242  0.37805378  0.12526481  1
  Co  Co115  1  -0.00034211  0.24683484  0.50618275  1
  Co  Co116  1  0.12765149  0.87552869  0.12549989  1
  Co  Co117  1  0.49894084  0.00071182  -0.00114657  1
  Co  Co118  1  0.00174994  0.25094415  0.24179201  1
  Co  Co119  1  0.25032304  0.25237755  0.00133466  1
  Co  Co120  1  0.25295700  0.74726388  0.49906755  1
  Co  Co121  1  0.25331147  0.25171484  0.25175489  1
  Co  Co122  1  0.50183687  0.74681595  0.50646348  1
  Co  Co123  1  0.37558363  0.12934591  0.87769985  1
  Co  Co124  1  0.25072264  -0.00182829  0.25618486  1
  Co  Co125  1  0.25037790  -0.00281603  -0.00597742  1
  Co  Co126  1  0.25380772  0.50188047  -0.00352739  1
  Co  Co127  1  -0.00054291  0.49843160  0.00053829  1
