# generated using pymatgen
data_Fe45Co19
_symmetry_space_group_name_H-M   'P 1'
_cell_length_a   11.41556117
_cell_length_b   11.41473460
_cell_length_c   11.41549267
_cell_angle_alpha   90.00794881
_cell_angle_beta   89.99819998
_cell_angle_gamma   89.99960149
_symmetry_Int_Tables_number   1
_chemical_formula_structural   Fe45Co19
_chemical_formula_sum   'Fe90 Co38'
_cell_volume   1487.50261790
_cell_formula_units_Z   2
loop_
 _symmetry_equiv_pos_site_id
 _symmetry_equiv_pos_as_xyz
  1  'x, y, z'
loop_
 _atom_site_type_symbol
 _atom_site_label
 _atom_site_symmetry_multiplicity
 _atom_site_fract_x
 _atom_site_fract_y
 _atom_site_fract_z
 _atom_site_occupancy
  Fe  Fe0  1  0.12236986  0.62739729  0.12571244  1
  Fe  Fe1  1  0.49801692  0.25275971  0.00211042  1
  Fe  Fe2  1  0.62652241  0.12589744  0.12616797  1
  Fe  Fe3  1  0.62410464  0.12649148  0.87389455  1
  Fe  Fe4  1  0.00237780  0.50015975  0.74932191  1
  Fe  Fe5  1  0.87461738  0.12679518  0.62545034  1
  Fe  Fe6  1  0.37420669  0.37458681  0.37330574  1
  Fe  Fe7  1  0.50048439  -0.00034830  0.00073870  1
  Fe  Fe8  1  0.74950882  0.25476364  0.25365075  1
  Fe  Fe9  1  0.62132651  0.62381337  0.87264006  1
  Fe  Fe10  1  0.87540541  0.87305792  0.62347949  1
  Fe  Fe11  1  0.37565065  0.87652454  0.37524368  1
  Fe  Fe12  1  -0.00021899  0.25247212  0.00212644  1
  Fe  Fe13  1  0.62178877  0.12435800  0.37379145  1
  Fe  Fe14  1  0.37503838  0.12365515  0.12683808  1
  Fe  Fe15  1  0.62657458  0.12721824  0.62631419  1
  Fe  Fe16  1  0.37064465  0.12263454  0.62372124  1
  Fe  Fe17  1  0.74966265  0.50092575  -0.00006546  1
  Fe  Fe18  1  0.37316744  0.87626291  0.12529865  1
  Fe  Fe19  1  0.62652756  0.87486810  0.12471301  1
  Fe  Fe20  1  0.87543277  0.37698366  0.87457682  1
  Fe  Fe21  1  0.49682730  0.75002145  0.00011944  1
  Fe  Fe22  1  0.74845067  0.50100588  0.74843333  1
  Fe  Fe23  1  0.37450680  0.62197711  0.62662591  1
  Fe  Fe24  1  0.24942307  0.50192811  0.49582005  1
  Fe  Fe25  1  -0.00048098  0.25151443  0.74862973  1
  Fe  Fe26  1  0.25093068  0.25255483  0.00415574  1
  Fe  Fe27  1  0.00160104  0.25026091  0.50082536  1
  Fe  Fe28  1  0.62593064  0.62409774  0.12729751  1
  Fe  Fe29  1  0.00389973  0.00057112  0.75054829  1
  Fe  Fe30  1  0.37627003  0.62422552  0.12815690  1
  Fe  Fe31  1  0.87604508  0.62277077  0.12709341  1
  Fe  Fe32  1  0.49794371  0.49838521  0.00053437  1
  Fe  Fe33  1  0.87422896  0.37941653  0.12726067  1
  Fe  Fe34  1  0.37524670  0.12517063  0.87533119  1
  Fe  Fe35  1  0.37017432  0.87786857  0.62595055  1
  Fe  Fe36  1  0.49986569  -0.00120457  0.50071539  1
  Fe  Fe37  1  0.24888528  0.24512216  0.49524941  1
  Fe  Fe38  1  0.74892989  -0.00087959  0.74997740  1
  Fe  Fe39  1  0.62618329  0.86994884  0.62143856  1
  Fe  Fe40  1  -0.00059391  -0.00262939  0.24810343  1
  Fe  Fe41  1  0.50331982  0.49705625  0.24986954  1
  Fe  Fe42  1  0.12437888  0.87309729  0.37488567  1
  Fe  Fe43  1  0.87844320  0.62492511  0.37365381  1
  Fe  Fe44  1  0.49848501  -0.00081936  0.74949744  1
  Fe  Fe45  1  0.00314847  0.00128345  0.50191911  1
  Fe  Fe46  1  0.49882393  0.25048154  0.50211301  1
  Fe  Fe47  1  -0.00083015  0.25251627  0.24869389  1
  Fe  Fe48  1  0.49639636  0.25428164  0.74777940  1
  Fe  Fe49  1  0.74908792  0.00138978  0.49984602  1
  Fe  Fe50  1  0.12833520  0.37590642  0.62365406  1
  Fe  Fe51  1  0.12652521  0.37365435  0.37028485  1
  Fe  Fe52  1  0.49902868  0.25245163  0.24796080  1
  Fe  Fe53  1  0.12490611  0.12516934  0.12709054  1
  Fe  Fe54  1  0.87566795  0.12224825  0.87634934  1
  Fe  Fe55  1  0.75047554  0.74839238  -0.00131067  1
  Fe  Fe56  1  0.50013507  0.75332851  0.25094551  1
  Fe  Fe57  1  0.12701291  0.87213526  0.12480075  1
  Fe  Fe58  1  0.49636569  0.74988756  0.74896609  1
  Fe  Fe59  1  0.62331188  0.87377155  0.87577443  1
  Fe  Fe60  1  0.87403718  0.12266365  0.12358699  1
  Fe  Fe61  1  0.25143040  0.74875766  0.49991617  1
  Fe  Fe62  1  0.25007014  0.50208601  0.00305181  1
  Fe  Fe63  1  0.75032955  0.75022087  0.25279278  1
  Fe  Fe64  1  0.25152537  0.25093560  0.74924216  1
  Fe  Fe65  1  0.74868259  -0.00164892  0.25199483  1
  Fe  Fe66  1  0.87425108  0.87656969  0.12086882  1
  Fe  Fe67  1  0.87242308  0.37457649  0.62157988  1
  Fe  Fe68  1  0.75053880  0.74896497  0.74972717  1
  Fe  Fe69  1  0.87813565  0.62437975  0.87557626  1
  Fe  Fe70  1  0.50092986  0.50081694  0.50207541  1
  Fe  Fe71  1  0.87610392  0.87382613  0.37832008  1
  Fe  Fe72  1  0.12622512  0.37643147  0.87693732  1
  Fe  Fe73  1  0.12890608  0.87506959  0.62509797  1
  Fe  Fe74  1  0.24921693  -0.00039968  -0.00216660  1
  Fe  Fe75  1  0.12488798  0.12812885  0.87541982  1
  Fe  Fe76  1  0.37700602  0.62463451  0.37220286  1
  Fe  Fe77  1  0.87605351  0.62472910  0.62243503  1
  Fe  Fe78  1  0.00292235  0.50001967  0.49827888  1
  Fe  Fe79  1  0.75114716  0.25057413  -0.00111386  1
  Fe  Fe80  1  0.25084581  0.50115525  0.75165962  1
  Fe  Fe81  1  0.87733503  0.12566710  0.37518900  1
  Fe  Fe82  1  0.00342220  0.74668910  0.74800529  1
  Fe  Fe83  1  0.12812841  0.86913675  0.87603373  1
  Fe  Fe84  1  0.62816168  0.37403896  0.62368916  1
  Fe  Fe85  1  0.87674968  0.87610773  0.87683383  1
  Fe  Fe86  1  0.62414222  0.37514733  0.87475620  1
  Fe  Fe87  1  0.74701733  0.50306959  0.49592082  1
  Fe  Fe88  1  0.25075178  0.00268436  0.25413507  1
  Fe  Fe89  1  0.12353925  0.62892940  0.37287035  1
  Co  Co90  1  0.87695350  0.37601034  0.37683764  1
  Co  Co91  1  0.50078626  -0.00258465  0.24881923  1
  Co  Co92  1  0.38035341  0.12466473  0.37469426  1
  Co  Co93  1  -0.00241729  0.75213833  0.24847978  1
  Co  Co94  1  0.24764810  0.00266554  0.49446109  1
  Co  Co95  1  0.00266555  0.74896697  0.50220901  1
  Co  Co96  1  -0.00156053  0.74980691  0.00070935  1
  Co  Co97  1  0.49868956  0.49503278  0.74677498  1
  Co  Co98  1  0.37250052  0.37714165  0.12868090  1
  Co  Co99  1  0.36932531  0.37600587  0.62042954  1
  Co  Co100  1  0.00506720  -0.00073031  -0.00025705  1
  Co  Co101  1  0.74923867  0.24799381  0.49582723  1
  Co  Co102  1  0.62333090  0.62748501  0.62554008  1
  Co  Co103  1  0.37694282  0.62293246  0.87357357  1
  Co  Co104  1  0.00109460  0.49897196  0.00080763  1
  Co  Co105  1  0.24829949  0.00176158  0.75458614  1
  Co  Co106  1  0.62064966  0.62828453  0.37422258  1
  Co  Co107  1  0.25185850  0.74931651  0.25085637  1
  Co  Co108  1  0.37376276  0.87470327  0.87473842  1
  Co  Co109  1  0.00272248  0.49983850  0.25143585  1
  Co  Co110  1  0.12639838  0.37511097  0.12778723  1
  Co  Co111  1  0.37284055  0.37582455  0.87729338  1
  Co  Co112  1  0.75154463  0.25028799  0.75195493  1
  Co  Co113  1  0.12720119  0.12530077  0.62612414  1
  Co  Co114  1  0.62391162  0.87332928  0.37821250  1
  Co  Co115  1  0.12505485  0.62551737  0.87772537  1
  Co  Co116  1  0.12746754  0.62258599  0.62361394  1
  Co  Co117  1  0.74654720  0.00068775  -0.00171870  1
  Co  Co118  1  0.75127749  0.74594800  0.49721551  1
  Co  Co119  1  0.25085357  0.74533133  0.74895676  1
  Co  Co120  1  0.74752439  0.49916474  0.25465548  1
  Co  Co121  1  0.25444238  0.74640164  0.00146210  1
  Co  Co122  1  0.24775080  0.50313256  0.24968930  1
  Co  Co123  1  0.25217351  0.24695856  0.25129899  1
  Co  Co124  1  0.62122814  0.37462022  0.37747875  1
  Co  Co125  1  0.62674083  0.37605603  0.12328701  1
  Co  Co126  1  0.49435748  0.74950258  0.50129384  1
  Co  Co127  1  0.11936288  0.12531102  0.37125533  1
