# generated using pymatgen
data_Fe45Co19
_symmetry_space_group_name_H-M   'P 1'
_cell_length_a   11.41591456
_cell_length_b   11.41490229
_cell_length_c   11.41617245
_cell_angle_alpha   89.99729703
_cell_angle_beta   90.00184796
_cell_angle_gamma   90.01037769
_symmetry_Int_Tables_number   1
_chemical_formula_structural   Fe45Co19
_chemical_formula_sum   'Fe90 Co38'
_cell_volume   1487.65909108
_cell_formula_units_Z   2
loop_
 _symmetry_equiv_pos_site_id
 _symmetry_equiv_pos_as_xyz
  1  'x, y, z'
loop_
 _atom_site_type_symbol
 _atom_site_label
 _atom_site_symmetry_multiplicity
 _atom_site_fract_x
 _atom_site_fract_y
 _atom_site_fract_z
 _atom_site_occupancy
  Fe  Fe0  1  0.62603162  0.37619417  0.62287977  1
  Fe  Fe1  1  0.87363748  0.87438325  0.62326914  1
  Fe  Fe2  1  0.12084286  0.12416179  0.12417888  1
  Fe  Fe3  1  0.49740075  0.74919582  0.24807972  1
  Fe  Fe4  1  0.49708470  0.74823051  0.00029789  1
  Fe  Fe5  1  0.74998285  0.74888697  0.74997785  1
  Fe  Fe6  1  0.12681655  0.87915883  0.87899389  1
  Fe  Fe7  1  0.24757852  0.25203480  0.24865151  1
  Fe  Fe8  1  0.12391526  0.37442598  0.87681595  1
  Fe  Fe9  1  0.25059018  0.24692087  -0.00192963  1
  Fe  Fe10  1  0.12513755  0.12502872  0.37531835  1
  Fe  Fe11  1  -0.00076451  0.74903017  0.49823073  1
  Fe  Fe12  1  0.62651290  0.87507791  0.37483459  1
  Fe  Fe13  1  0.87275790  0.87728194  0.87657529  1
  Fe  Fe14  1  0.25223052  0.74731612  0.50082175  1
  Fe  Fe15  1  0.75001872  0.50250067  0.74978585  1
  Fe  Fe16  1  0.37327216  0.87516335  0.37358159  1
  Fe  Fe17  1  -0.00138845  0.25090620  0.49914526  1
  Fe  Fe18  1  0.87696576  0.12455655  0.62721836  1
  Fe  Fe19  1  0.12341422  0.62490086  0.62761006  1
  Fe  Fe20  1  -0.00036807  -0.00068418  0.49824469  1
  Fe  Fe21  1  0.50079233  0.25055736  0.49808037  1
  Fe  Fe22  1  0.75057725  0.74930878  0.00218293  1
  Fe  Fe23  1  0.62663967  0.12505439  0.87673534  1
  Fe  Fe24  1  0.12692689  0.62391751  0.37469215  1
  Fe  Fe25  1  0.37346790  0.12451385  0.37367275  1
  Fe  Fe26  1  0.50156936  0.00032945  0.74898378  1
  Fe  Fe27  1  0.49687697  0.74745249  0.49827799  1
  Fe  Fe28  1  0.24972104  0.74905885  0.75171130  1
  Fe  Fe29  1  0.62559746  0.87382637  0.62241319  1
  Fe  Fe30  1  0.75266909  0.24681970  0.00276562  1
  Fe  Fe31  1  -0.00069865  0.49846714  0.75335891  1
  Fe  Fe32  1  0.25163311  0.74878976  0.00083671  1
  Fe  Fe33  1  0.74837036  0.74843988  0.24840282  1
  Fe  Fe34  1  0.37628172  0.37174141  0.62841703  1
  Fe  Fe35  1  0.87796197  0.62539059  0.12652294  1
  Fe  Fe36  1  0.74994907  0.00069450  0.24492998  1
  Fe  Fe37  1  0.49990527  0.00087021  0.49912267  1
  Fe  Fe38  1  0.37331117  0.37568348  0.37448666  1
  Fe  Fe39  1  -0.00064180  0.50089693  0.49960652  1
  Fe  Fe40  1  0.11929168  0.12351486  0.87174822  1
  Fe  Fe41  1  0.24982730  0.50053603  -0.00089018  1
  Fe  Fe42  1  0.62174143  0.62398985  0.12442480  1
  Fe  Fe43  1  0.75129717  0.24969859  0.75010589  1
  Fe  Fe44  1  0.00373066  0.49661822  0.24903823  1
  Fe  Fe45  1  0.37679851  0.37456214  0.12368067  1
  Fe  Fe46  1  0.87563883  0.62239517  0.37143962  1
  Fe  Fe47  1  0.62676451  0.37395752  0.87734644  1
  Fe  Fe48  1  0.12519993  0.87549755  0.62304248  1
  Fe  Fe49  1  0.12458600  0.62360425  0.12296154  1
  Fe  Fe50  1  0.00054048  0.75224649  0.75234027  1
  Fe  Fe51  1  0.75322464  0.00287224  0.00628089  1
  Fe  Fe52  1  0.25268491  0.50198713  0.50228584  1
  Fe  Fe53  1  0.00278682  0.25394873  0.25199846  1
  Fe  Fe54  1  0.37592908  0.87495765  0.62561151  1
  Fe  Fe55  1  0.50015831  0.74888447  0.75285524  1
  Fe  Fe56  1  0.49929921  0.00193156  0.00218369  1
  Fe  Fe57  1  0.87377860  0.12528372  0.37174942  1
  Fe  Fe58  1  0.37662942  0.37251272  0.87416824  1
  Fe  Fe59  1  0.37397951  0.87691168  0.87647719  1
  Fe  Fe60  1  0.75167083  0.74583833  0.49919450  1
  Fe  Fe61  1  0.37802757  0.12745255  0.87042381  1
  Fe  Fe62  1  0.24932527  0.50043622  0.75206872  1
  Fe  Fe63  1  0.62344208  0.62457191  0.62414962  1
  Fe  Fe64  1  0.24782723  0.49712245  0.24792736  1
  Fe  Fe65  1  0.62857792  0.12699885  0.37323043  1
  Fe  Fe66  1  0.37674345  0.12604456  0.12709351  1
  Fe  Fe67  1  0.62124207  0.37182930  0.12575019  1
  Fe  Fe68  1  0.25004484  0.24775487  0.50272074  1
  Fe  Fe69  1  0.24901973  0.75231419  0.24677318  1
  Fe  Fe70  1  0.25048588  0.00284622  0.50347400  1
  Fe  Fe71  1  0.62521079  0.12554103  0.62293198  1
  Fe  Fe72  1  0.62811303  0.37621656  0.37477660  1
  Fe  Fe73  1  -0.00367537  0.24982849  -0.00392191  1
  Fe  Fe74  1  0.87343545  0.37648584  0.62468912  1
  Fe  Fe75  1  0.87167548  0.37658164  0.37413914  1
  Fe  Fe76  1  0.50105316  0.50139501  0.75293568  1
  Fe  Fe77  1  0.12479846  0.37282947  0.62507359  1
  Fe  Fe78  1  0.87703015  0.37455227  0.12458197  1
  Fe  Fe79  1  0.62375534  0.62059617  0.37526956  1
  Fe  Fe80  1  0.24935317  0.00379348  0.74784381  1
  Fe  Fe81  1  0.00057169  0.75089317  -0.00057390  1
  Fe  Fe82  1  0.24617093  -0.00240334  0.24744578  1
  Fe  Fe83  1  0.74959597  0.50103050  0.00346755  1
  Fe  Fe84  1  0.87473827  0.62310560  0.87563238  1
  Fe  Fe85  1  0.74927011  -0.00097682  0.74839722  1
  Fe  Fe86  1  0.87278376  0.87530561  0.37274568  1
  Fe  Fe87  1  0.62597819  0.87549122  0.87870697  1
  Fe  Fe88  1  0.00508357  0.75481335  0.25011851  1
  Fe  Fe89  1  0.50169209  -0.00065438  0.24873746  1
  Co  Co90  1  0.37598178  0.62460027  0.62885637  1
  Co  Co91  1  0.87067325  0.37747125  0.87717264  1
  Co  Co92  1  0.37220721  0.62387417  0.37151633  1
  Co  Co93  1  0.87600838  0.87277547  0.12692323  1
  Co  Co94  1  0.50082909  0.49971675  -0.00201243  1
  Co  Co95  1  0.75149578  0.25000483  0.50092350  1
  Co  Co96  1  0.12567802  0.87874948  0.11834942  1
  Co  Co97  1  0.37414628  0.62114353  0.12521290  1
  Co  Co98  1  0.75081059  0.25118733  0.24690255  1
  Co  Co99  1  0.74916148  0.49953711  0.24631288  1
  Co  Co100  1  0.49694186  0.49900944  0.49955079  1
  Co  Co101  1  0.12861162  0.87516239  0.37908223  1
  Co  Co102  1  0.62437643  0.87357450  0.12339859  1
  Co  Co103  1  0.12425078  0.37260904  0.11907066  1
  Co  Co104  1  0.00249543  -0.00442485  0.25175421  1
  Co  Co105  1  0.11940448  0.12724025  0.62640030  1
  Co  Co106  1  -0.00081402  0.50032820  -0.00003267  1
  Co  Co107  1  0.12755514  0.37532906  0.37976242  1
  Co  Co108  1  0.49881114  0.24888636  -0.00115505  1
  Co  Co109  1  0.49888448  0.25133182  0.25356071  1
  Co  Co110  1  0.37844412  0.12864576  0.62652261  1
  Co  Co111  1  0.75169359  0.50317462  0.50051927  1
  Co  Co112  1  0.87452095  0.12288059  0.87142533  1
  Co  Co113  1  0.37456172  0.87754989  0.12377598  1
  Co  Co114  1  0.24670340  0.24806822  0.75141916  1
  Co  Co115  1  0.50595926  0.25037102  0.75051236  1
  Co  Co116  1  0.88130959  0.12667417  0.12974433  1
  Co  Co117  1  -0.00506912  0.00006961  0.00053580  1
  Co  Co118  1  0.62686152  0.62580853  0.87651362  1
  Co  Co119  1  0.62203291  0.12847332  0.12604219  1
  Co  Co120  1  0.75103507  0.00050600  0.49977820  1
  Co  Co121  1  0.25229648  0.00684781  -0.00137281  1
  Co  Co122  1  0.37452401  0.62441918  0.87507941  1
  Co  Co123  1  0.49981556  0.49872268  0.25075370  1
  Co  Co124  1  -0.00026975  -0.00524466  0.74936768  1
  Co  Co125  1  0.12395050  0.62440657  0.87570950  1
  Co  Co126  1  -0.00302819  0.25534713  0.75199740  1
  Co  Co127  1  0.87764144  0.62514433  0.62769384  1
