# generated using pymatgen
data_Fe45Co19
_symmetry_space_group_name_H-M   'P 1'
_cell_length_a   11.40882769
_cell_length_b   11.40468137
_cell_length_c   11.40471404
_cell_angle_alpha   90.01146428
_cell_angle_beta   90.00658008
_cell_angle_gamma   89.99217874
_symmetry_Int_Tables_number   1
_chemical_formula_structural   Fe45Co19
_chemical_formula_sum   'Fe90 Co38'
_cell_volume   1483.91341855
_cell_formula_units_Z   2
loop_
 _symmetry_equiv_pos_site_id
 _symmetry_equiv_pos_as_xyz
  1  'x, y, z'
loop_
 _atom_site_type_symbol
 _atom_site_label
 _atom_site_symmetry_multiplicity
 _atom_site_fract_x
 _atom_site_fract_y
 _atom_site_fract_z
 _atom_site_occupancy
  Fe  Fe0  1  0.62688392  0.12354807  0.62695947  1
  Fe  Fe1  1  0.50668073  -0.00674085  0.75139049  1
  Fe  Fe2  1  0.12417630  0.62791944  0.62634925  1
  Fe  Fe3  1  0.12524477  0.62614318  0.37379311  1
  Fe  Fe4  1  0.62630218  0.37330752  0.37729265  1
  Fe  Fe5  1  0.49836610  0.49822694  0.25038958  1
  Fe  Fe6  1  0.24878351  0.74998580  0.00070111  1
  Fe  Fe7  1  0.87653154  0.62334515  0.87668959  1
  Fe  Fe8  1  0.75133998  0.74851300  0.24798026  1
  Fe  Fe9  1  0.62030223  0.62957782  0.62415383  1
  Fe  Fe10  1  0.25212549  0.75081006  0.74987941  1
  Fe  Fe11  1  0.87148802  0.87207343  0.87409146  1
  Fe  Fe12  1  0.24882084  0.75527983  0.50221713  1
  Fe  Fe13  1  0.62394945  0.37715765  0.62522020  1
  Fe  Fe14  1  0.87341090  0.12808342  0.87081963  1
  Fe  Fe15  1  0.87751010  0.62179121  0.62207844  1
  Fe  Fe16  1  -0.00135320  0.75175141  0.24971824  1
  Fe  Fe17  1  0.37510600  0.87396803  0.87610893  1
  Fe  Fe18  1  0.62327884  0.62651483  0.37245464  1
  Fe  Fe19  1  0.74735997  0.50352974  0.74914123  1
  Fe  Fe20  1  0.00133516  0.49535133  0.24861131  1
  Fe  Fe21  1  0.50388757  -0.00349924  -0.00083112  1
  Fe  Fe22  1  0.49908684  0.25005314  0.74786786  1
  Fe  Fe23  1  0.00218816  -0.00402582  0.49912478  1
  Fe  Fe24  1  0.49862180  0.24773301  0.49952589  1
  Fe  Fe25  1  0.24942517  0.00215002  0.24914729  1
  Fe  Fe26  1  0.25038956  0.24890647  0.24749252  1
  Fe  Fe27  1  0.00222183  0.50032023  0.75134896  1
  Fe  Fe28  1  -0.00102122  -0.00048545  0.25248525  1
  Fe  Fe29  1  0.00149601  0.75385941  0.49919687  1
  Fe  Fe30  1  0.87462617  0.37800129  0.37905841  1
  Fe  Fe31  1  0.12733474  0.37391669  0.62806643  1
  Fe  Fe32  1  0.12326860  0.87306030  0.87309076  1
  Fe  Fe33  1  0.50065418  0.75257843  0.00379058  1
  Fe  Fe34  1  0.12316686  0.12460741  0.62680449  1
  Fe  Fe35  1  0.49952560  0.75513379  0.24754336  1
  Fe  Fe36  1  0.75064077  0.00172899  0.25114070  1
  Fe  Fe37  1  0.24936394  0.50045867  0.50047514  1
  Fe  Fe38  1  0.25180947  0.24841166  0.50352752  1
  Fe  Fe39  1  0.12064876  0.12605697  0.12439789  1
  Fe  Fe40  1  0.37325855  0.62618080  0.37470980  1
  Fe  Fe41  1  0.87685206  0.61926731  0.12287594  1
  Fe  Fe42  1  0.62515105  0.37451290  0.87347240  1
  Fe  Fe43  1  0.37826428  0.12320660  0.87404540  1
  Fe  Fe44  1  0.75023819  0.74782832  0.49956413  1
  Fe  Fe45  1  0.49932499  0.50063664  0.49803918  1
  Fe  Fe46  1  0.24818149  0.00138305  -0.00080644  1
  Fe  Fe47  1  0.37741436  0.62962752  0.62339568  1
  Fe  Fe48  1  0.49724901  0.50228910  0.75096607  1
  Fe  Fe49  1  -0.00224917  0.25250275  0.50478991  1
  Fe  Fe50  1  0.12714030  0.37367551  0.87356454  1
  Fe  Fe51  1  0.74850515  0.00217336  -0.00389327  1
  Fe  Fe52  1  0.25315760  0.50249231  0.74959160  1
  Fe  Fe53  1  0.50081510  -0.00010901  0.49699334  1
  Fe  Fe54  1  0.37535085  0.12113700  0.62511709  1
  Fe  Fe55  1  0.49935310  0.25187351  0.00084706  1
  Fe  Fe56  1  0.87263221  0.87439255  0.62808931  1
  Fe  Fe57  1  0.37804144  0.12214012  0.12585940  1
  Fe  Fe58  1  0.87244496  0.37594718  0.87294066  1
  Fe  Fe59  1  0.12330634  0.62121879  0.12339991  1
  Fe  Fe60  1  0.62104892  0.62695936  0.87684453  1
  Fe  Fe61  1  0.74841519  0.74590834  0.00391698  1
  Fe  Fe62  1  0.87799552  0.62198817  0.37737159  1
  Fe  Fe63  1  0.87587599  0.12583442  0.37790929  1
  Fe  Fe64  1  0.37710409  0.62284885  0.12400632  1
  Fe  Fe65  1  0.37445228  0.37478225  0.87367856  1
  Fe  Fe66  1  0.12320057  0.12827719  0.87287234  1
  Fe  Fe67  1  0.50061995  0.24700793  0.25269173  1
  Fe  Fe68  1  0.74851836  0.25025430  -0.00033149  1
  Fe  Fe69  1  0.87707924  0.12585816  0.12423759  1
  Fe  Fe70  1  0.75187870  0.24968781  0.25024980  1
  Fe  Fe71  1  0.62404565  0.12284135  0.12594191  1
  Fe  Fe72  1  0.62541304  0.37758617  0.12417054  1
  Fe  Fe73  1  0.75002221  0.50006028  0.25037676  1
  Fe  Fe74  1  -0.00128633  0.25432106  0.00042419  1
  Fe  Fe75  1  0.12350533  0.87718929  0.12456022  1
  Fe  Fe76  1  0.37143951  0.87820966  0.37489244  1
  Fe  Fe77  1  0.25020323  -0.00127864  0.74917339  1
  Fe  Fe78  1  0.62791902  0.87493376  0.37379347  1
  Fe  Fe79  1  0.25186305  0.49830023  0.00114128  1
  Fe  Fe80  1  0.75299434  0.25122013  0.50575822  1
  Fe  Fe81  1  0.25063092  0.75004831  0.24681495  1
  Fe  Fe82  1  0.12507759  0.12583709  0.37676065  1
  Fe  Fe83  1  0.75012179  -0.00055468  0.50111357  1
  Fe  Fe84  1  0.87428602  0.87710551  0.12296029  1
  Fe  Fe85  1  0.00119111  0.74946397  -0.00114185  1
  Fe  Fe86  1  0.12696978  0.37362453  0.37318941  1
  Fe  Fe87  1  0.37300279  0.37387387  0.37491744  1
  Fe  Fe88  1  -0.00202593  -0.00060898  0.75217838  1
  Fe  Fe89  1  0.25254044  0.24912759  0.00073884  1
  Co  Co90  1  0.37588594  0.37586797  0.62392978  1
  Co  Co91  1  0.87268435  0.87461198  0.37530589  1
  Co  Co92  1  0.74456532  0.50317086  0.49990524  1
  Co  Co93  1  0.74746202  0.50121873  -0.00168827  1
  Co  Co94  1  0.75124849  0.25082888  0.74536092  1
  Co  Co95  1  0.74623443  -0.00058113  0.75329005  1
  Co  Co96  1  0.49955603  0.75257291  0.49506670  1
  Co  Co97  1  -0.00312094  0.25232067  0.74693971  1
  Co  Co98  1  -0.00123502  0.00035110  -0.00412754  1
  Co  Co99  1  0.24742162  -0.00217707  0.50302967  1
  Co  Co100  1  -0.00261161  0.25209591  0.25078288  1
  Co  Co101  1  0.00134867  0.49560309  -0.00144108  1
  Co  Co102  1  0.62355173  0.12912742  0.87328142  1
  Co  Co103  1  0.87536498  0.12008194  0.62640523  1
  Co  Co104  1  0.87418157  0.38303462  0.62530558  1
  Co  Co105  1  0.37587728  0.62770627  0.87738900  1
  Co  Co106  1  0.37841526  0.87563816  0.62417759  1
  Co  Co107  1  0.49875774  0.49769494  -0.00110749  1
  Co  Co108  1  0.74987812  0.74567858  0.74786391  1
  Co  Co109  1  -0.00226481  0.74760888  0.75121683  1
  Co  Co110  1  0.62207921  0.62215366  0.12575563  1
  Co  Co111  1  0.12663880  0.62428660  0.87528011  1
  Co  Co112  1  0.37103869  0.12421640  0.37593486  1
  Co  Co113  1  0.12602084  0.37364990  0.12481264  1
  Co  Co114  1  0.37566119  0.37426224  0.12743966  1
  Co  Co115  1  0.12802205  0.87433582  0.37126741  1
  Co  Co116  1  0.87222062  0.37631947  0.12305402  1
  Co  Co117  1  0.00690978  0.49821109  0.49996037  1
  Co  Co118  1  0.50073539  -0.00020438  0.25370507  1
  Co  Co119  1  0.63000546  0.86862828  0.87708367  1
  Co  Co120  1  0.25007809  0.50050677  0.24906293  1
  Co  Co121  1  0.25351794  0.24711303  0.74952097  1
  Co  Co122  1  0.62929672  0.87748467  0.12611777  1
  Co  Co123  1  0.49974630  0.75349394  0.75231372  1
  Co  Co124  1  0.62958887  0.12612348  0.37698738  1
  Co  Co125  1  0.37288731  0.87817252  0.12414133  1
  Co  Co126  1  0.62698364  0.87197096  0.62253482  1
  Co  Co127  1  0.12185616  0.87463417  0.63007498  1
