# generated using pymatgen
data_Fe45Co19
_symmetry_space_group_name_H-M   'P 1'
_cell_length_a   11.41631758
_cell_length_b   11.41519597
_cell_length_c   11.41499799
_cell_angle_alpha   89.99663821
_cell_angle_beta   89.99982998
_cell_angle_gamma   90.00207369
_symmetry_Int_Tables_number   1
_chemical_formula_structural   Fe45Co19
_chemical_formula_sum   'Fe90 Co38'
_cell_volume   1487.59685517
_cell_formula_units_Z   2
loop_
 _symmetry_equiv_pos_site_id
 _symmetry_equiv_pos_as_xyz
  1  'x, y, z'
loop_
 _atom_site_type_symbol
 _atom_site_label
 _atom_site_symmetry_multiplicity
 _atom_site_fract_x
 _atom_site_fract_y
 _atom_site_fract_z
 _atom_site_occupancy
  Fe  Fe0  1  0.00179245  0.24874257  -0.00027899  1
  Fe  Fe1  1  0.87372306  0.62694399  0.62541260  1
  Fe  Fe2  1  0.37342044  0.62407570  0.12584873  1
  Fe  Fe3  1  0.74863549  0.50002157  0.50034162  1
  Fe  Fe4  1  0.87237579  0.87656650  0.37718631  1
  Fe  Fe5  1  0.37943478  0.37498645  0.37177672  1
  Fe  Fe6  1  0.25169519  0.75133619  0.75024835  1
  Fe  Fe7  1  0.24898470  0.25026095  0.49933314  1
  Fe  Fe8  1  0.12636369  0.12051050  0.62736771  1
  Fe  Fe9  1  0.74947989  0.50003328  0.24877316  1
  Fe  Fe10  1  0.62364294  0.62547699  0.37556737  1
  Fe  Fe11  1  0.62288808  0.37400266  0.12786822  1
  Fe  Fe12  1  0.37640525  0.37374090  0.12764995  1
  Fe  Fe13  1  0.49936187  0.50234710  -0.00030056  1
  Fe  Fe14  1  0.62719993  0.12605317  0.37364816  1
  Fe  Fe15  1  0.37445547  0.12640883  0.87515298  1
  Fe  Fe16  1  0.00092304  0.00218114  -0.00663006  1
  Fe  Fe17  1  0.49814019  0.25210535  0.74828709  1
  Fe  Fe18  1  0.74861900  -0.00240542  0.75239900  1
  Fe  Fe19  1  0.74996106  0.25160837  -0.00004327  1
  Fe  Fe20  1  0.87716832  0.37484051  0.87548304  1
  Fe  Fe21  1  0.25038960  0.00266933  0.25115786  1
  Fe  Fe22  1  0.74480034  0.75269416  0.75343529  1
  Fe  Fe23  1  0.62240572  0.37493983  0.87466795  1
  Fe  Fe24  1  0.12214636  0.12661913  0.37517340  1
  Fe  Fe25  1  0.62446830  0.87508012  0.12284128  1
  Fe  Fe26  1  0.49807133  0.50127587  0.75173490  1
  Fe  Fe27  1  0.25221158  0.49785627  0.75216209  1
  Fe  Fe28  1  0.37465219  0.87616831  0.12721655  1
  Fe  Fe29  1  0.12533233  0.12586201  0.12557430  1
  Fe  Fe30  1  0.00096126  0.24812762  0.74949053  1
  Fe  Fe31  1  0.49777540  0.00169883  0.00165091  1
  Fe  Fe32  1  0.37637342  0.12511737  0.37505847  1
  Fe  Fe33  1  0.49860921  0.74879152  0.25026667  1
  Fe  Fe34  1  0.37406232  0.12458729  0.62411829  1
  Fe  Fe35  1  0.49984942  -0.00322677  0.74961722  1
  Fe  Fe36  1  0.74833527  0.49988592  0.75180487  1
  Fe  Fe37  1  0.12753121  0.62575511  0.87521113  1
  Fe  Fe38  1  0.62458804  0.12486614  0.87444041  1
  Fe  Fe39  1  0.87658225  0.62533572  0.37488761  1
  Fe  Fe40  1  0.24883102  0.49984631  0.25191911  1
  Fe  Fe41  1  0.00059228  0.75041379  0.75083065  1
  Fe  Fe42  1  0.87575820  0.87711064  0.12378032  1
  Fe  Fe43  1  0.12596777  0.87598415  0.37475887  1
  Fe  Fe44  1  0.62879715  0.12305085  0.12503113  1
  Fe  Fe45  1  0.87534975  0.12515018  0.37701212  1
  Fe  Fe46  1  0.37594074  0.62504961  0.62323773  1
  Fe  Fe47  1  -0.00197717  0.00182075  0.25056667  1
  Fe  Fe48  1  0.25067221  0.74834214  0.25259621  1
  Fe  Fe49  1  0.87265564  0.87597228  0.62479902  1
  Fe  Fe50  1  0.24963574  -0.00100463  -0.00313391  1
  Fe  Fe51  1  0.24854832  0.49680039  -0.00131329  1
  Fe  Fe52  1  0.62367734  0.62755214  0.62499541  1
  Fe  Fe53  1  -0.00012288  0.50247764  0.75183411  1
  Fe  Fe54  1  0.50097531  0.00188764  0.24895611  1
  Fe  Fe55  1  0.87473428  0.37579712  0.62538412  1
  Fe  Fe56  1  0.25196560  0.25236921  0.75031362  1
  Fe  Fe57  1  0.00012357  0.75192973  0.50037473  1
  Fe  Fe58  1  0.62442948  0.12426123  0.62631600  1
  Fe  Fe59  1  0.50315088  0.25305763  0.50060301  1
  Fe  Fe60  1  0.25097861  0.75118139  0.00096117  1
  Fe  Fe61  1  -0.00086674  0.74979178  0.24890164  1
  Fe  Fe62  1  0.75161948  -0.00187897  -0.00356036  1
  Fe  Fe63  1  0.00038625  0.49986770  0.50109745  1
  Fe  Fe64  1  0.50274402  0.49738118  0.50012615  1
  Fe  Fe65  1  0.75152783  0.75058830  0.24863198  1
  Fe  Fe66  1  0.12159607  0.37140018  0.37215232  1
  Fe  Fe67  1  0.12502794  0.37592916  0.62640136  1
  Fe  Fe68  1  0.74835273  0.25124391  0.50208925  1
  Fe  Fe69  1  -0.00148574  0.74760355  0.00014882  1
  Fe  Fe70  1  0.37507284  0.87492106  0.62299605  1
  Fe  Fe71  1  0.87601856  0.12216267  0.62587508  1
  Fe  Fe72  1  0.37756567  0.87218380  0.87613508  1
  Fe  Fe73  1  0.12641330  0.62534391  0.62366445  1
  Fe  Fe74  1  0.49986554  0.24762073  0.00309674  1
  Fe  Fe75  1  0.62664499  0.87473009  0.37726846  1
  Fe  Fe76  1  0.87078764  0.62510499  0.87871276  1
  Fe  Fe77  1  0.75310762  0.24910738  0.24780683  1
  Fe  Fe78  1  0.62853202  0.62698540  0.12084539  1
  Fe  Fe79  1  0.74928245  0.25075966  0.74965747  1
  Fe  Fe80  1  0.24831038  0.25245333  0.00073540  1
  Fe  Fe81  1  0.12644916  0.87856857  0.62631862  1
  Fe  Fe82  1  0.25202670  0.74976774  0.49594813  1
  Fe  Fe83  1  0.00016446  0.50112626  0.24891661  1
  Fe  Fe84  1  0.87538403  0.37374055  0.37666963  1
  Fe  Fe85  1  0.12410664  0.87608572  0.12439790  1
  Fe  Fe86  1  0.24854506  0.49908918  0.49730658  1
  Fe  Fe87  1  0.50084477  -0.00180669  0.49991774  1
  Fe  Fe88  1  0.87835580  0.37745014  0.12280283  1
  Fe  Fe89  1  0.12479461  0.62412189  0.12561917  1
  Co  Co90  1  0.12255595  0.37488053  0.87295015  1
  Co  Co91  1  -0.00414340  0.24795691  0.24721253  1
  Co  Co92  1  0.37452975  0.37595667  0.62271450  1
  Co  Co93  1  0.87687040  0.87319973  0.87467939  1
  Co  Co94  1  0.62566072  0.37616077  0.62777160  1
  Co  Co95  1  0.25173182  0.24931398  0.25056320  1
  Co  Co96  1  0.75151450  0.75410946  -0.00010642  1
  Co  Co97  1  0.00009017  -0.00125667  0.50051235  1
  Co  Co98  1  0.00085942  0.24917119  0.50403181  1
  Co  Co99  1  0.12488737  0.87193353  0.87497090  1
  Co  Co100  1  0.62620204  0.62518631  0.87829583  1
  Co  Co101  1  0.62505046  0.37367708  0.37063763  1
  Co  Co102  1  0.62044042  0.87533459  0.87959424  1
  Co  Co103  1  -0.00061322  -0.00073213  0.75317211  1
  Co  Co104  1  0.87349914  0.62350658  0.12391657  1
  Co  Co105  1  0.74920973  0.00267684  0.50118608  1
  Co  Co106  1  0.49753801  0.74710094  0.00124010  1
  Co  Co107  1  0.37785307  0.37309070  0.87727866  1
  Co  Co108  1  0.50252431  0.50370548  0.24687027  1
  Co  Co109  1  0.75053945  0.74693356  0.49914333  1
  Co  Co110  1  0.12209237  0.62604205  0.37535109  1
  Co  Co111  1  0.12825614  0.12622899  0.87232842  1
  Co  Co112  1  0.37286547  0.62630104  0.87474725  1
  Co  Co113  1  0.37488418  0.87738609  0.37219743  1
  Co  Co114  1  0.87462942  0.12161789  0.12132164  1
  Co  Co115  1  0.49978506  0.24471760  0.24759023  1
  Co  Co116  1  0.37106021  0.12431136  0.12423669  1
  Co  Co117  1  0.50165151  0.75058939  0.75067512  1
  Co  Co118  1  0.62644273  0.87367079  0.62129057  1
  Co  Co119  1  0.12317364  0.37463395  0.12795112  1
  Co  Co120  1  0.37793735  0.62179049  0.37596818  1
  Co  Co121  1  0.75070336  -0.00044965  0.25018735  1
  Co  Co122  1  0.87291425  0.12752526  0.87453066  1
  Co  Co123  1  0.74792609  0.49595547  0.00045495  1
  Co  Co124  1  0.00201787  0.50249653  -0.00169878  1
  Co  Co125  1  0.25318616  -0.00245629  0.75360890  1
  Co  Co126  1  0.49769755  0.75202215  0.49831254  1
  Co  Co127  1  0.25030241  0.00127639  0.49820834  1
