# generated using pymatgen
data_Fe45Co19
_symmetry_space_group_name_H-M   'P 1'
_cell_length_a   11.41451145
_cell_length_b   11.41534094
_cell_length_c   11.41451078
_cell_angle_alpha   90.00320936
_cell_angle_beta   90.01124570
_cell_angle_gamma   89.99449750
_symmetry_Int_Tables_number   1
_chemical_formula_structural   Fe45Co19
_chemical_formula_sum   'Fe90 Co38'
_cell_volume   1487.31687905
_cell_formula_units_Z   2
loop_
 _symmetry_equiv_pos_site_id
 _symmetry_equiv_pos_as_xyz
  1  'x, y, z'
loop_
 _atom_site_type_symbol
 _atom_site_label
 _atom_site_symmetry_multiplicity
 _atom_site_fract_x
 _atom_site_fract_y
 _atom_site_fract_z
 _atom_site_occupancy
  Fe  Fe0  1  0.87642568  0.37392214  0.12384284  1
  Fe  Fe1  1  -0.00089948  0.75212680  0.25397433  1
  Fe  Fe2  1  0.00065837  0.74795555  -0.00060855  1
  Fe  Fe3  1  0.37595381  0.87588231  0.62450934  1
  Fe  Fe4  1  0.24869558  0.75230060  0.50076324  1
  Fe  Fe5  1  0.75096177  0.00209069  0.50119427  1
  Fe  Fe6  1  -0.00014492  0.74944845  0.74807436  1
  Fe  Fe7  1  0.12976067  0.12509246  0.37523011  1
  Fe  Fe8  1  0.62443104  0.86853065  0.12701270  1
  Fe  Fe9  1  0.62527214  0.87534183  0.37386522  1
  Fe  Fe10  1  0.12469921  0.37309243  0.37571606  1
  Fe  Fe11  1  0.87788588  0.87404648  0.62201285  1
  Fe  Fe12  1  0.62504278  0.12463612  0.87342623  1
  Fe  Fe13  1  0.87412312  0.62254792  0.87264286  1
  Fe  Fe14  1  0.87607413  0.62489592  0.37775455  1
  Fe  Fe15  1  0.24813924  0.74994998  0.74800069  1
  Fe  Fe16  1  0.87768333  0.12434466  0.12676002  1
  Fe  Fe17  1  0.25048143  0.49882621  0.24940401  1
  Fe  Fe18  1  0.12239110  0.87601951  0.12478540  1
  Fe  Fe19  1  0.49999379  0.25027299  -0.00159258  1
  Fe  Fe20  1  0.37547819  0.62751273  0.12480370  1
  Fe  Fe21  1  0.87352953  0.37653367  0.87573078  1
  Fe  Fe22  1  0.37543221  0.62312005  0.62355410  1
  Fe  Fe23  1  0.62675821  0.12460669  0.37301416  1
  Fe  Fe24  1  0.62686776  0.62641649  0.87535897  1
  Fe  Fe25  1  0.62725900  0.87402145  0.87560348  1
  Fe  Fe26  1  0.37193544  0.37706207  0.87513676  1
  Fe  Fe27  1  0.24941086  0.75092890  0.24934170  1
  Fe  Fe28  1  0.74999178  -0.00021169  0.00180291  1
  Fe  Fe29  1  0.87283259  0.12463299  0.87531539  1
  Fe  Fe30  1  0.74950827  0.25218892  0.74968184  1
  Fe  Fe31  1  0.12667363  0.87803546  0.37665062  1
  Fe  Fe32  1  0.62368918  0.87492930  0.62402524  1
  Fe  Fe33  1  0.24761708  0.49661692  0.50201321  1
  Fe  Fe34  1  0.24908403  0.00118671  0.00205790  1
  Fe  Fe35  1  0.75061227  -0.00104812  0.74831512  1
  Fe  Fe36  1  0.62506796  0.12723028  0.12531717  1
  Fe  Fe37  1  0.62637255  0.62497689  0.62586044  1
  Fe  Fe38  1  0.50036081  0.49917512  0.75027035  1
  Fe  Fe39  1  -0.00179928  0.49702613  0.74674392  1
  Fe  Fe40  1  0.75144620  -0.00222174  0.24953343  1
  Fe  Fe41  1  0.37404193  0.88009535  0.37290141  1
  Fe  Fe42  1  0.75171321  0.25189409  0.24998814  1
  Fe  Fe43  1  0.00030490  0.00323388  0.49793754  1
  Fe  Fe44  1  0.49938589  0.75094952  0.75109070  1
  Fe  Fe45  1  0.25196530  0.25165516  0.74576205  1
  Fe  Fe46  1  0.00038351  0.00177937  0.74940330  1
  Fe  Fe47  1  0.24950822  0.24913306  0.00026908  1
  Fe  Fe48  1  0.37542141  0.37360744  0.12430081  1
  Fe  Fe49  1  0.24896322  0.00128533  0.74484334  1
  Fe  Fe50  1  0.24772259  0.50213368  0.00271554  1
  Fe  Fe51  1  0.24821414  0.49747915  0.74557548  1
  Fe  Fe52  1  0.50087173  -0.00087245  0.00068692  1
  Fe  Fe53  1  0.87589715  0.37289915  0.37718387  1
  Fe  Fe54  1  0.62062691  0.12530799  0.62904460  1
  Fe  Fe55  1  0.12209390  0.62628426  0.62230021  1
  Fe  Fe56  1  0.87442653  0.62547384  0.12704580  1
  Fe  Fe57  1  0.12497125  0.62357960  0.37498735  1
  Fe  Fe58  1  0.62858563  0.62433755  0.37093668  1
  Fe  Fe59  1  0.12207553  0.12499756  0.12639632  1
  Fe  Fe60  1  0.62540856  0.37542901  0.12707860  1
  Fe  Fe61  1  0.37160760  0.62339693  0.37677752  1
  Fe  Fe62  1  0.00048662  0.25051246  -0.00306586  1
  Fe  Fe63  1  0.12376193  0.37540365  0.12433105  1
  Fe  Fe64  1  0.49999224  0.50141697  0.25109965  1
  Fe  Fe65  1  0.25155897  0.24928460  0.24983398  1
  Fe  Fe66  1  0.37639404  0.87484100  0.12604268  1
  Fe  Fe67  1  0.50117596  0.50141740  0.00149606  1
  Fe  Fe68  1  -0.00061840  0.49819744  0.25108717  1
  Fe  Fe69  1  0.49939599  0.74812366  0.49695254  1
  Fe  Fe70  1  0.75060634  0.49818059  0.50088908  1
  Fe  Fe71  1  0.11967306  0.36845857  0.62237429  1
  Fe  Fe72  1  0.75189340  0.75075389  0.74887929  1
  Fe  Fe73  1  0.87547591  0.87607208  0.87600896  1
  Fe  Fe74  1  0.62724472  0.37536713  0.87660953  1
  Fe  Fe75  1  0.37219985  0.87396659  0.87585297  1
  Fe  Fe76  1  0.12458738  0.62236931  0.87552108  1
  Fe  Fe77  1  0.87725663  0.12890470  0.62536469  1
  Fe  Fe78  1  0.87751055  0.87592829  0.12501085  1
  Fe  Fe79  1  0.37718936  0.37481737  0.37953869  1
  Fe  Fe80  1  0.37258658  0.62534129  0.87550710  1
  Fe  Fe81  1  0.74936267  0.50216693  0.00291381  1
  Fe  Fe82  1  0.49806194  0.24761055  0.25319482  1
  Fe  Fe83  1  0.12565764  0.12604251  0.87240830  1
  Fe  Fe84  1  0.74856950  0.24964987  0.49996330  1
  Fe  Fe85  1  0.62091794  0.37484175  0.62212506  1
  Fe  Fe86  1  0.37685240  0.12465209  0.87270127  1
  Fe  Fe87  1  0.75081636  0.75015127  0.49956719  1
  Fe  Fe88  1  0.12507695  0.87526801  0.87448213  1
  Fe  Fe89  1  0.49863238  0.00327086  0.49896536  1
  Co  Co90  1  0.24844615  0.00106479  0.24526018  1
  Co  Co91  1  0.12684118  0.37707950  0.87569357  1
  Co  Co92  1  0.50017304  -0.00413941  0.75184830  1
  Co  Co93  1  0.75274006  0.49729898  0.25068602  1
  Co  Co94  1  0.24992022  0.00191622  0.50589707  1
  Co  Co95  1  -0.00197712  0.25156248  0.75532885  1
  Co  Co96  1  0.00024044  0.49868877  0.50055082  1
  Co  Co97  1  0.37651219  0.12525502  0.12470641  1
  Co  Co98  1  0.49917807  0.24456617  0.49694287  1
  Co  Co99  1  0.75094218  0.24932005  0.00066339  1
  Co  Co100  1  0.38042126  0.37687904  0.62094257  1
  Co  Co101  1  0.49966193  0.75001351  -0.00133578  1
  Co  Co102  1  -0.00044013  0.50010909  0.00097787  1
  Co  Co103  1  0.75395730  0.75200654  0.25189403  1
  Co  Co104  1  0.00042754  0.25012642  0.25173248  1
  Co  Co105  1  -0.00020781  0.00026920  0.25475027  1
  Co  Co106  1  0.50297596  0.50425191  0.49749208  1
  Co  Co107  1  0.74975176  0.49743610  0.74718476  1
  Co  Co108  1  0.12134579  0.12890016  0.62514041  1
  Co  Co109  1  0.24714689  0.74938443  0.00176075  1
  Co  Co110  1  0.75270946  0.74876336  -0.00028201  1
  Co  Co111  1  0.37079174  0.12125337  0.37318196  1
  Co  Co112  1  0.12177067  0.87565377  0.62452382  1
  Co  Co113  1  0.87330927  0.87710502  0.37891034  1
  Co  Co114  1  0.87658639  0.37111506  0.62277864  1
  Co  Co115  1  0.49964391  0.25478426  0.75230777  1
  Co  Co116  1  0.62635176  0.62714955  0.12832535  1
  Co  Co117  1  0.62406243  0.37428998  0.37449876  1
  Co  Co118  1  0.12333200  0.62438712  0.12832623  1
  Co  Co119  1  0.37970984  0.12478280  0.62808673  1
  Co  Co120  1  0.25376109  0.24881475  0.50285080  1
  Co  Co121  1  0.00169247  0.75048247  0.49785925  1
  Co  Co122  1  -0.00123305  0.24597979  0.49433967  1
  Co  Co123  1  0.50252499  0.00154377  0.24868713  1
  Co  Co124  1  0.49782165  0.74791073  0.25387902  1
  Co  Co125  1  0.00085323  0.00207030  -0.00269524  1
  Co  Co126  1  0.87472619  0.62582456  0.62353458  1
  Co  Co127  1  0.87126404  0.12496715  0.37299082  1
