# generated using pymatgen
data_Fe45Co19
_symmetry_space_group_name_H-M   'P 1'
_cell_length_a   11.41528844
_cell_length_b   11.41414621
_cell_length_c   11.41522507
_cell_angle_alpha   90.00398338
_cell_angle_beta   89.99684296
_cell_angle_gamma   89.99703655
_symmetry_Int_Tables_number   1
_chemical_formula_structural   Fe45Co19
_chemical_formula_sum   'Fe90 Co38'
_cell_volume   1487.35554695
_cell_formula_units_Z   2
loop_
 _symmetry_equiv_pos_site_id
 _symmetry_equiv_pos_as_xyz
  1  'x, y, z'
loop_
 _atom_site_type_symbol
 _atom_site_label
 _atom_site_symmetry_multiplicity
 _atom_site_fract_x
 _atom_site_fract_y
 _atom_site_fract_z
 _atom_site_occupancy
  Fe  Fe0  1  0.24978760  0.50218288  0.74912839  1
  Fe  Fe1  1  0.49741445  0.49911350  -0.00058659  1
  Fe  Fe2  1  0.25071241  0.24972173  0.49821656  1
  Fe  Fe3  1  0.49941955  0.50170419  0.75054971  1
  Fe  Fe4  1  0.62628645  0.37630326  0.87392127  1
  Fe  Fe5  1  0.87629712  0.12416139  0.37465697  1
  Fe  Fe6  1  0.00371278  0.25075060  0.25270502  1
  Fe  Fe7  1  0.62579293  0.87445133  0.37798802  1
  Fe  Fe8  1  0.87612229  0.12706249  0.12653035  1
  Fe  Fe9  1  0.12501929  0.62377592  0.12367749  1
  Fe  Fe10  1  0.12672910  0.37654376  0.87611355  1
  Fe  Fe11  1  0.37300778  0.86754647  0.62691318  1
  Fe  Fe12  1  0.87360402  0.12541190  0.62551010  1
  Fe  Fe13  1  0.12409618  0.87655854  0.87543645  1
  Fe  Fe14  1  0.24848363  0.00454061  -0.00085392  1
  Fe  Fe15  1  0.12515750  0.62481688  0.61990602  1
  Fe  Fe16  1  0.62056741  0.12193903  0.87503729  1
  Fe  Fe17  1  0.37458032  0.12364377  0.37481014  1
  Fe  Fe18  1  0.25104384  0.50152051  0.25109262  1
  Fe  Fe19  1  0.87308687  0.87460423  0.37901189  1
  Fe  Fe20  1  0.62233199  0.12333434  0.37551518  1
  Fe  Fe21  1  -0.00048844  -0.00041242  0.50135043  1
  Fe  Fe22  1  0.37372522  0.87522447  0.37567327  1
  Fe  Fe23  1  0.50083069  0.75214211  0.24932036  1
  Fe  Fe24  1  0.87697386  0.62497711  0.87341097  1
  Fe  Fe25  1  0.12803996  0.87254325  0.62164145  1
  Fe  Fe26  1  0.62099318  0.62369477  0.37342318  1
  Fe  Fe27  1  0.12673889  0.37875486  0.37881357  1
  Fe  Fe28  1  -0.00212062  -0.00360096  0.74676864  1
  Fe  Fe29  1  0.75281627  0.50414533  0.49978038  1
  Fe  Fe30  1  0.00042563  0.75006946  0.00144163  1
  Fe  Fe31  1  0.37606375  0.62582402  0.12598711  1
  Fe  Fe32  1  0.49704053  0.50453640  0.50250271  1
  Fe  Fe33  1  0.62406448  0.62461837  0.12256539  1
  Fe  Fe34  1  0.62310354  0.87673909  0.87456081  1
  Fe  Fe35  1  0.62484465  0.12509924  0.62540498  1
  Fe  Fe36  1  0.00292989  0.75109559  0.25226116  1
  Fe  Fe37  1  0.37147462  0.87430791  0.12500579  1
  Fe  Fe38  1  0.00102424  0.49871555  0.24903792  1
  Fe  Fe39  1  0.74977493  0.50259063  0.75090257  1
  Fe  Fe40  1  0.00208425  0.00042481  0.00303706  1
  Fe  Fe41  1  0.24732790  0.74744657  0.25342875  1
  Fe  Fe42  1  0.62547832  0.37555625  0.12368905  1
  Fe  Fe43  1  0.62944023  0.87124946  0.62323748  1
  Fe  Fe44  1  0.87201839  0.37486232  0.62771558  1
  Fe  Fe45  1  0.24687869  0.00316988  0.24839419  1
  Fe  Fe46  1  0.12297771  0.62384586  0.87610177  1
  Fe  Fe47  1  0.25075809  0.00229133  0.75055644  1
  Fe  Fe48  1  0.37438075  0.12694651  0.62638986  1
  Fe  Fe49  1  0.74952879  0.74954701  0.25169371  1
  Fe  Fe50  1  0.62340460  0.12558544  0.12341993  1
  Fe  Fe51  1  0.49853616  -0.00303398  0.50342660  1
  Fe  Fe52  1  0.74949662  -0.00131540  0.00161886  1
  Fe  Fe53  1  0.75181202  0.25137933  -0.00260999  1
  Fe  Fe54  1  0.00133516  0.25130014  0.74908126  1
  Fe  Fe55  1  0.75174061  -0.00209301  0.74952786  1
  Fe  Fe56  1  -0.00060192  0.25121577  0.50016474  1
  Fe  Fe57  1  0.12764618  0.37702187  0.62234093  1
  Fe  Fe58  1  -0.00067418  0.25310650  -0.00154925  1
  Fe  Fe59  1  0.87658456  0.12443743  0.87393087  1
  Fe  Fe60  1  0.37575761  0.62699892  0.87198921  1
  Fe  Fe61  1  0.62490611  0.62885210  0.62802994  1
  Fe  Fe62  1  0.74871558  0.49956964  0.25001534  1
  Fe  Fe63  1  0.12793218  0.37486911  0.12166700  1
  Fe  Fe64  1  -0.00196740  0.75312999  0.74704082  1
  Fe  Fe65  1  0.49994870  0.75187136  -0.00085950  1
  Fe  Fe66  1  0.50132071  0.25302708  0.25051753  1
  Fe  Fe67  1  0.87345929  0.37637159  0.37432855  1
  Fe  Fe68  1  0.75542017  0.49774397  -0.00042746  1
  Fe  Fe69  1  0.24901914  0.74888525  -0.00185443  1
  Fe  Fe70  1  0.50070393  0.25009713  0.75087245  1
  Fe  Fe71  1  0.62595463  0.37516275  0.62420929  1
  Fe  Fe72  1  0.00229450  -0.00134990  0.24974205  1
  Fe  Fe73  1  0.37523981  0.87601582  0.87297121  1
  Fe  Fe74  1  0.87518836  0.87389095  0.12519534  1
  Fe  Fe75  1  0.12742751  0.87617302  0.37882502  1
  Fe  Fe76  1  0.37193727  0.37275361  0.87483829  1
  Fe  Fe77  1  0.50026419  0.25043613  0.49941579  1
  Fe  Fe78  1  0.00079218  0.49926396  0.74850808  1
  Fe  Fe79  1  0.87599777  0.62494488  0.12654155  1
  Fe  Fe80  1  0.37709630  0.37752584  0.37477046  1
  Fe  Fe81  1  0.37160855  0.37235275  0.12342525  1
  Fe  Fe82  1  0.74942790  0.24908984  0.49909104  1
  Fe  Fe83  1  0.50106188  -0.00210165  0.24676638  1
  Fe  Fe84  1  0.37535821  0.12840815  0.12336431  1
  Fe  Fe85  1  0.12659939  0.12563542  0.62416240  1
  Fe  Fe86  1  0.75041752  0.75090658  -0.00239468  1
  Fe  Fe87  1  0.74744474  0.25091918  0.25215686  1
  Fe  Fe88  1  0.37393298  0.37490992  0.62620763  1
  Fe  Fe89  1  0.74909669  -0.00076263  0.24967922  1
  Co  Co90  1  0.12059154  0.12345357  0.87162373  1
  Co  Co91  1  0.12332992  0.12848839  0.12621310  1
  Co  Co92  1  -0.00167335  0.74945416  0.49964767  1
  Co  Co93  1  0.49887568  -0.00322336  0.00409976  1
  Co  Co94  1  0.74873584  0.00370884  0.49962583  1
  Co  Co95  1  0.62402528  0.37832466  0.37890660  1
  Co  Co96  1  0.75196090  0.75214317  0.75366866  1
  Co  Co97  1  0.38028765  0.12351177  0.87491364  1
  Co  Co98  1  0.24932856  0.24887687  0.75122494  1
  Co  Co99  1  0.37414737  0.62968354  0.63002036  1
  Co  Co100  1  0.24864622  0.25030699  0.25336829  1
  Co  Co101  1  0.25220746  0.50335936  -0.00091551  1
  Co  Co102  1  0.24514105  0.74855566  0.75224471  1
  Co  Co103  1  0.25193476  0.74473768  0.49575230  1
  Co  Co104  1  0.24773442  0.24495117  -0.00424118  1
  Co  Co105  1  0.50391271  0.75013521  0.75213120  1
  Co  Co106  1  0.87513370  0.37534350  0.86896775  1
  Co  Co107  1  0.75198200  0.74261094  0.49719132  1
  Co  Co108  1  0.49871239  0.74947145  0.50001213  1
  Co  Co109  1  0.86973500  0.87294346  0.61954532  1
  Co  Co110  1  0.87532355  0.37311956  0.12919031  1
  Co  Co111  1  0.50103541  0.25298535  -0.00169066  1
  Co  Co112  1  0.12713745  0.87389894  0.12384287  1
  Co  Co113  1  0.37903179  0.62492578  0.37107993  1
  Co  Co114  1  -0.00343172  0.49771113  0.00043156  1
  Co  Co115  1  0.49922711  -0.00215742  0.74418705  1
  Co  Co116  1  0.25618499  0.50387765  0.50008906  1
  Co  Co117  1  0.74748259  0.24729207  0.75170544  1
  Co  Co118  1  0.12196659  0.62115353  0.37906456  1
  Co  Co119  1  0.25293044  0.00006768  0.50320610  1
  Co  Co120  1  -0.00601830  0.49922487  0.50172613  1
  Co  Co121  1  0.12587826  0.12273063  0.37819280  1
  Co  Co122  1  0.50010341  0.49718916  0.24641991  1
  Co  Co123  1  0.87771079  0.87588575  0.87804123  1
  Co  Co124  1  0.87583166  0.62615511  0.62937141  1
  Co  Co125  1  0.87830795  0.62380635  0.37095979  1
  Co  Co126  1  0.62674114  0.87267785  0.12513785  1
  Co  Co127  1  0.62578970  0.62333199  0.87752141  1
