# generated using pymatgen
data_Fe45Co19
_symmetry_space_group_name_H-M   'P 1'
_cell_length_a   11.41404908
_cell_length_b   11.41367056
_cell_length_c   11.41533211
_cell_angle_alpha   89.99685308
_cell_angle_beta   89.99711642
_cell_angle_gamma   89.99395917
_symmetry_Int_Tables_number   1
_chemical_formula_structural   Fe45Co19
_chemical_formula_sum   'Fe90 Co38'
_cell_volume   1487.14603124
_cell_formula_units_Z   2
loop_
 _symmetry_equiv_pos_site_id
 _symmetry_equiv_pos_as_xyz
  1  'x, y, z'
loop_
 _atom_site_type_symbol
 _atom_site_label
 _atom_site_symmetry_multiplicity
 _atom_site_fract_x
 _atom_site_fract_y
 _atom_site_fract_z
 _atom_site_occupancy
  Fe  Fe0  1  0.62678471  0.12567550  0.12417949  1
  Fe  Fe1  1  -0.00397238  -0.00228590  0.50345062  1
  Fe  Fe2  1  0.49894731  0.00000170  0.50056659  1
  Fe  Fe3  1  0.75099578  0.25051452  0.50104000  1
  Fe  Fe4  1  0.00348949  0.75322746  0.74753869  1
  Fe  Fe5  1  0.37507371  0.62661412  0.87152554  1
  Fe  Fe6  1  0.25028353  0.50208167  0.00208993  1
  Fe  Fe7  1  0.37614693  0.87228201  0.12627169  1
  Fe  Fe8  1  0.74983798  -0.00112763  0.00153073  1
  Fe  Fe9  1  0.24975495  0.24983100  0.50216036  1
  Fe  Fe10  1  0.62786857  0.87611714  0.37355558  1
  Fe  Fe11  1  -0.00178867  -0.00435548  0.74619305  1
  Fe  Fe12  1  0.62601642  0.12566646  0.62602240  1
  Fe  Fe13  1  0.25094369  -0.00376279  -0.00082517  1
  Fe  Fe14  1  0.12797082  0.62738514  0.62392669  1
  Fe  Fe15  1  0.12376523  0.12434811  0.37525864  1
  Fe  Fe16  1  0.86979362  0.87044066  0.12921760  1
  Fe  Fe17  1  0.62764240  0.87480764  0.62499526  1
  Fe  Fe18  1  -0.00202794  -0.00077373  0.24872736  1
  Fe  Fe19  1  0.50141243  0.74905158  -0.00160361  1
  Fe  Fe20  1  0.87226242  0.87302142  0.87211411  1
  Fe  Fe21  1  0.12514218  0.62742090  0.87621383  1
  Fe  Fe22  1  0.75168762  0.50630401  -0.00211045  1
  Fe  Fe23  1  0.50195015  -0.00202038  0.75061240  1
  Fe  Fe24  1  0.50168760  -0.00069034  0.24947431  1
  Fe  Fe25  1  0.37707239  0.37701069  0.12525743  1
  Fe  Fe26  1  0.62498069  0.37617499  0.37742996  1
  Fe  Fe27  1  0.50074686  0.25197647  0.74989395  1
  Fe  Fe28  1  0.12780160  0.37610313  0.37705913  1
  Fe  Fe29  1  0.00121654  0.25056987  0.75006785  1
  Fe  Fe30  1  0.37492173  0.37590993  0.62453324  1
  Fe  Fe31  1  0.24801171  -0.00412137  0.75168816  1
  Fe  Fe32  1  0.49863756  0.24924072  0.50118974  1
  Fe  Fe33  1  0.12570137  0.37669724  0.87672209  1
  Fe  Fe34  1  0.00236635  0.50011442  0.50199629  1
  Fe  Fe35  1  -0.00030997  0.74853724  0.25296127  1
  Fe  Fe36  1  0.62037613  0.62228797  0.62437392  1
  Fe  Fe37  1  0.74818103  0.49998503  0.74853535  1
  Fe  Fe38  1  0.00177821  0.50118522  0.75008148  1
  Fe  Fe39  1  0.37344541  0.87381455  0.62652807  1
  Fe  Fe40  1  0.25038302  0.50103395  0.74767299  1
  Fe  Fe41  1  0.87521131  0.37913574  0.12264967  1
  Fe  Fe42  1  0.87239972  0.87226341  0.37433348  1
  Fe  Fe43  1  0.87605188  0.12624544  0.37477654  1
  Fe  Fe44  1  0.25336558  0.00038541  0.49905400  1
  Fe  Fe45  1  0.50156232  -0.00265829  0.00043756  1
  Fe  Fe46  1  0.74652141  0.74722054  0.75038260  1
  Fe  Fe47  1  0.37572230  0.12598216  0.37350997  1
  Fe  Fe48  1  0.37527482  0.62518412  0.13177497  1
  Fe  Fe49  1  0.25368426  0.74805187  0.49726988  1
  Fe  Fe50  1  0.75240388  0.00121401  0.50218911  1
  Fe  Fe51  1  0.12496592  0.87529784  0.37784455  1
  Fe  Fe52  1  0.87504911  0.37845977  0.37530256  1
  Fe  Fe53  1  0.75066217  0.74580677  0.49737096  1
  Fe  Fe54  1  0.74683931  0.50602293  0.25067181  1
  Fe  Fe55  1  -0.00063064  0.25184294  0.24882243  1
  Fe  Fe56  1  0.62361989  0.37913166  0.12113268  1
  Fe  Fe57  1  0.74830584  0.74587141  -0.00075289  1
  Fe  Fe58  1  0.49401941  0.50127231  0.49742809  1
  Fe  Fe59  1  0.75067879  0.25096575  0.24804772  1
  Fe  Fe60  1  0.12457410  0.12514574  0.12460762  1
  Fe  Fe61  1  0.00301962  0.49975968  0.24788169  1
  Fe  Fe62  1  0.49702184  0.74955241  0.49757214  1
  Fe  Fe63  1  0.87609558  0.37792788  0.87628973  1
  Fe  Fe64  1  0.50411322  0.74894419  0.25334653  1
  Fe  Fe65  1  0.37587037  0.37617791  0.87658035  1
  Fe  Fe66  1  0.62580372  0.12535653  0.87623395  1
  Fe  Fe67  1  0.87697933  0.62680752  0.62550735  1
  Fe  Fe68  1  0.12755872  0.62339628  0.37473007  1
  Fe  Fe69  1  0.62191644  0.37871382  0.87845521  1
  Fe  Fe70  1  0.74787846  0.25298014  0.75017806  1
  Fe  Fe71  1  0.37462101  0.12432135  0.12527524  1
  Fe  Fe72  1  0.24977660  0.24958054  0.74932650  1
  Fe  Fe73  1  0.24966465  -0.00312450  0.24995273  1
  Fe  Fe74  1  0.12548346  0.62657688  0.12478314  1
  Fe  Fe75  1  -0.00122306  0.25075514  0.00053340  1
  Fe  Fe76  1  0.87369265  0.12503160  0.87485469  1
  Fe  Fe77  1  0.12341718  0.12444751  0.62438317  1
  Fe  Fe78  1  0.87710646  0.37375175  0.62459538  1
  Fe  Fe79  1  0.25106303  0.24945690  -0.00019598  1
  Fe  Fe80  1  0.37616769  0.12374382  0.87438075  1
  Fe  Fe81  1  0.24917922  0.25210463  0.24860326  1
  Fe  Fe82  1  0.50140409  0.25223495  0.24897021  1
  Fe  Fe83  1  0.12480280  0.87243224  0.12270556  1
  Fe  Fe84  1  0.50137714  0.75066878  0.75127337  1
  Fe  Fe85  1  -0.00339501  -0.00177039  0.00182345  1
  Fe  Fe86  1  0.12354209  0.12236494  0.87613758  1
  Fe  Fe87  1  0.75099709  0.50163965  0.50165885  1
  Fe  Fe88  1  -0.00319754  0.74802035  -0.00065349  1
  Fe  Fe89  1  0.62542773  0.12496063  0.37448597  1
  Co  Co90  1  0.75086169  0.00260420  0.24980006  1
  Co  Co91  1  0.87470444  0.12649028  0.12418544  1
  Co  Co92  1  0.37608733  0.87400845  0.87455405  1
  Co  Co93  1  0.25296491  0.74874824  0.00042287  1
  Co  Co94  1  0.87619275  0.62676695  0.87060587  1
  Co  Co95  1  0.12336334  0.37410323  0.12040096  1
  Co  Co96  1  0.49602416  0.50482814  -0.00023524  1
  Co  Co97  1  0.50270115  0.49800013  0.25281004  1
  Co  Co98  1  0.75181457  0.00145477  0.74826606  1
  Co  Co99  1  0.37644270  0.87545378  0.37321860  1
  Co  Co100  1  0.87605389  0.12990210  0.62556867  1
  Co  Co101  1  0.62206230  0.62473474  0.12413899  1
  Co  Co102  1  0.87867225  0.62144692  0.37531860  1
  Co  Co103  1  0.00126600  0.25241958  0.49849202  1
  Co  Co104  1  0.25270007  0.50187471  0.50253176  1
  Co  Co105  1  0.37510659  0.12351819  0.62746651  1
  Co  Co106  1  -0.00014220  0.74962393  0.49927512  1
  Co  Co107  1  0.24794046  0.49639545  0.24716090  1
  Co  Co108  1  0.49920920  0.24915359  0.00074754  1
  Co  Co109  1  0.49920283  0.49788352  0.74991135  1
  Co  Co110  1  0.12319217  0.87392686  0.87926964  1
  Co  Co111  1  0.12535453  0.37505955  0.62612785  1
  Co  Co112  1  0.75021181  0.25182913  -0.00019778  1
  Co  Co113  1  0.62299373  0.62224431  0.87323826  1
  Co  Co114  1  0.37216890  0.62297953  0.36846627  1
  Co  Co115  1  0.62746043  0.87485856  0.87511929  1
  Co  Co116  1  0.74819400  0.74205162  0.25430970  1
  Co  Co117  1  0.37643739  0.62747650  0.62777726  1
  Co  Co118  1  0.24744266  0.75272839  0.75141260  1
  Co  Co119  1  0.00065903  0.50335740  -0.00124095  1
  Co  Co120  1  0.24720019  0.75335750  0.25151222  1
  Co  Co121  1  0.87074410  0.86936520  0.62520719  1
  Co  Co122  1  0.62221475  0.62281347  0.37921225  1
  Co  Co123  1  0.62809197  0.87197399  0.12730009  1
  Co  Co124  1  0.37318921  0.37416493  0.37505803  1
  Co  Co125  1  0.87610067  0.62465585  0.12726644  1
  Co  Co126  1  0.62260711  0.37718948  0.62131440  1
  Co  Co127  1  0.12908379  0.87460735  0.61956829  1
