# generated using pymatgen
data_Fe45Co19
_symmetry_space_group_name_H-M   'P 1'
_cell_length_a   11.41585744
_cell_length_b   11.41569944
_cell_length_c   11.41462994
_cell_angle_alpha   89.99310894
_cell_angle_beta   90.00772311
_cell_angle_gamma   89.99412654
_symmetry_Int_Tables_number   1
_chemical_formula_structural   Fe45Co19
_chemical_formula_sum   'Fe90 Co38'
_cell_volume   1487.55451229
_cell_formula_units_Z   2
loop_
 _symmetry_equiv_pos_site_id
 _symmetry_equiv_pos_as_xyz
  1  'x, y, z'
loop_
 _atom_site_type_symbol
 _atom_site_label
 _atom_site_symmetry_multiplicity
 _atom_site_fract_x
 _atom_site_fract_y
 _atom_site_fract_z
 _atom_site_occupancy
  Fe  Fe0  1  0.24857320  0.50255236  0.74863875  1
  Fe  Fe1  1  0.12365610  0.62811631  0.62356593  1
  Fe  Fe2  1  0.24859574  0.75050791  0.25150703  1
  Fe  Fe3  1  0.37070629  0.12890631  0.12430811  1
  Fe  Fe4  1  0.24854223  0.00027923  0.24877245  1
  Fe  Fe5  1  0.50260039  0.75474050  0.74708227  1
  Fe  Fe6  1  0.37580577  0.62679771  0.62353294  1
  Fe  Fe7  1  0.74519615  -0.00042199  0.00353484  1
  Fe  Fe8  1  0.24978143  0.25042836  0.75192838  1
  Fe  Fe9  1  0.74695059  0.50352614  0.24939795  1
  Fe  Fe10  1  0.12636504  0.87490161  0.62286426  1
  Fe  Fe11  1  -0.00093544  0.00204989  0.50266773  1
  Fe  Fe12  1  -0.00300614  0.75211270  0.49562334  1
  Fe  Fe13  1  0.37401163  0.37791526  0.87499875  1
  Fe  Fe14  1  0.49932358  0.25203336  0.50204417  1
  Fe  Fe15  1  0.62651678  0.37514669  0.87604052  1
  Fe  Fe16  1  0.87677526  0.12285078  0.37152969  1
  Fe  Fe17  1  0.62136860  0.12317152  0.87596131  1
  Fe  Fe18  1  0.62282491  0.87635178  0.37296172  1
  Fe  Fe19  1  0.12425400  0.12419261  0.37473044  1
  Fe  Fe20  1  0.37761379  0.12244087  0.37361952  1
  Fe  Fe21  1  0.62368221  0.62651111  0.87678956  1
  Fe  Fe22  1  0.12349950  0.12344393  0.87570851  1
  Fe  Fe23  1  0.50038745  0.25273724  0.74839338  1
  Fe  Fe24  1  0.87411829  0.87660475  0.87809738  1
  Fe  Fe25  1  0.50175456  0.49713161  0.00447484  1
  Fe  Fe26  1  0.00253260  -0.00054864  0.00375515  1
  Fe  Fe27  1  0.25397133  0.75217177  0.49562604  1
  Fe  Fe28  1  0.12771444  0.87279896  0.88137731  1
  Fe  Fe29  1  0.50085087  -0.00150592  0.00530191  1
  Fe  Fe30  1  0.37285875  0.87427319  0.12714780  1
  Fe  Fe31  1  0.37810154  0.12252866  0.87416744  1
  Fe  Fe32  1  0.49820383  0.25378952  0.24685320  1
  Fe  Fe33  1  0.74580322  0.00358961  0.24727622  1
  Fe  Fe34  1  -0.00068546  0.50005888  0.49967639  1
  Fe  Fe35  1  0.24880492  0.49989534  0.25056161  1
  Fe  Fe36  1  0.13009130  0.36978708  0.12417944  1
  Fe  Fe37  1  0.12307812  0.37259525  0.37579262  1
  Fe  Fe38  1  0.87698608  0.12202596  0.87369303  1
  Fe  Fe39  1  0.75175955  0.24756294  0.49838962  1
  Fe  Fe40  1  0.37512146  0.37751650  0.37464427  1
  Fe  Fe41  1  0.87575791  0.37551786  0.87620406  1
  Fe  Fe42  1  0.75041660  0.74775167  0.25196456  1
  Fe  Fe43  1  0.74925981  0.24914313  0.75023687  1
  Fe  Fe44  1  0.75019064  0.24639944  0.00070899  1
  Fe  Fe45  1  0.49969510  0.49975423  0.50016273  1
  Fe  Fe46  1  0.87132148  0.37240450  0.12561206  1
  Fe  Fe47  1  0.49756527  -0.00562286  0.50367412  1
  Fe  Fe48  1  0.74979743  0.75058606  0.75337034  1
  Fe  Fe49  1  0.75212841  0.50074587  0.49946359  1
  Fe  Fe50  1  0.87348892  0.87692366  0.62510951  1
  Fe  Fe51  1  0.12390000  0.37071356  0.62394772  1
  Fe  Fe52  1  0.75050839  0.00172991  0.49872867  1
  Fe  Fe53  1  0.49964445  0.74650338  0.25403901  1
  Fe  Fe54  1  0.74944967  0.50319880  0.00125653  1
  Fe  Fe55  1  -0.00007621  0.49978997  0.74863415  1
  Fe  Fe56  1  0.62433643  0.12456718  0.62486798  1
  Fe  Fe57  1  0.87562631  0.37118431  0.62481840  1
  Fe  Fe58  1  0.87605125  0.62722241  0.62461886  1
  Fe  Fe59  1  0.87500012  0.37464049  0.37291577  1
  Fe  Fe60  1  0.37392558  0.12438870  0.62752017  1
  Fe  Fe61  1  0.87757309  0.62660037  0.12421189  1
  Fe  Fe62  1  0.24784213  0.50478451  0.00017076  1
  Fe  Fe63  1  0.75262416  0.75071517  0.49454310  1
  Fe  Fe64  1  -0.00036308  0.24820287  0.24859271  1
  Fe  Fe65  1  0.24901605  0.74784710  0.75336010  1
  Fe  Fe66  1  0.37600257  0.87654879  0.87520591  1
  Fe  Fe67  1  0.50046408  0.75194326  0.00183747  1
  Fe  Fe68  1  0.12400382  0.37763533  0.87585551  1
  Fe  Fe69  1  0.25071796  0.24878477  0.49833030  1
  Fe  Fe70  1  0.12396808  0.62575585  0.37453988  1
  Fe  Fe71  1  0.62009380  0.12463896  0.37317112  1
  Fe  Fe72  1  0.00041386  0.75317228  0.75239081  1
  Fe  Fe73  1  0.37607026  0.62269811  0.12773953  1
  Fe  Fe74  1  0.00206032  0.49883281  0.24668587  1
  Fe  Fe75  1  0.00402412  -0.00098723  0.24560246  1
  Fe  Fe76  1  0.62504156  0.62812012  0.62096746  1
  Fe  Fe77  1  0.25179787  -0.00040894  0.49901557  1
  Fe  Fe78  1  0.00090008  0.75358528  0.25068054  1
  Fe  Fe79  1  0.87242731  0.87516526  0.12538554  1
  Fe  Fe80  1  0.00015131  0.24928934  0.00095178  1
  Fe  Fe81  1  0.62622739  0.37508163  0.37291512  1
  Fe  Fe82  1  0.24830313  -0.00071364  0.75123741  1
  Fe  Fe83  1  0.37818677  0.62454320  0.87407190  1
  Fe  Fe84  1  0.49830772  0.25363623  0.00218763  1
  Fe  Fe85  1  0.50210796  0.49843406  0.74685718  1
  Fe  Fe86  1  0.74685345  -0.00103356  0.75058505  1
  Fe  Fe87  1  0.74993926  0.50107720  0.74937603  1
  Fe  Fe88  1  0.24918946  0.49980112  0.50055656  1
  Fe  Fe89  1  0.87937643  0.62458527  0.87816204  1
  Co  Co90  1  0.62322537  0.62723427  0.12403279  1
  Co  Co91  1  0.87559163  0.12347785  0.12485495  1
  Co  Co92  1  0.62284571  0.62479723  0.37838596  1
  Co  Co93  1  0.00336226  -0.00406137  0.75017086  1
  Co  Co94  1  0.00062158  0.24928435  0.75211171  1
  Co  Co95  1  0.50159885  0.49722757  0.24806579  1
  Co  Co96  1  0.12892686  0.87260297  0.12117094  1
  Co  Co97  1  0.62998058  0.87322307  0.62179404  1
  Co  Co98  1  0.00135983  0.49698867  0.00486105  1
  Co  Co99  1  0.74972800  0.74943684  -0.00104651  1
  Co  Co100  1  0.12642009  0.12567684  0.62544334  1
  Co  Co101  1  0.87841101  0.62213466  0.37244614  1
  Co  Co102  1  0.25200628  0.24889680  0.25567486  1
  Co  Co103  1  0.37682291  0.87854021  0.36946003  1
  Co  Co104  1  0.37310371  0.37499881  0.62516323  1
  Co  Co105  1  0.49960866  0.00233622  0.24380916  1
  Co  Co106  1  0.87468082  0.12382089  0.62953181  1
  Co  Co107  1  0.25209906  0.00108000  0.00076833  1
  Co  Co108  1  0.50187790  -0.00347184  0.74599649  1
  Co  Co109  1  0.12374550  0.62887281  0.12547585  1
  Co  Co110  1  0.12490481  0.87707583  0.37679069  1
  Co  Co111  1  0.36846623  0.37535145  0.12390306  1
  Co  Co112  1  0.62343746  0.87596030  0.87742432  1
  Co  Co113  1  0.49588891  0.75517721  0.49827787  1
  Co  Co114  1  0.25023723  0.24875726  -0.00638222  1
  Co  Co115  1  0.63037228  0.37299910  0.12568542  1
  Co  Co116  1  0.25452807  0.74539875  -0.00028757  1
  Co  Co117  1  -0.00268752  0.24585878  0.49863021  1
  Co  Co118  1  0.62563473  0.87077687  0.12871201  1
  Co  Co119  1  0.87455366  0.88061406  0.37189041  1
  Co  Co120  1  0.62752575  0.37513269  0.62385147  1
  Co  Co121  1  0.62310211  0.12977051  0.12447241  1
  Co  Co122  1  -0.00115091  0.75182176  0.00105596  1
  Co  Co123  1  0.37402623  0.62221243  0.37514957  1
  Co  Co124  1  0.12073594  0.62485059  0.87701820  1
  Co  Co125  1  0.74985195  0.24520389  0.25232074  1
  Co  Co126  1  0.37016197  0.87415550  0.62839412  1
  Co  Co127  1  0.12893158  0.12834070  0.12466539  1
