# generated using pymatgen
data_Fe45Co19
_symmetry_space_group_name_H-M   'P 1'
_cell_length_a   11.41398219
_cell_length_b   11.41580294
_cell_length_c   11.41662863
_cell_angle_alpha   89.99813712
_cell_angle_beta   89.99872918
_cell_angle_gamma   89.99911589
_symmetry_Int_Tables_number   1
_chemical_formula_structural   Fe45Co19
_chemical_formula_sum   'Fe90 Co38'
_cell_volume   1487.58410081
_cell_formula_units_Z   2
loop_
 _symmetry_equiv_pos_site_id
 _symmetry_equiv_pos_as_xyz
  1  'x, y, z'
loop_
 _atom_site_type_symbol
 _atom_site_label
 _atom_site_symmetry_multiplicity
 _atom_site_fract_x
 _atom_site_fract_y
 _atom_site_fract_z
 _atom_site_occupancy
  Fe  Fe0  1  0.87318702  0.62247049  0.12320854  1
  Fe  Fe1  1  0.87352999  0.87709121  0.62626106  1
  Fe  Fe2  1  0.37371413  0.37321301  0.87305677  1
  Fe  Fe3  1  0.49975434  0.24753248  0.74899487  1
  Fe  Fe4  1  0.62633607  0.62704128  0.62368138  1
  Fe  Fe5  1  0.12192813  0.12570867  0.62344718  1
  Fe  Fe6  1  0.87389165  0.62390093  0.62234539  1
  Fe  Fe7  1  0.62439766  0.12674330  0.87857461  1
  Fe  Fe8  1  0.50235646  0.24657755  0.24747835  1
  Fe  Fe9  1  0.24919669  0.49766336  0.49939172  1
  Fe  Fe10  1  0.37313912  0.87663457  0.12749832  1
  Fe  Fe11  1  0.50113275  0.75117655  0.00233220  1
  Fe  Fe12  1  0.75387629  0.24698688  0.74827327  1
  Fe  Fe13  1  0.62538125  0.12163150  0.62291394  1
  Fe  Fe14  1  0.49731332  0.75750249  0.50225808  1
  Fe  Fe15  1  0.62639739  0.37234104  0.37299983  1
  Fe  Fe16  1  0.87667974  0.37375774  0.87385881  1
  Fe  Fe17  1  0.37584062  0.12602849  0.87824822  1
  Fe  Fe18  1  0.49909064  0.50007408  0.74840595  1
  Fe  Fe19  1  0.62868169  0.37765263  0.12732330  1
  Fe  Fe20  1  0.62754499  0.62246528  0.12681338  1
  Fe  Fe21  1  0.12387322  0.37344859  0.87025567  1
  Fe  Fe22  1  0.87537019  0.62628751  0.87696628  1
  Fe  Fe23  1  0.37405991  0.62489491  0.12435574  1
  Fe  Fe24  1  0.75037657  -0.00233269  -0.00064475  1
  Fe  Fe25  1  0.12114202  0.62657293  0.37745773  1
  Fe  Fe26  1  0.24874311  0.24986478  0.49979249  1
  Fe  Fe27  1  0.24747374  0.24725574  0.24946768  1
  Fe  Fe28  1  0.75097324  0.25226463  0.00218899  1
  Fe  Fe29  1  0.37549144  0.12157698  0.62453924  1
  Fe  Fe30  1  0.12431970  0.62383937  0.12406206  1
  Fe  Fe31  1  0.37324015  0.12372041  0.12276201  1
  Fe  Fe32  1  0.50150895  0.49833786  0.00046883  1
  Fe  Fe33  1  -0.00406445  0.50148318  0.25126832  1
  Fe  Fe34  1  0.24680151  0.25276884  0.00199455  1
  Fe  Fe35  1  0.37537647  0.62582730  0.87542751  1
  Fe  Fe36  1  0.12608323  0.87631263  0.62788056  1
  Fe  Fe37  1  0.24773119  -0.00077037  0.49685786  1
  Fe  Fe38  1  0.74987356  0.00137883  0.75281331  1
  Fe  Fe39  1  0.62349618  0.87869404  0.37327563  1
  Fe  Fe40  1  0.87748929  0.87314667  0.87523898  1
  Fe  Fe41  1  0.37624674  0.62631440  0.37691039  1
  Fe  Fe42  1  0.62815811  0.37395015  0.62504426  1
  Fe  Fe43  1  -0.00184605  0.24699224  0.24138260  1
  Fe  Fe44  1  0.24888440  0.49801150  -0.00116106  1
  Fe  Fe45  1  0.87778074  0.12605594  0.88049462  1
  Fe  Fe46  1  0.50062632  -0.00066750  0.00094605  1
  Fe  Fe47  1  0.75522985  0.24832695  0.50030175  1
  Fe  Fe48  1  0.50027726  0.49819872  0.49987128  1
  Fe  Fe49  1  0.62348718  0.62590190  0.37513852  1
  Fe  Fe50  1  0.62472638  0.62778971  0.87365151  1
  Fe  Fe51  1  0.24517885  0.00096104  0.24989204  1
  Fe  Fe52  1  0.37237810  0.37444942  0.62676641  1
  Fe  Fe53  1  0.00042910  0.49700855  -0.00016454  1
  Fe  Fe54  1  0.12438241  0.62562697  0.87449853  1
  Fe  Fe55  1  0.62572274  0.87293209  0.87338158  1
  Fe  Fe56  1  0.37557260  0.37367866  0.37324266  1
  Fe  Fe57  1  0.62658165  0.87680136  0.12704333  1
  Fe  Fe58  1  0.49975700  0.24861104  0.50048520  1
  Fe  Fe59  1  0.24708800  0.74961890  0.25011853  1
  Fe  Fe60  1  0.87940053  0.87669917  0.12531233  1
  Fe  Fe61  1  0.25093484  0.74771244  0.74884675  1
  Fe  Fe62  1  0.75282710  0.24436553  0.24877951  1
  Fe  Fe63  1  0.75056222  0.75041059  0.00040681  1
  Fe  Fe64  1  0.37374306  0.37567842  0.12727508  1
  Fe  Fe65  1  0.37452038  0.87574099  0.87310025  1
  Fe  Fe66  1  -0.00158324  0.74821659  0.74803223  1
  Fe  Fe67  1  0.62505747  0.37308850  0.87356845  1
  Fe  Fe68  1  -0.00048326  0.00249626  0.75111366  1
  Fe  Fe69  1  0.75107477  0.75286471  0.49846007  1
  Fe  Fe70  1  0.11801831  0.12748530  0.37720791  1
  Fe  Fe71  1  0.75268457  0.49762807  0.49541041  1
  Fe  Fe72  1  0.12397963  0.37396029  0.62975362  1
  Fe  Fe73  1  0.88117133  0.87483879  0.37372443  1
  Fe  Fe74  1  0.75091081  0.50152162  0.75181516  1
  Fe  Fe75  1  0.12244741  0.12712334  0.88023870  1
  Fe  Fe76  1  0.12466470  0.62266923  0.62447899  1
  Fe  Fe77  1  0.75316185  0.74889864  0.25166574  1
  Fe  Fe78  1  0.49942333  0.75355944  0.74494968  1
  Fe  Fe79  1  0.25102738  0.75250931  0.50069469  1
  Fe  Fe80  1  0.25033060  0.50167110  0.25286421  1
  Fe  Fe81  1  0.75277982  0.00153234  0.49649234  1
  Fe  Fe82  1  0.49951859  0.75091127  0.24992572  1
  Fe  Fe83  1  0.24586470  0.75416283  0.00016046  1
  Fe  Fe84  1  0.12015110  0.87313945  0.37279205  1
  Fe  Fe85  1  -0.00227701  0.49552209  0.49933100  1
  Fe  Fe86  1  0.75278124  0.00466973  0.25135449  1
  Fe  Fe87  1  0.12130967  0.37207009  0.37235398  1
  Fe  Fe88  1  0.24829044  0.00368908  0.75385721  1
  Fe  Fe89  1  0.37744226  0.12219247  0.37486894  1
  Co  Co90  1  0.25121369  0.50194781  0.75001835  1
  Co  Co91  1  0.37371226  0.87732954  0.37077197  1
  Co  Co92  1  0.49896498  -0.00365177  0.50019554  1
  Co  Co93  1  0.24941673  0.24579422  0.74965499  1
  Co  Co94  1  0.75248999  0.74954628  0.75000198  1
  Co  Co95  1  -0.00098915  0.74679222  0.24689999  1
  Co  Co96  1  0.62774958  0.12384538  0.12107581  1
  Co  Co97  1  0.50065202  0.25272430  0.00276931  1
  Co  Co98  1  0.87566431  0.12179889  0.11859657  1
  Co  Co99  1  0.74814158  0.49991027  -0.00476819  1
  Co  Co100  1  -0.00262197  0.25329385  0.50573433  1
  Co  Co101  1  0.12511743  0.12188920  0.11948020  1
  Co  Co102  1  0.00033269  0.75276751  0.50483253  1
  Co  Co103  1  0.87656333  0.36870904  0.37148176  1
  Co  Co104  1  0.87810555  0.62851412  0.37873121  1
  Co  Co105  1  0.62416872  0.12466367  0.37745432  1
  Co  Co106  1  0.62982184  0.87806040  0.62516322  1
  Co  Co107  1  0.37528192  0.62421612  0.62204109  1
  Co  Co108  1  0.87566263  0.12109539  0.62309439  1
  Co  Co109  1  0.00081887  0.00417440  0.24871695  1
  Co  Co110  1  -0.00258238  0.24576830  0.74890366  1
  Co  Co111  1  0.37044216  0.88115662  0.62774718  1
  Co  Co112  1  0.00146220  0.25506191  0.00440247  1
  Co  Co113  1  0.12283731  0.87340602  0.87138582  1
  Co  Co114  1  0.87449428  0.37690370  0.62872421  1
  Co  Co115  1  0.24855439  -0.00427050  -0.00147765  1
  Co  Co116  1  0.00096890  -0.00290602  0.50137466  1
  Co  Co117  1  0.88211463  0.12686508  0.37676213  1
  Co  Co118  1  0.12190450  0.87598510  0.12738065  1
  Co  Co119  1  0.00243835  -0.00380439  -0.00150844  1
  Co  Co120  1  0.12588557  0.37828886  0.12943388  1
  Co  Co121  1  0.87135237  0.37841681  0.12556010  1
  Co  Co122  1  -0.00201503  0.50252411  0.75102212  1
  Co  Co123  1  0.50289980  0.00085796  0.75233789  1
  Co  Co124  1  0.00115925  0.75014172  0.00085321  1
  Co  Co125  1  0.50184861  0.00303655  0.24754935  1
  Co  Co126  1  0.75293133  0.50257086  0.25685591  1
  Co  Co127  1  0.49991155  0.50022103  0.25027413  1
