# generated using pymatgen
data_Fe45Co19
_symmetry_space_group_name_H-M   'P 1'
_cell_length_a   11.41427153
_cell_length_b   11.41507710
_cell_length_c   11.41526529
_cell_angle_alpha   89.99812830
_cell_angle_beta   90.00598708
_cell_angle_gamma   89.99680102
_symmetry_Int_Tables_number   1
_chemical_formula_structural   Fe45Co19
_chemical_formula_sum   'Fe90 Co38'
_cell_volume   1487.34957673
_cell_formula_units_Z   2
loop_
 _symmetry_equiv_pos_site_id
 _symmetry_equiv_pos_as_xyz
  1  'x, y, z'
loop_
 _atom_site_type_symbol
 _atom_site_label
 _atom_site_symmetry_multiplicity
 _atom_site_fract_x
 _atom_site_fract_y
 _atom_site_fract_z
 _atom_site_occupancy
  Fe  Fe0  1  0.50555704  0.49576213  0.00045761  1
  Fe  Fe1  1  0.75133120  0.75012630  0.75007351  1
  Fe  Fe2  1  0.37572252  0.12658935  0.12327452  1
  Fe  Fe3  1  0.62297659  0.12585675  0.87113157  1
  Fe  Fe4  1  0.00212341  -0.00183058  0.74883886  1
  Fe  Fe5  1  0.37525799  0.62707167  0.62182822  1
  Fe  Fe6  1  0.74781475  0.50103417  0.74733487  1
  Fe  Fe7  1  0.49306324  0.75176994  0.75470715  1
  Fe  Fe8  1  0.87526103  0.87709994  0.87640831  1
  Fe  Fe9  1  0.00147855  0.24800120  0.49793212  1
  Fe  Fe10  1  0.62201463  0.87283438  0.62698310  1
  Fe  Fe11  1  0.37608041  0.62357881  0.12342186  1
  Fe  Fe12  1  0.49994573  -0.00102005  0.24963966  1
  Fe  Fe13  1  0.87679265  0.12438091  0.87655439  1
  Fe  Fe14  1  0.12622539  0.37407648  0.87448859  1
  Fe  Fe15  1  0.49638657  0.75175078  0.25304760  1
  Fe  Fe16  1  0.12566472  0.13255536  0.13069657  1
  Fe  Fe17  1  0.00081710  0.49712536  0.24893499  1
  Fe  Fe18  1  0.74780169  0.24568587  0.50108483  1
  Fe  Fe19  1  0.37407040  0.87544868  0.12305471  1
  Fe  Fe20  1  0.49492596  -0.00292375  0.74873814  1
  Fe  Fe21  1  0.12810012  0.62785483  0.87309610  1
  Fe  Fe22  1  0.37207854  0.11630331  0.37810482  1
  Fe  Fe23  1  0.00360248  0.00119574  0.00181333  1
  Fe  Fe24  1  0.87516409  0.37698983  0.12139032  1
  Fe  Fe25  1  0.87738852  0.87600101  0.62312710  1
  Fe  Fe26  1  0.37112699  0.12414134  0.87423738  1
  Fe  Fe27  1  0.24687242  0.00212729  0.00343978  1
  Fe  Fe28  1  0.12667446  0.63119358  0.62702027  1
  Fe  Fe29  1  0.37370939  0.37246797  0.12332600  1
  Fe  Fe30  1  0.25210853  0.49951871  0.74756677  1
  Fe  Fe31  1  0.74918690  0.75073465  -0.00103751  1
  Fe  Fe32  1  0.87338754  0.37702364  0.37845636  1
  Fe  Fe33  1  -0.00398502  0.75154459  0.25383830  1
  Fe  Fe34  1  0.87441340  0.12172607  0.37570967  1
  Fe  Fe35  1  0.49715373  0.24991868  0.25352965  1
  Fe  Fe36  1  0.62444780  0.12767551  0.12725740  1
  Fe  Fe37  1  0.87472824  0.62171441  0.87756747  1
  Fe  Fe38  1  0.00608040  0.00056523  0.50165099  1
  Fe  Fe39  1  0.62451107  0.87396998  0.12502258  1
  Fe  Fe40  1  0.25508226  0.74937392  0.25275772  1
  Fe  Fe41  1  0.12728728  0.37236318  0.37093989  1
  Fe  Fe42  1  0.12952836  0.87232399  0.87298959  1
  Fe  Fe43  1  0.12511389  0.62664436  0.12760489  1
  Fe  Fe44  1  0.00101597  0.50101850  0.74998294  1
  Fe  Fe45  1  0.62340854  0.37141375  0.62491686  1
  Fe  Fe46  1  0.87526166  0.62281398  0.12365084  1
  Fe  Fe47  1  0.49783088  0.75187281  -0.00360339  1
  Fe  Fe48  1  0.00258733  0.50066688  0.49997529  1
  Fe  Fe49  1  0.50179257  0.00084534  -0.00124961  1
  Fe  Fe50  1  0.87769824  0.62578242  0.62348320  1
  Fe  Fe51  1  0.37372114  0.37539229  0.87751192  1
  Fe  Fe52  1  0.74757595  0.49915121  0.24992343  1
  Fe  Fe53  1  0.12756320  0.12771791  0.62782030  1
  Fe  Fe54  1  0.37522222  0.37887536  0.37830793  1
  Fe  Fe55  1  0.62436105  0.62693637  0.12535646  1
  Fe  Fe56  1  0.00160617  0.25113632  0.00107781  1
  Fe  Fe57  1  0.62351006  0.62502694  0.87382266  1
  Fe  Fe58  1  0.49880764  0.49967029  0.74769950  1
  Fe  Fe59  1  0.12618002  0.62437121  0.37234029  1
  Fe  Fe60  1  -0.00029483  0.75080259  0.49640868  1
  Fe  Fe61  1  0.00052801  0.74900161  -0.00165619  1
  Fe  Fe62  1  0.25089943  0.24799875  0.49924721  1
  Fe  Fe63  1  -0.00084043  0.25084441  0.74925687  1
  Fe  Fe64  1  0.24578445  0.49895463  0.00366317  1
  Fe  Fe65  1  0.50046652  0.49853656  0.25023167  1
  Fe  Fe66  1  0.12779986  0.12601107  0.87140487  1
  Fe  Fe67  1  0.12605834  0.87169966  0.12670447  1
  Fe  Fe68  1  0.74533552  0.00261105  0.50289817  1
  Fe  Fe69  1  0.87513603  0.37785658  0.87655663  1
  Fe  Fe70  1  0.49415822  0.25120894  0.74875694  1
  Fe  Fe71  1  0.24844132  0.50225047  0.49993211  1
  Fe  Fe72  1  0.75189065  0.24999216  0.25142873  1
  Fe  Fe73  1  0.75320618  0.75138754  0.25271141  1
  Fe  Fe74  1  0.62440348  0.62518367  0.37452601  1
  Fe  Fe75  1  0.87567405  0.87681840  0.12437257  1
  Fe  Fe76  1  -0.00016686  0.00208404  0.24927343  1
  Fe  Fe77  1  0.50349310  0.50088704  0.50129581  1
  Fe  Fe78  1  0.50005013  0.24518278  0.49925160  1
  Fe  Fe79  1  0.12625786  0.37344598  0.62476000  1
  Fe  Fe80  1  0.12965927  0.87822825  0.37366185  1
  Fe  Fe81  1  0.75166266  0.74961714  0.49805776  1
  Fe  Fe82  1  0.62598157  0.87818643  0.37373997  1
  Fe  Fe83  1  0.75076443  0.00084827  0.74838683  1
  Fe  Fe84  1  0.87638915  0.37467097  0.62323224  1
  Fe  Fe85  1  0.74721539  0.00082680  0.00064180  1
  Fe  Fe86  1  0.74591016  0.25156600  -0.00135667  1
  Fe  Fe87  1  0.49672740  0.75291197  0.49536270  1
  Fe  Fe88  1  0.75286242  0.24855612  0.74814919  1
  Fe  Fe89  1  0.74636537  0.50229418  0.50283221  1
  Co  Co90  1  0.74984204  -0.00035446  0.24728419  1
  Co  Co91  1  -0.00378571  0.74992619  0.75264818  1
  Co  Co92  1  0.25308033  0.25328820  0.74862227  1
  Co  Co93  1  0.37512212  0.37587064  0.62003561  1
  Co  Co94  1  0.25150510  0.49971202  0.24862293  1
  Co  Co95  1  0.36927456  0.88008538  0.88070699  1
  Co  Co96  1  0.25764195  0.24940883  0.25404058  1
  Co  Co97  1  0.37174676  0.88267523  0.37597083  1
  Co  Co98  1  0.87526607  0.62036223  0.37533713  1
  Co  Co99  1  0.24879504  0.24868823  -0.00085337  1
  Co  Co100  1  0.62509706  0.87562797  0.87331125  1
  Co  Co101  1  0.24542791  -0.00096787  0.50716494  1
  Co  Co102  1  0.50400913  0.00062058  0.50211056  1
  Co  Co103  1  0.87397256  0.12514357  0.12256540  1
  Co  Co104  1  0.62125212  0.12592263  0.63012723  1
  Co  Co105  1  0.87469757  0.88206921  0.37729186  1
  Co  Co106  1  0.24986743  0.00104867  0.24453569  1
  Co  Co107  1  0.25899782  0.75058186  0.75173595  1
  Co  Co108  1  0.37626560  0.62087435  0.37597260  1
  Co  Co109  1  0.62085220  0.63090571  0.62558753  1
  Co  Co110  1  0.62351778  0.37069991  0.12891303  1
  Co  Co111  1  0.62431757  0.37433008  0.37688470  1
  Co  Co112  1  0.12785405  0.12475657  0.37213323  1
  Co  Co113  1  0.37446182  0.61898929  0.87921148  1
  Co  Co114  1  0.12497174  0.86703557  0.62764221  1
  Co  Co115  1  0.12693955  0.36943734  0.13001939  1
  Co  Co116  1  0.87906872  0.12362582  0.62394237  1
  Co  Co117  1  0.37326721  0.12426481  0.62448073  1
  Co  Co118  1  -0.00598384  0.25041638  0.25181536  1
  Co  Co119  1  0.25120275  0.74982415  0.49519458  1
  Co  Co120  1  0.74377416  0.49820065  -0.00008772  1
  Co  Co121  1  0.62491667  0.12340218  0.37090726  1
  Co  Co122  1  0.25007909  -0.00333614  0.74511012  1
  Co  Co123  1  0.00588167  0.50041845  0.00094920  1
  Co  Co124  1  0.62388866  0.37311938  0.86873308  1
  Co  Co125  1  0.50143315  0.24981083  -0.00211218  1
  Co  Co126  1  0.25154396  0.74867060  0.00114986  1
  Co  Co127  1  0.37490315  0.87334371  0.61950644  1
