# generated using pymatgen
data_Fe45Co19
_symmetry_space_group_name_H-M   'P 1'
_cell_length_a   11.41518196
_cell_length_b   11.41485592
_cell_length_c   11.41550607
_cell_angle_alpha   90.00015442
_cell_angle_beta   90.00242998
_cell_angle_gamma   89.99747811
_symmetry_Int_Tables_number   1
_chemical_formula_structural   Fe45Co19
_chemical_formula_sum   'Fe90 Co38'
_cell_volume   1487.47077382
_cell_formula_units_Z   2
loop_
 _symmetry_equiv_pos_site_id
 _symmetry_equiv_pos_as_xyz
  1  'x, y, z'
loop_
 _atom_site_type_symbol
 _atom_site_label
 _atom_site_symmetry_multiplicity
 _atom_site_fract_x
 _atom_site_fract_y
 _atom_site_fract_z
 _atom_site_occupancy
  Fe  Fe0  1  0.62628968  0.87654240  0.12356607  1
  Fe  Fe1  1  0.87363461  0.62476909  0.12464726  1
  Fe  Fe2  1  0.75094530  0.00319014  -0.00226715  1
  Fe  Fe3  1  0.49908386  0.00153795  -0.00175313  1
  Fe  Fe4  1  -0.00117850  0.74674993  0.50303024  1
  Fe  Fe5  1  0.62274752  0.12654403  0.86795902  1
  Fe  Fe6  1  0.75143822  0.75355076  0.25077340  1
  Fe  Fe7  1  0.87421087  0.37481396  0.12332009  1
  Fe  Fe8  1  0.50189227  0.24950448  0.50420591  1
  Fe  Fe9  1  0.24944968  0.00087887  -0.00090347  1
  Fe  Fe10  1  0.12401447  0.12751696  0.62690794  1
  Fe  Fe11  1  0.74724565  0.50008361  0.49715366  1
  Fe  Fe12  1  0.37380179  0.62514248  0.87336831  1
  Fe  Fe13  1  0.75448962  0.25205552  0.74966864  1
  Fe  Fe14  1  0.62655477  0.87479900  0.37926213  1
  Fe  Fe15  1  0.25191328  0.24687878  0.00248065  1
  Fe  Fe16  1  0.49903021  0.75457627  0.25034828  1
  Fe  Fe17  1  0.37587197  0.37295371  0.87707025  1
  Fe  Fe18  1  0.87355437  0.62141619  0.62701424  1
  Fe  Fe19  1  0.24611336  0.00050402  0.49754947  1
  Fe  Fe20  1  0.37175815  0.37830127  0.62347722  1
  Fe  Fe21  1  0.75420176  0.25008396  0.25038675  1
  Fe  Fe22  1  0.50482208  0.00308178  0.50411016  1
  Fe  Fe23  1  -0.00009540  -0.00014850  0.74918961  1
  Fe  Fe24  1  0.50042238  0.74847651  0.50114459  1
  Fe  Fe25  1  0.12483143  0.87622461  0.12479210  1
  Fe  Fe26  1  0.24876822  0.24967141  0.49859943  1
  Fe  Fe27  1  0.25077463  -0.00072467  0.75019925  1
  Fe  Fe28  1  0.62632730  0.12383485  0.12695405  1
  Fe  Fe29  1  0.37396522  0.12068309  0.12959493  1
  Fe  Fe30  1  0.74884624  0.50081480  -0.00164727  1
  Fe  Fe31  1  0.87587188  0.87845194  0.38253237  1
  Fe  Fe32  1  0.37564873  0.12250771  0.37339693  1
  Fe  Fe33  1  -0.00065337  0.49815426  0.25058645  1
  Fe  Fe34  1  0.87419912  0.87938159  0.12225883  1
  Fe  Fe35  1  0.25085430  0.75033982  -0.00049525  1
  Fe  Fe36  1  0.37616597  0.62551517  0.37451678  1
  Fe  Fe37  1  0.24838977  0.49697561  0.25306728  1
  Fe  Fe38  1  0.37456577  0.12436532  0.62624327  1
  Fe  Fe39  1  0.62569396  0.12634243  0.37355210  1
  Fe  Fe40  1  0.87716837  0.37731105  0.62205311  1
  Fe  Fe41  1  0.24775900  0.50110953  -0.00228771  1
  Fe  Fe42  1  0.37776357  0.37286238  0.37475910  1
  Fe  Fe43  1  0.12280711  0.12738461  0.87289095  1
  Fe  Fe44  1  0.75104493  0.24866147  0.50065915  1
  Fe  Fe45  1  0.12195425  0.12591786  0.37086127  1
  Fe  Fe46  1  0.12480677  0.87503149  0.87502257  1
  Fe  Fe47  1  0.37231615  0.62065810  0.62556777  1
  Fe  Fe48  1  0.87478816  0.12079621  0.62651372  1
  Fe  Fe49  1  -0.00299008  0.75334769  0.25041991  1
  Fe  Fe50  1  0.62736531  0.62545540  0.62575064  1
  Fe  Fe51  1  0.62747674  0.62652146  0.87326767  1
  Fe  Fe52  1  0.75260111  0.75391414  0.74764246  1
  Fe  Fe53  1  0.37746912  0.12579604  0.87129201  1
  Fe  Fe54  1  0.87325196  0.62436967  0.37454503  1
  Fe  Fe55  1  0.00124817  0.50078085  -0.00206457  1
  Fe  Fe56  1  -0.00143199  0.75013166  -0.00001800  1
  Fe  Fe57  1  0.11947158  0.37262081  0.37873819  1
  Fe  Fe58  1  0.62673847  0.62799439  0.12616372  1
  Fe  Fe59  1  0.25259867  0.75634951  0.25309957  1
  Fe  Fe60  1  0.49904398  0.75281693  0.74882978  1
  Fe  Fe61  1  0.62554789  0.37244109  0.12534330  1
  Fe  Fe62  1  0.12830630  0.61921103  0.62533658  1
  Fe  Fe63  1  0.12444504  0.62698663  0.37401658  1
  Fe  Fe64  1  0.37494954  0.87669581  0.62299067  1
  Fe  Fe65  1  -0.00051945  0.75043106  0.74755427  1
  Fe  Fe66  1  0.37486490  0.37469368  0.12488000  1
  Fe  Fe67  1  0.12517123  0.62684470  0.12688853  1
  Fe  Fe68  1  0.74814819  0.49807092  0.25236284  1
  Fe  Fe69  1  0.12378000  0.87584177  0.62312099  1
  Fe  Fe70  1  0.37412530  0.62540209  0.12652246  1
  Fe  Fe71  1  0.87627320  0.87825940  0.87494828  1
  Fe  Fe72  1  0.24876021  0.25402313  0.74838937  1
  Fe  Fe73  1  0.75156556  0.24672333  -0.00149571  1
  Fe  Fe74  1  0.12417542  0.37244171  0.12357632  1
  Fe  Fe75  1  0.12242764  0.12387182  0.12976781  1
  Fe  Fe76  1  0.50383371  0.49937466  0.49844897  1
  Fe  Fe77  1  0.49913287  0.75106497  -0.00061577  1
  Fe  Fe78  1  0.00464867  0.49550188  0.75296703  1
  Fe  Fe79  1  0.62481850  0.87597863  0.87371624  1
  Fe  Fe80  1  0.50226791  0.50028590  0.00017162  1
  Fe  Fe81  1  -0.00450203  0.24578402  -0.00058635  1
  Fe  Fe82  1  0.24985860  0.74997319  0.49945574  1
  Fe  Fe83  1  0.50298418  0.49989528  0.25083616  1
  Fe  Fe84  1  0.87509390  0.62432525  0.87393805  1
  Fe  Fe85  1  0.87678411  0.12216655  0.37366602  1
  Fe  Fe86  1  0.24985390  0.74993851  0.74904124  1
  Fe  Fe87  1  0.62492361  0.37211521  0.87351115  1
  Fe  Fe88  1  0.49901690  0.24832313  0.24782799  1
  Fe  Fe89  1  0.50176158  0.49788471  0.74934369  1
  Co  Co90  1  0.74879198  -0.00331821  0.74799019  1
  Co  Co91  1  0.74933907  0.49854733  0.75081758  1
  Co  Co92  1  0.37321889  0.87547416  0.87461605  1
  Co  Co93  1  0.50238006  -0.00244307  0.25112549  1
  Co  Co94  1  0.75161198  0.75066518  -0.00152947  1
  Co  Co95  1  0.12076271  0.87293035  0.37831402  1
  Co  Co96  1  -0.00172741  0.25236059  0.74770254  1
  Co  Co97  1  0.75062805  -0.00175994  0.25173012  1
  Co  Co98  1  0.25026266  0.49914066  0.49410521  1
  Co  Co99  1  -0.00326672  0.25277131  0.24962439  1
  Co  Co100  1  0.62844935  0.37404790  0.62460963  1
  Co  Co101  1  0.62469651  0.36984780  0.37464955  1
  Co  Co102  1  0.74614038  0.00352915  0.50216207  1
  Co  Co103  1  0.87672424  0.87936702  0.62073364  1
  Co  Co104  1  0.87511245  0.37581580  0.87631796  1
  Co  Co105  1  0.87606323  0.37539543  0.37827419  1
  Co  Co106  1  0.62614503  0.62862001  0.37400884  1
  Co  Co107  1  0.00356295  0.00401218  0.50071538  1
  Co  Co108  1  0.00082971  0.00247016  -0.00047855  1
  Co  Co109  1  -0.00213527  0.24552684  0.50196247  1
  Co  Co110  1  0.24801689  -0.00415269  0.25389288  1
  Co  Co111  1  0.62630837  0.12824935  0.63133801  1
  Co  Co112  1  0.12417616  0.36792061  0.87931786  1
  Co  Co113  1  0.37795083  0.87862636  0.38073892  1
  Co  Co114  1  0.24978445  0.25155183  0.25131646  1
  Co  Co115  1  0.49682010  0.25403951  0.74525037  1
  Co  Co116  1  -0.00101650  -0.00387547  0.25063160  1
  Co  Co117  1  0.75301076  0.74807331  0.50249621  1
  Co  Co118  1  0.87537444  0.12264101  0.87099645  1
  Co  Co119  1  0.12398458  0.37585961  0.61983981  1
  Co  Co120  1  -0.00076565  0.50442384  0.49890764  1
  Co  Co121  1  0.87581630  0.12281993  0.12739451  1
  Co  Co122  1  0.12422016  0.62876443  0.87492020  1
  Co  Co123  1  0.24614087  0.49590279  0.75491831  1
  Co  Co124  1  0.49958199  -0.00287623  0.74721705  1
  Co  Co125  1  0.37476593  0.87810074  0.12291874  1
  Co  Co126  1  0.62608857  0.87315030  0.62272926  1
  Co  Co127  1  0.49994202  0.24705773  0.00223265  1
