# generated using pymatgen
data_Fe45Co19
_symmetry_space_group_name_H-M   'P 1'
_cell_length_a   11.41474265
_cell_length_b   11.41449216
_cell_length_c   11.41463124
_cell_angle_alpha   89.99792625
_cell_angle_beta   90.00589028
_cell_angle_gamma   89.99658509
_symmetry_Int_Tables_number   1
_chemical_formula_structural   Fe45Co19
_chemical_formula_sum   'Fe90 Co38'
_cell_volume   1487.25213549
_cell_formula_units_Z   2
loop_
 _symmetry_equiv_pos_site_id
 _symmetry_equiv_pos_as_xyz
  1  'x, y, z'
loop_
 _atom_site_type_symbol
 _atom_site_label
 _atom_site_symmetry_multiplicity
 _atom_site_fract_x
 _atom_site_fract_y
 _atom_site_fract_z
 _atom_site_occupancy
  Fe  Fe0  1  0.87546268  0.62750905  0.87550077  1
  Fe  Fe1  1  0.37459484  0.37438004  0.12210484  1
  Fe  Fe2  1  0.74822094  0.00202755  -0.00378327  1
  Fe  Fe3  1  0.87398749  0.37535755  0.62346020  1
  Fe  Fe4  1  0.25141204  0.75203024  0.25058339  1
  Fe  Fe5  1  0.87625130  0.37653791  0.12335596  1
  Fe  Fe6  1  0.75018776  0.75060794  0.74771828  1
  Fe  Fe7  1  0.24842384  0.50254857  0.49786378  1
  Fe  Fe8  1  0.37393191  0.12298930  0.62366716  1
  Fe  Fe9  1  0.00186272  0.75109392  0.00217200  1
  Fe  Fe10  1  0.49782170  -0.00199920  0.74936398  1
  Fe  Fe11  1  0.62621730  0.37599043  0.62584280  1
  Fe  Fe12  1  0.49700856  -0.00283516  0.25074087  1
  Fe  Fe13  1  0.00166306  -0.00227361  0.00138037  1
  Fe  Fe14  1  0.25050553  0.74829461  0.74815320  1
  Fe  Fe15  1  0.87432630  0.87595727  0.62312335  1
  Fe  Fe16  1  0.00065495  0.00037838  0.50029201  1
  Fe  Fe17  1  0.75305013  -0.00388300  0.25219434  1
  Fe  Fe18  1  0.62368753  0.87067321  0.37595176  1
  Fe  Fe19  1  0.12773962  0.87522533  0.62448199  1
  Fe  Fe20  1  0.50064080  0.75083367  0.00174067  1
  Fe  Fe21  1  0.87639854  0.62878183  0.37599494  1
  Fe  Fe22  1  0.74873954  0.00003601  0.49825675  1
  Fe  Fe23  1  0.37725462  0.12833608  0.87610488  1
  Fe  Fe24  1  0.25070453  0.50017006  0.25180193  1
  Fe  Fe25  1  0.62323137  0.62678444  0.87382806  1
  Fe  Fe26  1  0.37403786  0.12768355  0.37508471  1
  Fe  Fe27  1  0.74838577  0.50300515  0.25023569  1
  Fe  Fe28  1  0.87673556  0.37012238  0.88011105  1
  Fe  Fe29  1  0.62564532  0.87477628  0.87257060  1
  Fe  Fe30  1  0.49626369  0.49868513  0.75202076  1
  Fe  Fe31  1  0.49992834  0.75307608  0.74496761  1
  Fe  Fe32  1  0.37452841  0.37407330  0.37632216  1
  Fe  Fe33  1  0.75201315  0.49938280  0.75299673  1
  Fe  Fe34  1  0.74879098  0.50201969  0.49759490  1
  Fe  Fe35  1  0.13045158  0.11838811  0.12878493  1
  Fe  Fe36  1  0.37275136  0.87159947  0.87567935  1
  Fe  Fe37  1  0.62496121  0.12230357  0.62727095  1
  Fe  Fe38  1  0.87255509  0.12411685  0.12251995  1
  Fe  Fe39  1  0.25031603  -0.00026384  0.49703366  1
  Fe  Fe40  1  0.12168942  0.12510176  0.87395971  1
  Fe  Fe41  1  0.62062256  0.63065137  0.37411756  1
  Fe  Fe42  1  0.36964907  0.87571297  0.12151332  1
  Fe  Fe43  1  0.50001275  0.50256111  -0.00145385  1
  Fe  Fe44  1  0.62274923  0.37210608  0.87399990  1
  Fe  Fe45  1  0.62371481  0.12442922  0.37214907  1
  Fe  Fe46  1  0.12526272  0.37891198  0.12324649  1
  Fe  Fe47  1  0.00064145  0.24932060  0.50086723  1
  Fe  Fe48  1  0.87548082  0.37428284  0.37339311  1
  Fe  Fe49  1  0.87543860  0.62348368  0.12485418  1
  Fe  Fe50  1  0.50133390  0.24886760  0.50185456  1
  Fe  Fe51  1  0.75230323  0.24624839  0.75197347  1
  Fe  Fe52  1  0.12603342  0.87351855  0.87596153  1
  Fe  Fe53  1  0.12490701  0.37497688  0.87579515  1
  Fe  Fe54  1  -0.00251956  0.24829151  0.74811823  1
  Fe  Fe55  1  0.12531421  0.37305035  0.37488731  1
  Fe  Fe56  1  0.12589790  0.62477759  0.87249418  1
  Fe  Fe57  1  -0.00149949  0.49986817  0.75160032  1
  Fe  Fe58  1  -0.00362698  0.75556329  0.24704371  1
  Fe  Fe59  1  0.62471096  0.62211546  0.62580707  1
  Fe  Fe60  1  0.49995158  0.24944617  0.24760372  1
  Fe  Fe61  1  0.37180641  0.12323227  0.12570656  1
  Fe  Fe62  1  0.37772915  0.87046301  0.38037353  1
  Fe  Fe63  1  0.74921591  0.74957180  0.00105326  1
  Fe  Fe64  1  0.00052858  0.50061678  0.49883977  1
  Fe  Fe65  1  0.25253482  0.50239150  -0.00485191  1
  Fe  Fe66  1  0.62675150  0.87491691  0.12686674  1
  Fe  Fe67  1  0.25193141  0.25146440  0.75095634  1
  Fe  Fe68  1  0.87601055  0.12529784  0.37484131  1
  Fe  Fe69  1  0.37393949  0.37607552  0.62313752  1
  Fe  Fe70  1  0.12331253  0.62796142  0.37413416  1
  Fe  Fe71  1  0.12639865  0.12532316  0.37179475  1
  Fe  Fe72  1  0.62377817  0.37468861  0.37374689  1
  Fe  Fe73  1  0.50036225  -0.00070708  -0.00039601  1
  Fe  Fe74  1  0.37308430  0.62419315  0.62315509  1
  Fe  Fe75  1  0.74823880  0.25111074  0.24618234  1
  Fe  Fe76  1  0.50583826  0.24633025  0.00395326  1
  Fe  Fe77  1  0.74894379  0.24890823  0.50035720  1
  Fe  Fe78  1  0.12208597  0.87579765  0.37301447  1
  Fe  Fe79  1  0.25042428  0.00034189  0.75323425  1
  Fe  Fe80  1  0.12559705  0.12409566  0.62602874  1
  Fe  Fe81  1  0.87673273  0.62473184  0.62380524  1
  Fe  Fe82  1  -0.00004670  0.75164720  0.74838987  1
  Fe  Fe83  1  0.75525892  0.00214060  0.75350898  1
  Fe  Fe84  1  0.74804899  0.49972562  -0.00066339  1
  Fe  Fe85  1  0.49922772  0.50194977  0.25060154  1
  Fe  Fe86  1  0.12454485  0.62440437  0.12699744  1
  Fe  Fe87  1  0.00209268  0.24914116  0.24636410  1
  Fe  Fe88  1  0.12605627  0.37745058  0.62630534  1
  Fe  Fe89  1  0.37452734  0.62635945  0.12489360  1
  Co  Co90  1  0.87556505  0.12334479  0.62275441  1
  Co  Co91  1  -0.00447908  -0.00069773  0.24836222  1
  Co  Co92  1  0.50027782  0.00002371  0.49939617  1
  Co  Co93  1  0.00501073  0.24752933  0.00585897  1
  Co  Co94  1  0.49682311  0.75265505  0.24592948  1
  Co  Co95  1  0.87540939  0.87406866  0.37958466  1
  Co  Co96  1  0.62603868  0.11857376  0.12971071  1
  Co  Co97  1  0.62423641  0.62641432  0.12560700  1
  Co  Co98  1  0.62201877  0.12448110  0.87126305  1
  Co  Co99  1  0.87956890  0.12634798  0.88002520  1
  Co  Co100  1  0.50166270  0.75134253  0.50719251  1
  Co  Co101  1  0.50098269  0.50009731  0.49898560  1
  Co  Co102  1  0.24948296  0.24974391  0.50156756  1
  Co  Co103  1  0.25010658  0.00169175  -0.00550541  1
  Co  Co104  1  0.00170614  0.75090338  0.50221222  1
  Co  Co105  1  0.37722999  0.63063761  0.87399289  1
  Co  Co106  1  0.24921618  0.25304826  0.24739148  1
  Co  Co107  1  0.49888359  0.25026006  0.74514378  1
  Co  Co108  1  0.25525711  -0.00412826  0.25545374  1
  Co  Co109  1  0.87556988  0.87394116  0.87623648  1
  Co  Co110  1  0.24706811  0.24824649  0.00052609  1
  Co  Co111  1  0.12536136  0.62283915  0.62675453  1
  Co  Co112  1  0.37735517  0.62745950  0.37605332  1
  Co  Co113  1  0.62362249  0.37879827  0.12611345  1
  Co  Co114  1  0.00012013  0.49994539  0.25229303  1
  Co  Co115  1  0.37797467  0.36915701  0.87896616  1
  Co  Co116  1  0.25400253  0.49867238  0.75410400  1
  Co  Co117  1  0.24726430  0.74686364  0.00075676  1
  Co  Co118  1  0.75289869  0.75024572  0.24954303  1
  Co  Co119  1  0.62814748  0.88007961  0.62609711  1
  Co  Co120  1  0.12933820  0.87835936  0.12609339  1
  Co  Co121  1  0.74415846  0.24904492  0.00139425  1
  Co  Co122  1  -0.00083355  -0.00256399  0.74968058  1
  Co  Co123  1  0.37011655  0.87735816  0.62371063  1
  Co  Co124  1  0.74772684  0.74893447  0.50261554  1
  Co  Co125  1  0.87216800  0.87664146  0.12127330  1
  Co  Co126  1  -0.00000621  0.50301141  -0.00291161  1
  Co  Co127  1  0.24858295  0.74919758  0.49856871  1
