# generated using pymatgen
data_Fe45Co19
_symmetry_space_group_name_H-M   'P 1'
_cell_length_a   11.41508864
_cell_length_b   11.41700898
_cell_length_c   11.41383522
_cell_angle_alpha   90.00698836
_cell_angle_beta   89.99210133
_cell_angle_gamma   90.00593592
_symmetry_Int_Tables_number   1
_chemical_formula_structural   Fe45Co19
_chemical_formula_sum   'Fe90 Co38'
_cell_volume   1487.52139121
_cell_formula_units_Z   2
loop_
 _symmetry_equiv_pos_site_id
 _symmetry_equiv_pos_as_xyz
  1  'x, y, z'
loop_
 _atom_site_type_symbol
 _atom_site_label
 _atom_site_symmetry_multiplicity
 _atom_site_fract_x
 _atom_site_fract_y
 _atom_site_fract_z
 _atom_site_occupancy
  Fe  Fe0  1  0.87663444  0.12433909  0.37420537  1
  Fe  Fe1  1  0.75155304  0.24870451  0.49980673  1
  Fe  Fe2  1  0.00182254  0.24977460  -0.00326470  1
  Fe  Fe3  1  0.12495826  0.87671186  0.87637831  1
  Fe  Fe4  1  0.50042047  0.49925599  0.50026870  1
  Fe  Fe5  1  -0.00126218  0.50303076  0.50471123  1
  Fe  Fe6  1  0.62580367  0.12785372  0.12588438  1
  Fe  Fe7  1  0.00261346  0.74555908  0.50035240  1
  Fe  Fe8  1  0.62827962  0.62325443  0.12386023  1
  Fe  Fe9  1  0.37297587  0.12758414  0.62872736  1
  Fe  Fe10  1  0.75056017  0.00014170  0.00040399  1
  Fe  Fe11  1  0.24853693  0.49455474  0.25242080  1
  Fe  Fe12  1  0.24850090  0.00048872  0.25078425  1
  Fe  Fe13  1  0.12766377  0.12541877  0.62829532  1
  Fe  Fe14  1  0.75120409  0.50074983  0.74861104  1
  Fe  Fe15  1  0.49691366  0.00204799  0.50043977  1
  Fe  Fe16  1  0.74998174  0.75074919  0.49610959  1
  Fe  Fe17  1  0.49915153  0.74808059  0.49822795  1
  Fe  Fe18  1  0.12592145  0.87418580  0.12396923  1
  Fe  Fe19  1  0.87831077  0.37479061  0.87150385  1
  Fe  Fe20  1  0.24935238  0.74935854  0.25173632  1
  Fe  Fe21  1  0.87270900  0.62783421  0.87248977  1
  Fe  Fe22  1  0.37062890  0.12938091  0.12254872  1
  Fe  Fe23  1  0.75043279  -0.00313678  0.74958905  1
  Fe  Fe24  1  0.87415634  0.12613882  0.12494412  1
  Fe  Fe25  1  0.62194498  0.87584123  0.12683270  1
  Fe  Fe26  1  0.74941330  0.74880505  0.25126302  1
  Fe  Fe27  1  0.00187355  0.74629225  0.25074766  1
  Fe  Fe28  1  0.12463586  0.62002169  0.87246394  1
  Fe  Fe29  1  0.62002477  0.87558232  0.37180624  1
  Fe  Fe30  1  -0.00417577  0.50234023  0.00150231  1
  Fe  Fe31  1  0.24901641  0.49560260  0.49928853  1
  Fe  Fe32  1  0.00221747  0.00026289  0.50175245  1
  Fe  Fe33  1  0.24877123  0.75017742  0.49687146  1
  Fe  Fe34  1  0.87627293  0.87323062  0.87297801  1
  Fe  Fe35  1  -0.00015528  0.50114713  0.24883730  1
  Fe  Fe36  1  0.62630244  0.37406090  0.62453367  1
  Fe  Fe37  1  0.87340518  0.37328570  0.12441121  1
  Fe  Fe38  1  0.87736701  0.12425607  0.87252120  1
  Fe  Fe39  1  0.87581995  0.12420319  0.62734890  1
  Fe  Fe40  1  0.37208586  0.62472588  0.62570565  1
  Fe  Fe41  1  0.12625260  0.87398797  0.62459869  1
  Fe  Fe42  1  0.50015205  0.25184655  0.25108782  1
  Fe  Fe43  1  0.12890068  0.12768955  0.12046194  1
  Fe  Fe44  1  0.62513479  0.12641964  0.37425224  1
  Fe  Fe45  1  0.37446446  0.87352972  0.62489532  1
  Fe  Fe46  1  0.49892122  0.25076934  0.50179674  1
  Fe  Fe47  1  0.12527112  0.37349521  0.12184125  1
  Fe  Fe48  1  0.49802287  0.00132408  0.00207623  1
  Fe  Fe49  1  0.25080301  -0.00088986  0.75163308  1
  Fe  Fe50  1  0.62268196  0.37825060  0.87403767  1
  Fe  Fe51  1  0.00088435  0.25077807  0.50431925  1
  Fe  Fe52  1  0.12287992  0.37778992  0.63061022  1
  Fe  Fe53  1  0.87992500  0.87607396  0.37263412  1
  Fe  Fe54  1  0.62328951  0.87558621  0.62463920  1
  Fe  Fe55  1  0.75019343  0.00130272  0.24973428  1
  Fe  Fe56  1  0.74975283  0.25022789  0.74978894  1
  Fe  Fe57  1  0.74843097  0.75102719  -0.00095433  1
  Fe  Fe58  1  0.75182247  0.50188177  0.50017933  1
  Fe  Fe59  1  0.37220485  0.62383087  0.12543807  1
  Fe  Fe60  1  0.37647137  0.87583247  0.37290109  1
  Fe  Fe61  1  0.50048324  0.74753834  -0.00009945  1
  Fe  Fe62  1  0.74922804  0.25143968  -0.00247660  1
  Fe  Fe63  1  0.75042411  -0.00167301  0.49922408  1
  Fe  Fe64  1  0.37036941  0.12934748  0.37708995  1
  Fe  Fe65  1  0.37631963  0.62201492  0.87373544  1
  Fe  Fe66  1  0.37453074  0.87345130  0.12542718  1
  Fe  Fe67  1  0.50309888  0.74882301  0.75207569  1
  Fe  Fe68  1  0.87654876  0.37491245  0.37673468  1
  Fe  Fe69  1  0.37437147  0.62234741  0.37466935  1
  Fe  Fe70  1  0.87644174  0.87079837  0.62708227  1
  Fe  Fe71  1  0.00138101  0.74715421  -0.00040670  1
  Fe  Fe72  1  -0.00024868  0.00018031  0.00087185  1
  Fe  Fe73  1  0.25067155  0.49716146  -0.00276412  1
  Fe  Fe74  1  0.62374701  0.12367485  0.62685047  1
  Fe  Fe75  1  0.12762928  0.12763573  0.37752038  1
  Fe  Fe76  1  0.37431453  0.37276668  0.12344999  1
  Fe  Fe77  1  0.50121751  0.50076030  0.00211902  1
  Fe  Fe78  1  0.49908282  0.25054838  -0.00343184  1
  Fe  Fe79  1  0.74913655  0.49758450  0.25056491  1
  Fe  Fe80  1  0.62709590  0.62714798  0.62437228  1
  Fe  Fe81  1  0.62215479  0.12177192  0.87227590  1
  Fe  Fe82  1  0.24891775  0.25471332  0.75976591  1
  Fe  Fe83  1  0.87738892  0.87434020  0.12644577  1
  Fe  Fe84  1  0.37607814  0.87549708  0.87681138  1
  Fe  Fe85  1  0.00141745  0.24913259  0.24932246  1
  Fe  Fe86  1  0.50257620  0.49838907  0.25112281  1
  Fe  Fe87  1  0.24865975  0.74807462  0.75278660  1
  Fe  Fe88  1  0.12732933  0.62406190  0.12444969  1
  Fe  Fe89  1  0.37591197  0.37496635  0.62912649  1
  Co  Co90  1  0.11783444  0.38134807  0.87348379  1
  Co  Co91  1  0.38124182  0.38018699  0.87405646  1
  Co  Co92  1  0.00014540  -0.00194525  0.74854232  1
  Co  Co93  1  0.87094149  0.63224458  0.62677468  1
  Co  Co94  1  -0.00593841  0.50498223  0.74511870  1
  Co  Co95  1  0.13028825  0.62335190  0.62550108  1
  Co  Co96  1  0.50248014  0.50319705  0.74515042  1
  Co  Co97  1  0.37604718  0.12277386  0.87391002  1
  Co  Co98  1  0.87212416  0.62620841  0.12547252  1
  Co  Co99  1  0.24968061  0.74703136  -0.00221124  1
  Co  Co100  1  0.87570620  0.62382573  0.37457781  1
  Co  Co101  1  0.75354782  0.49752494  -0.00146877  1
  Co  Co102  1  0.87398927  0.37305736  0.62514641  1
  Co  Co103  1  0.75123357  0.25157089  0.25065953  1
  Co  Co104  1  0.25096908  -0.00094989  0.50047391  1
  Co  Co105  1  0.62550858  0.37365922  0.12295343  1
  Co  Co106  1  0.37641410  0.37389852  0.37567587  1
  Co  Co107  1  0.62444839  0.62483871  0.37541428  1
  Co  Co108  1  0.12390979  0.12181988  0.87553009  1
  Co  Co109  1  0.62292737  0.87904774  0.87767471  1
  Co  Co110  1  0.49676876  0.00539060  0.24929867  1
  Co  Co111  1  0.25152547  -0.00055550  0.00066652  1
  Co  Co112  1  0.12326761  0.87564833  0.37542684  1
  Co  Co113  1  0.74399593  0.75242403  0.75268710  1
  Co  Co114  1  0.00395176  0.00370748  0.24809708  1
  Co  Co115  1  0.24839164  0.25611989  0.50377559  1
  Co  Co116  1  0.50061246  0.25125356  0.75081585  1
  Co  Co117  1  0.00520777  0.74775292  0.74989073  1
  Co  Co118  1  0.25017366  0.25499526  -0.00956528  1
  Co  Co119  1  0.24792519  0.25379751  0.25027071  1
  Co  Co120  1  0.12043526  0.37434248  0.37640993  1
  Co  Co121  1  0.00159238  0.24887067  0.74951948  1
  Co  Co122  1  0.25199822  0.49793438  0.75176566  1
  Co  Co123  1  0.49889266  0.74477964  0.24808020  1
  Co  Co124  1  0.62619577  0.62112204  0.87654478  1
  Co  Co125  1  0.49814817  -0.00281172  0.74782232  1
  Co  Co126  1  0.12632813  0.62197557  0.37560148  1
  Co  Co127  1  0.62570911  0.37357824  0.37790128  1
