# generated using pymatgen
data_Fe45Co19
_symmetry_space_group_name_H-M   'P 1'
_cell_length_a   11.41471467
_cell_length_b   11.41478081
_cell_length_c   11.41349882
_cell_angle_alpha   90.00155157
_cell_angle_beta   90.00114054
_cell_angle_gamma   90.00553443
_symmetry_Int_Tables_number   1
_chemical_formula_structural   Fe45Co19
_chemical_formula_sum   'Fe90 Co38'
_cell_volume   1487.13855332
_cell_formula_units_Z   2
loop_
 _symmetry_equiv_pos_site_id
 _symmetry_equiv_pos_as_xyz
  1  'x, y, z'
loop_
 _atom_site_type_symbol
 _atom_site_label
 _atom_site_symmetry_multiplicity
 _atom_site_fract_x
 _atom_site_fract_y
 _atom_site_fract_z
 _atom_site_occupancy
  Fe  Fe0  1  0.74998442  -0.00064340  0.24984734  1
  Fe  Fe1  1  0.62363100  0.62370173  0.62436020  1
  Fe  Fe2  1  0.62433445  0.62569790  0.87434441  1
  Fe  Fe3  1  0.37005440  0.87414997  0.12792990  1
  Fe  Fe4  1  0.62254682  0.87729706  0.62379688  1
  Fe  Fe5  1  0.25061282  0.24916484  0.24748354  1
  Fe  Fe6  1  0.62453650  0.37560886  0.62284609  1
  Fe  Fe7  1  0.37298572  0.37511034  0.62127216  1
  Fe  Fe8  1  0.37800903  0.87924603  0.62220783  1
  Fe  Fe9  1  0.00009757  0.74801939  -0.00164243  1
  Fe  Fe10  1  -0.00041060  -0.00055232  0.75195397  1
  Fe  Fe11  1  0.12438562  0.37705229  0.12364600  1
  Fe  Fe12  1  0.62592843  0.37513907  0.87652287  1
  Fe  Fe13  1  0.37787718  0.62337477  0.62585987  1
  Fe  Fe14  1  0.50106170  0.50082089  0.00071291  1
  Fe  Fe15  1  0.62556307  0.12945903  0.37164399  1
  Fe  Fe16  1  0.37358482  0.12326806  0.87408751  1
  Fe  Fe17  1  0.87558862  0.87504724  0.12464942  1
  Fe  Fe18  1  0.75108101  0.74865623  0.00246543  1
  Fe  Fe19  1  0.00256973  -0.00096434  0.25027224  1
  Fe  Fe20  1  0.25159559  0.00301703  0.50028089  1
  Fe  Fe21  1  0.12716320  0.37607408  0.62372051  1
  Fe  Fe22  1  0.49864587  0.25124254  0.75094857  1
  Fe  Fe23  1  0.87556664  0.87561091  0.62380106  1
  Fe  Fe24  1  0.75103810  0.24910785  0.50119289  1
  Fe  Fe25  1  0.12262485  0.62546156  0.62413221  1
  Fe  Fe26  1  0.75090408  0.74787900  0.50094565  1
  Fe  Fe27  1  0.12979764  0.37570803  0.37779294  1
  Fe  Fe28  1  0.12483820  0.87337552  0.62304702  1
  Fe  Fe29  1  0.12428225  0.12528885  0.12346203  1
  Fe  Fe30  1  0.75074740  0.74908049  0.74780414  1
  Fe  Fe31  1  0.87440214  0.37738647  0.62657680  1
  Fe  Fe32  1  0.24892142  0.50062907  -0.00337815  1
  Fe  Fe33  1  0.87340918  0.12432579  0.87388623  1
  Fe  Fe34  1  0.87320776  0.37503142  0.37358424  1
  Fe  Fe35  1  0.00238725  0.74959491  0.25134722  1
  Fe  Fe36  1  0.00172702  -0.00058769  0.49861718  1
  Fe  Fe37  1  0.12938474  0.87341554  0.37491971  1
  Fe  Fe38  1  0.37383011  0.12658035  0.37331114  1
  Fe  Fe39  1  0.50041280  0.75180666  0.75000736  1
  Fe  Fe40  1  0.25055188  0.50016329  0.75099554  1
  Fe  Fe41  1  0.49837978  0.25000517  0.00062119  1
  Fe  Fe42  1  0.62642584  0.87549899  0.12547214  1
  Fe  Fe43  1  0.74868320  0.50001671  0.00194764  1
  Fe  Fe44  1  0.25126038  0.25125260  -0.00007553  1
  Fe  Fe45  1  0.00120116  0.25285506  0.25100297  1
  Fe  Fe46  1  -0.00003882  0.25247028  -0.00354853  1
  Fe  Fe47  1  0.00047015  0.50005472  0.49851002  1
  Fe  Fe48  1  0.75027693  0.25158426  0.74866868  1
  Fe  Fe49  1  0.12461222  0.12589323  0.37440590  1
  Fe  Fe50  1  0.25033183  0.25012645  0.75002481  1
  Fe  Fe51  1  0.87539606  0.87478327  0.37511822  1
  Fe  Fe52  1  0.49670059  -0.00191913  0.25165430  1
  Fe  Fe53  1  0.24896907  0.00031658  0.00052155  1
  Fe  Fe54  1  0.12555703  0.62463310  0.12359510  1
  Fe  Fe55  1  0.12402668  0.12520567  0.62738654  1
  Fe  Fe56  1  0.87623382  0.37829789  0.12552585  1
  Fe  Fe57  1  0.38002703  0.62716785  0.37268391  1
  Fe  Fe58  1  0.50126355  0.49815669  0.49421661  1
  Fe  Fe59  1  0.87669684  0.12384204  0.62431811  1
  Fe  Fe60  1  0.12588682  0.87350149  0.87468439  1
  Fe  Fe61  1  0.74982702  0.24929884  0.00344624  1
  Fe  Fe62  1  0.49815779  0.75000186  0.00300889  1
  Fe  Fe63  1  0.87734504  0.12420819  0.12679318  1
  Fe  Fe64  1  0.62119127  0.86985007  0.37474859  1
  Fe  Fe65  1  0.62657160  0.12266187  0.87451918  1
  Fe  Fe66  1  0.00117485  0.25158697  0.50070179  1
  Fe  Fe67  1  0.37706093  0.37794257  0.12652549  1
  Fe  Fe68  1  0.00014771  -0.00073182  -0.00152383  1
  Fe  Fe69  1  0.49719466  0.25026617  0.49796596  1
  Fe  Fe70  1  0.87608892  0.62230613  0.12873828  1
  Fe  Fe71  1  0.25230845  0.74664202  0.49977105  1
  Fe  Fe72  1  0.62186605  0.12610889  0.12815223  1
  Fe  Fe73  1  0.50026420  0.49788659  0.75106338  1
  Fe  Fe74  1  0.49952442  -0.00093932  0.00016530  1
  Fe  Fe75  1  0.74753271  0.50212262  0.49672447  1
  Fe  Fe76  1  0.25186398  0.75041491  0.74904540  1
  Fe  Fe77  1  -0.00195585  0.74965563  0.75075873  1
  Fe  Fe78  1  0.00050756  0.49859143  0.75329258  1
  Fe  Fe79  1  0.74751144  0.00053489  0.49851146  1
  Fe  Fe80  1  0.62339928  0.62458730  0.13102062  1
  Fe  Fe81  1  0.87319728  0.62289982  0.87408613  1
  Fe  Fe82  1  0.62162983  0.12324440  0.62564475  1
  Fe  Fe83  1  0.24977167  0.50344213  0.25264904  1
  Fe  Fe84  1  0.87546429  0.62493343  0.37282133  1
  Fe  Fe85  1  0.37524109  0.62570124  0.87613975  1
  Fe  Fe86  1  0.12751595  0.87326939  0.12660518  1
  Fe  Fe87  1  0.62921723  0.87614017  0.87628362  1
  Fe  Fe88  1  0.37395341  0.87486763  0.87580724  1
  Fe  Fe89  1  0.87557945  0.12564661  0.37398503  1
  Co  Co90  1  0.00337409  0.49885757  0.25155763  1
  Co  Co91  1  0.87220315  0.87511372  0.87639244  1
  Co  Co92  1  0.37330207  0.87334257  0.37554806  1
  Co  Co93  1  0.25020536  0.74920588  -0.00017799  1
  Co  Co94  1  -0.00123274  0.74995633  0.49840038  1
  Co  Co95  1  0.75048830  0.00190238  0.00380881  1
  Co  Co96  1  0.75165370  0.75161015  0.24922079  1
  Co  Co97  1  0.25003593  0.00310540  0.25001152  1
  Co  Co98  1  0.50023439  0.00312927  0.49513492  1
  Co  Co99  1  0.62274633  0.63107317  0.37270727  1
  Co  Co100  1  0.87658215  0.62235034  0.62481484  1
  Co  Co101  1  0.25019116  0.74518177  0.25138751  1
  Co  Co102  1  0.12696800  0.12524092  0.87532976  1
  Co  Co103  1  0.12706234  0.62596584  0.87354760  1
  Co  Co104  1  0.25185224  0.50656128  0.49916610  1
  Co  Co105  1  0.00077947  0.50098861  -0.00278222  1
  Co  Co106  1  0.49588114  0.25454896  0.25157804  1
  Co  Co107  1  -0.00047970  0.25102967  0.75066228  1
  Co  Co108  1  0.24953083  0.24498292  0.50239254  1
  Co  Co109  1  0.37644288  0.12467662  0.12455343  1
  Co  Co110  1  0.74730088  0.49991079  0.74991815  1
  Co  Co111  1  0.12221851  0.62583079  0.37783800  1
  Co  Co112  1  0.24965824  -0.00146519  0.74890788  1
  Co  Co113  1  0.50268666  0.49564928  0.25494165  1
  Co  Co114  1  0.62263804  0.37304154  0.12493299  1
  Co  Co115  1  0.75017609  -0.00038416  0.74738738  1
  Co  Co116  1  0.36839527  0.37415961  0.37642283  1
  Co  Co117  1  0.49840229  0.74891228  0.50326222  1
  Co  Co118  1  0.37783075  0.12368339  0.62733093  1
  Co  Co119  1  0.37580020  0.37614797  0.87601614  1
  Co  Co120  1  0.37473876  0.62138766  0.12443800  1
  Co  Co121  1  0.50040409  -0.00141229  0.75303609  1
  Co  Co122  1  0.87172549  0.37573563  0.87560638  1
  Co  Co123  1  0.75321685  0.25104414  0.24589271  1
  Co  Co124  1  0.12554214  0.37391585  0.87459756  1
  Co  Co125  1  0.74581564  0.49850060  0.25157107  1
  Co  Co126  1  0.62838535  0.36889329  0.37463063  1
  Co  Co127  1  0.49627084  0.75189657  0.24457539  1
