# generated using pymatgen
data_Fe45Co19
_symmetry_space_group_name_H-M   'P 1'
_cell_length_a   11.41466597
_cell_length_b   11.41478777
_cell_length_c   11.41538942
_cell_angle_alpha   89.99771223
_cell_angle_beta   89.99966197
_cell_angle_gamma   89.99901952
_symmetry_Int_Tables_number   1
_chemical_formula_structural   Fe45Co19
_chemical_formula_sum   'Fe90 Co38'
_cell_volume   1487.37945767
_cell_formula_units_Z   2
loop_
 _symmetry_equiv_pos_site_id
 _symmetry_equiv_pos_as_xyz
  1  'x, y, z'
loop_
 _atom_site_type_symbol
 _atom_site_label
 _atom_site_symmetry_multiplicity
 _atom_site_fract_x
 _atom_site_fract_y
 _atom_site_fract_z
 _atom_site_occupancy
  Fe  Fe0  1  0.37441445  0.87618889  0.37633565  1
  Fe  Fe1  1  0.49970547  0.74827088  0.49835881  1
  Fe  Fe2  1  0.25063006  0.50135653  0.50073492  1
  Fe  Fe3  1  0.87317838  0.62398122  0.87240296  1
  Fe  Fe4  1  0.25061348  0.49848476  0.74843871  1
  Fe  Fe5  1  0.37476761  0.12696205  0.62687467  1
  Fe  Fe6  1  0.87382851  0.87395322  0.87382157  1
  Fe  Fe7  1  0.75087894  0.50307490  0.50016894  1
  Fe  Fe8  1  -0.00094443  0.24921593  0.25092212  1
  Fe  Fe9  1  0.25099624  0.75218790  0.74872297  1
  Fe  Fe10  1  0.50256686  -0.00310198  0.25044624  1
  Fe  Fe11  1  0.62352627  0.37500736  0.62191560  1
  Fe  Fe12  1  0.75011852  0.49726651  0.24958430  1
  Fe  Fe13  1  0.12463637  0.12325608  0.37520238  1
  Fe  Fe14  1  0.12365908  0.12273455  0.12111595  1
  Fe  Fe15  1  0.00122849  0.75013432  0.75039612  1
  Fe  Fe16  1  0.50041982  0.50156678  0.49656793  1
  Fe  Fe17  1  0.12336606  0.37397502  0.62336620  1
  Fe  Fe18  1  0.75372130  0.75069499  0.50079230  1
  Fe  Fe19  1  0.37603910  0.62667401  0.62681305  1
  Fe  Fe20  1  -0.00297663  0.49654384  0.74952024  1
  Fe  Fe21  1  -0.00123277  0.74837048  -0.00155940  1
  Fe  Fe22  1  0.12042374  0.87856815  0.12072396  1
  Fe  Fe23  1  0.24877784  -0.00124444  0.24869144  1
  Fe  Fe24  1  0.49913298  0.00372188  0.49974072  1
  Fe  Fe25  1  0.12474410  0.62423055  0.37361191  1
  Fe  Fe26  1  0.75025585  0.50198239  0.00284248  1
  Fe  Fe27  1  0.37573706  0.12563344  0.12722607  1
  Fe  Fe28  1  0.37688701  0.62411168  0.12877606  1
  Fe  Fe29  1  0.87862950  0.37543671  0.12337301  1
  Fe  Fe30  1  0.24851724  0.49920569  0.00231805  1
  Fe  Fe31  1  0.75071152  0.49642752  0.74796378  1
  Fe  Fe32  1  0.74877505  0.24904982  0.00207927  1
  Fe  Fe33  1  0.62616227  0.37598553  0.87803400  1
  Fe  Fe34  1  0.12677357  0.62379718  0.87327158  1
  Fe  Fe35  1  0.50297205  0.24985094  0.74975483  1
  Fe  Fe36  1  0.24806117  0.25130019  0.24791242  1
  Fe  Fe37  1  0.62617529  0.37242641  0.37487090  1
  Fe  Fe38  1  0.24842579  0.75327875  0.24954929  1
  Fe  Fe39  1  0.74813009  -0.00526233  0.24837441  1
  Fe  Fe40  1  0.75042015  0.74894762  0.00234454  1
  Fe  Fe41  1  0.12048281  0.87868546  0.37836732  1
  Fe  Fe42  1  0.37824091  0.37470192  0.62462633  1
  Fe  Fe43  1  -0.00079232  0.24667012  -0.00401802  1
  Fe  Fe44  1  0.62413731  0.87394801  0.87708321  1
  Fe  Fe45  1  0.12332238  0.37424351  0.37682653  1
  Fe  Fe46  1  -0.00365423  0.74704339  0.50017546  1
  Fe  Fe47  1  0.50116153  0.74413406  -0.00199243  1
  Fe  Fe48  1  0.37539517  0.62521707  0.37067527  1
  Fe  Fe49  1  0.12181660  0.62321005  0.12664474  1
  Fe  Fe50  1  0.50241508  0.50466519  0.75190464  1
  Fe  Fe51  1  0.37109926  0.12406332  0.87177588  1
  Fe  Fe52  1  0.24821335  0.49613016  0.24817073  1
  Fe  Fe53  1  -0.00256036  0.50407914  0.49997406  1
  Fe  Fe54  1  0.50039588  0.00288937  -0.00036130  1
  Fe  Fe55  1  0.25032739  0.25033382  -0.00074665  1
  Fe  Fe56  1  0.87663794  0.62525806  0.12841949  1
  Fe  Fe57  1  0.74910593  0.75672725  0.25004297  1
  Fe  Fe58  1  0.50006338  -0.00099844  0.74912381  1
  Fe  Fe59  1  0.62253322  0.87449710  0.62386347  1
  Fe  Fe60  1  0.50234097  0.25195285  0.24894162  1
  Fe  Fe61  1  0.24991598  0.74908973  0.00181168  1
  Fe  Fe62  1  0.37509073  0.87391807  0.87556530  1
  Fe  Fe63  1  0.50177027  0.24771673  0.00073868  1
  Fe  Fe64  1  0.62807472  0.12468421  0.87241879  1
  Fe  Fe65  1  0.62596595  0.12529270  0.37311176  1
  Fe  Fe66  1  -0.00175078  0.24572292  0.50185510  1
  Fe  Fe67  1  0.62576166  0.62684721  0.37137478  1
  Fe  Fe68  1  0.12295076  0.87507990  0.62301322  1
  Fe  Fe69  1  0.75148059  -0.00127503  0.50273625  1
  Fe  Fe70  1  0.37539417  0.37291488  0.37424645  1
  Fe  Fe71  1  0.00062443  0.00149299  0.75145097  1
  Fe  Fe72  1  0.37822355  0.87431991  0.12358461  1
  Fe  Fe73  1  0.87050397  0.12754125  0.86966643  1
  Fe  Fe74  1  -0.00124090  0.75307562  0.25186753  1
  Fe  Fe75  1  0.24941539  0.74875949  0.50046238  1
  Fe  Fe76  1  0.12350796  0.37416495  0.87553237  1
  Fe  Fe77  1  0.12792230  0.12812716  0.63043938  1
  Fe  Fe78  1  0.25123044  0.00178934  0.50159312  1
  Fe  Fe79  1  0.50275847  0.50357540  0.00231640  1
  Fe  Fe80  1  0.87572769  0.37440982  0.37756812  1
  Fe  Fe81  1  0.87074959  0.12615686  0.63097492  1
  Fe  Fe82  1  0.25272937  0.24944732  0.49955781  1
  Fe  Fe83  1  0.87377977  0.12226002  0.12670079  1
  Fe  Fe84  1  0.74678040  0.75097918  0.74764413  1
  Fe  Fe85  1  0.37760400  0.37691877  0.87686543  1
  Fe  Fe86  1  0.74885792  0.24796154  0.50129450  1
  Fe  Fe87  1  0.75108912  -0.00126745  0.00018874  1
  Fe  Fe88  1  0.87463802  0.12096207  0.37337541  1
  Fe  Fe89  1  0.12682913  0.87961156  0.87843217  1
  Co  Co90  1  0.62626317  0.12412859  0.12704588  1
  Co  Co91  1  0.50167978  0.49596229  0.25066347  1
  Co  Co92  1  0.37699722  0.37398344  0.12276095  1
  Co  Co93  1  0.74765478  -0.00456193  0.75034845  1
  Co  Co94  1  0.37099980  0.62397425  0.87493785  1
  Co  Co95  1  0.50121058  0.74821110  0.75296246  1
  Co  Co96  1  0.25190787  0.25524138  0.75179454  1
  Co  Co97  1  0.62664462  0.12388245  0.62599792  1
  Co  Co98  1  -0.00566946  0.00299248  -0.00544407  1
  Co  Co99  1  0.62474064  0.62671289  0.13045823  1
  Co  Co100  1  0.87271936  0.62619521  0.37108083  1
  Co  Co101  1  -0.00135217  0.00533825  0.50659185  1
  Co  Co102  1  0.00122335  0.00039426  0.24842312  1
  Co  Co103  1  0.74654201  0.25647158  0.74823783  1
  Co  Co104  1  0.87445155  0.62544060  0.62871435  1
  Co  Co105  1  0.12422746  0.62463741  0.62661529  1
  Co  Co106  1  0.63043807  0.62411320  0.87435697  1
  Co  Co107  1  -0.00067055  0.50309292  -0.00279272  1
  Co  Co108  1  0.62258213  0.87469139  0.11916292  1
  Co  Co109  1  0.87675667  0.87477346  0.62665239  1
  Co  Co110  1  0.12924469  0.12323991  0.87374845  1
  Co  Co111  1  0.87881395  0.87922417  0.37735914  1
  Co  Co112  1  0.75336044  0.25166821  0.24947798  1
  Co  Co113  1  0.87494504  0.37415889  0.62020564  1
  Co  Co114  1  0.62529928  0.87550428  0.38034887  1
  Co  Co115  1  0.25103378  -0.00442858  0.74721485  1
  Co  Co116  1  0.11998266  0.37369472  0.12278895  1
  Co  Co117  1  0.62574406  0.37355983  0.12383904  1
  Co  Co118  1  0.87744149  0.87578705  0.12387939  1
  Co  Co119  1  0.87235100  0.37420188  0.87859770  1
  Co  Co120  1  0.37546926  0.12545755  0.37136013  1
  Co  Co121  1  0.37809231  0.87302279  0.62300373  1
  Co  Co122  1  -0.00148273  0.25165732  0.75121704  1
  Co  Co123  1  -0.00041680  0.49782007  0.25252161  1
  Co  Co124  1  0.25350301  0.00025504  0.00204606  1
  Co  Co125  1  0.50149164  0.75427082  0.25185778  1
  Co  Co126  1  0.50063126  0.24760401  0.49983362  1
  Co  Co127  1  0.62522846  0.62565241  0.62384627  1
