# generated using pymatgen
data_Fe45Co19
_symmetry_space_group_name_H-M   'P 1'
_cell_length_a   11.41553801
_cell_length_b   11.41482744
_cell_length_c   11.41445493
_cell_angle_alpha   89.99176613
_cell_angle_beta   89.99903497
_cell_angle_gamma   90.00174882
_symmetry_Int_Tables_number   1
_chemical_formula_structural   Fe45Co19
_chemical_formula_sum   'Fe90 Co38'
_cell_volume   1487.37647383
_cell_formula_units_Z   2
loop_
 _symmetry_equiv_pos_site_id
 _symmetry_equiv_pos_as_xyz
  1  'x, y, z'
loop_
 _atom_site_type_symbol
 _atom_site_label
 _atom_site_symmetry_multiplicity
 _atom_site_fract_x
 _atom_site_fract_y
 _atom_site_fract_z
 _atom_site_occupancy
  Fe  Fe0  1  0.12672964  0.37690606  0.62381252  1
  Fe  Fe1  1  0.12288954  0.62563127  0.37626086  1
  Fe  Fe2  1  0.25080934  0.50190841  -0.00208511  1
  Fe  Fe3  1  -0.00031592  0.24998194  0.50296924  1
  Fe  Fe4  1  0.87815593  0.62668206  0.87726197  1
  Fe  Fe5  1  0.37605550  0.87468756  0.37437843  1
  Fe  Fe6  1  0.37572669  0.62622680  0.12483640  1
  Fe  Fe7  1  0.75006241  0.24772637  0.00082801  1
  Fe  Fe8  1  0.37549911  0.12408423  0.62706892  1
  Fe  Fe9  1  0.74919373  0.50210757  0.75056286  1
  Fe  Fe10  1  0.75021572  0.00045284  0.75251428  1
  Fe  Fe11  1  0.87370150  0.62553500  0.62280454  1
  Fe  Fe12  1  0.49999418  0.25071211  0.50019266  1
  Fe  Fe13  1  0.62385357  0.62622978  0.37369201  1
  Fe  Fe14  1  0.25050929  -0.00020884  0.24893707  1
  Fe  Fe15  1  0.24831615  0.49932368  0.25206929  1
  Fe  Fe16  1  0.00331476  0.25187823  0.24853809  1
  Fe  Fe17  1  0.75160093  0.75169907  0.49587945  1
  Fe  Fe18  1  0.12474700  0.87427919  0.87460042  1
  Fe  Fe19  1  0.12471697  0.12440338  0.62678558  1
  Fe  Fe20  1  0.87360771  0.37494964  0.62454602  1
  Fe  Fe21  1  0.25107576  0.50528678  0.75355196  1
  Fe  Fe22  1  0.87794046  0.12209023  0.37342565  1
  Fe  Fe23  1  0.25003074  -0.00262900  0.74983803  1
  Fe  Fe24  1  0.24987405  0.74953452  0.49923999  1
  Fe  Fe25  1  0.13056957  0.12877638  0.12374123  1
  Fe  Fe26  1  0.25045286  -0.00193456  0.50115827  1
  Fe  Fe27  1  0.62598070  0.37688170  0.62356877  1
  Fe  Fe28  1  0.74852964  0.50251097  0.24903557  1
  Fe  Fe29  1  0.37285461  0.87622699  0.12267503  1
  Fe  Fe30  1  0.00168228  0.75033524  0.74892802  1
  Fe  Fe31  1  0.12413320  0.37591739  0.87498844  1
  Fe  Fe32  1  0.74860135  0.24932556  0.25113755  1
  Fe  Fe33  1  0.37576498  0.12218247  0.37290794  1
  Fe  Fe34  1  0.00298859  0.49690554  0.24991862  1
  Fe  Fe35  1  0.74857588  0.74937617  0.75093226  1
  Fe  Fe36  1  0.50171153  -0.00348168  0.75378849  1
  Fe  Fe37  1  0.37072595  0.37340868  0.12470810  1
  Fe  Fe38  1  -0.00090401  0.50031906  0.74830340  1
  Fe  Fe39  1  0.75022653  0.24909643  0.74906049  1
  Fe  Fe40  1  0.37401649  0.37807996  0.62545086  1
  Fe  Fe41  1  0.87225315  0.87256569  0.88075153  1
  Fe  Fe42  1  0.62103930  0.12281905  0.37388198  1
  Fe  Fe43  1  0.24847525  0.74860282  -0.00309139  1
  Fe  Fe44  1  0.25080156  0.74922586  0.25051472  1
  Fe  Fe45  1  0.00076021  0.25123467  0.00080719  1
  Fe  Fe46  1  0.49921769  0.49902058  0.00079469  1
  Fe  Fe47  1  0.49553238  0.24868237  -0.00227250  1
  Fe  Fe48  1  0.62319837  0.62698670  0.87696923  1
  Fe  Fe49  1  0.62526881  0.12346148  0.62594462  1
  Fe  Fe50  1  0.00140585  -0.00117512  0.50213579  1
  Fe  Fe51  1  0.25170349  0.24969428  0.49964672  1
  Fe  Fe52  1  0.87555216  0.37572218  0.37488658  1
  Fe  Fe53  1  0.87417085  0.37631857  0.12526900  1
  Fe  Fe54  1  0.74963417  -0.00105985  0.49701200  1
  Fe  Fe55  1  0.50079457  -0.00022732  -0.00216303  1
  Fe  Fe56  1  -0.00447182  0.75334998  0.24694613  1
  Fe  Fe57  1  0.50118696  0.75355162  0.24753642  1
  Fe  Fe58  1  0.63325262  0.87673776  0.12347968  1
  Fe  Fe59  1  0.49737301  0.24964435  0.24896554  1
  Fe  Fe60  1  0.62513165  0.37438477  0.87557051  1
  Fe  Fe61  1  0.50078247  0.50501065  0.74754872  1
  Fe  Fe62  1  0.37336112  0.87000667  0.62961191  1
  Fe  Fe63  1  0.49923942  0.49902400  0.24955948  1
  Fe  Fe64  1  -0.00161270  -0.00095460  0.74918635  1
  Fe  Fe65  1  0.12300103  0.62478878  0.12413936  1
  Fe  Fe66  1  0.50206656  0.75268886  -0.00025439  1
  Fe  Fe67  1  0.62546088  0.87325574  0.62520227  1
  Fe  Fe68  1  0.12511279  0.12497568  0.37442803  1
  Fe  Fe69  1  0.49848782  0.25018732  0.75134745  1
  Fe  Fe70  1  -0.00006628  0.49888126  0.00105041  1
  Fe  Fe71  1  0.49821440  0.74785911  0.50191982  1
  Fe  Fe72  1  0.00050683  -0.00152631  0.00311660  1
  Fe  Fe73  1  0.62544968  0.37441418  0.12497172  1
  Fe  Fe74  1  0.37451802  0.37584574  0.37586539  1
  Fe  Fe75  1  0.87677906  0.12705076  0.87356897  1
  Fe  Fe76  1  0.74855265  0.24961448  0.49818455  1
  Fe  Fe77  1  0.62416774  0.12327887  0.12625683  1
  Fe  Fe78  1  0.12549313  0.12467858  0.87500556  1
  Fe  Fe79  1  0.12615261  0.87327625  0.12501237  1
  Fe  Fe80  1  0.87434762  0.37436404  0.87519224  1
  Fe  Fe81  1  0.49891270  -0.00246111  0.50120320  1
  Fe  Fe82  1  0.74947874  0.50347812  0.00178818  1
  Fe  Fe83  1  0.12295483  0.87485693  0.37514513  1
  Fe  Fe84  1  0.87715597  0.62458663  0.37545050  1
  Fe  Fe85  1  0.87562200  0.87533648  0.62328282  1
  Fe  Fe86  1  0.25126105  0.25049469  0.75285396  1
  Fe  Fe87  1  0.12618801  0.62556056  0.62310465  1
  Fe  Fe88  1  0.49923343  0.50334343  0.50061538  1
  Fe  Fe89  1  0.87432212  0.12111382  0.12800578  1
  Co  Co90  1  0.00048257  0.25104789  0.74861800  1
  Co  Co91  1  0.24681868  0.74703616  0.75420221  1
  Co  Co92  1  0.37658391  0.37908538  0.87221707  1
  Co  Co93  1  0.62370529  0.12791424  0.87293308  1
  Co  Co94  1  0.24786976  -0.00273771  0.00061883  1
  Co  Co95  1  -0.00064235  0.49954311  0.50193131  1
  Co  Co96  1  0.87981579  0.62310337  0.12550214  1
  Co  Co97  1  0.87949199  0.87810460  0.37394677  1
  Co  Co98  1  0.12001339  0.62491611  0.87741505  1
  Co  Co99  1  0.12568601  0.87398778  0.62567744  1
  Co  Co100  1  -0.00019943  0.75350315  0.00308580  1
  Co  Co101  1  0.37915302  0.62855761  0.87683487  1
  Co  Co102  1  0.12419542  0.37395040  0.37897148  1
  Co  Co103  1  0.25051394  0.25101862  0.25296275  1
  Co  Co104  1  0.37310640  0.12018910  0.87489645  1
  Co  Co105  1  0.75219082  0.74919850  0.24985371  1
  Co  Co106  1  0.62859493  0.62681060  0.62241492  1
  Co  Co107  1  0.12836500  0.37434292  0.12199801  1
  Co  Co108  1  0.37325100  0.87330982  0.87419200  1
  Co  Co109  1  0.25328986  0.25191893  -0.00597167  1
  Co  Co110  1  0.37629654  0.62659680  0.37156672  1
  Co  Co111  1  0.74809329  -0.00228328  0.25536112  1
  Co  Co112  1  0.00415715  -0.00144180  0.24544082  1
  Co  Co113  1  0.62367314  0.37657276  0.37391313  1
  Co  Co114  1  0.37254900  0.12374063  0.12372923  1
  Co  Co115  1  0.62052055  0.62462709  0.12702988  1
  Co  Co116  1  0.74982279  0.00646887  -0.00420088  1
  Co  Co117  1  0.49956975  -0.00353252  0.24643108  1
  Co  Co118  1  0.75023342  0.49953698  0.49812363  1
  Co  Co119  1  0.50317218  0.74915085  0.75049477  1
  Co  Co120  1  0.62165011  0.87260732  0.37593449  1
  Co  Co121  1  0.37130338  0.62748995  0.62664484  1
  Co  Co122  1  0.87350446  0.12356969  0.62449957  1
  Co  Co123  1  0.25163476  0.50234329  0.49674188  1
  Co  Co124  1  0.63027726  0.87214850  0.87788464  1
  Co  Co125  1  0.00031953  0.75057135  0.50138585  1
  Co  Co126  1  0.86848759  0.87861835  0.12309268  1
  Co  Co127  1  0.75081029  0.74243933  0.00486553  1
