# generated using pymatgen
data_Fe45Co19
_symmetry_space_group_name_H-M   'P 1'
_cell_length_a   11.41428063
_cell_length_b   11.41495389
_cell_length_c   11.41482496
_cell_angle_alpha   90.00245610
_cell_angle_beta   89.99690186
_cell_angle_gamma   90.00415429
_symmetry_Int_Tables_number   1
_chemical_formula_structural   Fe45Co19
_chemical_formula_sum   'Fe90 Co38'
_cell_volume   1487.27734106
_cell_formula_units_Z   2
loop_
 _symmetry_equiv_pos_site_id
 _symmetry_equiv_pos_as_xyz
  1  'x, y, z'
loop_
 _atom_site_type_symbol
 _atom_site_label
 _atom_site_symmetry_multiplicity
 _atom_site_fract_x
 _atom_site_fract_y
 _atom_site_fract_z
 _atom_site_occupancy
  Fe  Fe0  1  0.87625539  0.37437725  0.12586313  1
  Fe  Fe1  1  0.24888866  0.74956337  0.74893703  1
  Fe  Fe2  1  0.12477262  0.62606991  0.87521232  1
  Fe  Fe3  1  -0.00558887  0.25014170  0.74859721  1
  Fe  Fe4  1  0.50163192  0.74888771  -0.00025052  1
  Fe  Fe5  1  0.37537026  0.37522194  0.37530990  1
  Fe  Fe6  1  0.74816215  0.49736377  0.50014201  1
  Fe  Fe7  1  0.62739452  0.37228910  0.87094140  1
  Fe  Fe8  1  -0.00083610  0.49896857  0.49450684  1
  Fe  Fe9  1  0.24961136  0.75007227  0.00247335  1
  Fe  Fe10  1  0.12399785  0.62679683  0.37240870  1
  Fe  Fe11  1  0.24894703  0.50305413  0.24754612  1
  Fe  Fe12  1  0.75112914  0.24896582  0.00060255  1
  Fe  Fe13  1  0.62743839  0.62505660  0.87185775  1
  Fe  Fe14  1  0.75106000  0.25112109  0.25061014  1
  Fe  Fe15  1  0.75475131  0.75330618  0.74918930  1
  Fe  Fe16  1  0.50167671  0.74928910  0.49865297  1
  Fe  Fe17  1  0.62490185  0.12564501  0.12563958  1
  Fe  Fe18  1  0.50252597  0.49861546  -0.00078597  1
  Fe  Fe19  1  0.24557165  0.24762142  0.49746020  1
  Fe  Fe20  1  0.62568206  0.37507752  0.12733435  1
  Fe  Fe21  1  0.87187639  0.12186264  0.87427809  1
  Fe  Fe22  1  0.87465343  0.62417988  0.62335519  1
  Fe  Fe23  1  0.37474531  0.87611244  0.87589788  1
  Fe  Fe24  1  0.37747507  0.37282498  0.62146398  1
  Fe  Fe25  1  0.86942572  0.87623014  0.12005009  1
  Fe  Fe26  1  0.37636140  0.62624190  0.62452258  1
  Fe  Fe27  1  0.37988935  0.87593983  0.12729596  1
  Fe  Fe28  1  0.74900046  0.25396093  0.50044167  1
  Fe  Fe29  1  0.24765992  0.24885474  0.00111173  1
  Fe  Fe30  1  0.87595280  0.12364048  0.37290069  1
  Fe  Fe31  1  0.62663437  0.12499818  0.37544514  1
  Fe  Fe32  1  0.50466137  0.49827726  0.49941129  1
  Fe  Fe33  1  0.50169387  0.00007462  0.74965930  1
  Fe  Fe34  1  0.12418905  0.87310253  0.62474851  1
  Fe  Fe35  1  0.75318324  0.49920041  0.25224821  1
  Fe  Fe36  1  0.37488435  0.12488505  0.62303330  1
  Fe  Fe37  1  -0.00202871  0.24661585  0.00202472  1
  Fe  Fe38  1  -0.00240474  0.49891996  0.75024669  1
  Fe  Fe39  1  0.12178977  0.37568033  0.12788463  1
  Fe  Fe40  1  0.12302503  0.62627769  0.62408655  1
  Fe  Fe41  1  0.62931013  0.62828703  0.37365975  1
  Fe  Fe42  1  0.37420580  0.87493798  0.62292345  1
  Fe  Fe43  1  0.00241961  0.24917901  0.49543665  1
  Fe  Fe44  1  0.62780642  0.12732855  0.87088365  1
  Fe  Fe45  1  0.24868872  0.50107407  0.50062866  1
  Fe  Fe46  1  0.12263226  0.37364091  0.62434094  1
  Fe  Fe47  1  0.24860466  0.00019295  0.00260580  1
  Fe  Fe48  1  0.24958208  0.00030691  0.74936003  1
  Fe  Fe49  1  0.37612993  0.87610985  0.37500528  1
  Fe  Fe50  1  0.37703315  0.12460421  0.12526158  1
  Fe  Fe51  1  0.24818324  0.24930369  0.25094728  1
  Fe  Fe52  1  0.12279669  0.37372606  0.87518864  1
  Fe  Fe53  1  0.25273886  0.74913560  0.24913442  1
  Fe  Fe54  1  0.37386700  0.62440734  0.87655588  1
  Fe  Fe55  1  0.63077708  0.87636881  0.87809471  1
  Fe  Fe56  1  0.50359376  0.00146312  0.00102392  1
  Fe  Fe57  1  0.00253243  0.00002445  0.49830429  1
  Fe  Fe58  1  -0.00221471  0.00192784  0.00294971  1
  Fe  Fe59  1  0.74823908  -0.00377792  0.24855806  1
  Fe  Fe60  1  0.49856444  0.49708091  0.75069847  1
  Fe  Fe61  1  0.37533065  0.62520407  0.37634053  1
  Fe  Fe62  1  0.37659355  0.37488740  0.12409395  1
  Fe  Fe63  1  0.87483400  0.62457138  0.87421057  1
  Fe  Fe64  1  0.74972292  0.50037630  -0.00090681  1
  Fe  Fe65  1  0.37459697  0.12328047  0.37465480  1
  Fe  Fe66  1  0.50222543  0.00148050  0.49918499  1
  Fe  Fe67  1  0.37597482  0.12539870  0.87734876  1
  Fe  Fe68  1  -0.00149819  0.75109149  0.49732486  1
  Fe  Fe69  1  0.50040082  0.75246487  0.75058362  1
  Fe  Fe70  1  0.00058457  0.50144898  0.00144097  1
  Fe  Fe71  1  -0.00642124  0.75301837  0.25254154  1
  Fe  Fe72  1  0.87511917  0.62453967  0.12705627  1
  Fe  Fe73  1  -0.00447329  -0.00111786  0.74655973  1
  Fe  Fe74  1  0.25151787  0.25043570  0.75043661  1
  Fe  Fe75  1  0.12328646  0.12377620  0.87300948  1
  Fe  Fe76  1  0.74922575  -0.00085917  0.50297758  1
  Fe  Fe77  1  0.24783558  0.50154733  0.00293939  1
  Fe  Fe78  1  0.25043061  0.49853512  0.74904922  1
  Fe  Fe79  1  0.12175380  0.12259692  0.13158310  1
  Fe  Fe80  1  0.62628987  0.13001634  0.62792397  1
  Fe  Fe81  1  0.62620797  0.62821444  0.12767290  1
  Fe  Fe82  1  0.12204697  0.87604074  0.87466595  1
  Fe  Fe83  1  0.50073922  0.24885564  0.25212866  1
  Fe  Fe84  1  0.50046800  0.50174727  0.25080829  1
  Fe  Fe85  1  -0.00205141  0.75025565  -0.00119597  1
  Fe  Fe86  1  0.62655255  0.87409630  0.62307065  1
  Fe  Fe87  1  0.62716424  0.62445557  0.62782371  1
  Fe  Fe88  1  0.24528587  0.00015978  0.49807976  1
  Fe  Fe89  1  0.12410342  0.87454482  0.12772549  1
  Co  Co90  1  0.50327885  0.25087210  0.00024669  1
  Co  Co91  1  0.12605298  0.87386680  0.37162578  1
  Co  Co92  1  0.49545478  0.24989052  0.75045981  1
  Co  Co93  1  0.37340505  0.37527735  0.87957789  1
  Co  Co94  1  0.37873703  0.62477502  0.12279770  1
  Co  Co95  1  0.75126787  0.74568944  -0.00098428  1
  Co  Co96  1  -0.00207105  0.49985347  0.25331694  1
  Co  Co97  1  0.86996287  0.87767711  0.38035094  1
  Co  Co98  1  0.87499042  0.12573501  0.13083982  1
  Co  Co99  1  0.74900585  0.00479185  0.00244011  1
  Co  Co100  1  0.25139632  -0.00112587  0.24903902  1
  Co  Co101  1  0.50093118  0.74973577  0.25275379  1
  Co  Co102  1  0.75777810  0.25252129  0.74837179  1
  Co  Co103  1  0.24923305  0.74958846  0.49935716  1
  Co  Co104  1  0.75087824  -0.00197850  0.74568760  1
  Co  Co105  1  0.62492395  0.37508923  0.37195998  1
  Co  Co106  1  0.12758477  0.37787563  0.37345522  1
  Co  Co107  1  0.87360386  0.87846109  0.87768137  1
  Co  Co108  1  0.87664755  0.87464467  0.62104914  1
  Co  Co109  1  0.12204401  0.12058679  0.36837051  1
  Co  Co110  1  0.50457709  0.00066160  0.25131806  1
  Co  Co111  1  0.62436497  0.37265163  0.62880343  1
  Co  Co112  1  -0.00280835  0.75008755  0.75048174  1
  Co  Co113  1  0.75434572  0.49680452  0.74975158  1
  Co  Co114  1  0.12025529  0.62790809  0.12804328  1
  Co  Co115  1  0.87629927  0.37548098  0.88000726  1
  Co  Co116  1  0.62532040  0.87187447  0.12299378  1
  Co  Co117  1  0.87443039  0.12564568  0.61980345  1
  Co  Co118  1  0.74993837  0.74899840  0.50229093  1
  Co  Co119  1  0.87373861  0.37311468  0.37499829  1
  Co  Co120  1  0.00036924  0.25278205  0.25287035  1
  Co  Co121  1  0.87705971  0.37645557  0.61964478  1
  Co  Co122  1  0.87160312  0.62561507  0.37591862  1
  Co  Co123  1  0.62650695  0.87359819  0.37671804  1
  Co  Co124  1  0.50230026  0.24965209  0.49742938  1
  Co  Co125  1  -0.00572989  -0.00645453  0.25014093  1
  Co  Co126  1  0.75298685  0.75378500  0.25019273  1
  Co  Co127  1  0.12398745  0.12574284  0.62714809  1
