# generated using pymatgen
data_Fe45Co19
_symmetry_space_group_name_H-M   'P 1'
_cell_length_a   11.41464129
_cell_length_b   11.41449745
_cell_length_c   11.41353488
_cell_angle_alpha   89.98757778
_cell_angle_beta   90.00109905
_cell_angle_gamma   89.99173601
_symmetry_Int_Tables_number   1
_chemical_formula_structural   Fe45Co19
_chemical_formula_sum   'Fe90 Co38'
_cell_volume   1487.09673141
_cell_formula_units_Z   2
loop_
 _symmetry_equiv_pos_site_id
 _symmetry_equiv_pos_as_xyz
  1  'x, y, z'
loop_
 _atom_site_type_symbol
 _atom_site_label
 _atom_site_symmetry_multiplicity
 _atom_site_fract_x
 _atom_site_fract_y
 _atom_site_fract_z
 _atom_site_occupancy
  Fe  Fe0  1  0.74869138  0.00065247  0.24959515  1
  Fe  Fe1  1  0.37279728  0.12713798  0.62373377  1
  Fe  Fe2  1  0.50219470  0.25269654  0.24989044  1
  Fe  Fe3  1  0.50154577  0.74428873  0.25189645  1
  Fe  Fe4  1  -0.00041513  0.25206581  0.00012869  1
  Fe  Fe5  1  0.12461579  0.62376512  0.62758613  1
  Fe  Fe6  1  0.74931209  0.24939122  0.24995699  1
  Fe  Fe7  1  0.25075631  0.74939884  0.49813362  1
  Fe  Fe8  1  0.37461716  0.12454293  0.37179799  1
  Fe  Fe9  1  0.12431450  0.87349126  0.62471535  1
  Fe  Fe10  1  -0.00076867  0.50075241  0.50014253  1
  Fe  Fe11  1  0.37425115  0.12590646  0.87779132  1
  Fe  Fe12  1  0.75179397  0.50014413  0.00006878  1
  Fe  Fe13  1  0.50012755  0.24880876  0.75161213  1
  Fe  Fe14  1  0.74651923  0.50376061  0.24782602  1
  Fe  Fe15  1  0.50061676  0.49988614  0.74999652  1
  Fe  Fe16  1  0.12322000  0.87629700  0.37352450  1
  Fe  Fe17  1  0.24814221  -0.00353874  0.24511531  1
  Fe  Fe18  1  0.87397400  0.37729132  0.37310500  1
  Fe  Fe19  1  0.12593992  0.12568511  0.87592573  1
  Fe  Fe20  1  0.87598553  0.37560124  0.62650534  1
  Fe  Fe21  1  0.12702114  0.37415851  0.62492537  1
  Fe  Fe22  1  0.12475235  0.87241677  0.87807180  1
  Fe  Fe23  1  0.12726005  0.12729616  0.62504987  1
  Fe  Fe24  1  0.12971032  0.62250519  0.37247859  1
  Fe  Fe25  1  0.00177769  0.25260304  0.75266543  1
  Fe  Fe26  1  0.87450808  0.12557240  0.87408249  1
  Fe  Fe27  1  0.24828302  0.49857525  0.75262929  1
  Fe  Fe28  1  0.12590563  0.37834421  0.37645916  1
  Fe  Fe29  1  0.00099469  0.25029092  0.49828396  1
  Fe  Fe30  1  0.37482801  0.62488383  0.87488570  1
  Fe  Fe31  1  0.87558564  0.87487978  0.87466606  1
  Fe  Fe32  1  0.12376002  0.38188197  0.12069729  1
  Fe  Fe33  1  0.62434736  0.62415523  0.87812949  1
  Fe  Fe34  1  0.00130730  0.74763083  0.49836198  1
  Fe  Fe35  1  0.62498919  0.12351266  0.62595551  1
  Fe  Fe36  1  0.74756188  0.75099718  0.75041611  1
  Fe  Fe37  1  0.87748054  0.62366056  0.12378614  1
  Fe  Fe38  1  0.87674764  0.12504900  0.12581868  1
  Fe  Fe39  1  0.62605893  0.37974109  0.37430251  1
  Fe  Fe40  1  0.12479574  0.12326190  0.37339776  1
  Fe  Fe41  1  0.87547931  0.62450807  0.62758213  1
  Fe  Fe42  1  0.37571593  0.12704775  0.12604900  1
  Fe  Fe43  1  0.74885801  0.24854125  0.00006876  1
  Fe  Fe44  1  0.37698827  0.87453451  0.87356902  1
  Fe  Fe45  1  0.24923552  0.25195109  0.00116049  1
  Fe  Fe46  1  0.37064921  0.62511688  0.12808040  1
  Fe  Fe47  1  0.24999290  -0.00409172  0.00428447  1
  Fe  Fe48  1  0.25050200  -0.00000215  0.75019592  1
  Fe  Fe49  1  0.37383877  0.37954482  0.37336499  1
  Fe  Fe50  1  0.74923920  0.49813629  0.75066134  1
  Fe  Fe51  1  0.37596416  0.87419082  0.37134945  1
  Fe  Fe52  1  0.49814316  0.49713488  0.00587049  1
  Fe  Fe53  1  0.00045225  0.74757160  0.75372571  1
  Fe  Fe54  1  0.62405287  0.37479650  0.87836373  1
  Fe  Fe55  1  0.37605045  0.87379870  0.62647580  1
  Fe  Fe56  1  0.87236531  0.62441847  0.37486217  1
  Fe  Fe57  1  0.24687826  0.25268937  0.24987742  1
  Fe  Fe58  1  0.49766183  0.75002057  -0.00059567  1
  Fe  Fe59  1  0.50033607  0.00119303  0.00053764  1
  Fe  Fe60  1  0.00124627  0.25163390  0.24894900  1
  Fe  Fe61  1  0.50066662  0.25097840  0.49790237  1
  Fe  Fe62  1  0.74855639  0.25246576  0.50049180  1
  Fe  Fe63  1  0.74823397  0.00014034  0.00002563  1
  Fe  Fe64  1  0.75168893  0.75135836  0.00088223  1
  Fe  Fe65  1  0.62565101  0.62308321  0.62359138  1
  Fe  Fe66  1  0.62552957  0.87353378  0.37279222  1
  Fe  Fe67  1  0.74972450  0.75031960  0.50053728  1
  Fe  Fe68  1  0.62229921  0.87704524  0.62812984  1
  Fe  Fe69  1  0.62247429  0.87696688  0.87203574  1
  Fe  Fe70  1  0.87533349  0.37738681  0.12480957  1
  Fe  Fe71  1  0.49898200  0.74782318  0.49926378  1
  Fe  Fe72  1  0.75277397  -0.00103110  0.50281581  1
  Fe  Fe73  1  0.87593131  0.87433478  0.37288160  1
  Fe  Fe74  1  0.87754053  0.87548110  0.12692561  1
  Fe  Fe75  1  -0.00250298  0.00090070  0.50279694  1
  Fe  Fe76  1  0.25059683  0.74949700  0.75229882  1
  Fe  Fe77  1  0.49914448  0.50167735  0.49947953  1
  Fe  Fe78  1  0.37298623  0.37367927  0.62405408  1
  Fe  Fe79  1  0.62254118  0.87273308  0.12692668  1
  Fe  Fe80  1  0.25067307  -0.00041700  0.49952336  1
  Fe  Fe81  1  0.00211308  0.74696463  0.24835443  1
  Fe  Fe82  1  0.74723012  0.25078803  0.75018217  1
  Fe  Fe83  1  0.62303729  0.12674016  0.12560392  1
  Fe  Fe84  1  0.37363088  0.62508716  0.62519507  1
  Fe  Fe85  1  -0.00204680  0.00024722  0.74795321  1
  Fe  Fe86  1  0.49979259  0.00069272  0.49776840  1
  Fe  Fe87  1  0.37544814  0.37377593  0.87668331  1
  Fe  Fe88  1  0.00139814  0.00055856  0.00220224  1
  Fe  Fe89  1  0.87504497  0.12487658  0.37487983  1
  Co  Co90  1  0.25139189  0.25067815  0.75290149  1
  Co  Co91  1  0.87481084  0.13022090  0.62580241  1
  Co  Co92  1  0.50130852  0.25029042  0.00028149  1
  Co  Co93  1  0.38051757  0.87401463  0.12855155  1
  Co  Co94  1  0.00090336  0.50138265  0.25120140  1
  Co  Co95  1  0.25422835  0.49953610  -0.00160679  1
  Co  Co96  1  0.12795485  0.62630186  0.88035497  1
  Co  Co97  1  0.62609927  0.12372824  0.87324534  1
  Co  Co98  1  0.87773807  0.86916864  0.62532966  1
  Co  Co99  1  0.75246673  0.49888570  0.50120485  1
  Co  Co100  1  0.49601303  0.00362124  0.75062983  1
  Co  Co101  1  0.62285205  0.37616958  0.62454834  1
  Co  Co102  1  0.12088466  0.87022500  0.12241058  1
  Co  Co103  1  0.62460096  0.62687193  0.12029260  1
  Co  Co104  1  0.00111503  0.49819899  0.75472658  1
  Co  Co105  1  0.87098276  0.62615103  0.87200068  1
  Co  Co106  1  0.75456143  -0.00139661  0.74835916  1
  Co  Co107  1  0.87149324  0.37247859  0.87542443  1
  Co  Co108  1  0.62810891  0.37417523  0.12454224  1
  Co  Co109  1  0.62689774  0.12514171  0.37669214  1
  Co  Co110  1  0.24940297  0.50084014  0.50235210  1
  Co  Co111  1  0.50267343  0.00243508  0.25025712  1
  Co  Co112  1  0.75060817  0.74775993  0.24733483  1
  Co  Co113  1  0.12727623  0.37533794  0.87825314  1
  Co  Co114  1  0.37367716  0.37260588  0.12664297  1
  Co  Co115  1  0.12560405  0.12631410  0.12398425  1
  Co  Co116  1  0.62672166  0.62348113  0.37743910  1
  Co  Co117  1  -0.00386319  0.74666310  -0.00058185  1
  Co  Co118  1  0.50261475  0.50133727  0.24658454  1
  Co  Co119  1  0.37236439  0.62223900  0.37292371  1
  Co  Co120  1  -0.00404650  0.50098518  -0.00833090  1
  Co  Co121  1  0.24901786  0.49848558  0.24737599  1
  Co  Co122  1  0.00094709  0.00151533  0.24826930  1
  Co  Co123  1  0.12554932  0.62276533  0.11944683  1
  Co  Co124  1  0.25027516  0.24996590  0.49570101  1
  Co  Co125  1  0.24759314  0.75225242  0.24853961  1
  Co  Co126  1  0.25366951  0.75276565  0.00165691  1
  Co  Co127  1  0.50095611  0.74654287  0.74972842  1
