# generated using pymatgen
data_Fe45Co19
_symmetry_space_group_name_H-M   'P 1'
_cell_length_a   11.41566072
_cell_length_b   11.41376733
_cell_length_c   11.41391289
_cell_angle_alpha   90.01327466
_cell_angle_beta   89.99178573
_cell_angle_gamma   90.00971466
_symmetry_Int_Tables_number   1
_chemical_formula_structural   Fe45Co19
_chemical_formula_sum   'Fe90 Co38'
_cell_volume   1487.18364055
_cell_formula_units_Z   2
loop_
 _symmetry_equiv_pos_site_id
 _symmetry_equiv_pos_as_xyz
  1  'x, y, z'
loop_
 _atom_site_type_symbol
 _atom_site_label
 _atom_site_symmetry_multiplicity
 _atom_site_fract_x
 _atom_site_fract_y
 _atom_site_fract_z
 _atom_site_occupancy
  Fe  Fe0  1  0.75393168  0.25346418  0.00066645  1
  Fe  Fe1  1  -0.00012603  0.24837836  0.50051898  1
  Fe  Fe2  1  0.12440233  0.87772929  0.87293248  1
  Fe  Fe3  1  0.87732606  0.87881124  0.37693604  1
  Fe  Fe4  1  0.37797363  0.87566119  0.87007900  1
  Fe  Fe5  1  0.37106825  0.12588673  0.12180213  1
  Fe  Fe6  1  0.49965046  0.24936556  0.00073678  1
  Fe  Fe7  1  0.25234378  0.00435308  0.74892530  1
  Fe  Fe8  1  0.62865900  0.62694871  0.12511053  1
  Fe  Fe9  1  0.62762458  0.12351080  0.12309516  1
  Fe  Fe10  1  0.87493019  0.62678172  0.62520806  1
  Fe  Fe11  1  0.87195958  0.12155103  0.61982506  1
  Fe  Fe12  1  0.25023285  0.74920280  0.75051743  1
  Fe  Fe13  1  0.62233200  0.87757979  0.87322188  1
  Fe  Fe14  1  0.12582531  0.62407478  0.12175527  1
  Fe  Fe15  1  0.00012687  0.24796714  0.24819619  1
  Fe  Fe16  1  -0.00027097  0.50094670  0.25026856  1
  Fe  Fe17  1  0.00106859  0.00325938  0.74684930  1
  Fe  Fe18  1  0.12542649  0.87510865  0.37535627  1
  Fe  Fe19  1  0.12459678  0.62314754  0.87609605  1
  Fe  Fe20  1  0.37291087  0.62392256  0.12376182  1
  Fe  Fe21  1  0.50168627  0.50070299  0.00097377  1
  Fe  Fe22  1  0.12384339  0.37254595  0.62720893  1
  Fe  Fe23  1  0.12495230  0.62528125  0.37837260  1
  Fe  Fe24  1  0.12539975  0.87589914  0.12493765  1
  Fe  Fe25  1  0.37295616  0.37468128  0.12371905  1
  Fe  Fe26  1  0.49896142  0.50008313  0.50235945  1
  Fe  Fe27  1  0.25086790  0.74932872  0.25098159  1
  Fe  Fe28  1  0.74670201  0.24588103  0.49502182  1
  Fe  Fe29  1  0.13062807  0.12742781  0.62387119  1
  Fe  Fe30  1  0.62714213  0.37416057  0.12591697  1
  Fe  Fe31  1  0.62606013  0.37243280  0.62500715  1
  Fe  Fe32  1  -0.00480143  0.49715631  -0.00081156  1
  Fe  Fe33  1  0.74988831  0.75659770  0.00272834  1
  Fe  Fe34  1  0.75025169  0.75508247  0.50224003  1
  Fe  Fe35  1  0.87240843  0.62634333  0.87493139  1
  Fe  Fe36  1  0.74866724  0.75085454  0.74830899  1
  Fe  Fe37  1  0.87305135  0.12365859  0.12605422  1
  Fe  Fe38  1  0.24940863  0.49418397  0.75437762  1
  Fe  Fe39  1  -0.00102257  0.74958888  0.24986199  1
  Fe  Fe40  1  0.50042397  0.24330826  0.74846693  1
  Fe  Fe41  1  0.49774579  0.00234472  0.24956605  1
  Fe  Fe42  1  -0.00054000  0.75226520  -0.00164110  1
  Fe  Fe43  1  0.49886267  0.74824543  0.24914492  1
  Fe  Fe44  1  0.62070438  0.87520070  0.37377868  1
  Fe  Fe45  1  0.74938141  0.24670984  0.74940416  1
  Fe  Fe46  1  0.25114003  0.00035851  0.25173216  1
  Fe  Fe47  1  0.50031667  0.50137031  0.24966146  1
  Fe  Fe48  1  0.37482451  0.87574293  0.12533491  1
  Fe  Fe49  1  0.37501375  0.37025877  0.62622509  1
  Fe  Fe50  1  0.62069513  0.87819977  0.62885387  1
  Fe  Fe51  1  0.25068080  0.49761660  0.49998910  1
  Fe  Fe52  1  0.87432868  0.37250729  0.62515016  1
  Fe  Fe53  1  0.24936219  0.50082665  0.25072729  1
  Fe  Fe54  1  0.12919033  0.12582397  0.11921989  1
  Fe  Fe55  1  0.75120950  0.49949800  0.50053436  1
  Fe  Fe56  1  0.12604417  0.37419109  0.12112672  1
  Fe  Fe57  1  -0.00033612  0.00035835  -0.00023695  1
  Fe  Fe58  1  0.62466264  0.37277260  0.87387665  1
  Fe  Fe59  1  -0.00108724  0.75244135  0.50392094  1
  Fe  Fe60  1  0.25513368  0.75306224  0.50189061  1
  Fe  Fe61  1  0.87575736  0.37240984  0.37339134  1
  Fe  Fe62  1  0.25012813  0.24929472  0.25180675  1
  Fe  Fe63  1  0.25069774  0.75228946  -0.00195563  1
  Fe  Fe64  1  0.37592029  0.62323564  0.87341208  1
  Fe  Fe65  1  0.74915563  0.50025659  0.74966878  1
  Fe  Fe66  1  0.50025400  0.24835619  0.25056347  1
  Fe  Fe67  1  0.50046294  0.75143558  -0.00026289  1
  Fe  Fe68  1  0.12566269  0.62373657  0.62473290  1
  Fe  Fe69  1  0.87484430  0.62639795  0.37705678  1
  Fe  Fe70  1  0.49535948  0.75012368  0.50445136  1
  Fe  Fe71  1  0.62502186  0.62712951  0.37753254  1
  Fe  Fe72  1  0.62464891  0.37475711  0.37369829  1
  Fe  Fe73  1  0.12492739  0.87466701  0.62678882  1
  Fe  Fe74  1  0.50020215  0.00042021  -0.00145547  1
  Fe  Fe75  1  0.87635422  0.87613895  0.87127187  1
  Fe  Fe76  1  0.37238561  0.12605728  0.87674320  1
  Fe  Fe77  1  0.50328224  0.50267021  0.74716355  1
  Fe  Fe78  1  0.87243107  0.62613688  0.12468944  1
  Fe  Fe79  1  0.74679890  0.00285906  0.75090546  1
  Fe  Fe80  1  0.74933055  -0.00120928  0.25133550  1
  Fe  Fe81  1  0.12285460  0.37512353  0.37492419  1
  Fe  Fe82  1  0.00180132  0.00159740  0.24998232  1
  Fe  Fe83  1  0.87565016  0.12604382  0.87547114  1
  Fe  Fe84  1  0.37637949  0.37465338  0.37511563  1
  Fe  Fe85  1  0.62689112  0.62550386  0.87639999  1
  Fe  Fe86  1  0.75005740  0.50050628  0.25101341  1
  Fe  Fe87  1  0.37541117  0.12503791  0.38169941  1
  Fe  Fe88  1  -0.00186367  0.50020306  0.74925159  1
  Fe  Fe89  1  0.12578173  0.12368756  0.37835056  1
  Co  Co90  1  0.37154820  0.62246546  0.62782499  1
  Co  Co91  1  0.37487396  0.62399679  0.37595756  1
  Co  Co92  1  0.24807073  0.25385413  0.49779846  1
  Co  Co93  1  0.62222612  0.12215193  0.37324020  1
  Co  Co94  1  0.50132146  0.74504442  0.74870873  1
  Co  Co95  1  0.87393449  0.37545174  0.12947661  1
  Co  Co96  1  0.37237001  0.12802138  0.61918382  1
  Co  Co97  1  -0.00070567  0.24511938  0.74614316  1
  Co  Co98  1  0.74874685  0.24740015  0.25200046  1
  Co  Co99  1  0.62475157  0.12328308  0.62178303  1
  Co  Co100  1  0.00348543  -0.00000998  0.50327080  1
  Co  Co101  1  0.87670496  0.12238472  0.37591694  1
  Co  Co102  1  0.75063591  0.49628600  -0.00132067  1
  Co  Co103  1  -0.00119615  0.49831019  0.50147382  1
  Co  Co104  1  0.25155194  0.49562847  -0.00463447  1
  Co  Co105  1  0.74552228  -0.00231973  0.49823007  1
  Co  Co106  1  0.25110244  -0.00507276  0.50127650  1
  Co  Co107  1  0.00089434  0.74865173  0.74998825  1
  Co  Co108  1  0.87427828  0.87844684  0.62762244  1
  Co  Co109  1  0.38317934  0.37534859  0.87306872  1
  Co  Co110  1  0.37663103  0.87589798  0.37351553  1
  Co  Co111  1  0.87585027  0.37255368  0.87005324  1
  Co  Co112  1  0.25111078  0.25083023  0.75550292  1
  Co  Co113  1  0.62704789  0.62580056  0.62163506  1
  Co  Co114  1  0.50010882  0.01026453  0.75196616  1
  Co  Co115  1  0.11621748  0.37084378  0.87502092  1
  Co  Co116  1  0.50414076  0.25046643  0.49915925  1
  Co  Co117  1  0.75121508  0.75363916  0.25064193  1
  Co  Co118  1  0.87796625  0.87684418  0.12666914  1
  Co  Co119  1  0.62844351  0.12777817  0.88037508  1
  Co  Co120  1  -0.00361452  0.24933403  0.00259771  1
  Co  Co121  1  0.62240075  0.87835102  0.12637037  1
  Co  Co122  1  0.49983382  -0.00113634  0.50198807  1
  Co  Co123  1  0.37892827  0.87801258  0.63164566  1
  Co  Co124  1  0.25070269  0.25468333  -0.00649796  1
  Co  Co125  1  0.25122148  -0.00330685  -0.00204355  1
  Co  Co126  1  0.75139653  -0.00313106  -0.00090908  1
  Co  Co127  1  0.12371340  0.12566779  0.87690793  1
