# generated using pymatgen
data_Fe45Co19
_symmetry_space_group_name_H-M   'P 1'
_cell_length_a   11.41489814
_cell_length_b   11.41648914
_cell_length_c   11.41530895
_cell_angle_alpha   89.99730660
_cell_angle_beta   89.99148297
_cell_angle_gamma   89.99370005
_symmetry_Int_Tables_number   1
_chemical_formula_structural   Fe45Co19
_chemical_formula_sum   'Fe90 Co38'
_cell_volume   1487.62089730
_cell_formula_units_Z   2
loop_
 _symmetry_equiv_pos_site_id
 _symmetry_equiv_pos_as_xyz
  1  'x, y, z'
loop_
 _atom_site_type_symbol
 _atom_site_label
 _atom_site_symmetry_multiplicity
 _atom_site_fract_x
 _atom_site_fract_y
 _atom_site_fract_z
 _atom_site_occupancy
  Fe  Fe0  1  0.62237069  0.87795277  0.62882890  1
  Fe  Fe1  1  0.12540181  0.62374347  0.87790053  1
  Fe  Fe2  1  0.62473482  0.37595326  0.87350544  1
  Fe  Fe3  1  0.25095069  -0.00030566  0.49988318  1
  Fe  Fe4  1  0.49637087  0.25132848  0.00111601  1
  Fe  Fe5  1  0.37450301  0.87142426  0.62865216  1
  Fe  Fe6  1  0.87640753  0.62600352  0.62665857  1
  Fe  Fe7  1  0.37332567  0.12696862  0.87634762  1
  Fe  Fe8  1  -0.00078136  0.24568593  0.75464772  1
  Fe  Fe9  1  0.37533884  0.62715477  0.62736399  1
  Fe  Fe10  1  0.37357400  0.37140504  0.37059951  1
  Fe  Fe11  1  0.49959503  0.25037992  0.49927744  1
  Fe  Fe12  1  0.00026902  -0.00050960  0.24828067  1
  Fe  Fe13  1  0.25167884  0.74847307  0.24439595  1
  Fe  Fe14  1  0.12515512  0.87249245  0.37400754  1
  Fe  Fe15  1  0.00095070  0.74860361  0.24691960  1
  Fe  Fe16  1  0.62486119  0.12380811  0.37517292  1
  Fe  Fe17  1  0.12433931  0.62610167  0.37536362  1
  Fe  Fe18  1  0.62178976  0.87428733  0.12489854  1
  Fe  Fe19  1  0.25184830  0.49986980  0.49980430  1
  Fe  Fe20  1  0.75065171  0.75055480  0.50105937  1
  Fe  Fe21  1  0.25117030  0.50164067  0.75240097  1
  Fe  Fe22  1  -0.00228850  0.50028283  0.75561780  1
  Fe  Fe23  1  0.00555164  0.74965619  0.74857150  1
  Fe  Fe24  1  0.75236814  0.50093497  0.75430346  1
  Fe  Fe25  1  0.75095301  -0.00074226  0.24770685  1
  Fe  Fe26  1  0.62452716  0.37709428  0.62634269  1
  Fe  Fe27  1  0.62779749  0.12001884  0.87543277  1
  Fe  Fe28  1  0.87873650  0.87471569  0.62806818  1
  Fe  Fe29  1  0.87358852  0.37755930  0.12104695  1
  Fe  Fe30  1  0.12898152  0.37569698  0.87792974  1
  Fe  Fe31  1  0.74804936  0.25127011  0.00010577  1
  Fe  Fe32  1  0.74729991  0.75113741  0.75287767  1
  Fe  Fe33  1  0.62406062  0.62321920  0.62525394  1
  Fe  Fe34  1  -0.00290642  -0.00229624  -0.00091163  1
  Fe  Fe35  1  0.24779572  0.24886672  0.75092999  1
  Fe  Fe36  1  0.74884769  0.74874770  0.24853309  1
  Fe  Fe37  1  0.75209405  -0.00090315  0.50197300  1
  Fe  Fe38  1  0.62276126  0.62386217  0.87614934  1
  Fe  Fe39  1  0.49727222  0.50095460  0.49873246  1
  Fe  Fe40  1  0.00159127  0.25047523  -0.00166566  1
  Fe  Fe41  1  0.50110297  0.24879451  0.75156779  1
  Fe  Fe42  1  0.37349191  0.12814667  0.37274134  1
  Fe  Fe43  1  0.12804782  0.37491728  0.37336673  1
  Fe  Fe44  1  0.62199066  0.62727639  0.37602404  1
  Fe  Fe45  1  0.24995968  -0.00010312  0.75133462  1
  Fe  Fe46  1  0.25058956  -0.00091638  0.24820156  1
  Fe  Fe47  1  0.74822350  0.75382677  -0.00269081  1
  Fe  Fe48  1  0.87528258  0.12560072  0.37475556  1
  Fe  Fe49  1  0.37681288  0.62794180  0.87398732  1
  Fe  Fe50  1  0.37438386  0.12670690  0.62545089  1
  Fe  Fe51  1  0.87602759  0.87207417  0.37381505  1
  Fe  Fe52  1  0.75136256  0.24723766  0.75041840  1
  Fe  Fe53  1  0.49538848  0.49666655  -0.00204089  1
  Fe  Fe54  1  0.25054392  0.74845109  0.00276220  1
  Fe  Fe55  1  0.49793160  -0.00147164  0.25036321  1
  Fe  Fe56  1  0.49832218  -0.00202284  -0.00159585  1
  Fe  Fe57  1  0.00069984  -0.00160095  0.50001611  1
  Fe  Fe58  1  0.12546675  0.12339829  0.62446543  1
  Fe  Fe59  1  0.62187585  0.37721104  0.12631632  1
  Fe  Fe60  1  0.62381832  0.87411542  0.37540632  1
  Fe  Fe61  1  0.74981119  0.24976516  0.50087703  1
  Fe  Fe62  1  0.87395620  0.37511035  0.37327147  1
  Fe  Fe63  1  0.24545755  0.74907458  0.50461145  1
  Fe  Fe64  1  0.37574045  0.87133033  0.87291026  1
  Fe  Fe65  1  0.74888942  0.50229839  0.24912016  1
  Fe  Fe66  1  0.12965489  0.37986433  0.12098946  1
  Fe  Fe67  1  0.12503609  0.87658134  0.87495076  1
  Fe  Fe68  1  0.37583348  0.37425738  0.62822532  1
  Fe  Fe69  1  0.49679758  -0.00139094  0.50041066  1
  Fe  Fe70  1  -0.00142263  0.50172771  0.49865757  1
  Fe  Fe71  1  0.00178390  0.25160383  0.49944432  1
  Fe  Fe72  1  0.00064863  0.75130299  0.00139507  1
  Fe  Fe73  1  0.25372617  0.50564643  0.24810715  1
  Fe  Fe74  1  0.75265876  0.50158628  0.49887786  1
  Fe  Fe75  1  0.87380003  0.12467133  0.12235527  1
  Fe  Fe76  1  0.00236079  0.25155318  0.24646584  1
  Fe  Fe77  1  0.12663176  0.12668049  0.37524129  1
  Fe  Fe78  1  0.74900857  0.24969397  0.24845577  1
  Fe  Fe79  1  -0.00050490  0.50076774  0.24826745  1
  Fe  Fe80  1  0.62385284  0.12205474  0.62583484  1
  Fe  Fe81  1  0.25237867  -0.00191648  0.00078820  1
  Fe  Fe82  1  0.62351001  0.12284136  0.12363159  1
  Fe  Fe83  1  0.87545250  0.37411877  0.62744000  1
  Fe  Fe84  1  0.37451668  0.87045961  0.37536644  1
  Fe  Fe85  1  0.62440547  0.37527587  0.37392312  1
  Fe  Fe86  1  0.12705457  0.12221785  0.12110365  1
  Fe  Fe87  1  0.12436002  0.37693841  0.62671300  1
  Fe  Fe88  1  0.61978084  0.62481886  0.12290218  1
  Fe  Fe89  1  0.87467402  0.62391231  0.12104421  1
  Co  Co90  1  0.24488417  0.74871807  0.75018830  1
  Co  Co91  1  0.74871974  0.50090439  -0.00221115  1
  Co  Co92  1  0.38181217  0.62635462  0.12227094  1
  Co  Co93  1  0.24647532  0.24744223  0.24450892  1
  Co  Co94  1  0.49900413  0.50120966  0.75136128  1
  Co  Co95  1  0.87602911  0.62937315  0.87660820  1
  Co  Co96  1  0.87717829  0.12604410  0.62296277  1
  Co  Co97  1  0.37359153  0.37560857  0.12894797  1
  Co  Co98  1  0.12468784  0.61903032  0.62523586  1
  Co  Co99  1  0.37437214  0.63105093  0.37698971  1
  Co  Co100  1  0.87534799  0.87282542  0.12637152  1
  Co  Co101  1  0.37532309  0.12352373  0.12541424  1
  Co  Co102  1  0.12809155  0.12295650  0.87878000  1
  Co  Co103  1  0.12547342  0.87987404  0.62639691  1
  Co  Co104  1  0.75439270  0.00070975  0.74859237  1
  Co  Co105  1  0.00258768  0.74925185  0.50269450  1
  Co  Co106  1  0.24926311  0.25172965  0.50192677  1
  Co  Co107  1  0.12602687  0.87601861  0.12428344  1
  Co  Co108  1  0.87750741  0.87410961  0.87192748  1
  Co  Co109  1  0.49526303  0.00097643  0.75135338  1
  Co  Co110  1  0.87604725  0.62743437  0.37388550  1
  Co  Co111  1  0.62459376  0.88086006  0.87148758  1
  Co  Co112  1  0.50374388  0.74933934  0.75084148  1
  Co  Co113  1  0.49893221  0.75057404  0.24998139  1
  Co  Co114  1  0.12384623  0.62260377  0.12245092  1
  Co  Co115  1  0.50175525  0.24859317  0.24838162  1
  Co  Co116  1  0.87071961  0.12290446  0.87959998  1
  Co  Co117  1  0.00011159  0.00428334  0.75214349  1
  Co  Co118  1  0.75099299  -0.00645154  0.00204452  1
  Co  Co119  1  0.37660244  0.87446735  0.12366905  1
  Co  Co120  1  0.25258920  0.25087763  0.00195652  1
  Co  Co121  1  0.37283945  0.37299102  0.87223697  1
  Co  Co122  1  0.87298127  0.37260230  0.87704389  1
  Co  Co123  1  0.25579306  0.50297346  -0.00048816  1
  Co  Co124  1  0.49787554  0.50233910  0.25310873  1
  Co  Co125  1  0.50151696  0.75355454  -0.00352934  1
  Co  Co126  1  0.50124481  0.75049368  0.50354756  1
  Co  Co127  1  -0.00097987  0.49918494  -0.00309432  1
