# generated using pymatgen
data_Fe45Co19
_symmetry_space_group_name_H-M   'P 1'
_cell_length_a   11.41570621
_cell_length_b   11.41571840
_cell_length_c   11.41437513
_cell_angle_alpha   90.00722504
_cell_angle_beta   89.99179519
_cell_angle_gamma   89.99826995
_symmetry_Int_Tables_number   1
_chemical_formula_structural   Fe45Co19
_chemical_formula_sum   'Fe90 Co38'
_cell_volume   1487.50407403
_cell_formula_units_Z   2
loop_
 _symmetry_equiv_pos_site_id
 _symmetry_equiv_pos_as_xyz
  1  'x, y, z'
loop_
 _atom_site_type_symbol
 _atom_site_label
 _atom_site_symmetry_multiplicity
 _atom_site_fract_x
 _atom_site_fract_y
 _atom_site_fract_z
 _atom_site_occupancy
  Fe  Fe0  1  0.37248147  0.61940769  0.87667102  1
  Fe  Fe1  1  0.49649683  0.25557988  0.74963947  1
  Fe  Fe2  1  0.75030997  0.25195018  0.74816147  1
  Fe  Fe3  1  0.62356377  0.12233185  0.12580836  1
  Fe  Fe4  1  0.61997107  0.62201145  0.62404397  1
  Fe  Fe5  1  0.49706276  0.75042347  0.49979710  1
  Fe  Fe6  1  0.74918141  0.74841117  0.74875256  1
  Fe  Fe7  1  0.24879557  -0.00042204  0.50116044  1
  Fe  Fe8  1  0.25384883  0.75070753  0.24733813  1
  Fe  Fe9  1  0.62601704  0.37447192  0.87628594  1
  Fe  Fe10  1  0.62547484  0.62429179  0.87701251  1
  Fe  Fe11  1  0.87265682  0.37649677  0.87741620  1
  Fe  Fe12  1  0.00073078  0.49888457  0.24881360  1
  Fe  Fe13  1  0.25227273  0.00088187  0.24813097  1
  Fe  Fe14  1  0.00289678  0.00038114  -0.00289632  1
  Fe  Fe15  1  0.50301493  0.25195458  0.49927815  1
  Fe  Fe16  1  0.12712528  0.62670295  0.37406981  1
  Fe  Fe17  1  0.37111158  0.37434974  0.37438335  1
  Fe  Fe18  1  0.75095956  -0.00494589  0.24553434  1
  Fe  Fe19  1  0.50063331  0.49753176  0.00087772  1
  Fe  Fe20  1  0.12720644  0.87385649  0.37430739  1
  Fe  Fe21  1  0.12582856  0.87410225  0.62877268  1
  Fe  Fe22  1  0.00280280  0.74918914  -0.00166373  1
  Fe  Fe23  1  0.87404042  0.12506571  0.87697324  1
  Fe  Fe24  1  0.74886381  -0.00034114  0.75233923  1
  Fe  Fe25  1  0.37596981  0.12435792  0.62489778  1
  Fe  Fe26  1  0.75116776  0.24906464  0.24697762  1
  Fe  Fe27  1  0.49795662  0.25220136  -0.00008177  1
  Fe  Fe28  1  0.00310501  0.49870688  0.49741262  1
  Fe  Fe29  1  0.00049098  0.75094159  0.50024637  1
  Fe  Fe30  1  0.87584886  0.62480332  0.62479036  1
  Fe  Fe31  1  0.49975459  0.49814196  0.25107295  1
  Fe  Fe32  1  0.49675870  0.74777904  0.75178004  1
  Fe  Fe33  1  0.12711852  0.12635269  0.37399589  1
  Fe  Fe34  1  0.37317815  0.12673965  0.37759678  1
  Fe  Fe35  1  0.37466067  0.87611163  0.37556765  1
  Fe  Fe36  1  0.62331108  0.87284187  0.36938136  1
  Fe  Fe37  1  0.12883836  0.62564215  0.87406498  1
  Fe  Fe38  1  0.25303378  0.24939830  -0.00208076  1
  Fe  Fe39  1  -0.00028941  -0.00147033  0.25036892  1
  Fe  Fe40  1  0.87419187  0.62670088  0.37344854  1
  Fe  Fe41  1  0.74750284  0.00019861  0.49936787  1
  Fe  Fe42  1  0.37239386  0.62264929  0.37810168  1
  Fe  Fe43  1  0.87423988  0.37698265  0.62312111  1
  Fe  Fe44  1  0.87294017  0.12297938  0.37411583  1
  Fe  Fe45  1  0.62568647  0.62717102  0.37216656  1
  Fe  Fe46  1  0.74891611  0.50067499  0.00493302  1
  Fe  Fe47  1  0.25260567  0.75025803  0.50364655  1
  Fe  Fe48  1  -0.00294009  0.75257240  0.25002087  1
  Fe  Fe49  1  0.12549980  0.12581645  0.12434631  1
  Fe  Fe50  1  0.87462783  0.12343568  0.62534601  1
  Fe  Fe51  1  0.12438823  0.12736456  0.62793305  1
  Fe  Fe52  1  0.62411990  0.12648197  0.62612376  1
  Fe  Fe53  1  0.00162925  -0.00050371  0.49918216  1
  Fe  Fe54  1  -0.00205294  0.25082104  0.75135505  1
  Fe  Fe55  1  0.37961478  0.87600840  0.12147252  1
  Fe  Fe56  1  0.74628122  0.75083255  0.00746271  1
  Fe  Fe57  1  0.75015708  0.50337569  0.24524463  1
  Fe  Fe58  1  0.87254243  0.37591829  0.37436639  1
  Fe  Fe59  1  0.50040407  -0.00001938  0.75213246  1
  Fe  Fe60  1  0.24892265  0.00343101  0.75383366  1
  Fe  Fe61  1  0.24968060  0.49957987  0.24857078  1
  Fe  Fe62  1  0.00113129  -0.00117429  0.75401761  1
  Fe  Fe63  1  0.87365623  0.87244856  0.87664508  1
  Fe  Fe64  1  0.74831960  0.50009876  0.74888631  1
  Fe  Fe65  1  -0.00000746  0.25123825  0.49816894  1
  Fe  Fe66  1  0.62395920  0.12730631  0.87480045  1
  Fe  Fe67  1  0.12528799  0.62468897  0.62581384  1
  Fe  Fe68  1  0.49996291  0.24954998  0.25061955  1
  Fe  Fe69  1  0.62420241  0.87390781  0.87749860  1
  Fe  Fe70  1  0.37704972  0.62248859  0.12306390  1
  Fe  Fe71  1  -0.00120346  0.24956792  0.24995142  1
  Fe  Fe72  1  0.12651315  0.87481145  0.12300400  1
  Fe  Fe73  1  0.50179806  0.00048184  0.49774717  1
  Fe  Fe74  1  0.25412191  0.74813619  0.74847500  1
  Fe  Fe75  1  0.87341165  0.62580298  0.87822291  1
  Fe  Fe76  1  0.37358236  0.87732420  0.87769451  1
  Fe  Fe77  1  0.62954889  0.37436679  0.37550679  1
  Fe  Fe78  1  0.75058537  0.24883100  0.00302953  1
  Fe  Fe79  1  0.12984484  0.37402185  0.87171531  1
  Fe  Fe80  1  0.62193841  0.87407482  0.62613351  1
  Fe  Fe81  1  0.12496832  0.62671557  0.12588896  1
  Fe  Fe82  1  0.87520400  0.87501078  0.62520716  1
  Fe  Fe83  1  0.74890960  0.74967749  0.50005270  1
  Fe  Fe84  1  0.37617207  0.12464653  0.12317575  1
  Fe  Fe85  1  0.24747240  0.25509709  0.50389008  1
  Fe  Fe86  1  0.12800732  0.37228096  0.12721174  1
  Fe  Fe87  1  -0.00042177  0.50173630  0.75263486  1
  Fe  Fe88  1  -0.00113996  0.25173931  0.00059321  1
  Fe  Fe89  1  0.00318757  0.49838273  0.00033906  1
  Co  Co90  1  0.25192677  0.74883919  0.00166134  1
  Co  Co91  1  0.24901219  0.00201193  -0.00092902  1
  Co  Co92  1  0.37183262  0.37938170  0.87549299  1
  Co  Co93  1  0.24712265  0.49942864  0.00406934  1
  Co  Co94  1  0.37570133  0.87878706  0.62692992  1
  Co  Co95  1  0.75273365  0.75108332  0.24459337  1
  Co  Co96  1  0.62512173  0.37706932  0.62327817  1
  Co  Co97  1  0.62433517  0.37468050  0.12546798  1
  Co  Co98  1  0.74957894  0.50309228  0.50045605  1
  Co  Co99  1  0.37729100  0.12485265  0.87451557  1
  Co  Co100  1  0.50228571  0.00174431  -0.00190569  1
  Co  Co101  1  0.87656535  0.12341320  0.12386318  1
  Co  Co102  1  0.50202350  0.49738500  0.49391372  1
  Co  Co103  1  0.12818558  0.87131449  0.87434736  1
  Co  Co104  1  -0.00125174  0.74886322  0.75122091  1
  Co  Co105  1  0.12156713  0.37470728  0.62942293  1
  Co  Co106  1  0.25504184  0.25045536  0.74845599  1
  Co  Co107  1  0.49835080  0.74749326  -0.00334169  1
  Co  Co108  1  0.37433278  0.37472358  0.12604631  1
  Co  Co109  1  0.12671542  0.37373137  0.37033417  1
  Co  Co110  1  0.87502496  0.37598796  0.12498035  1
  Co  Co111  1  0.74668479  -0.00054080  0.00077533  1
  Co  Co112  1  0.37895457  0.61863801  0.62266474  1
  Co  Co113  1  0.87901162  0.62471199  0.12270261  1
  Co  Co114  1  0.50288640  0.49848889  0.75426025  1
  Co  Co115  1  0.37828743  0.38126008  0.62339665  1
  Co  Co116  1  0.62749200  0.12470731  0.37220380  1
  Co  Co117  1  0.49598813  0.00372206  0.25252254  1
  Co  Co118  1  0.87415022  0.87464386  0.37721283  1
  Co  Co119  1  0.87858376  0.87534786  0.12008089  1
  Co  Co120  1  0.75038038  0.24800998  0.50156119  1
  Co  Co121  1  0.24981870  0.49925933  0.74560379  1
  Co  Co122  1  0.12469122  0.13042713  0.87502789  1
  Co  Co123  1  0.49467862  0.74695990  0.25159196  1
  Co  Co124  1  0.61949066  0.62669990  0.12692827  1
  Co  Co125  1  0.25206688  0.24703447  0.24887513  1
  Co  Co126  1  0.24505981  0.49653469  0.50062300  1
  Co  Co127  1  0.61661234  0.87417388  0.12781803  1
