# generated using pymatgen
data_Fe45Co19
_symmetry_space_group_name_H-M   'P 1'
_cell_length_a   11.41482426
_cell_length_b   11.41593396
_cell_length_c   11.41380038
_cell_angle_alpha   90.00909935
_cell_angle_beta   89.99432937
_cell_angle_gamma   90.00754451
_symmetry_Int_Tables_number   1
_chemical_formula_structural   Fe45Co19
_chemical_formula_sum   'Fe90 Co38'
_cell_volume   1487.34233125
_cell_formula_units_Z   2
loop_
 _symmetry_equiv_pos_site_id
 _symmetry_equiv_pos_as_xyz
  1  'x, y, z'
loop_
 _atom_site_type_symbol
 _atom_site_label
 _atom_site_symmetry_multiplicity
 _atom_site_fract_x
 _atom_site_fract_y
 _atom_site_fract_z
 _atom_site_occupancy
  Fe  Fe0  1  0.12734440  0.87627302  0.12482572  1
  Fe  Fe1  1  0.50110335  0.74472093  0.49625274  1
  Fe  Fe2  1  0.12762457  0.62090674  0.37748683  1
  Fe  Fe3  1  0.12680264  0.12430957  0.87230453  1
  Fe  Fe4  1  0.87402335  0.62240621  0.37658323  1
  Fe  Fe5  1  0.25171313  0.25216119  0.25388967  1
  Fe  Fe6  1  0.37447025  0.87502387  0.12532869  1
  Fe  Fe7  1  0.37317276  0.37389534  0.12214650  1
  Fe  Fe8  1  0.87423008  0.87214541  0.62355492  1
  Fe  Fe9  1  0.12724458  0.37335919  0.12346009  1
  Fe  Fe10  1  0.49909911  -0.00030817  0.25263390  1
  Fe  Fe11  1  0.62746714  0.87055215  0.62171541  1
  Fe  Fe12  1  0.12279343  0.12810779  0.37673905  1
  Fe  Fe13  1  0.49828886  0.50169479  -0.00057822  1
  Fe  Fe14  1  0.74788043  0.25242540  0.75096919  1
  Fe  Fe15  1  0.87502178  0.62514898  0.12373783  1
  Fe  Fe16  1  0.37719324  0.37112055  0.62045566  1
  Fe  Fe17  1  -0.00227613  0.49677640  0.25059468  1
  Fe  Fe18  1  0.00069185  0.74919058  0.49887286  1
  Fe  Fe19  1  0.74925910  0.24872388  -0.00306720  1
  Fe  Fe20  1  0.50081040  0.74964431  0.25463997  1
  Fe  Fe21  1  0.00072805  0.75003989  0.25171027  1
  Fe  Fe22  1  0.49719515  0.00173885  0.00012558  1
  Fe  Fe23  1  0.49864377  0.49928618  0.25086765  1
  Fe  Fe24  1  0.62326319  0.87692643  0.87492616  1
  Fe  Fe25  1  0.12764005  0.62432260  0.62326149  1
  Fe  Fe26  1  0.62492756  0.62235503  0.86815697  1
  Fe  Fe27  1  0.87568829  0.87671997  0.87510667  1
  Fe  Fe28  1  0.74947011  0.74854824  -0.00356445  1
  Fe  Fe29  1  0.87344701  0.87503120  0.12392175  1
  Fe  Fe30  1  0.87402164  0.12706027  0.62542629  1
  Fe  Fe31  1  0.49749907  0.50455218  0.50176442  1
  Fe  Fe32  1  0.00165089  0.25131857  -0.00230061  1
  Fe  Fe33  1  0.25472663  -0.00100373  0.74756435  1
  Fe  Fe34  1  0.49988125  0.25186535  0.25131107  1
  Fe  Fe35  1  0.37639535  0.12818595  0.38007501  1
  Fe  Fe36  1  0.49987779  0.74808656  -0.00080397  1
  Fe  Fe37  1  -0.00026462  -0.00068307  0.25076297  1
  Fe  Fe38  1  0.37387809  0.62498525  0.12711294  1
  Fe  Fe39  1  0.00086887  0.25072736  0.74967792  1
  Fe  Fe40  1  0.74928127  0.49991540  -0.00044069  1
  Fe  Fe41  1  0.37287643  0.37366582  0.87718538  1
  Fe  Fe42  1  0.62495463  0.87579232  0.12434092  1
  Fe  Fe43  1  0.87356042  0.87638222  0.37721175  1
  Fe  Fe44  1  0.74917058  0.00063055  0.25138598  1
  Fe  Fe45  1  0.62477575  0.37373786  0.12315187  1
  Fe  Fe46  1  0.87666852  0.37884557  0.87170639  1
  Fe  Fe47  1  0.75105801  0.49738486  0.24793576  1
  Fe  Fe48  1  0.87488397  0.12586792  0.12447955  1
  Fe  Fe49  1  0.37413411  0.62540527  0.87145222  1
  Fe  Fe50  1  0.37401257  0.87376850  0.61820183  1
  Fe  Fe51  1  0.00054683  0.00093837  0.00021047  1
  Fe  Fe52  1  0.12369278  0.37360025  0.62318041  1
  Fe  Fe53  1  0.62530804  0.62492797  0.12647454  1
  Fe  Fe54  1  0.12652276  0.62381140  0.12715691  1
  Fe  Fe55  1  0.12484227  0.87591149  0.62455370  1
  Fe  Fe56  1  0.74698120  0.24799431  0.49977115  1
  Fe  Fe57  1  0.75047636  0.50385922  0.50701527  1
  Fe  Fe58  1  0.49855253  0.75284892  0.74934090  1
  Fe  Fe59  1  0.74793450  0.00341577  0.49998173  1
  Fe  Fe60  1  0.75186551  0.25193773  0.25137456  1
  Fe  Fe61  1  0.49813618  0.24728347  -0.00075780  1
  Fe  Fe62  1  -0.00404125  0.25419218  0.25356732  1
  Fe  Fe63  1  0.12578764  0.62189360  0.87196069  1
  Fe  Fe64  1  0.62487574  0.12529976  0.12572236  1
  Fe  Fe65  1  0.25184407  0.49549403  0.25371601  1
  Fe  Fe66  1  0.00024121  0.00240564  0.50147067  1
  Fe  Fe67  1  -0.00237425  0.49730347  0.50370100  1
  Fe  Fe68  1  0.62463827  0.37719692  0.37741618  1
  Fe  Fe69  1  0.74807174  0.75025360  0.25383171  1
  Fe  Fe70  1  0.12627456  0.12593658  0.62454729  1
  Fe  Fe71  1  0.12538818  0.12704292  0.12716837  1
  Fe  Fe72  1  0.24994143  0.74843893  -0.00029385  1
  Fe  Fe73  1  0.25193350  0.25040798  0.74928336  1
  Fe  Fe74  1  0.12628435  0.87633100  0.37766652  1
  Fe  Fe75  1  0.62009461  0.12234937  0.86934960  1
  Fe  Fe76  1  0.00092509  0.74913391  -0.00101925  1
  Fe  Fe77  1  0.25004324  0.75221901  0.74810293  1
  Fe  Fe78  1  0.62294107  0.37772687  0.87307140  1
  Fe  Fe79  1  0.25371511  0.00435599  -0.00069012  1
  Fe  Fe80  1  0.62346240  0.37621516  0.62618364  1
  Fe  Fe81  1  0.00284428  0.49902023  -0.00060808  1
  Fe  Fe82  1  0.25071885  0.75215590  0.25452102  1
  Fe  Fe83  1  0.25191928  0.49786060  0.74727377  1
  Fe  Fe84  1  -0.00088514  0.74920639  0.75112374  1
  Fe  Fe85  1  0.74927424  -0.00277987  0.74876127  1
  Fe  Fe86  1  0.87524310  0.12320565  0.87275077  1
  Fe  Fe87  1  0.12623404  0.87760494  0.87430324  1
  Fe  Fe88  1  0.25201428  0.00103426  0.25450614  1
  Fe  Fe89  1  0.50377879  0.00556450  0.50269028  1
  Co  Co90  1  0.75135578  0.75068551  0.75243593  1
  Co  Co91  1  0.37531512  0.12715433  0.62457343  1
  Co  Co92  1  0.87579853  0.62022322  0.87332549  1
  Co  Co93  1  0.12740353  0.37516380  0.87373741  1
  Co  Co94  1  0.87600609  0.62983053  0.62676918  1
  Co  Co95  1  0.87491912  0.37415106  0.12093394  1
  Co  Co96  1  0.37720578  0.87672781  0.38041302  1
  Co  Co97  1  0.37348967  0.62775105  0.62626511  1
  Co  Co98  1  0.49590784  0.49752706  0.74828678  1
  Co  Co99  1  0.25113331  0.24498887  -0.00099688  1
  Co  Co100  1  0.00064009  0.49928187  0.74513750  1
  Co  Co101  1  0.37122850  0.62417192  0.37474213  1
  Co  Co102  1  0.25292040  0.49696537  0.50111289  1
  Co  Co103  1  0.62222193  0.62704508  0.63033859  1
  Co  Co104  1  0.62470367  0.87702187  0.37815791  1
  Co  Co105  1  0.37447051  0.87448789  0.87662145  1
  Co  Co106  1  0.25000606  0.50186027  -0.00021154  1
  Co  Co107  1  0.24812063  0.25131116  0.49909928  1
  Co  Co108  1  0.49789212  -0.00546805  0.74411683  1
  Co  Co109  1  0.12313298  0.37631706  0.37777725  1
  Co  Co110  1  0.87128793  0.37664768  0.38048870  1
  Co  Co111  1  0.74867286  0.74553862  0.49710978  1
  Co  Co112  1  0.38023261  0.37267744  0.38037950  1
  Co  Co113  1  0.75157549  0.50044533  0.74439263  1
  Co  Co114  1  0.62511231  0.12641295  0.37154775  1
  Co  Co115  1  0.62544284  0.12600402  0.63264616  1
  Co  Co116  1  0.62668056  0.61992411  0.37404489  1
  Co  Co117  1  0.37496453  0.12554544  0.12887400  1
  Co  Co118  1  0.24828933  0.74991740  0.49828914  1
  Co  Co119  1  0.37866828  0.12516469  0.86827771  1
  Co  Co120  1  0.74887682  0.00218898  -0.00148642  1
  Co  Co121  1  0.24799062  0.00261871  0.50012513  1
  Co  Co122  1  0.50611837  0.24650521  0.50219602  1
  Co  Co123  1  -0.00088108  0.25024506  0.49965668  1
  Co  Co124  1  0.49946675  0.25414199  0.74849084  1
  Co  Co125  1  0.87460742  0.37023007  0.62617025  1
  Co  Co126  1  0.87528215  0.12483413  0.37587183  1
  Co  Co127  1  -0.00117949  0.00042456  0.74765039  1
