# generated using pymatgen
data_Fe45Co19
_symmetry_space_group_name_H-M   'P 1'
_cell_length_a   11.41588601
_cell_length_b   11.41665244
_cell_length_c   11.41406622
_cell_angle_alpha   89.99777320
_cell_angle_beta   89.99412862
_cell_angle_gamma   90.00673980
_symmetry_Int_Tables_number   1
_chemical_formula_structural   Fe45Co19
_chemical_formula_sum   'Fe90 Co38'
_cell_volume   1487.60896035
_cell_formula_units_Z   2
loop_
 _symmetry_equiv_pos_site_id
 _symmetry_equiv_pos_as_xyz
  1  'x, y, z'
loop_
 _atom_site_type_symbol
 _atom_site_label
 _atom_site_symmetry_multiplicity
 _atom_site_fract_x
 _atom_site_fract_y
 _atom_site_fract_z
 _atom_site_occupancy
  Fe  Fe0  1  0.37384061  0.87356818  0.12633302  1
  Fe  Fe1  1  0.62930570  0.62581052  0.37677385  1
  Fe  Fe2  1  0.12613180  0.12137749  0.12326942  1
  Fe  Fe3  1  -0.00536552  0.49782403  0.49759581  1
  Fe  Fe4  1  0.25080749  -0.00056924  0.74930659  1
  Fe  Fe5  1  0.49929994  0.74873425  -0.00081081  1
  Fe  Fe6  1  0.50459427  0.75036007  0.25158852  1
  Fe  Fe7  1  0.74711855  0.75043973  0.74742477  1
  Fe  Fe8  1  0.25172385  0.50014977  0.25069860  1
  Fe  Fe9  1  0.74920807  0.75104000  0.00055199  1
  Fe  Fe10  1  0.87561938  0.37174390  0.12665791  1
  Fe  Fe11  1  0.87342489  0.12399127  0.87101138  1
  Fe  Fe12  1  0.37635351  0.87124932  0.62696238  1
  Fe  Fe13  1  0.87645133  0.87352114  0.12667926  1
  Fe  Fe14  1  0.62418284  0.62269314  0.62493155  1
  Fe  Fe15  1  0.49752603  0.00094782  -0.00178070  1
  Fe  Fe16  1  0.25151035  0.50111325  0.74972977  1
  Fe  Fe17  1  0.87620178  0.62881400  0.12743814  1
  Fe  Fe18  1  0.37310333  0.12901940  0.87287852  1
  Fe  Fe19  1  0.62739612  0.12073929  0.87451183  1
  Fe  Fe20  1  -0.00219303  0.49973303  0.74851935  1
  Fe  Fe21  1  0.62455428  0.87958150  0.12460396  1
  Fe  Fe22  1  0.75460724  0.49791212  0.49914216  1
  Fe  Fe23  1  0.12677796  0.37511645  0.87519538  1
  Fe  Fe24  1  0.87220553  0.62513287  0.87408151  1
  Fe  Fe25  1  0.49783575  0.00049478  0.25380835  1
  Fe  Fe26  1  0.62620649  0.37523023  0.37525438  1
  Fe  Fe27  1  0.00004391  0.24930464  0.00006169  1
  Fe  Fe28  1  0.37657924  0.37392343  0.62743140  1
  Fe  Fe29  1  -0.00150991  -0.00004989  -0.00247857  1
  Fe  Fe30  1  0.24726242  0.24925249  0.24888431  1
  Fe  Fe31  1  0.62827631  0.38040487  0.87643110  1
  Fe  Fe32  1  0.12696246  0.12501040  0.87461790  1
  Fe  Fe33  1  0.37180112  0.63035129  0.87249093  1
  Fe  Fe34  1  -0.00312750  0.50185590  0.25392446  1
  Fe  Fe35  1  0.75257905  0.50019707  0.25074207  1
  Fe  Fe36  1  0.49769091  0.50059142  0.49879223  1
  Fe  Fe37  1  0.24426703  0.75070112  0.25202509  1
  Fe  Fe38  1  0.12542817  0.62274933  0.12364191  1
  Fe  Fe39  1  0.74659076  0.25028247  0.74832466  1
  Fe  Fe40  1  0.12487928  0.12316807  0.37948981  1
  Fe  Fe41  1  0.62379371  0.12179703  0.62560008  1
  Fe  Fe42  1  0.00466352  0.24936612  0.74391099  1
  Fe  Fe43  1  0.87295713  0.37488438  0.87231865  1
  Fe  Fe44  1  0.37538506  0.37104127  0.37487198  1
  Fe  Fe45  1  0.24743622  0.75104505  0.49954131  1
  Fe  Fe46  1  0.50307351  0.24855540  -0.00090420  1
  Fe  Fe47  1  0.25250987  -0.00037891  0.25543025  1
  Fe  Fe48  1  0.12309160  0.87956942  0.62248468  1
  Fe  Fe49  1  0.37270387  0.37113648  0.87381686  1
  Fe  Fe50  1  0.49939475  0.50062952  0.25159622  1
  Fe  Fe51  1  -0.00245695  0.00097106  0.25275787  1
  Fe  Fe52  1  0.37440040  0.62829440  0.37426270  1
  Fe  Fe53  1  0.37343198  0.87109779  0.87280512  1
  Fe  Fe54  1  0.12498556  0.62130700  0.62275113  1
  Fe  Fe55  1  0.50224094  0.25056587  0.50095777  1
  Fe  Fe56  1  0.37572389  0.12768997  0.62732299  1
  Fe  Fe57  1  0.49872871  0.50284503  0.75148675  1
  Fe  Fe58  1  0.62186731  0.87772768  0.62537411  1
  Fe  Fe59  1  0.12223950  0.37426497  0.37498354  1
  Fe  Fe60  1  0.37464390  0.12517707  0.12486707  1
  Fe  Fe61  1  0.12701243  0.87509192  0.87572616  1
  Fe  Fe62  1  0.87286149  0.86852950  0.37378666  1
  Fe  Fe63  1  0.12455886  0.87829595  0.12464651  1
  Fe  Fe64  1  0.62447326  0.87675516  0.87340082  1
  Fe  Fe65  1  0.87287042  0.12548708  0.12272960  1
  Fe  Fe66  1  0.87411858  0.87578903  0.87197230  1
  Fe  Fe67  1  0.62430963  0.12272850  0.37611437  1
  Fe  Fe68  1  0.37486100  0.37482941  0.12370604  1
  Fe  Fe69  1  0.62569304  0.37586335  0.12234660  1
  Fe  Fe70  1  0.75121723  0.00005855  0.25125800  1
  Fe  Fe71  1  0.25345461  0.49917745  0.49940893  1
  Fe  Fe72  1  -0.00234103  0.49993677  -0.00122496  1
  Fe  Fe73  1  0.12440642  0.37679482  0.12352683  1
  Fe  Fe74  1  0.50186817  0.74961303  0.49971106  1
  Fe  Fe75  1  0.50182948  0.24894003  0.24951141  1
  Fe  Fe76  1  0.87539365  0.62752343  0.62444771  1
  Fe  Fe77  1  0.24663841  0.25064940  0.50393138  1
  Fe  Fe78  1  0.62466615  0.37817771  0.62579303  1
  Fe  Fe79  1  0.49444598  -0.00062302  0.49742761  1
  Fe  Fe80  1  0.87586015  0.13271361  0.37915074  1
  Fe  Fe81  1  0.12675289  0.62490234  0.87577949  1
  Fe  Fe82  1  0.62468316  0.62307927  0.12203358  1
  Fe  Fe83  1  0.75330488  -0.00150607  0.50265321  1
  Fe  Fe84  1  0.00308577  0.75036161  0.74991075  1
  Fe  Fe85  1  0.49561874  0.50308877  -0.00155388  1
  Fe  Fe86  1  0.00153539  0.74889349  0.49668363  1
  Fe  Fe87  1  0.74779511  0.24846279  0.24979278  1
  Fe  Fe88  1  0.00097811  0.75081899  -0.00046375  1
  Fe  Fe89  1  -0.00557997  0.00041447  0.50146930  1
  Co  Co90  1  0.37467081  0.62733717  0.12922899  1
  Co  Co91  1  0.75172911  0.50173583  0.74606984  1
  Co  Co92  1  0.37456272  0.62699866  0.62421918  1
  Co  Co93  1  0.12576847  0.38206140  0.62514632  1
  Co  Co94  1  0.62530879  0.12191911  0.12506307  1
  Co  Co95  1  0.74539140  0.25041226  0.50192968  1
  Co  Co96  1  0.75176280  -0.00275532  0.74522634  1
  Co  Co97  1  0.87453691  0.12912741  0.62663391  1
  Co  Co98  1  0.87909613  0.87154625  0.62684375  1
  Co  Co99  1  0.12551558  0.11702975  0.62211185  1
  Co  Co100  1  0.62846332  0.62247776  0.87653090  1
  Co  Co101  1  0.62658439  0.87770014  0.37712603  1
  Co  Co102  1  0.12613819  0.62042449  0.37738958  1
  Co  Co103  1  0.25286712  -0.00026899  -0.00240652  1
  Co  Co104  1  0.24858439  0.25021989  0.00255197  1
  Co  Co105  1  0.87653729  0.36745338  0.37451456  1
  Co  Co106  1  0.74990110  0.24951436  -0.00151793  1
  Co  Co107  1  0.75181887  -0.00155478  -0.00021664  1
  Co  Co108  1  0.24493857  0.75079846  0.74523922  1
  Co  Co109  1  0.50411253  0.74712732  0.75015458  1
  Co  Co110  1  0.74788619  0.75248215  0.50540796  1
  Co  Co111  1  0.00046907  -0.00006836  0.75057349  1
  Co  Co112  1  0.74500875  0.75104368  0.24703582  1
  Co  Co113  1  0.12297666  0.88137865  0.37802940  1
  Co  Co114  1  0.24564093  0.24989118  0.74549742  1
  Co  Co115  1  0.37578685  0.86895270  0.37416185  1
  Co  Co116  1  0.00321723  0.24616317  0.24784295  1
  Co  Co117  1  0.25268075  0.50103373  -0.00144327  1
  Co  Co118  1  0.49650208  0.00022153  0.75135290  1
  Co  Co119  1  0.24903658  0.74951384  0.00329918  1
  Co  Co120  1  0.75494295  0.50034608  0.00366290  1
  Co  Co121  1  0.25769383  -0.00142429  0.49966341  1
  Co  Co122  1  0.87099580  0.63126883  0.37439427  1
  Co  Co123  1  0.00651561  0.74960765  0.25251822  1
  Co  Co124  1  0.50561004  0.25089507  0.75150613  1
  Co  Co125  1  0.87359548  0.37062477  0.62561574  1
  Co  Co126  1  0.00530724  0.25184706  0.50629165  1
  Co  Co127  1  0.37450711  0.13097317  0.37610359  1
