# generated using pymatgen
data_Fe45Co19
_symmetry_space_group_name_H-M   'P 1'
_cell_length_a   11.41528318
_cell_length_b   11.41478168
_cell_length_c   11.41440251
_cell_angle_alpha   89.99683430
_cell_angle_beta   90.00956479
_cell_angle_gamma   89.99970794
_symmetry_Int_Tables_number   1
_chemical_formula_structural   Fe45Co19
_chemical_formula_sum   'Fe90 Co38'
_cell_volume   1487.33047106
_cell_formula_units_Z   2
loop_
 _symmetry_equiv_pos_site_id
 _symmetry_equiv_pos_as_xyz
  1  'x, y, z'
loop_
 _atom_site_type_symbol
 _atom_site_label
 _atom_site_symmetry_multiplicity
 _atom_site_fract_x
 _atom_site_fract_y
 _atom_site_fract_z
 _atom_site_occupancy
  Fe  Fe0  1  0.87367768  0.62250502  0.62608379  1
  Fe  Fe1  1  0.25068593  0.25216227  0.50049380  1
  Fe  Fe2  1  0.87419414  0.87940608  0.12995313  1
  Fe  Fe3  1  0.37578344  0.62476983  0.62439848  1
  Fe  Fe4  1  0.50025405  0.50089028  0.74837476  1
  Fe  Fe5  1  0.37443396  0.12493153  0.37530069  1
  Fe  Fe6  1  0.50160033  0.49822746  0.00128555  1
  Fe  Fe7  1  0.12224161  0.36975206  0.87920945  1
  Fe  Fe8  1  0.50258895  -0.00094381  0.75120394  1
  Fe  Fe9  1  0.00087524  0.50286019  0.75389849  1
  Fe  Fe10  1  0.25035635  0.49836011  -0.00046931  1
  Fe  Fe11  1  0.49763385  0.25225866  0.50161491  1
  Fe  Fe12  1  0.62727089  0.87544227  0.62424768  1
  Fe  Fe13  1  0.37587324  0.62527173  0.12489976  1
  Fe  Fe14  1  0.12361766  0.62341413  0.12301458  1
  Fe  Fe15  1  -0.00165529  0.25426854  0.49851502  1
  Fe  Fe16  1  0.24937045  0.75018341  0.75079473  1
  Fe  Fe17  1  0.00469074  0.24864872  0.24747199  1
  Fe  Fe18  1  0.50220667  0.24736282  0.24935314  1
  Fe  Fe19  1  0.62728601  0.87650456  0.12788120  1
  Fe  Fe20  1  0.74982566  0.75054095  0.74866472  1
  Fe  Fe21  1  0.50306465  0.74844837  0.24974355  1
  Fe  Fe22  1  0.75080108  0.00003548  0.49707170  1
  Fe  Fe23  1  0.37622469  0.87570288  0.87362759  1
  Fe  Fe24  1  0.12225004  0.87520268  0.87395141  1
  Fe  Fe25  1  0.24939376  0.49923892  0.75189715  1
  Fe  Fe26  1  0.87495817  0.87754216  0.62672412  1
  Fe  Fe27  1  0.50195570  0.24975884  0.74759823  1
  Fe  Fe28  1  0.12359662  0.62547477  0.62448777  1
  Fe  Fe29  1  -0.00223001  0.24740490  0.74870657  1
  Fe  Fe30  1  -0.00017599  -0.00058627  0.49636632  1
  Fe  Fe31  1  0.75027182  0.25258698  -0.00028513  1
  Fe  Fe32  1  0.49975834  -0.00285177  0.49777061  1
  Fe  Fe33  1  0.37605470  0.37487515  0.12624869  1
  Fe  Fe34  1  0.62542719  0.12540155  0.87604063  1
  Fe  Fe35  1  0.12336927  0.12462063  0.62186689  1
  Fe  Fe36  1  0.49986043  0.75184400  0.50073738  1
  Fe  Fe37  1  0.87436212  0.62274234  0.37668942  1
  Fe  Fe38  1  0.25127647  0.00362140  -0.00385790  1
  Fe  Fe39  1  0.24743668  0.49894285  0.24807146  1
  Fe  Fe40  1  0.74618356  0.24562324  0.24882981  1
  Fe  Fe41  1  0.24964446  0.75158813  0.00083554  1
  Fe  Fe42  1  0.87628647  0.12610797  0.37291953  1
  Fe  Fe43  1  0.49972991  0.25051404  0.00143577  1
  Fe  Fe44  1  -0.00333361  0.75015784  0.50121101  1
  Fe  Fe45  1  0.62886166  0.62652022  0.38032680  1
  Fe  Fe46  1  0.50303776  0.50162700  0.25113486  1
  Fe  Fe47  1  0.87231266  0.87549217  0.36975348  1
  Fe  Fe48  1  0.62829159  0.12406556  0.62316581  1
  Fe  Fe49  1  0.74872982  0.49823405  0.75235255  1
  Fe  Fe50  1  0.62644307  0.62557989  0.87682044  1
  Fe  Fe51  1  0.50607981  0.00276993  0.25272723  1
  Fe  Fe52  1  0.87609089  0.37391190  0.12709987  1
  Fe  Fe53  1  0.75010501  0.00010444  -0.00034532  1
  Fe  Fe54  1  0.25071707  -0.00331940  0.49773636  1
  Fe  Fe55  1  0.37514552  0.62575959  0.87687978  1
  Fe  Fe56  1  -0.00179087  0.50043334  -0.00257289  1
  Fe  Fe57  1  0.37507789  0.37586483  0.37429544  1
  Fe  Fe58  1  0.24651352  0.25151738  0.24815764  1
  Fe  Fe59  1  0.87449706  0.87399786  0.87325264  1
  Fe  Fe60  1  0.50175230  0.74998969  0.74941755  1
  Fe  Fe61  1  0.37528251  0.87747970  0.12849060  1
  Fe  Fe62  1  0.74977943  0.75171740  0.00167939  1
  Fe  Fe63  1  0.87236223  0.12831696  0.87279031  1
  Fe  Fe64  1  0.87416144  0.62396830  0.12294907  1
  Fe  Fe65  1  0.37657173  0.37297590  0.87356134  1
  Fe  Fe66  1  0.74916516  0.50165071  0.24957569  1
  Fe  Fe67  1  0.24773369  0.75060266  0.25008325  1
  Fe  Fe68  1  0.87521142  0.37615012  0.62859512  1
  Fe  Fe69  1  0.12234954  0.62280905  0.37698657  1
  Fe  Fe70  1  0.25204573  0.75292835  0.49869767  1
  Fe  Fe71  1  -0.00185099  0.00271835  0.75027314  1
  Fe  Fe72  1  0.75350497  0.25255346  0.50146873  1
  Fe  Fe73  1  0.24503022  -0.00036824  0.25412449  1
  Fe  Fe74  1  -0.00070816  0.74857998  0.24917849  1
  Fe  Fe75  1  0.12250820  0.87788591  0.12429733  1
  Fe  Fe76  1  0.24921465  0.00259085  0.75161883  1
  Fe  Fe77  1  0.12424237  0.37518606  0.62551534  1
  Fe  Fe78  1  0.37539500  0.12261807  0.12507584  1
  Fe  Fe79  1  0.25082673  0.49796001  0.50108335  1
  Fe  Fe80  1  -0.00230401  0.00483549  0.00045051  1
  Fe  Fe81  1  0.50099952  0.75317953  0.00159709  1
  Fe  Fe82  1  0.74941863  0.49605489  -0.00075490  1
  Fe  Fe83  1  0.62611529  0.37394292  0.37547997  1
  Fe  Fe84  1  0.37519795  0.12306583  0.62526768  1
  Fe  Fe85  1  0.37493692  0.62499852  0.37472050  1
  Fe  Fe86  1  0.25075572  0.24771150  0.75159208  1
  Fe  Fe87  1  0.62501454  0.37735145  0.62382712  1
  Fe  Fe88  1  -0.00088116  0.74926371  -0.00192415  1
  Fe  Fe89  1  0.12339383  0.87434812  0.62563092  1
  Co  Co90  1  -0.00304483  0.49668198  0.50057089  1
  Co  Co91  1  0.87474896  0.12435224  0.62262457  1
  Co  Co92  1  0.74417188  0.00507263  0.25298073  1
  Co  Co93  1  0.62312448  0.37435317  0.87359656  1
  Co  Co94  1  -0.00199034  0.74811559  0.75052580  1
  Co  Co95  1  0.12272129  0.37489356  0.11978479  1
  Co  Co96  1  0.75380812  0.75187548  0.50301756  1
  Co  Co97  1  0.75065927  0.00131746  0.75041798  1
  Co  Co98  1  0.12788820  0.12377789  0.12212947  1
  Co  Co99  1  0.75273385  0.49559616  0.49982586  1
  Co  Co100  1  0.37725792  0.87501202  0.37097865  1
  Co  Co101  1  0.00367726  0.00278040  0.25122073  1
  Co  Co102  1  0.62463515  0.12899831  0.38138129  1
  Co  Co103  1  0.87253919  0.12356113  0.12911725  1
  Co  Co104  1  0.87399714  0.37342700  0.36864198  1
  Co  Co105  1  0.37480583  0.87586483  0.62728173  1
  Co  Co106  1  0.62650939  0.62397920  0.62280809  1
  Co  Co107  1  0.62485889  0.12463579  0.11878217  1
  Co  Co108  1  0.50090631  -0.00341782  -0.00025500  1
  Co  Co109  1  0.87759597  0.37249959  0.87401400  1
  Co  Co110  1  0.62753756  0.87440194  0.87425668  1
  Co  Co111  1  0.62839182  0.87101880  0.37434966  1
  Co  Co112  1  0.12156026  0.12814985  0.87546487  1
  Co  Co113  1  0.38090802  0.12533010  0.87392219  1
  Co  Co114  1  0.62579465  0.62420590  0.12186052  1
  Co  Co115  1  0.12550730  0.12767676  0.37845099  1
  Co  Co116  1  0.62511378  0.37465638  0.12744366  1
  Co  Co117  1  0.74885418  0.25050282  0.74769442  1
  Co  Co118  1  0.75090128  0.74582181  0.24828472  1
  Co  Co119  1  0.00011360  0.50036017  0.24910409  1
  Co  Co120  1  -0.00432062  0.24493755  0.00437188  1
  Co  Co121  1  0.25370626  0.24742827  -0.00035110  1
  Co  Co122  1  0.87036502  0.62613721  0.87545329  1
  Co  Co123  1  0.37455372  0.37557130  0.62693056  1
  Co  Co124  1  0.49941545  0.49891966  0.49900888  1
  Co  Co125  1  0.12235216  0.87124323  0.37588370  1
  Co  Co126  1  0.12644791  0.62636280  0.87613834  1
  Co  Co127  1  0.12487779  0.37746095  0.37527529  1
