# generated using pymatgen
data_Fe45Co19
_symmetry_space_group_name_H-M   'P 1'
_cell_length_a   11.41577344
_cell_length_b   11.41600227
_cell_length_c   11.41460050
_cell_angle_alpha   90.00153181
_cell_angle_beta   90.00348720
_cell_angle_gamma   90.00015653
_symmetry_Int_Tables_number   1
_chemical_formula_structural   Fe45Co19
_chemical_formula_sum   'Fe90 Co38'
_cell_volume   1487.57921849
_cell_formula_units_Z   2
loop_
 _symmetry_equiv_pos_site_id
 _symmetry_equiv_pos_as_xyz
  1  'x, y, z'
loop_
 _atom_site_type_symbol
 _atom_site_label
 _atom_site_symmetry_multiplicity
 _atom_site_fract_x
 _atom_site_fract_y
 _atom_site_fract_z
 _atom_site_occupancy
  Fe  Fe0  1  -0.00163488  0.50001776  0.75026002  1
  Fe  Fe1  1  0.75311648  0.50459799  0.75060106  1
  Fe  Fe2  1  0.24641148  -0.00530732  0.50299282  1
  Fe  Fe3  1  0.62639511  0.12470926  0.87362207  1
  Fe  Fe4  1  0.62283088  0.37451585  0.62743953  1
  Fe  Fe5  1  0.00297461  0.75096150  0.00174862  1
  Fe  Fe6  1  0.62488460  0.87415192  0.86922238  1
  Fe  Fe7  1  0.50053815  0.74941194  0.25127166  1
  Fe  Fe8  1  0.12080922  0.12709067  0.87620857  1
  Fe  Fe9  1  0.37476719  0.37313065  0.87267982  1
  Fe  Fe10  1  0.50124456  0.25006153  -0.00120420  1
  Fe  Fe11  1  0.25134584  0.50125969  0.25352311  1
  Fe  Fe12  1  0.00135846  0.49974058  0.24988189  1
  Fe  Fe13  1  0.87404547  0.87368421  0.12491154  1
  Fe  Fe14  1  0.12832727  0.37383926  0.37758615  1
  Fe  Fe15  1  0.62519341  0.37526452  0.12573350  1
  Fe  Fe16  1  -0.00545643  0.00531267  0.74975068  1
  Fe  Fe17  1  0.87653508  0.37422000  0.62425414  1
  Fe  Fe18  1  0.75093894  0.50224523  0.25286853  1
  Fe  Fe19  1  0.25129279  0.75216207  0.74698020  1
  Fe  Fe20  1  0.12551496  0.37456453  0.87366966  1
  Fe  Fe21  1  0.24622342  0.25067666  0.74650936  1
  Fe  Fe22  1  0.75046542  -0.00084998  0.50153186  1
  Fe  Fe23  1  0.49919915  0.00026761  0.25173058  1
  Fe  Fe24  1  0.62472274  0.37457682  0.37429118  1
  Fe  Fe25  1  0.75082746  0.24930890  0.24823041  1
  Fe  Fe26  1  0.75446490  0.24729779  0.75010081  1
  Fe  Fe27  1  0.12622788  0.62709273  0.37723437  1
  Fe  Fe28  1  0.75012744  0.50022213  -0.00114309  1
  Fe  Fe29  1  0.24833300  0.75075014  0.25030975  1
  Fe  Fe30  1  0.00204374  0.49755982  0.00185486  1
  Fe  Fe31  1  0.50147513  0.00009845  -0.00156037  1
  Fe  Fe32  1  0.12550836  0.62363507  0.87472834  1
  Fe  Fe33  1  0.24782403  0.74982977  -0.00053190  1
  Fe  Fe34  1  0.74911208  0.74775777  -0.00345412  1
  Fe  Fe35  1  0.62409652  0.62422992  0.12442239  1
  Fe  Fe36  1  0.50033296  0.74969929  -0.00202353  1
  Fe  Fe37  1  0.25198471  0.49841133  0.74729126  1
  Fe  Fe38  1  0.62604706  0.12646734  0.62525088  1
  Fe  Fe39  1  0.49982635  0.75049020  0.49992619  1
  Fe  Fe40  1  0.00410663  0.24933907  0.50385283  1
  Fe  Fe41  1  0.37506169  0.62477935  0.87409636  1
  Fe  Fe42  1  0.37511563  0.12403187  0.12324079  1
  Fe  Fe43  1  0.37329964  0.37449063  0.12455643  1
  Fe  Fe44  1  0.62411335  0.62470300  0.62661188  1
  Fe  Fe45  1  0.87743310  0.62395148  0.12491711  1
  Fe  Fe46  1  0.75097638  0.50010787  0.49891056  1
  Fe  Fe47  1  0.37226370  0.12637971  0.37901397  1
  Fe  Fe48  1  0.00131074  0.75197868  0.49974701  1
  Fe  Fe49  1  0.87467399  0.87528088  0.87434659  1
  Fe  Fe50  1  0.62623402  0.87510615  0.37450054  1
  Fe  Fe51  1  0.12608877  0.87801100  0.12808711  1
  Fe  Fe52  1  0.75149052  0.74799612  0.49962460  1
  Fe  Fe53  1  0.00069029  -0.00137901  0.50114001  1
  Fe  Fe54  1  0.37580837  0.87625308  0.87367603  1
  Fe  Fe55  1  0.87552822  0.37360796  0.37572909  1
  Fe  Fe56  1  0.50163111  0.00072303  0.50094715  1
  Fe  Fe57  1  0.13031219  0.37601427  0.12355382  1
  Fe  Fe58  1  0.87608556  0.87391000  0.37377359  1
  Fe  Fe59  1  0.12582505  0.12282703  0.37530069  1
  Fe  Fe60  1  0.00031130  0.49990654  0.49884559  1
  Fe  Fe61  1  0.49513070  0.49675249  0.49833954  1
  Fe  Fe62  1  0.75011554  0.74648590  0.25259710  1
  Fe  Fe63  1  0.74961778  0.00089131  -0.00094721  1
  Fe  Fe64  1  0.37354125  0.62643468  0.62232371  1
  Fe  Fe65  1  0.87696464  0.12775594  0.11894773  1
  Fe  Fe66  1  0.12357387  0.87588432  0.87085477  1
  Fe  Fe67  1  0.49691596  0.50107108  0.25342125  1
  Fe  Fe68  1  -0.00329194  0.74641269  0.75070082  1
  Fe  Fe69  1  0.12501353  0.62378824  0.62437469  1
  Fe  Fe70  1  0.00104251  0.25109085  0.24731665  1
  Fe  Fe71  1  0.87416577  0.87406094  0.62760679  1
  Fe  Fe72  1  0.24951208  0.24672481  0.24901952  1
  Fe  Fe73  1  0.49824090  0.49965966  -0.00176525  1
  Fe  Fe74  1  0.62703694  0.12602533  0.37559348  1
  Fe  Fe75  1  0.25084187  -0.00127080  0.74788365  1
  Fe  Fe76  1  0.62531704  0.87563481  0.12615420  1
  Fe  Fe77  1  0.87506952  0.12750672  0.37886355  1
  Fe  Fe78  1  0.75164428  0.00237138  0.24932233  1
  Fe  Fe79  1  0.37496712  0.12707213  0.62381736  1
  Fe  Fe80  1  0.37412066  0.12548370  0.87362304  1
  Fe  Fe81  1  0.62558057  0.87372015  0.63008959  1
  Fe  Fe82  1  0.62449344  0.37664401  0.87216526  1
  Fe  Fe83  1  0.37432783  0.87631333  0.12409461  1
  Fe  Fe84  1  0.37305526  0.87418232  0.37663355  1
  Fe  Fe85  1  0.87620232  0.37223269  0.87638078  1
  Fe  Fe86  1  0.37294222  0.62477973  0.12474262  1
  Fe  Fe87  1  -0.00167377  0.00140392  0.24861757  1
  Fe  Fe88  1  0.24697932  0.00158381  -0.00053251  1
  Fe  Fe89  1  0.49978656  0.24867085  0.25121394  1
  Co  Co90  1  0.25185759  0.00100838  0.25003334  1
  Co  Co91  1  0.49631910  0.50061184  0.74805363  1
  Co  Co92  1  0.37195008  0.37009131  0.37502747  1
  Co  Co93  1  0.25297749  0.49818030  0.49970112  1
  Co  Co94  1  0.49971993  0.00193785  0.74886312  1
  Co  Co95  1  0.25163407  0.49989963  -0.00301281  1
  Co  Co96  1  0.00341708  0.25576864  0.00336406  1
  Co  Co97  1  0.00235966  -0.00408164  0.00061683  1
  Co  Co98  1  0.62222511  0.62343836  0.87293021  1
  Co  Co99  1  0.87688412  0.62402636  0.62223004  1
  Co  Co100  1  0.62368114  0.12401002  0.12526858  1
  Co  Co101  1  0.50059644  0.24833695  0.75065777  1
  Co  Co102  1  0.24570908  0.25120601  0.50423005  1
  Co  Co103  1  0.12386471  0.37927103  0.62475381  1
  Co  Co104  1  0.87791798  0.62500383  0.37500034  1
  Co  Co105  1  -0.00074068  0.24898656  0.74677724  1
  Co  Co106  1  0.87867821  0.62341686  0.87987887  1
  Co  Co107  1  0.24569058  0.75568010  0.50344230  1
  Co  Co108  1  0.12673117  0.62254201  0.12408973  1
  Co  Co109  1  0.75317272  0.00361928  0.74991097  1
  Co  Co110  1  0.62280249  0.62386839  0.37766687  1
  Co  Co111  1  0.50189921  0.25134697  0.49877372  1
  Co  Co112  1  0.12528733  0.12124907  0.62648257  1
  Co  Co113  1  0.75308589  0.74454504  0.75176251  1
  Co  Co114  1  0.12387702  0.87689247  0.37127875  1
  Co  Co115  1  0.37564741  0.36989586  0.62496996  1
  Co  Co116  1  0.00159731  0.74943330  0.24783457  1
  Co  Co117  1  0.24976035  0.24888834  -0.00057583  1
  Co  Co118  1  0.87801681  0.12827446  0.88184763  1
  Co  Co119  1  0.74654892  0.25123591  0.00006917  1
  Co  Co120  1  0.37858029  0.87644210  0.62486818  1
  Co  Co121  1  0.12399949  0.12415464  0.12433848  1
  Co  Co122  1  0.37236730  0.62910344  0.37666733  1
  Co  Co123  1  0.87406244  0.12685174  0.61991467  1
  Co  Co124  1  0.49729195  0.74905818  0.75023345  1
  Co  Co125  1  0.74838188  0.25339748  0.50065688  1
  Co  Co126  1  0.11976985  0.87564105  0.63087774  1
  Co  Co127  1  0.87250895  0.37622592  0.12589082  1
