# generated using pymatgen
data_Fe45Co19
_symmetry_space_group_name_H-M   'P 1'
_cell_length_a   11.41620148
_cell_length_b   11.41627295
_cell_length_c   11.41506634
_cell_angle_alpha   90.00576468
_cell_angle_beta   90.00100025
_cell_angle_gamma   89.99659945
_symmetry_Int_Tables_number   1
_chemical_formula_structural   Fe45Co19
_chemical_formula_sum   'Fe90 Co38'
_cell_volume   1487.73097524
_cell_formula_units_Z   2
loop_
 _symmetry_equiv_pos_site_id
 _symmetry_equiv_pos_as_xyz
  1  'x, y, z'
loop_
 _atom_site_type_symbol
 _atom_site_label
 _atom_site_symmetry_multiplicity
 _atom_site_fract_x
 _atom_site_fract_y
 _atom_site_fract_z
 _atom_site_occupancy
  Fe  Fe0  1  0.49773639  0.25138845  0.24804331  1
  Fe  Fe1  1  0.87575743  0.12388836  0.62550683  1
  Fe  Fe2  1  0.62157435  0.37328067  0.87792437  1
  Fe  Fe3  1  0.62527933  0.12521560  0.87431896  1
  Fe  Fe4  1  0.62418890  0.87511731  0.87355845  1
  Fe  Fe5  1  0.12911556  0.37879007  0.62651627  1
  Fe  Fe6  1  0.12298393  0.37300247  0.37129153  1
  Fe  Fe7  1  0.12710949  0.12370045  0.87281837  1
  Fe  Fe8  1  0.87602787  0.12740032  0.37504542  1
  Fe  Fe9  1  0.74589699  0.74551561  0.49836490  1
  Fe  Fe10  1  0.37391538  0.62458605  0.12372397  1
  Fe  Fe11  1  0.00199957  0.50280365  0.50038124  1
  Fe  Fe12  1  0.00113915  0.49994152  -0.00182129  1
  Fe  Fe13  1  0.62525722  0.87461419  0.62494159  1
  Fe  Fe14  1  0.24978813  0.25163522  0.50008144  1
  Fe  Fe15  1  0.75389884  0.49911812  0.25160605  1
  Fe  Fe16  1  0.25190813  -0.00146693  0.74841566  1
  Fe  Fe17  1  0.24843943  -0.00089853  0.49670166  1
  Fe  Fe18  1  0.87599384  0.86934313  0.37452829  1
  Fe  Fe19  1  0.37667409  0.87393038  0.12798990  1
  Fe  Fe20  1  0.37529518  0.37604521  0.37741155  1
  Fe  Fe21  1  0.74785336  0.75066858  0.00106901  1
  Fe  Fe22  1  0.74925973  0.25161874  0.50161003  1
  Fe  Fe23  1  0.37193971  0.37614530  0.11621179  1
  Fe  Fe24  1  0.87576608  0.12692522  0.87522677  1
  Fe  Fe25  1  0.50285693  0.00172191  0.49694920  1
  Fe  Fe26  1  0.87548074  0.87238193  0.62411762  1
  Fe  Fe27  1  0.00126885  -0.00108081  0.49786689  1
  Fe  Fe28  1  0.12570167  0.62719818  0.87314021  1
  Fe  Fe29  1  0.49316754  0.25081629  0.75076143  1
  Fe  Fe30  1  0.50192476  0.74454265  0.49896117  1
  Fe  Fe31  1  0.25138038  0.75044043  0.74963729  1
  Fe  Fe32  1  0.87507675  0.87354080  0.87512887  1
  Fe  Fe33  1  0.75300805  0.50024631  0.75277923  1
  Fe  Fe34  1  0.50047527  0.00180270  0.00176579  1
  Fe  Fe35  1  0.62276366  0.37775146  0.62681726  1
  Fe  Fe36  1  0.87579813  0.37735795  0.62409823  1
  Fe  Fe37  1  0.12711631  0.12448065  0.62523413  1
  Fe  Fe38  1  0.62433921  0.37430247  0.12261461  1
  Fe  Fe39  1  0.49732400  0.74849210  0.74835130  1
  Fe  Fe40  1  0.75157796  0.74788988  0.74945702  1
  Fe  Fe41  1  0.37431752  0.12627306  0.37432318  1
  Fe  Fe42  1  0.49786046  0.50003062  0.24839447  1
  Fe  Fe43  1  0.00513103  0.24956264  0.00348626  1
  Fe  Fe44  1  0.75305433  0.25309634  0.25065947  1
  Fe  Fe45  1  0.00091018  0.25175666  0.74866766  1
  Fe  Fe46  1  0.37135557  0.12561198  0.12539429  1
  Fe  Fe47  1  0.87476160  0.87435193  0.12611932  1
  Fe  Fe48  1  0.12369037  0.87274341  0.62573244  1
  Fe  Fe49  1  0.62308004  0.87505589  0.12986840  1
  Fe  Fe50  1  0.25587105  0.25278654  0.75049030  1
  Fe  Fe51  1  0.74911661  0.00002792  -0.00091286  1
  Fe  Fe52  1  0.00167132  0.75140650  0.00028054  1
  Fe  Fe53  1  0.50162687  0.74854264  0.00165580  1
  Fe  Fe54  1  0.12463294  0.12739511  0.36825762  1
  Fe  Fe55  1  0.25160300  0.49905237  0.25083068  1
  Fe  Fe56  1  0.74899973  -0.00158034  0.25359734  1
  Fe  Fe57  1  0.49830466  0.00062918  0.74927546  1
  Fe  Fe58  1  0.49352558  0.49934099  0.75413760  1
  Fe  Fe59  1  0.87450648  0.62603176  0.12354679  1
  Fe  Fe60  1  -0.00323130  0.49913477  0.25080736  1
  Fe  Fe61  1  0.12448115  0.62282634  0.12708643  1
  Fe  Fe62  1  0.24895103  0.74863422  0.49801682  1
  Fe  Fe63  1  -0.00151029  0.50378082  0.75044682  1
  Fe  Fe64  1  0.12432738  0.62679884  0.37209516  1
  Fe  Fe65  1  0.87579654  0.12432651  0.12524616  1
  Fe  Fe66  1  0.37874645  0.87228568  0.37162948  1
  Fe  Fe67  1  0.00238643  0.00040892  0.00011384  1
  Fe  Fe68  1  0.74811392  -0.00049573  0.49778899  1
  Fe  Fe69  1  0.12711903  0.37618117  0.87564650  1
  Fe  Fe70  1  0.62511923  0.37527586  0.37424207  1
  Fe  Fe71  1  0.37454632  0.87507077  0.87735576  1
  Fe  Fe72  1  -0.00040497  -0.00266232  0.75020232  1
  Fe  Fe73  1  0.37578752  0.87631027  0.62112973  1
  Fe  Fe74  1  0.12488394  0.87747625  0.12859118  1
  Fe  Fe75  1  0.62677367  0.62364868  0.12770815  1
  Fe  Fe76  1  0.24806079  0.00077211  0.00188353  1
  Fe  Fe77  1  0.74939091  0.49847828  -0.00289892  1
  Fe  Fe78  1  0.24819995  0.74993544  0.00220046  1
  Fe  Fe79  1  0.12380853  0.87254899  0.37055034  1
  Fe  Fe80  1  0.74979745  0.50277689  0.49921661  1
  Fe  Fe81  1  0.75111689  0.25186859  0.75092959  1
  Fe  Fe82  1  0.50123870  0.50239048  0.49868381  1
  Fe  Fe83  1  0.49991036  0.25002430  0.50205006  1
  Fe  Fe84  1  0.62718626  0.12645682  0.12771688  1
  Fe  Fe85  1  0.37040299  0.62052782  0.62252380  1
  Fe  Fe86  1  0.62422063  0.62566862  0.87388832  1
  Fe  Fe87  1  0.62518681  0.12469420  0.62610933  1
  Fe  Fe88  1  0.00122469  0.25096124  0.50115917  1
  Fe  Fe89  1  0.87612138  0.37475700  0.12117871  1
  Co  Co90  1  -0.00243292  -0.00208638  0.25201967  1
  Co  Co91  1  0.37435957  0.62862039  0.87824064  1
  Co  Co92  1  -0.00065513  0.74907186  0.75078147  1
  Co  Co93  1  0.37246849  0.12277688  0.87719023  1
  Co  Co94  1  0.74989578  0.74961343  0.24989929  1
  Co  Co95  1  0.24760316  0.50386852  -0.00200728  1
  Co  Co96  1  0.37375565  0.12272174  0.62167954  1
  Co  Co97  1  0.37379278  0.62436406  0.37510475  1
  Co  Co98  1  0.75113807  -0.00038725  0.75020467  1
  Co  Co99  1  0.37347731  0.37949027  0.62062166  1
  Co  Co100  1  0.62097263  0.87163781  0.37294840  1
  Co  Co101  1  0.25218840  -0.00230651  0.25189615  1
  Co  Co102  1  0.12725326  0.87474752  0.87467986  1
  Co  Co103  1  0.87601396  0.62603861  0.62314051  1
  Co  Co104  1  -0.00309222  0.25308675  0.24706796  1
  Co  Co105  1  0.25266038  0.25466811  0.24852942  1
  Co  Co106  1  0.00364232  0.74828786  0.50083992  1
  Co  Co107  1  0.87640551  0.62756400  0.37500066  1
  Co  Co108  1  0.62386683  0.62182824  0.62903117  1
  Co  Co109  1  0.87498517  0.62676362  0.87912101  1
  Co  Co110  1  0.87586639  0.37511929  0.37879947  1
  Co  Co111  1  0.12859362  0.62447985  0.62724292  1
  Co  Co112  1  0.62537105  0.62222476  0.37003573  1
  Co  Co113  1  0.25454130  0.49877229  0.75474223  1
  Co  Co114  1  0.75007090  0.25029284  -0.00057786  1
  Co  Co115  1  0.00010472  0.74954004  0.24656736  1
  Co  Co116  1  0.24362805  0.24722177  0.00129029  1
  Co  Co117  1  0.50005753  0.00376038  0.25066093  1
  Co  Co118  1  0.87820296  0.37324434  0.87663776  1
  Co  Co119  1  0.50219563  0.50447993  0.00013035  1
  Co  Co120  1  0.25015477  0.74890914  0.24867636  1
  Co  Co121  1  0.50042394  0.24540006  0.00127640  1
  Co  Co122  1  0.49944524  0.74476924  0.24932783  1
  Co  Co123  1  0.62552406  0.12948428  0.37354083  1
  Co  Co124  1  0.12672452  0.37837618  0.12608877  1
  Co  Co125  1  0.24536155  0.49955601  0.49526295  1
  Co  Co126  1  0.37442494  0.37397261  0.88582923  1
  Co  Co127  1  0.12517974  0.12285644  0.13222921  1
