# generated using pymatgen
data_Fe45Co19
_symmetry_space_group_name_H-M   'P 1'
_cell_length_a   11.41418205
_cell_length_b   11.41511947
_cell_length_c   11.41468130
_cell_angle_alpha   89.99497648
_cell_angle_beta   89.98764179
_cell_angle_gamma   90.01535472
_symmetry_Int_Tables_number   1
_chemical_formula_structural   Fe45Co19
_chemical_formula_sum   'Fe90 Co38'
_cell_volume   1487.26726631
_cell_formula_units_Z   2
loop_
 _symmetry_equiv_pos_site_id
 _symmetry_equiv_pos_as_xyz
  1  'x, y, z'
loop_
 _atom_site_type_symbol
 _atom_site_label
 _atom_site_symmetry_multiplicity
 _atom_site_fract_x
 _atom_site_fract_y
 _atom_site_fract_z
 _atom_site_occupancy
  Fe  Fe0  1  0.50022368  0.00022008  0.49917894  1
  Fe  Fe1  1  0.25103515  0.50004245  0.74868907  1
  Fe  Fe2  1  0.74414057  0.25223537  0.74922869  1
  Fe  Fe3  1  0.75251475  0.75301218  0.74296525  1
  Fe  Fe4  1  -0.00116295  0.25108134  0.74999523  1
  Fe  Fe5  1  0.50197045  -0.00034301  0.25073821  1
  Fe  Fe6  1  0.74899868  0.50009021  0.50205665  1
  Fe  Fe7  1  0.86971850  0.37570001  0.87652492  1
  Fe  Fe8  1  0.50324659  -0.00013800  0.75256426  1
  Fe  Fe9  1  0.87513624  0.87537193  0.37608084  1
  Fe  Fe10  1  0.50198941  0.49939348  0.25071409  1
  Fe  Fe11  1  0.37569382  0.62413086  0.12583340  1
  Fe  Fe12  1  0.25239412  0.50138761  0.50225534  1
  Fe  Fe13  1  0.87349668  0.87421740  0.87525296  1
  Fe  Fe14  1  0.24935596  -0.00059804  -0.00091645  1
  Fe  Fe15  1  -0.00361324  0.75019140  0.50349049  1
  Fe  Fe16  1  0.62469577  0.87094110  0.12337030  1
  Fe  Fe17  1  0.24618013  0.74547436  0.25042175  1
  Fe  Fe18  1  0.74653680  -0.00299347  0.74819661  1
  Fe  Fe19  1  0.74672923  0.25019186  0.24897209  1
  Fe  Fe20  1  0.12434874  0.12433429  0.12514241  1
  Fe  Fe21  1  0.74670054  0.49834371  0.74719585  1
  Fe  Fe22  1  0.37516682  0.87353594  0.12599036  1
  Fe  Fe23  1  0.12586116  0.87301622  0.37616185  1
  Fe  Fe24  1  0.12798575  0.37106610  0.62401672  1
  Fe  Fe25  1  0.12650789  0.37520996  0.37681865  1
  Fe  Fe26  1  0.74882155  0.00083784  0.00018921  1
  Fe  Fe27  1  0.50124900  -0.00426460  -0.00313228  1
  Fe  Fe28  1  0.25318234  0.25098219  0.24913584  1
  Fe  Fe29  1  0.74773035  0.74583675  -0.00084915  1
  Fe  Fe30  1  0.24924269  0.50188479  -0.00139937  1
  Fe  Fe31  1  0.12528982  0.87189852  0.87272378  1
  Fe  Fe32  1  0.37661370  0.12357254  0.12436445  1
  Fe  Fe33  1  0.75008544  0.25030263  0.50083409  1
  Fe  Fe34  1  0.12370721  0.62660325  0.62628848  1
  Fe  Fe35  1  0.87579035  0.37553696  0.37526030  1
  Fe  Fe36  1  0.62325518  0.37381733  0.37687413  1
  Fe  Fe37  1  -0.00109987  0.25052600  -0.00100371  1
  Fe  Fe38  1  0.37676651  0.12491656  0.37214540  1
  Fe  Fe39  1  0.00045846  0.00074365  0.75092237  1
  Fe  Fe40  1  0.50226278  0.49501685  0.75064972  1
  Fe  Fe41  1  0.87472918  0.62512181  0.37739748  1
  Fe  Fe42  1  0.50515816  0.50537204  -0.00302015  1
  Fe  Fe43  1  0.25064691  0.24914912  -0.00152463  1
  Fe  Fe44  1  0.49853001  0.75295020  0.75259660  1
  Fe  Fe45  1  0.25296683  0.74952695  -0.00237618  1
  Fe  Fe46  1  0.87445316  0.62527581  0.87044885  1
  Fe  Fe47  1  0.12356183  0.62793897  0.87310344  1
  Fe  Fe48  1  0.37409977  0.62368890  0.37357858  1
  Fe  Fe49  1  0.25455354  0.74880198  0.50437186  1
  Fe  Fe50  1  0.37563090  0.37459824  0.37556474  1
  Fe  Fe51  1  0.12423631  0.87157199  0.12517616  1
  Fe  Fe52  1  0.12732175  0.12817794  0.62590884  1
  Fe  Fe53  1  0.74748012  0.50120238  0.25001699  1
  Fe  Fe54  1  0.49804438  0.24704044  0.50462413  1
  Fe  Fe55  1  0.74981673  0.74917321  0.25206252  1
  Fe  Fe56  1  0.74687452  -0.00067199  0.24970519  1
  Fe  Fe57  1  0.37582456  0.62478121  0.87191696  1
  Fe  Fe58  1  0.12473609  0.87405557  0.62655019  1
  Fe  Fe59  1  0.12599648  0.37768614  0.12519957  1
  Fe  Fe60  1  0.00438410  0.50446647  0.25091525  1
  Fe  Fe61  1  0.00003845  -0.00409041  0.24911511  1
  Fe  Fe62  1  0.49910442  0.50257113  0.50057322  1
  Fe  Fe63  1  0.12698201  0.37385518  0.87445415  1
  Fe  Fe64  1  0.62221012  0.62942151  0.62233911  1
  Fe  Fe65  1  0.12577759  0.12560149  0.37321082  1
  Fe  Fe66  1  0.37578737  0.37802513  0.12286709  1
  Fe  Fe67  1  0.62490862  0.87119991  0.37920777  1
  Fe  Fe68  1  0.00181858  0.00329227  0.50087918  1
  Fe  Fe69  1  0.74653875  -0.00101569  0.50230183  1
  Fe  Fe70  1  0.37631649  0.87689234  0.62734037  1
  Fe  Fe71  1  0.87386446  0.37759621  0.12392193  1
  Fe  Fe72  1  0.87281286  0.12565752  0.87406185  1
  Fe  Fe73  1  0.50105799  0.74843944  0.25190938  1
  Fe  Fe74  1  -0.00046754  -0.00162580  -0.00114560  1
  Fe  Fe75  1  0.37278950  0.87544729  0.37255909  1
  Fe  Fe76  1  0.87562016  0.12317463  0.12645510  1
  Fe  Fe77  1  -0.00019925  0.49725867  0.74912357  1
  Fe  Fe78  1  0.87369510  0.12566205  0.62524096  1
  Fe  Fe79  1  -0.00054523  0.25083225  0.25067400  1
  Fe  Fe80  1  0.50044585  0.25053830  -0.00498879  1
  Fe  Fe81  1  0.62307207  0.12575006  0.12370719  1
  Fe  Fe82  1  -0.00082214  0.49689149  0.50357129  1
  Fe  Fe83  1  0.25089669  0.00147189  0.49963558  1
  Fe  Fe84  1  0.24965570  0.00091981  0.75226193  1
  Fe  Fe85  1  0.87756210  0.62736965  0.12566163  1
  Fe  Fe86  1  0.62688503  0.37692205  0.12049748  1
  Fe  Fe87  1  -0.00108411  0.50093161  -0.00246609  1
  Fe  Fe88  1  0.25730767  0.24940822  0.75252842  1
  Fe  Fe89  1  0.87327207  0.12411122  0.37457517  1
  Co  Co90  1  0.75372687  0.75123458  0.50424948  1
  Co  Co91  1  0.37924931  0.62451548  0.62966986  1
  Co  Co92  1  0.25211101  0.74951830  0.74828493  1
  Co  Co93  1  0.62364880  0.62661003  0.12812664  1
  Co  Co94  1  -0.00151936  0.75091172  -0.00283801  1
  Co  Co95  1  0.24868347  0.50071793  0.25097038  1
  Co  Co96  1  0.62782066  0.87212765  0.87600142  1
  Co  Co97  1  0.37708625  0.12237557  0.87588518  1
  Co  Co98  1  0.62514313  0.12560450  0.87430978  1
  Co  Co99  1  0.25301017  0.24724246  0.49793528  1
  Co  Co100  1  0.87373602  0.37316794  0.62566427  1
  Co  Co101  1  -0.00348978  0.75140253  0.74793223  1
  Co  Co102  1  0.62632525  0.62775772  0.86848091  1
  Co  Co103  1  0.62440240  0.12468767  0.62639000  1
  Co  Co104  1  0.50101896  0.25179754  0.24761475  1
  Co  Co105  1  0.62025443  0.87208626  0.62245054  1
  Co  Co106  1  -0.00085303  0.24931804  0.49985998  1
  Co  Co107  1  0.12550180  0.12620705  0.87473917  1
  Co  Co108  1  0.49865527  0.74848384  -0.00230624  1
  Co  Co109  1  0.62254172  0.37472651  0.62148710  1
  Co  Co110  1  0.37560847  0.37834596  0.87659306  1
  Co  Co111  1  0.37383747  0.87632935  0.87375333  1
  Co  Co112  1  0.75118183  0.24706376  0.00237454  1
  Co  Co113  1  0.24953413  0.00082468  0.24910425  1
  Co  Co114  1  0.12481464  0.62552246  0.38198698  1
  Co  Co115  1  0.87805536  0.88081972  0.62382137  1
  Co  Co116  1  0.49374193  0.75006403  0.49801412  1
  Co  Co117  1  0.62399887  0.12662899  0.37658825  1
  Co  Co118  1  0.87249369  0.87240313  0.12450233  1
  Co  Co119  1  0.87526297  0.62083479  0.62601816  1
  Co  Co120  1  0.37471737  0.37526067  0.62422632  1
  Co  Co121  1  0.62898932  0.37552263  0.87976909  1
  Co  Co122  1  0.74980624  0.50731863  0.00026116  1
  Co  Co123  1  0.49975946  0.25345597  0.75189772  1
  Co  Co124  1  0.12430790  0.62595097  0.12091269  1
  Co  Co125  1  0.00131579  0.74903546  0.25256807  1
  Co  Co126  1  0.37592718  0.12209431  0.62805778  1
  Co  Co127  1  0.62604068  0.62628777  0.37841225  1
