# generated using pymatgen
data_Fe45Co19
_symmetry_space_group_name_H-M   'P 1'
_cell_length_a   11.41570770
_cell_length_b   11.41628354
_cell_length_c   11.41411143
_cell_angle_alpha   90.00630178
_cell_angle_beta   89.99068391
_cell_angle_gamma   90.00228703
_symmetry_Int_Tables_number   1
_chemical_formula_structural   Fe45Co19
_chemical_formula_sum   'Fe90 Co38'
_cell_volume   1487.54353982
_cell_formula_units_Z   2
loop_
 _symmetry_equiv_pos_site_id
 _symmetry_equiv_pos_as_xyz
  1  'x, y, z'
loop_
 _atom_site_type_symbol
 _atom_site_label
 _atom_site_symmetry_multiplicity
 _atom_site_fract_x
 _atom_site_fract_y
 _atom_site_fract_z
 _atom_site_occupancy
  Fe  Fe0  1  0.37588264  0.37546140  0.87779398  1
  Fe  Fe1  1  0.49785276  -0.00218401  0.24800387  1
  Fe  Fe2  1  0.49968286  -0.00226406  0.75007353  1
  Fe  Fe3  1  0.75059261  0.25044537  0.25105771  1
  Fe  Fe4  1  0.24857678  0.75333959  0.50034499  1
  Fe  Fe5  1  0.87471602  0.12625281  0.12522701  1
  Fe  Fe6  1  0.37492172  0.37379081  0.62301448  1
  Fe  Fe7  1  0.75058616  0.25044259  0.49687522  1
  Fe  Fe8  1  0.75082563  0.74669762  0.24833196  1
  Fe  Fe9  1  0.62383352  0.12353267  0.37157085  1
  Fe  Fe10  1  0.75140935  0.74777695  0.49689406  1
  Fe  Fe11  1  0.62309328  0.37825951  0.37448883  1
  Fe  Fe12  1  0.75015525  0.74982340  0.75129245  1
  Fe  Fe13  1  0.49931919  0.49887435  0.74863366  1
  Fe  Fe14  1  0.49815869  0.25059563  0.24935999  1
  Fe  Fe15  1  0.12533000  0.37481247  0.87482321  1
  Fe  Fe16  1  0.50005655  0.49991704  0.00430009  1
  Fe  Fe17  1  0.00239802  0.00142930  0.24703755  1
  Fe  Fe18  1  0.00106422  0.25144548  -0.00041165  1
  Fe  Fe19  1  0.74761029  0.50369031  0.00405419  1
  Fe  Fe20  1  0.25037582  0.25051763  0.74940413  1
  Fe  Fe21  1  0.00164505  0.00091184  0.00186795  1
  Fe  Fe22  1  -0.00096732  -0.00015009  0.50091854  1
  Fe  Fe23  1  0.37452211  0.12338676  0.12388568  1
  Fe  Fe24  1  0.87377582  0.87270230  0.87886383  1
  Fe  Fe25  1  0.37722163  0.12228820  0.62394336  1
  Fe  Fe26  1  0.37351459  0.62243069  0.87594918  1
  Fe  Fe27  1  0.12880849  0.62539492  0.37268917  1
  Fe  Fe28  1  0.00136307  0.75091495  0.74777672  1
  Fe  Fe29  1  0.49984759  0.24820633  0.49766705  1
  Fe  Fe30  1  -0.00008400  0.24861895  0.49753534  1
  Fe  Fe31  1  0.24909871  0.49809209  0.74771910  1
  Fe  Fe32  1  0.00139310  0.74896149  0.25059004  1
  Fe  Fe33  1  0.12569307  0.62384807  0.87425781  1
  Fe  Fe34  1  0.49862958  0.75109553  0.49853289  1
  Fe  Fe35  1  0.25221779  0.49948133  0.49816560  1
  Fe  Fe36  1  0.49837305  0.74969055  0.00138724  1
  Fe  Fe37  1  0.50145321  0.25172690  0.75275816  1
  Fe  Fe38  1  0.12690310  0.37323486  0.37361450  1
  Fe  Fe39  1  0.37446661  0.87714281  0.87890519  1
  Fe  Fe40  1  0.62315328  0.62439457  0.87584168  1
  Fe  Fe41  1  0.62346427  0.62489464  0.62285370  1
  Fe  Fe42  1  0.87524225  0.37476109  0.62331698  1
  Fe  Fe43  1  0.00300626  0.50210710  0.24649813  1
  Fe  Fe44  1  0.24845368  0.24959959  0.00045590  1
  Fe  Fe45  1  0.75010547  0.50021457  0.74858845  1
  Fe  Fe46  1  0.87504461  0.87248505  0.12328340  1
  Fe  Fe47  1  0.62587315  0.87528484  0.12266070  1
  Fe  Fe48  1  0.12414753  0.12437125  0.62557861  1
  Fe  Fe49  1  0.87505348  0.37620236  0.12401494  1
  Fe  Fe50  1  0.49287820  0.49885738  0.25098397  1
  Fe  Fe51  1  0.62569107  0.87375055  0.62447955  1
  Fe  Fe52  1  0.00210220  0.49849732  0.74873678  1
  Fe  Fe53  1  0.62599017  0.87668471  0.87949655  1
  Fe  Fe54  1  0.75215159  -0.00025898  0.24885848  1
  Fe  Fe55  1  0.00044324  0.25218723  0.74961032  1
  Fe  Fe56  1  0.87366998  0.12618751  0.62500534  1
  Fe  Fe57  1  0.87754636  0.62705205  0.62237456  1
  Fe  Fe58  1  0.62578492  0.87514029  0.37388666  1
  Fe  Fe59  1  0.00340115  0.74722374  0.00175342  1
  Fe  Fe60  1  0.12531391  0.87962296  0.37531569  1
  Fe  Fe61  1  0.36933170  0.62922802  0.12825373  1
  Fe  Fe62  1  0.75225120  -0.00157063  0.75080768  1
  Fe  Fe63  1  0.25039982  0.75190253  0.74994932  1
  Fe  Fe64  1  0.24638820  0.49874053  0.00484086  1
  Fe  Fe65  1  0.25087678  -0.00162663  0.74882613  1
  Fe  Fe66  1  0.87327205  0.12664736  0.87443439  1
  Fe  Fe67  1  0.62564596  0.12521508  0.62738638  1
  Fe  Fe68  1  0.87273107  0.37649594  0.87709998  1
  Fe  Fe69  1  0.25102294  0.24548010  0.49841707  1
  Fe  Fe70  1  0.75073638  0.50344416  0.24884679  1
  Fe  Fe71  1  0.25158903  0.24776600  0.25076778  1
  Fe  Fe72  1  0.37429438  0.62711276  0.62427216  1
  Fe  Fe73  1  -0.00201331  -0.00185910  0.74938995  1
  Fe  Fe74  1  0.12550341  0.12403491  0.87485442  1
  Fe  Fe75  1  -0.00093316  0.24825677  0.25180375  1
  Fe  Fe76  1  0.37326154  0.88090345  0.37735351  1
  Fe  Fe77  1  0.87567698  0.37859180  0.37428160  1
  Fe  Fe78  1  0.87620536  0.62448982  0.87771894  1
  Fe  Fe79  1  0.74931853  0.00026080  0.49872071  1
  Fe  Fe80  1  0.62187815  0.62304544  0.37465550  1
  Fe  Fe81  1  0.50516305  0.24836709  0.00067241  1
  Fe  Fe82  1  0.87583702  0.87417430  0.37518019  1
  Fe  Fe83  1  0.00230711  0.50178522  0.49920536  1
  Fe  Fe84  1  0.49862779  0.75109272  0.75137929  1
  Fe  Fe85  1  0.37524762  0.12357974  0.87696184  1
  Fe  Fe86  1  0.12535348  0.87602209  0.87566498  1
  Fe  Fe87  1  0.74453404  0.24778757  0.00054115  1
  Fe  Fe88  1  0.62542794  0.37591700  0.62323749  1
  Fe  Fe89  1  0.49628394  0.75277830  0.25084834  1
  Co  Co90  1  0.12427128  0.87598082  0.62518799  1
  Co  Co91  1  0.24668763  0.00049235  0.00270251  1
  Co  Co92  1  0.49614824  0.50035471  0.49970562  1
  Co  Co93  1  0.12627716  0.87135655  0.12437251  1
  Co  Co94  1  0.87507968  0.12231771  0.37446198  1
  Co  Co95  1  0.37592088  0.87521176  0.62300613  1
  Co  Co96  1  0.12654968  0.62609595  0.62428818  1
  Co  Co97  1  0.37446989  0.37214407  0.12272270  1
  Co  Co98  1  0.25237862  0.49621099  0.24970645  1
  Co  Co99  1  0.74763852  0.74647118  0.00230741  1
  Co  Co100  1  0.24952494  0.75013300  -0.00357837  1
  Co  Co101  1  0.87688933  0.62488933  0.37432902  1
  Co  Co102  1  0.62494852  0.12182290  0.87186888  1
  Co  Co103  1  0.87815007  0.62579434  0.12332778  1
  Co  Co104  1  0.62452012  0.37614914  0.12805200  1
  Co  Co105  1  0.74913677  0.25224757  0.75079150  1
  Co  Co106  1  0.13059874  0.62845271  0.12845984  1
  Co  Co107  1  0.12403741  0.12845283  0.12480018  1
  Co  Co108  1  0.00251968  0.75059256  0.49778684  1
  Co  Co109  1  0.12419665  0.37117653  0.12846003  1
  Co  Co110  1  0.00450510  0.49992962  0.00243983  1
  Co  Co111  1  0.50040297  0.00180282  0.00177110  1
  Co  Co112  1  0.25053721  0.75649213  0.25415266  1
  Co  Co113  1  0.62507490  0.37818096  0.87650654  1
  Co  Co114  1  0.87446405  0.87255551  0.62261987  1
  Co  Co115  1  0.37217164  0.87431671  0.12288849  1
  Co  Co116  1  0.37288504  0.62767155  0.37446509  1
  Co  Co117  1  0.61961817  0.62621159  0.12913451  1
  Co  Co118  1  0.62529721  0.12271251  0.12957754  1
  Co  Co119  1  0.75097735  0.50112544  0.49955764  1
  Co  Co120  1  0.24922674  0.00196704  0.50227647  1
  Co  Co121  1  0.50360064  0.00019818  0.49977883  1
  Co  Co122  1  0.12614023  0.37344011  0.62181066  1
  Co  Co123  1  0.75147300  0.00299481  0.00111673  1
  Co  Co124  1  0.12574653  0.12297606  0.37412705  1
  Co  Co125  1  0.24821767  0.00092931  0.24554483  1
  Co  Co126  1  0.37603868  0.12046935  0.37364091  1
  Co  Co127  1  0.37462671  0.37172101  0.37666915  1
