# generated using pymatgen
data_Fe45Co19
_symmetry_space_group_name_H-M   'P 1'
_cell_length_a   11.41474408
_cell_length_b   11.41503917
_cell_length_c   11.41461144
_cell_angle_alpha   89.99527690
_cell_angle_beta   89.98549646
_cell_angle_gamma   89.99377431
_symmetry_Int_Tables_number   1
_chemical_formula_structural   Fe45Co19
_chemical_formula_sum   'Fe90 Co38'
_cell_volume   1487.32096586
_cell_formula_units_Z   2
loop_
 _symmetry_equiv_pos_site_id
 _symmetry_equiv_pos_as_xyz
  1  'x, y, z'
loop_
 _atom_site_type_symbol
 _atom_site_label
 _atom_site_symmetry_multiplicity
 _atom_site_fract_x
 _atom_site_fract_y
 _atom_site_fract_z
 _atom_site_occupancy
  Fe  Fe0  1  0.50131909  0.75122836  -0.00158159  1
  Fe  Fe1  1  0.49567470  0.49441129  0.24717522  1
  Fe  Fe2  1  0.62168598  0.62427467  0.12405244  1
  Fe  Fe3  1  0.37376953  0.12910950  0.87617107  1
  Fe  Fe4  1  0.75301903  0.00205232  0.49659689  1
  Fe  Fe5  1  0.13057237  0.38191142  0.87840610  1
  Fe  Fe6  1  0.37502771  0.62634586  0.37257195  1
  Fe  Fe7  1  0.49953365  0.00120969  -0.00015290  1
  Fe  Fe8  1  0.87535074  0.37383172  0.87508658  1
  Fe  Fe9  1  0.00491309  0.74997156  0.00116640  1
  Fe  Fe10  1  -0.00079231  0.49811189  0.24980057  1
  Fe  Fe11  1  0.49946791  0.25215807  0.75117531  1
  Fe  Fe12  1  0.25146862  -0.00203720  0.50086389  1
  Fe  Fe13  1  0.00175508  0.50035594  0.75117472  1
  Fe  Fe14  1  0.49944237  0.75041052  0.49813261  1
  Fe  Fe15  1  0.62259130  0.12626455  0.37590675  1
  Fe  Fe16  1  0.74829969  0.25107641  0.74835121  1
  Fe  Fe17  1  0.12665389  0.62516533  0.37118282  1
  Fe  Fe18  1  0.00107534  0.50103194  0.49927699  1
  Fe  Fe19  1  0.12443491  0.12579751  0.37562876  1
  Fe  Fe20  1  0.12468837  0.62474076  0.62644260  1
  Fe  Fe21  1  0.62190057  0.62357489  0.37221834  1
  Fe  Fe22  1  0.87331437  0.87217818  0.12877598  1
  Fe  Fe23  1  0.12729583  0.87603758  0.62671231  1
  Fe  Fe24  1  0.37633499  0.37788731  0.62361091  1
  Fe  Fe25  1  0.24838800  0.75012954  0.75128177  1
  Fe  Fe26  1  0.37643586  0.62701143  0.62559865  1
  Fe  Fe27  1  0.62555054  0.87361031  0.12610914  1
  Fe  Fe28  1  -0.00001470  -0.00115045  0.00031521  1
  Fe  Fe29  1  0.74791283  0.24970161  -0.00037446  1
  Fe  Fe30  1  0.24717541  0.25201376  0.74775762  1
  Fe  Fe31  1  0.62430862  0.87584377  0.62597563  1
  Fe  Fe32  1  0.62026753  0.37397257  0.37755682  1
  Fe  Fe33  1  0.25115469  0.50359233  0.50045125  1
  Fe  Fe34  1  0.75007091  0.49997334  0.25076873  1
  Fe  Fe35  1  0.62289617  0.12734017  0.12611716  1
  Fe  Fe36  1  0.87391423  0.87195077  0.62444278  1
  Fe  Fe37  1  0.49454614  0.49382936  0.00067566  1
  Fe  Fe38  1  0.74814935  0.24997170  0.25164981  1
  Fe  Fe39  1  0.87646081  0.62734646  0.37438189  1
  Fe  Fe40  1  0.00480019  0.25205182  0.74797215  1
  Fe  Fe41  1  0.24723032  0.74735869  0.00362586  1
  Fe  Fe42  1  -0.00001797  -0.00183764  0.74953971  1
  Fe  Fe43  1  0.50189111  0.75005999  0.75306847  1
  Fe  Fe44  1  0.87643114  0.37495499  0.62359503  1
  Fe  Fe45  1  -0.00158036  -0.00015448  0.49759030  1
  Fe  Fe46  1  0.12624877  0.37556396  0.37620093  1
  Fe  Fe47  1  -0.00315613  -0.00092150  0.25245450  1
  Fe  Fe48  1  0.75180772  0.50121348  0.00089692  1
  Fe  Fe49  1  0.87567354  0.12758364  0.12688587  1
  Fe  Fe50  1  0.75172936  -0.00066680  0.75028622  1
  Fe  Fe51  1  0.25505339  0.49940043  0.24505691  1
  Fe  Fe52  1  0.87715130  0.62650671  0.12580271  1
  Fe  Fe53  1  0.49684913  -0.00119192  0.50012882  1
  Fe  Fe54  1  0.87733383  0.62720406  0.87533660  1
  Fe  Fe55  1  0.87749482  0.37036074  0.37662438  1
  Fe  Fe56  1  0.74909792  0.50146156  0.75079991  1
  Fe  Fe57  1  0.37670393  0.13019185  0.12350693  1
  Fe  Fe58  1  0.37347087  0.87341985  0.37388885  1
  Fe  Fe59  1  0.25010600  0.24999080  0.50058062  1
  Fe  Fe60  1  0.00222484  0.75103012  0.49903256  1
  Fe  Fe61  1  0.12339252  0.12336039  0.12695383  1
  Fe  Fe62  1  0.12686992  0.87346526  0.37240161  1
  Fe  Fe63  1  0.25008217  0.74970040  0.24447801  1
  Fe  Fe64  1  0.62354667  0.62324253  0.62560101  1
  Fe  Fe65  1  0.25121168  0.25020132  0.25121936  1
  Fe  Fe66  1  0.62161901  0.37617610  0.62177642  1
  Fe  Fe67  1  0.74612838  0.74874482  0.75437295  1
  Fe  Fe68  1  0.12513106  0.12199663  0.87198051  1
  Fe  Fe69  1  0.00370385  0.25108155  0.00033668  1
  Fe  Fe70  1  0.49694258  -0.00155860  0.75107852  1
  Fe  Fe71  1  0.49773979  -0.00027653  0.24943545  1
  Fe  Fe72  1  0.87583534  0.12683325  0.87461379  1
  Fe  Fe73  1  0.87630448  0.12783263  0.62377029  1
  Fe  Fe74  1  0.37271451  0.87522592  0.87705557  1
  Fe  Fe75  1  0.25289595  0.00000698  0.24720883  1
  Fe  Fe76  1  0.74968208  0.49945164  0.49849687  1
  Fe  Fe77  1  0.87439862  0.37329927  0.12453967  1
  Fe  Fe78  1  0.74814085  0.74855682  0.49821901  1
  Fe  Fe79  1  0.62431019  0.12487627  0.62366904  1
  Fe  Fe80  1  0.62609645  0.12301115  0.87393383  1
  Fe  Fe81  1  0.37265863  0.12341923  0.62553330  1
  Fe  Fe82  1  0.37397543  0.62211284  0.87482581  1
  Fe  Fe83  1  0.12757412  0.37864582  0.12263610  1
  Fe  Fe84  1  0.75103310  -0.00082075  0.00152764  1
  Fe  Fe85  1  0.62547037  0.37796711  0.87537907  1
  Fe  Fe86  1  0.24937316  0.00114475  0.00064963  1
  Fe  Fe87  1  0.87499345  0.62585640  0.62588705  1
  Fe  Fe88  1  0.62764527  0.87559641  0.37252759  1
  Fe  Fe89  1  0.87525743  0.87241815  0.87523746  1
  Co  Co90  1  0.24939438  0.74909366  0.50034172  1
  Co  Co91  1  0.12678523  0.87618330  0.87587836  1
  Co  Co92  1  -0.00219647  0.49946208  -0.00062969  1
  Co  Co93  1  0.49842682  0.49898706  0.75178104  1
  Co  Co94  1  0.74919852  0.25057950  0.49978018  1
  Co  Co95  1  0.37340403  0.12296443  0.37472414  1
  Co  Co96  1  0.38146156  0.62866426  0.12618270  1
  Co  Co97  1  0.75100878  0.00287726  0.25053539  1
  Co  Co98  1  0.74810911  0.74564209  0.24945980  1
  Co  Co99  1  0.25294336  -0.00164813  0.75173329  1
  Co  Co100  1  0.37214408  0.36577051  0.12083451  1
  Co  Co101  1  0.87251997  0.87115428  0.37331450  1
  Co  Co102  1  0.12679178  0.62122544  0.87622765  1
  Co  Co103  1  0.36908860  0.37347513  0.87696230  1
  Co  Co104  1  0.62602083  0.37518027  0.12568912  1
  Co  Co105  1  0.74844614  0.74951457  -0.00020244  1
  Co  Co106  1  0.87772296  0.13076853  0.37415578  1
  Co  Co107  1  0.62538376  0.87873302  0.87557520  1
  Co  Co108  1  0.62255790  0.62008869  0.87971695  1
  Co  Co109  1  0.49672732  0.25155971  0.25264355  1
  Co  Co110  1  0.12201520  0.62072264  0.12611164  1
  Co  Co111  1  0.00255721  0.75065075  0.24999784  1
  Co  Co112  1  0.49792474  0.50420974  0.49929536  1
  Co  Co113  1  0.37446579  0.37680787  0.37804193  1
  Co  Co114  1  0.24368652  0.24610896  -0.00051069  1
  Co  Co115  1  0.00424962  0.24872413  0.50280126  1
  Co  Co116  1  0.12541163  0.37937190  0.62205117  1
  Co  Co117  1  0.49977975  0.75323511  0.25185833  1
  Co  Co118  1  0.25601152  0.50543213  0.00573033  1
  Co  Co119  1  0.37578861  0.87475483  0.12257502  1
  Co  Co120  1  0.50429817  0.25233628  -0.00361088  1
  Co  Co121  1  0.49494157  0.24702841  0.50035126  1
  Co  Co122  1  0.12700579  0.12004268  0.62503140  1
  Co  Co123  1  0.25113794  0.50051146  0.74731584  1
  Co  Co124  1  0.00332531  0.75038671  0.74978853  1
  Co  Co125  1  0.37516221  0.87204700  0.62551755  1
  Co  Co126  1  0.12526316  0.87741648  0.12633679  1
  Co  Co127  1  0.00375264  0.25255245  0.24694058  1
