# generated using pymatgen
data_Fe45Co19
_symmetry_space_group_name_H-M   'P 1'
_cell_length_a   11.41503802
_cell_length_b   11.41445299
_cell_length_c   11.41572192
_cell_angle_alpha   89.99312009
_cell_angle_beta   89.99711756
_cell_angle_gamma   90.00066841
_symmetry_Int_Tables_number   1
_chemical_formula_structural   Fe45Co19
_chemical_formula_sum   'Fe90 Co38'
_cell_volume   1487.42762539
_cell_formula_units_Z   2
loop_
 _symmetry_equiv_pos_site_id
 _symmetry_equiv_pos_as_xyz
  1  'x, y, z'
loop_
 _atom_site_type_symbol
 _atom_site_label
 _atom_site_symmetry_multiplicity
 _atom_site_fract_x
 _atom_site_fract_y
 _atom_site_fract_z
 _atom_site_occupancy
  Fe  Fe0  1  0.87487354  0.87714624  0.62410238  1
  Fe  Fe1  1  0.62609491  0.12391608  0.87667858  1
  Fe  Fe2  1  -0.00189188  0.50051729  -0.00048791  1
  Fe  Fe3  1  0.12418147  0.62518587  0.37362016  1
  Fe  Fe4  1  0.62364516  0.37850741  0.12360160  1
  Fe  Fe5  1  0.24922518  0.74622591  0.75059183  1
  Fe  Fe6  1  0.62916558  0.87572874  0.37112357  1
  Fe  Fe7  1  0.74811078  -0.00125839  0.75173632  1
  Fe  Fe8  1  0.87284695  0.11847350  0.37648080  1
  Fe  Fe9  1  0.62489851  0.12162698  0.12413326  1
  Fe  Fe10  1  0.12470863  0.12306895  0.37449318  1
  Fe  Fe11  1  0.87429995  0.62699952  0.62584734  1
  Fe  Fe12  1  0.75137987  0.74908494  0.00098289  1
  Fe  Fe13  1  0.50139414  0.24983012  0.75245388  1
  Fe  Fe14  1  0.12496437  0.87268694  0.87740135  1
  Fe  Fe15  1  0.87441041  0.12182930  0.62507222  1
  Fe  Fe16  1  0.37809313  0.37773145  0.12337560  1
  Fe  Fe17  1  0.87434039  0.87409466  0.87674039  1
  Fe  Fe18  1  0.50376851  0.00168965  0.49816739  1
  Fe  Fe19  1  0.87185682  0.12476310  0.87922291  1
  Fe  Fe20  1  0.12138892  0.12509144  0.12401744  1
  Fe  Fe21  1  0.62773077  0.37252002  0.37437583  1
  Fe  Fe22  1  0.37307335  0.37988827  0.87603556  1
  Fe  Fe23  1  0.74906855  0.24633115  0.50096916  1
  Fe  Fe24  1  -0.00226810  0.24935414  0.49845703  1
  Fe  Fe25  1  0.63224197  0.62375425  0.87540204  1
  Fe  Fe26  1  0.24733399  0.49947509  0.50363457  1
  Fe  Fe27  1  0.37465162  0.62304574  0.37370007  1
  Fe  Fe28  1  0.25069917  -0.00059163  0.75039769  1
  Fe  Fe29  1  0.87429851  0.37266659  0.62465535  1
  Fe  Fe30  1  0.37506621  0.12431320  0.87633116  1
  Fe  Fe31  1  0.24806952  0.49924200  0.24608173  1
  Fe  Fe32  1  0.87539688  0.87860624  0.12345518  1
  Fe  Fe33  1  -0.00224305  0.25039956  0.75250386  1
  Fe  Fe34  1  0.12438558  0.87338807  0.62625896  1
  Fe  Fe35  1  0.37304810  0.87640942  0.37213677  1
  Fe  Fe36  1  -0.00088233  0.25133306  -0.00199531  1
  Fe  Fe37  1  0.12606793  0.87592306  0.37143694  1
  Fe  Fe38  1  0.12159472  0.62531868  0.12410979  1
  Fe  Fe39  1  -0.00096311  0.75238013  0.49819927  1
  Fe  Fe40  1  0.37556250  0.37548814  0.37470131  1
  Fe  Fe41  1  0.62405404  0.87509033  0.62680303  1
  Fe  Fe42  1  0.37527071  0.87580360  0.12574336  1
  Fe  Fe43  1  -0.00296394  0.75233380  0.25013859  1
  Fe  Fe44  1  0.37767506  0.87483294  0.62599554  1
  Fe  Fe45  1  0.86822345  0.37706685  0.87553445  1
  Fe  Fe46  1  0.24893962  0.00009782  0.50059120  1
  Fe  Fe47  1  -0.00303168  0.24812829  0.25176212  1
  Fe  Fe48  1  0.87316322  0.62581324  0.37407780  1
  Fe  Fe49  1  0.75074906  0.75223903  0.50032628  1
  Fe  Fe50  1  0.50233009  0.25213612  -0.00196141  1
  Fe  Fe51  1  0.50042844  0.74993924  0.25062743  1
  Fe  Fe52  1  0.50030750  0.75030719  0.49722662  1
  Fe  Fe53  1  0.87650065  0.37385107  0.12646004  1
  Fe  Fe54  1  0.25015734  0.25145104  0.50067488  1
  Fe  Fe55  1  0.62735344  0.62654593  0.37278677  1
  Fe  Fe56  1  -0.00017232  0.50095924  0.74962954  1
  Fe  Fe57  1  0.25042892  0.25231339  0.74889399  1
  Fe  Fe58  1  0.37628030  0.62524573  0.62548295  1
  Fe  Fe59  1  0.50090060  0.25109503  0.24972806  1
  Fe  Fe60  1  0.12374306  0.12719216  0.62641685  1
  Fe  Fe61  1  0.25028618  0.74940714  0.49961097  1
  Fe  Fe62  1  -0.00115986  0.74759663  0.75297006  1
  Fe  Fe63  1  0.50253939  0.49891175  0.49839477  1
  Fe  Fe64  1  0.75207457  0.24702209  0.24676811  1
  Fe  Fe65  1  0.50219060  0.74890035  0.75331050  1
  Fe  Fe66  1  0.37668280  0.87458181  0.87545665  1
  Fe  Fe67  1  0.12239241  0.37576257  0.37334074  1
  Fe  Fe68  1  0.37660882  0.37619675  0.62590786  1
  Fe  Fe69  1  0.37719151  0.12410840  0.12490877  1
  Fe  Fe70  1  0.37810661  0.12444486  0.62485430  1
  Fe  Fe71  1  0.00057661  0.00034144  0.75263474  1
  Fe  Fe72  1  0.12757546  0.37860691  0.87565354  1
  Fe  Fe73  1  0.62512151  0.87562104  0.12372584  1
  Fe  Fe74  1  0.25093915  0.74600597  0.00081868  1
  Fe  Fe75  1  -0.00135677  0.49911395  0.49964122  1
  Fe  Fe76  1  0.75009500  0.50074645  0.24850936  1
  Fe  Fe77  1  0.62628053  0.62697565  0.62472142  1
  Fe  Fe78  1  0.87442569  0.62489324  0.12513291  1
  Fe  Fe79  1  0.12633882  0.12571579  0.87565904  1
  Fe  Fe80  1  0.62622389  0.37166466  0.62682502  1
  Fe  Fe81  1  0.37770539  0.12569421  0.37376794  1
  Fe  Fe82  1  0.75017753  0.49954755  0.50115378  1
  Fe  Fe83  1  0.50321781  0.50079947  0.75266385  1
  Fe  Fe84  1  0.50098273  0.74705994  -0.00193790  1
  Fe  Fe85  1  0.25011339  0.00068462  0.00071793  1
  Fe  Fe86  1  0.24923886  0.25231806  0.00240150  1
  Fe  Fe87  1  0.12506853  0.87546381  0.12514524  1
  Fe  Fe88  1  0.38002506  0.62230607  0.12565652  1
  Fe  Fe89  1  0.24924695  0.25073292  0.24790747  1
  Co  Co90  1  -0.00275915  0.74965264  0.00043173  1
  Co  Co91  1  0.50336627  0.50150358  -0.00486294  1
  Co  Co92  1  0.62379167  0.62547173  0.12610980  1
  Co  Co93  1  0.37243411  0.62216586  0.87390483  1
  Co  Co94  1  0.75108794  0.50014570  0.74583020  1
  Co  Co95  1  0.12417723  0.62358199  0.87767062  1
  Co  Co96  1  0.49883649  -0.00033110  -0.00040357  1
  Co  Co97  1  0.00353344  -0.00155472  0.50085472  1
  Co  Co98  1  0.63012281  0.37597158  0.87428155  1
  Co  Co99  1  0.25067285  0.74733082  0.24827804  1
  Co  Co100  1  -0.00185656  -0.00070966  0.24902381  1
  Co  Co101  1  0.74827062  0.25138502  0.00291108  1
  Co  Co102  1  0.12006088  0.37368556  0.12575288  1
  Co  Co103  1  0.62407048  0.12540556  0.62799348  1
  Co  Co104  1  0.50064264  -0.00123023  0.24988069  1
  Co  Co105  1  0.12111894  0.37184945  0.62498233  1
  Co  Co106  1  0.75053940  0.75259092  0.75001704  1
  Co  Co107  1  0.24622857  0.50152464  0.74598632  1
  Co  Co108  1  0.12213365  0.62743260  0.62419567  1
  Co  Co109  1  0.87179525  0.62417388  0.87473599  1
  Co  Co110  1  0.25014529  0.00299944  0.24810313  1
  Co  Co111  1  0.74486399  0.00003071  0.50098479  1
  Co  Co112  1  0.75288396  0.75138648  0.24755990  1
  Co  Co113  1  0.50220238  0.49926388  0.25328636  1
  Co  Co114  1  0.00160708  -0.00057333  -0.00225581  1
  Co  Co115  1  0.75071912  0.50028975  0.00452508  1
  Co  Co116  1  0.87203936  0.37523142  0.37413594  1
  Co  Co117  1  0.24973228  0.50147713  0.00503524  1
  Co  Co118  1  0.50133197  0.25040111  0.49972543  1
  Co  Co119  1  0.75088330  0.24767433  0.75084637  1
  Co  Co120  1  0.87325301  0.87824824  0.37702517  1
  Co  Co121  1  -0.00198149  0.50130724  0.25052601  1
  Co  Co122  1  0.62505407  0.87459722  0.87790535  1
  Co  Co123  1  0.50089043  -0.00012426  0.75269211  1
  Co  Co124  1  0.75001573  -0.00105335  -0.00017719  1
  Co  Co125  1  0.62538355  0.12676505  0.37138230  1
  Co  Co126  1  0.75224364  0.00150013  0.24746581  1
  Co  Co127  1  0.87752991  0.12468195  0.12019865  1
