# generated using pymatgen
data_Fe45Co19
_symmetry_space_group_name_H-M   'P 1'
_cell_length_a   11.41547569
_cell_length_b   11.41530619
_cell_length_c   11.41593734
_cell_angle_alpha   89.99743965
_cell_angle_beta   89.99431913
_cell_angle_gamma   89.99979473
_symmetry_Int_Tables_number   1
_chemical_formula_structural   Fe45Co19
_chemical_formula_sum   'Fe90 Co38'
_cell_volume   1487.62391717
_cell_formula_units_Z   2
loop_
 _symmetry_equiv_pos_site_id
 _symmetry_equiv_pos_as_xyz
  1  'x, y, z'
loop_
 _atom_site_type_symbol
 _atom_site_label
 _atom_site_symmetry_multiplicity
 _atom_site_fract_x
 _atom_site_fract_y
 _atom_site_fract_z
 _atom_site_occupancy
  Fe  Fe0  1  0.25434956  0.25191206  0.24593138  1
  Fe  Fe1  1  0.12768642  0.37220017  0.37666704  1
  Fe  Fe2  1  0.74991979  -0.00212015  0.74866024  1
  Fe  Fe3  1  0.12607686  0.62573637  0.12408053  1
  Fe  Fe4  1  0.74874034  0.75322389  0.25025947  1
  Fe  Fe5  1  0.37398886  0.87372407  0.37458880  1
  Fe  Fe6  1  0.62782347  0.62421714  0.37445638  1
  Fe  Fe7  1  0.62374070  0.37423322  0.62350995  1
  Fe  Fe8  1  0.62478508  0.62620262  0.62721443  1
  Fe  Fe9  1  0.50031655  0.00034162  0.75029860  1
  Fe  Fe10  1  0.12457314  0.12643377  0.12630944  1
  Fe  Fe11  1  0.75121631  -0.00336613  0.50144070  1
  Fe  Fe12  1  0.49877034  -0.00000802  -0.00115579  1
  Fe  Fe13  1  0.87489523  0.62298813  0.12668333  1
  Fe  Fe14  1  0.75122142  0.49994536  0.50114577  1
  Fe  Fe15  1  0.12136964  0.87362813  0.62482949  1
  Fe  Fe16  1  0.49807641  0.24967255  0.49905528  1
  Fe  Fe17  1  0.62314634  0.12509181  0.12653246  1
  Fe  Fe18  1  0.87801956  0.37396767  0.62688026  1
  Fe  Fe19  1  0.74936915  0.00124606  0.00138492  1
  Fe  Fe20  1  0.87645803  0.37674967  0.87480660  1
  Fe  Fe21  1  0.00244692  0.75175188  0.24954084  1
  Fe  Fe22  1  0.87436473  0.12446912  0.87431005  1
  Fe  Fe23  1  0.49850400  0.74762609  0.75333498  1
  Fe  Fe24  1  0.37732390  0.87402798  0.12663733  1
  Fe  Fe25  1  0.87518714  0.37606823  0.12610318  1
  Fe  Fe26  1  0.62202478  0.12771045  0.87391082  1
  Fe  Fe27  1  0.24812054  0.74656852  0.74627060  1
  Fe  Fe28  1  0.25146451  0.00168026  0.00081018  1
  Fe  Fe29  1  -0.00039492  0.00244610  0.00186900  1
  Fe  Fe30  1  -0.00064824  0.00461009  0.50107726  1
  Fe  Fe31  1  0.25015136  0.24846927  0.75056580  1
  Fe  Fe32  1  0.50288138  -0.00347793  0.24989714  1
  Fe  Fe33  1  -0.00046065  0.24994517  -0.00083539  1
  Fe  Fe34  1  0.12950129  0.62515773  0.37736142  1
  Fe  Fe35  1  0.62141331  0.37464282  0.12429272  1
  Fe  Fe36  1  0.62378168  0.62844743  0.12440637  1
  Fe  Fe37  1  0.74751141  0.49985048  -0.00104755  1
  Fe  Fe38  1  0.37305795  0.87467584  0.87417542  1
  Fe  Fe39  1  0.50135582  0.50042850  0.25167664  1
  Fe  Fe40  1  0.50126128  0.50353824  -0.00421585  1
  Fe  Fe41  1  0.62473191  0.87344530  0.87635140  1
  Fe  Fe42  1  0.74978431  0.25158735  0.75148745  1
  Fe  Fe43  1  0.75504330  0.75294416  0.75172975  1
  Fe  Fe44  1  0.24750064  0.50302775  0.74680259  1
  Fe  Fe45  1  0.37475324  0.37580291  0.62537573  1
  Fe  Fe46  1  0.00052347  0.49820534  0.49817957  1
  Fe  Fe47  1  0.37372747  0.37641657  0.37417659  1
  Fe  Fe48  1  0.87381097  0.62404867  0.37230413  1
  Fe  Fe49  1  0.87385157  0.37659579  0.37191283  1
  Fe  Fe50  1  0.37429250  0.12505133  0.62590613  1
  Fe  Fe51  1  -0.00028460  0.00284363  0.74800811  1
  Fe  Fe52  1  0.37518427  0.62511321  0.12691139  1
  Fe  Fe53  1  0.12359099  0.36979334  0.62313250  1
  Fe  Fe54  1  0.74804197  0.25190766  0.24937852  1
  Fe  Fe55  1  0.37352300  0.37387546  0.87579055  1
  Fe  Fe56  1  0.75279669  0.75094631  -0.00158672  1
  Fe  Fe57  1  0.75049960  0.75228862  0.50068757  1
  Fe  Fe58  1  0.50060781  0.74974108  0.49834888  1
  Fe  Fe59  1  0.12441472  0.87430640  0.37689960  1
  Fe  Fe60  1  0.87701574  0.87744721  0.12565068  1
  Fe  Fe61  1  0.75212080  0.25132651  0.49894708  1
  Fe  Fe62  1  0.12413763  0.87351433  0.87572093  1
  Fe  Fe63  1  0.74660722  0.49799925  0.75240003  1
  Fe  Fe64  1  0.25215209  0.75051896  0.00155772  1
  Fe  Fe65  1  0.49416374  0.24708355  0.00243096  1
  Fe  Fe66  1  0.37469640  0.12343236  0.37172747  1
  Fe  Fe67  1  0.00145470  0.50031137  -0.00162126  1
  Fe  Fe68  1  0.24963906  0.49951296  -0.00004492  1
  Fe  Fe69  1  0.24595875  -0.00433034  0.24789909  1
  Fe  Fe70  1  0.75095506  0.24941652  0.00044233  1
  Fe  Fe71  1  0.24948960  0.00030046  0.50163617  1
  Fe  Fe72  1  0.62588452  0.12612612  0.62472757  1
  Fe  Fe73  1  -0.00300360  0.74846563  -0.00344898  1
  Fe  Fe74  1  0.12572470  0.12814632  0.37382201  1
  Fe  Fe75  1  0.00471679  0.50210726  0.75261314  1
  Fe  Fe76  1  0.50117657  0.50078717  0.75344247  1
  Fe  Fe77  1  0.24878454  0.00057974  0.74886774  1
  Fe  Fe78  1  -0.00172283  0.74926423  0.49942000  1
  Fe  Fe79  1  0.37647072  0.87329265  0.62506817  1
  Fe  Fe80  1  0.12674485  0.12683715  0.87573631  1
  Fe  Fe81  1  0.74963017  -0.00235087  0.24915776  1
  Fe  Fe82  1  0.36966722  0.62581466  0.37576084  1
  Fe  Fe83  1  0.87742741  0.62497726  0.62725278  1
  Fe  Fe84  1  0.62387569  0.12516963  0.37507464  1
  Fe  Fe85  1  0.00336865  0.49926460  0.25037246  1
  Fe  Fe86  1  0.12678951  0.37408297  0.12314769  1
  Fe  Fe87  1  0.50025019  -0.00097887  0.50168666  1
  Fe  Fe88  1  0.49998361  0.50065277  0.49901416  1
  Fe  Fe89  1  0.87687417  0.12462509  0.37090938  1
  Co  Co90  1  0.62336663  0.87275284  0.62610548  1
  Co  Co91  1  0.62367730  0.87328899  0.12253737  1
  Co  Co92  1  0.00034234  0.25307792  0.24914553  1
  Co  Co93  1  0.37767101  0.62461314  0.62339253  1
  Co  Co94  1  -0.00102756  0.74802353  0.75435152  1
  Co  Co95  1  0.24821818  0.75189315  0.24832250  1
  Co  Co96  1  0.62487567  0.87595904  0.37659363  1
  Co  Co97  1  0.37054077  0.62376119  0.87452271  1
  Co  Co98  1  0.12619747  0.12850431  0.62359776  1
  Co  Co99  1  0.12775020  0.62692865  0.87791271  1
  Co  Co100  1  0.37537108  0.11974074  0.12929540  1
  Co  Co101  1  0.87694895  0.87587994  0.37452356  1
  Co  Co102  1  0.62845786  0.62864131  0.87426924  1
  Co  Co103  1  0.12279824  0.87390697  0.11993505  1
  Co  Co104  1  0.87225735  0.12600539  0.62607154  1
  Co  Co105  1  0.62192744  0.37037925  0.87761940  1
  Co  Co106  1  0.49876979  0.25196749  0.25045196  1
  Co  Co107  1  0.25414672  0.24874783  0.49995342  1
  Co  Co108  1  -0.00342264  0.24856187  0.49879301  1
  Co  Co109  1  0.24833689  0.49936488  0.24922289  1
  Co  Co110  1  -0.00048762  0.24765753  0.75187033  1
  Co  Co111  1  0.87596089  0.12539157  0.12789371  1
  Co  Co112  1  0.37750558  0.38002775  0.12324082  1
  Co  Co113  1  0.62548455  0.37551246  0.37634271  1
  Co  Co114  1  0.74717567  0.49905813  0.24743978  1
  Co  Co115  1  0.87717180  0.87993089  0.87637709  1
  Co  Co116  1  0.00293281  -0.00172405  0.24919753  1
  Co  Co117  1  0.49876596  0.25054021  0.74757893  1
  Co  Co118  1  0.49721443  0.74905703  -0.00262098  1
  Co  Co119  1  0.25330592  0.24734077  0.00293615  1
  Co  Co120  1  0.24884468  0.49917630  0.50377812  1
  Co  Co121  1  0.12144743  0.62623482  0.62127343  1
  Co  Co122  1  0.25056139  0.75148897  0.50376252  1
  Co  Co123  1  0.87888302  0.87458493  0.62409823  1
  Co  Co124  1  0.37494093  0.12553369  0.87279023  1
  Co  Co125  1  0.50022546  0.74913164  0.25289323  1
  Co  Co126  1  0.12826289  0.37328665  0.87540365  1
  Co  Co127  1  0.87378163  0.61977846  0.87423937  1
