# generated using pymatgen
data_Fe45Co19
_symmetry_space_group_name_H-M   'P 1'
_cell_length_a   11.41513124
_cell_length_b   11.41497604
_cell_length_c   11.41513007
_cell_angle_alpha   90.00751887
_cell_angle_beta   90.00468742
_cell_angle_gamma   89.99340900
_symmetry_Int_Tables_number   1
_chemical_formula_structural   Fe45Co19
_chemical_formula_sum   'Fe90 Co38'
_cell_volume   1487.43079852
_cell_formula_units_Z   2
loop_
 _symmetry_equiv_pos_site_id
 _symmetry_equiv_pos_as_xyz
  1  'x, y, z'
loop_
 _atom_site_type_symbol
 _atom_site_label
 _atom_site_symmetry_multiplicity
 _atom_site_fract_x
 _atom_site_fract_y
 _atom_site_fract_z
 _atom_site_occupancy
  Fe  Fe0  1  0.37477425  0.87355174  0.87491835  1
  Fe  Fe1  1  0.87822977  0.62171921  0.36508396  1
  Fe  Fe2  1  0.12266973  0.37690455  0.37964717  1
  Fe  Fe3  1  0.24952148  -0.00024611  0.25350433  1
  Fe  Fe4  1  0.75094458  0.00240709  0.50080070  1
  Fe  Fe5  1  0.24848773  0.49874702  0.25236740  1
  Fe  Fe6  1  0.37635486  0.12493836  0.12664394  1
  Fe  Fe7  1  0.62493622  0.12648812  0.37590873  1
  Fe  Fe8  1  0.38018139  0.12560427  0.87384249  1
  Fe  Fe9  1  0.12605405  0.12634383  0.62199507  1
  Fe  Fe10  1  0.37506339  0.62453013  0.12665037  1
  Fe  Fe11  1  0.12280293  0.12599500  0.87520651  1
  Fe  Fe12  1  0.49814899  0.50157694  0.50145778  1
  Fe  Fe13  1  0.75026825  0.75118253  0.74999902  1
  Fe  Fe14  1  0.50159617  -0.00178201  0.74814055  1
  Fe  Fe15  1  0.12192900  0.62519464  0.87206562  1
  Fe  Fe16  1  0.87586307  0.87408707  0.62309804  1
  Fe  Fe17  1  0.37399111  0.87430960  0.12569725  1
  Fe  Fe18  1  0.87234949  0.12926796  0.62761541  1
  Fe  Fe19  1  0.37606850  0.37418928  0.37702688  1
  Fe  Fe20  1  0.50020593  0.74885494  0.50112258  1
  Fe  Fe21  1  0.87690118  0.12728217  0.87235597  1
  Fe  Fe22  1  0.37256083  0.37438394  0.62374653  1
  Fe  Fe23  1  0.62551047  0.87400270  0.87554535  1
  Fe  Fe24  1  0.74792566  -0.00153953  0.24980869  1
  Fe  Fe25  1  0.87672416  0.87357388  0.87473322  1
  Fe  Fe26  1  0.24938595  0.50207143  -0.00133527  1
  Fe  Fe27  1  0.62618803  0.62347922  0.37472944  1
  Fe  Fe28  1  0.87169863  0.37693391  0.12496620  1
  Fe  Fe29  1  0.37192707  0.62533471  0.62541196  1
  Fe  Fe30  1  0.50054867  0.74683156  -0.00107329  1
  Fe  Fe31  1  -0.00460128  0.24721870  0.49826429  1
  Fe  Fe32  1  0.49879567  0.24843049  0.50319511  1
  Fe  Fe33  1  0.37747792  0.37578515  0.87459501  1
  Fe  Fe34  1  0.74827098  0.25547264  0.25524755  1
  Fe  Fe35  1  0.37305141  0.62559300  0.37536658  1
  Fe  Fe36  1  0.25269729  0.00320294  0.49664410  1
  Fe  Fe37  1  0.37427060  0.87541142  0.62232629  1
  Fe  Fe38  1  0.50244188  0.25325773  0.24784016  1
  Fe  Fe39  1  0.12254658  0.87373712  0.62052833  1
  Fe  Fe40  1  0.12321253  0.87502572  0.87682744  1
  Fe  Fe41  1  0.50320470  0.49830912  0.24990119  1
  Fe  Fe42  1  -0.00158123  0.00153679  0.00227650  1
  Fe  Fe43  1  0.75191339  0.74511050  0.00140198  1
  Fe  Fe44  1  0.12627165  0.12429608  0.12655087  1
  Fe  Fe45  1  0.62576667  0.87466670  0.37854505  1
  Fe  Fe46  1  0.87607920  0.87726924  0.37643300  1
  Fe  Fe47  1  0.62909843  0.37429793  0.62283181  1
  Fe  Fe48  1  0.50220257  0.50263272  0.00024511  1
  Fe  Fe49  1  0.50135902  0.74931676  0.74782109  1
  Fe  Fe50  1  0.50039983  0.50078214  0.74838919  1
  Fe  Fe51  1  0.12209282  0.87409658  0.37995133  1
  Fe  Fe52  1  0.24840230  0.00051687  0.74988775  1
  Fe  Fe53  1  -0.00177922  0.49616388  0.74921463  1
  Fe  Fe54  1  0.25189144  0.00140737  -0.00043037  1
  Fe  Fe55  1  0.75448063  0.49806897  0.49681809  1
  Fe  Fe56  1  0.12364127  0.37583004  0.62026220  1
  Fe  Fe57  1  -0.00171694  0.74813396  0.00298861  1
  Fe  Fe58  1  0.75280871  0.49500708  0.75330358  1
  Fe  Fe59  1  0.87433824  0.87370218  0.12636855  1
  Fe  Fe60  1  0.24731858  0.75191421  0.25207040  1
  Fe  Fe61  1  0.74931687  -0.00045673  0.75101106  1
  Fe  Fe62  1  0.62805636  0.12779396  0.62743469  1
  Fe  Fe63  1  -0.00074960  0.24898374  0.00244047  1
  Fe  Fe64  1  0.24771369  0.74976159  0.74843798  1
  Fe  Fe65  1  0.12753707  0.37373951  0.12293480  1
  Fe  Fe66  1  0.25268349  0.24844378  -0.00118503  1
  Fe  Fe67  1  0.87591420  0.62442822  0.62882191  1
  Fe  Fe68  1  0.00072674  -0.00065190  0.24943809  1
  Fe  Fe69  1  0.62578204  0.87212892  0.12351084  1
  Fe  Fe70  1  0.00030823  0.00013035  0.74767509  1
  Fe  Fe71  1  0.24906388  0.25011261  0.25358986  1
  Fe  Fe72  1  0.50178959  0.75047235  0.25191594  1
  Fe  Fe73  1  0.37411980  0.37620110  0.12424279  1
  Fe  Fe74  1  0.24925801  0.74781005  -0.00017598  1
  Fe  Fe75  1  -0.00018930  0.25166195  0.25001165  1
  Fe  Fe76  1  0.74707978  0.25012076  -0.00571978  1
  Fe  Fe77  1  0.62508717  0.12621770  0.12280603  1
  Fe  Fe78  1  0.24965552  0.24992177  0.74914458  1
  Fe  Fe79  1  0.49974207  0.00139841  0.50031316  1
  Fe  Fe80  1  0.12278516  0.37332106  0.87676376  1
  Fe  Fe81  1  0.62880417  0.62374713  0.62479148  1
  Fe  Fe82  1  0.74935685  0.00119155  -0.00147281  1
  Fe  Fe83  1  0.87196763  0.12690067  0.12813603  1
  Fe  Fe84  1  0.75010755  0.50381639  -0.00172719  1
  Fe  Fe85  1  0.24873763  0.49952946  0.74952064  1
  Fe  Fe86  1  0.12354342  0.62565478  0.12875350  1
  Fe  Fe87  1  0.75345958  0.74740391  0.49788112  1
  Fe  Fe88  1  -0.00135396  0.50220343  0.00265499  1
  Fe  Fe89  1  0.50103965  -0.00165664  0.25013393  1
  Co  Co90  1  0.50010923  0.25219927  0.00184693  1
  Co  Co91  1  0.87417947  0.62292216  0.13291722  1
  Co  Co92  1  -0.00342053  0.50516159  0.50149019  1
  Co  Co93  1  0.00455642  0.49461370  0.24653060  1
  Co  Co94  1  0.74467127  0.49484990  0.25248040  1
  Co  Co95  1  0.37814642  0.12708850  0.37311073  1
  Co  Co96  1  0.37559452  0.87378837  0.37652137  1
  Co  Co97  1  0.00197278  0.75446818  0.25063249  1
  Co  Co98  1  0.62703856  0.87347999  0.62231434  1
  Co  Co99  1  0.62640809  0.62541591  0.12871212  1
  Co  Co100  1  0.62108065  0.37704310  0.87425937  1
  Co  Co101  1  -0.00339759  0.00379717  0.50215237  1
  Co  Co102  1  0.12205421  0.12517048  0.37576245  1
  Co  Co103  1  0.87449175  0.37224628  0.62328347  1
  Co  Co104  1  0.12429174  0.62290036  0.62645729  1
  Co  Co105  1  0.25070884  0.50195106  0.49953529  1
  Co  Co106  1  0.87387674  0.12274666  0.37114419  1
  Co  Co107  1  0.62101114  0.12418146  0.87422088  1
  Co  Co108  1  0.00201058  0.25163687  0.74808610  1
  Co  Co109  1  0.87891456  0.37804216  0.37416892  1
  Co  Co110  1  0.12407074  0.62362036  0.37385525  1
  Co  Co111  1  0.00067024  0.75249113  0.74752208  1
  Co  Co112  1  0.87708462  0.62548722  0.87211912  1
  Co  Co113  1  0.24901309  0.74737490  0.50077562  1
  Co  Co114  1  0.25160145  0.24918355  0.49815270  1
  Co  Co115  1  0.74897952  0.25347106  0.75490267  1
  Co  Co116  1  0.50054364  0.25174251  0.74658626  1
  Co  Co117  1  0.87841520  0.37405993  0.87818122  1
  Co  Co118  1  0.62152511  0.37527458  0.38126729  1
  Co  Co119  1  0.75286731  0.25062709  0.49558917  1
  Co  Co120  1  0.37484205  0.62461871  0.87287302  1
  Co  Co121  1  0.62827006  0.37615240  0.12127112  1
  Co  Co122  1  0.50018326  -0.00226885  0.00148465  1
  Co  Co123  1  0.62618997  0.62488148  0.87083153  1
  Co  Co124  1  0.12626229  0.87698420  0.12240422  1
  Co  Co125  1  0.74951360  0.75275130  0.25217903  1
  Co  Co126  1  0.37324489  0.12364003  0.62573141  1
  Co  Co127  1  -0.00308638  0.74346315  0.49921690  1
