# generated using pymatgen
data_Fe45Co19
_symmetry_space_group_name_H-M   'P 1'
_cell_length_a   11.41579369
_cell_length_b   11.41534723
_cell_length_c   11.41512000
_cell_angle_alpha   90.00383864
_cell_angle_beta   90.00642806
_cell_angle_gamma   89.99315677
_symmetry_Int_Tables_number   1
_chemical_formula_structural   Fe45Co19
_chemical_formula_sum   'Fe90 Co38'
_cell_volume   1487.56417980
_cell_formula_units_Z   2
loop_
 _symmetry_equiv_pos_site_id
 _symmetry_equiv_pos_as_xyz
  1  'x, y, z'
loop_
 _atom_site_type_symbol
 _atom_site_label
 _atom_site_symmetry_multiplicity
 _atom_site_fract_x
 _atom_site_fract_y
 _atom_site_fract_z
 _atom_site_occupancy
  Fe  Fe0  1  0.24898819  0.74911184  0.50087907  1
  Fe  Fe1  1  0.62561675  0.37557804  0.12342768  1
  Fe  Fe2  1  0.87266314  0.62984399  0.12519320  1
  Fe  Fe3  1  -0.00086350  0.00435833  0.74806649  1
  Fe  Fe4  1  0.49854855  0.49915033  -0.00061011  1
  Fe  Fe5  1  0.74824873  0.50232766  0.24851238  1
  Fe  Fe6  1  0.12588692  0.87763648  0.87408396  1
  Fe  Fe7  1  0.37714744  0.62450482  0.37215772  1
  Fe  Fe8  1  0.74518356  0.24981544  0.75109453  1
  Fe  Fe9  1  0.49613838  -0.00136562  0.74887708  1
  Fe  Fe10  1  0.25225032  0.75002250  -0.00223146  1
  Fe  Fe11  1  0.62141697  0.37601528  0.62286043  1
  Fe  Fe12  1  0.00030886  0.24751401  0.50159698  1
  Fe  Fe13  1  0.12526376  0.37580558  0.87648235  1
  Fe  Fe14  1  0.12575593  0.87701726  0.62487773  1
  Fe  Fe15  1  0.12654504  0.87409322  0.12512357  1
  Fe  Fe16  1  0.75046736  0.49868870  0.74981370  1
  Fe  Fe17  1  0.87442441  0.37161853  0.12206897  1
  Fe  Fe18  1  0.00027888  0.49854487  0.50070275  1
  Fe  Fe19  1  0.25144086  0.49853024  0.24781766  1
  Fe  Fe20  1  0.12352597  0.62452919  0.37361550  1
  Fe  Fe21  1  -0.00063075  0.00178462  0.00119288  1
  Fe  Fe22  1  0.00046900  0.50124548  0.24595051  1
  Fe  Fe23  1  0.12391139  0.62409233  0.62572808  1
  Fe  Fe24  1  0.75000791  0.50207388  0.00027214  1
  Fe  Fe25  1  0.87441709  0.62659938  0.87397749  1
  Fe  Fe26  1  0.62241098  0.12320594  0.87601064  1
  Fe  Fe27  1  0.25162873  0.00070804  0.24916137  1
  Fe  Fe28  1  0.37510753  0.62901958  0.62959597  1
  Fe  Fe29  1  0.25429015  0.24636452  0.75208821  1
  Fe  Fe30  1  0.25370205  0.00052956  0.50223521  1
  Fe  Fe31  1  0.62216956  0.62298812  0.37397806  1
  Fe  Fe32  1  0.50002375  0.25288412  0.25103400  1
  Fe  Fe33  1  0.62028391  0.12431729  0.62227816  1
  Fe  Fe34  1  0.62526730  0.87547083  0.37514456  1
  Fe  Fe35  1  0.37600931  0.37740634  0.37486458  1
  Fe  Fe36  1  0.62424716  0.87563471  0.62432823  1
  Fe  Fe37  1  0.74968554  0.00243527  0.00359257  1
  Fe  Fe38  1  0.87681141  0.87443398  0.37634226  1
  Fe  Fe39  1  0.87341408  0.87506191  0.87628652  1
  Fe  Fe40  1  0.49990887  0.75130545  -0.00192477  1
  Fe  Fe41  1  0.25281868  0.50047425  0.50197655  1
  Fe  Fe42  1  0.12575126  0.37550088  0.37474502  1
  Fe  Fe43  1  0.12313342  0.87483958  0.37660711  1
  Fe  Fe44  1  0.75140133  0.00040780  0.24721203  1
  Fe  Fe45  1  0.87359188  0.12710795  0.87694503  1
  Fe  Fe46  1  0.49900093  0.75029281  0.50065043  1
  Fe  Fe47  1  0.62673385  0.87491214  0.87350002  1
  Fe  Fe48  1  0.62458963  0.37930154  0.37723156  1
  Fe  Fe49  1  0.12616707  0.12476721  0.37586310  1
  Fe  Fe50  1  0.62761680  0.87139141  0.12666947  1
  Fe  Fe51  1  0.87361518  0.37593113  0.37505051  1
  Fe  Fe52  1  0.74787153  0.24816273  0.24787692  1
  Fe  Fe53  1  0.12748451  0.37351687  0.62607569  1
  Fe  Fe54  1  0.37455091  0.87344621  0.37445773  1
  Fe  Fe55  1  0.75018899  0.00099814  0.74875738  1
  Fe  Fe56  1  0.87540336  0.87711067  0.62247389  1
  Fe  Fe57  1  0.62314757  0.12189073  0.37522681  1
  Fe  Fe58  1  0.24954120  0.75000771  0.24934682  1
  Fe  Fe59  1  0.37809373  0.62632890  0.12669841  1
  Fe  Fe60  1  0.49900038  -0.00445564  0.00163025  1
  Fe  Fe61  1  0.62546023  0.62540822  0.87335021  1
  Fe  Fe62  1  0.12476762  0.12519536  0.12616115  1
  Fe  Fe63  1  0.87525975  0.62429228  0.62513126  1
  Fe  Fe64  1  0.50152324  0.25282899  -0.00345217  1
  Fe  Fe65  1  0.25510587  0.00233793  0.74897705  1
  Fe  Fe66  1  0.87704398  0.62535366  0.37522853  1
  Fe  Fe67  1  0.25264558  0.50095344  0.00019827  1
  Fe  Fe68  1  0.37678797  0.12447821  0.37465972  1
  Fe  Fe69  1  0.87353926  0.37333942  0.62412466  1
  Fe  Fe70  1  0.12411531  0.62383700  0.87654972  1
  Fe  Fe71  1  0.25321393  0.25011904  0.49965161  1
  Fe  Fe72  1  0.49782441  0.49776757  0.75139124  1
  Fe  Fe73  1  0.87366488  0.37214330  0.87835376  1
  Fe  Fe74  1  0.00067556  0.24961954  0.24958895  1
  Fe  Fe75  1  0.12549586  0.37486292  0.12393098  1
  Fe  Fe76  1  0.49860047  -0.00317047  0.24873818  1
  Fe  Fe77  1  -0.00067061  0.49800925  0.75187411  1
  Fe  Fe78  1  0.00048519  0.75017991  0.00167780  1
  Fe  Fe79  1  0.37793547  0.12683604  0.12477393  1
  Fe  Fe80  1  0.00032105  0.75101292  0.74929507  1
  Fe  Fe81  1  -0.00099634  -0.00129038  0.24872079  1
  Fe  Fe82  1  0.00117850  0.24743044  0.75031217  1
  Fe  Fe83  1  0.75038287  0.74901388  0.50026133  1
  Fe  Fe84  1  0.74715486  0.24890031  0.49961604  1
  Fe  Fe85  1  0.24963056  0.24774098  -0.00094179  1
  Fe  Fe86  1  0.62477803  0.62449149  0.62646674  1
  Fe  Fe87  1  0.25144338  0.50084027  0.75108849  1
  Fe  Fe88  1  0.87356161  0.12389901  0.37589314  1
  Fe  Fe89  1  0.25257535  0.00059252  -0.00036643  1
  Co  Co90  1  0.74912779  0.00010836  0.49990661  1
  Co  Co91  1  0.12832361  0.62563596  0.12455399  1
  Co  Co92  1  0.74526973  0.24653370  0.00078239  1
  Co  Co93  1  0.37278297  0.37472889  0.87476324  1
  Co  Co94  1  0.62693438  0.37809313  0.87637685  1
  Co  Co95  1  0.49994744  0.25201866  0.49558401  1
  Co  Co96  1  0.38038377  0.12829035  0.62312241  1
  Co  Co97  1  0.24545950  0.74976713  0.75230161  1
  Co  Co98  1  0.50061051  0.75251621  0.25035678  1
  Co  Co99  1  0.12859125  0.12524460  0.62444476  1
  Co  Co100  1  0.49592222  0.50201759  0.50222641  1
  Co  Co101  1  0.87632212  0.12732292  0.12385428  1
  Co  Co102  1  0.00406973  0.24851995  -0.00115161  1
  Co  Co103  1  0.75066002  0.50134857  0.50050405  1
  Co  Co104  1  0.49681574  -0.00381649  0.49978397  1
  Co  Co105  1  0.74907235  0.74890376  0.25350326  1
  Co  Co106  1  0.37392098  0.87048263  0.62705879  1
  Co  Co107  1  0.37654709  0.37273310  0.62700095  1
  Co  Co108  1  0.00124221  0.74917443  0.50174406  1
  Co  Co109  1  0.25116462  0.25025981  0.25062485  1
  Co  Co110  1  0.50124167  0.25138282  0.75415707  1
  Co  Co111  1  0.12594996  0.12220983  0.87356771  1
  Co  Co112  1  0.37473530  0.37256929  0.12350686  1
  Co  Co113  1  0.87099394  0.12667567  0.62490521  1
  Co  Co114  1  0.61983376  0.12484764  0.12585571  1
  Co  Co115  1  0.74733118  0.74949001  -0.00274323  1
  Co  Co116  1  -0.00168933  0.50127298  0.00167837  1
  Co  Co117  1  0.37366099  0.87380563  0.87224383  1
  Co  Co118  1  0.75086062  0.75159549  0.74863679  1
  Co  Co119  1  0.87264085  0.87246594  0.12412768  1
  Co  Co120  1  0.37884855  0.12384452  0.87810803  1
  Co  Co121  1  0.37649262  0.62639729  0.87289950  1
  Co  Co122  1  0.62209881  0.62675350  0.12481082  1
  Co  Co123  1  0.50287351  0.75237160  0.75172312  1
  Co  Co124  1  0.50035932  0.49666367  0.24771860  1
  Co  Co125  1  0.37348139  0.87337947  0.12553736  1
  Co  Co126  1  0.00130033  0.75061124  0.24770959  1
  Co  Co127  1  0.00024096  0.00392205  0.50141932  1
