# generated using pymatgen
data_Fe45Co19
_symmetry_space_group_name_H-M   'P 1'
_cell_length_a   11.41570205
_cell_length_b   11.41564790
_cell_length_c   11.41721266
_cell_angle_alpha   90.00686177
_cell_angle_beta   90.00021796
_cell_angle_gamma   90.00419880
_symmetry_Int_Tables_number   1
_chemical_formula_structural   Fe45Co19
_chemical_formula_sum   'Fe90 Co38'
_cell_volume   1487.86413817
_cell_formula_units_Z   2
loop_
 _symmetry_equiv_pos_site_id
 _symmetry_equiv_pos_as_xyz
  1  'x, y, z'
loop_
 _atom_site_type_symbol
 _atom_site_label
 _atom_site_symmetry_multiplicity
 _atom_site_fract_x
 _atom_site_fract_y
 _atom_site_fract_z
 _atom_site_occupancy
  Fe  Fe0  1  0.75323697  0.74815687  0.50305081  1
  Fe  Fe1  1  0.24894067  0.75001741  0.25152825  1
  Fe  Fe2  1  -0.00021373  0.75332608  0.00003779  1
  Fe  Fe3  1  0.87061960  0.87687510  0.12658169  1
  Fe  Fe4  1  0.62209588  0.12686809  0.37345231  1
  Fe  Fe5  1  0.87517598  0.87473425  0.37598129  1
  Fe  Fe6  1  0.37656084  0.37262587  0.37617860  1
  Fe  Fe7  1  0.50169203  0.00153058  0.00185322  1
  Fe  Fe8  1  -0.00055363  0.24968726  0.74939482  1
  Fe  Fe9  1  0.37496571  0.37675726  0.12344685  1
  Fe  Fe10  1  0.62409674  0.62502588  0.37596981  1
  Fe  Fe11  1  0.00179693  0.75251483  0.25204979  1
  Fe  Fe12  1  0.00113556  0.49731263  0.75123226  1
  Fe  Fe13  1  0.12382195  0.12522551  0.87496740  1
  Fe  Fe14  1  0.12485998  0.62382018  0.12470065  1
  Fe  Fe15  1  0.25085386  0.00122282  0.75196809  1
  Fe  Fe16  1  0.75128817  -0.00091098  0.75122451  1
  Fe  Fe17  1  0.37327427  0.87519755  0.62508398  1
  Fe  Fe18  1  0.50152482  0.24925008  0.00088810  1
  Fe  Fe19  1  0.75096561  0.49991009  0.50027722  1
  Fe  Fe20  1  0.50196359  0.74819447  0.00056219  1
  Fe  Fe21  1  0.25029109  0.00198168  -0.00061769  1
  Fe  Fe22  1  0.62565160  0.37558944  0.87455677  1
  Fe  Fe23  1  0.37599318  0.62195335  0.87413314  1
  Fe  Fe24  1  0.00159176  -0.00086955  0.50075476  1
  Fe  Fe25  1  0.87424928  0.37312872  0.87653506  1
  Fe  Fe26  1  0.24712566  0.49852789  0.49823385  1
  Fe  Fe27  1  0.12566954  0.87742656  0.12577381  1
  Fe  Fe28  1  0.12582672  0.37514933  0.12350573  1
  Fe  Fe29  1  0.50102133  0.74967522  0.24971703  1
  Fe  Fe30  1  0.62736007  0.37159789  0.62460178  1
  Fe  Fe31  1  0.62678518  0.37771953  0.12473978  1
  Fe  Fe32  1  0.62533212  0.37287608  0.37581328  1
  Fe  Fe33  1  0.00052086  0.49715590  0.25111781  1
  Fe  Fe34  1  0.24850196  0.74865420  -0.00154599  1
  Fe  Fe35  1  0.62838082  0.87324742  0.87531397  1
  Fe  Fe36  1  0.49880609  0.00124840  0.74800839  1
  Fe  Fe37  1  0.12367164  0.12515114  0.12581334  1
  Fe  Fe38  1  0.37575343  0.62166318  0.12463930  1
  Fe  Fe39  1  0.62884531  0.87617294  0.12707768  1
  Fe  Fe40  1  0.62719001  0.87615124  0.62456102  1
  Fe  Fe41  1  0.37234855  0.37212974  0.62458117  1
  Fe  Fe42  1  0.37615994  0.87611807  0.87674183  1
  Fe  Fe43  1  0.24531670  0.49824561  0.75296828  1
  Fe  Fe44  1  0.00050104  0.50022542  -0.00157648  1
  Fe  Fe45  1  0.25045400  0.24926083  -0.00225238  1
  Fe  Fe46  1  0.75139702  0.50000210  0.25182041  1
  Fe  Fe47  1  0.37369588  0.62377823  0.62586310  1
  Fe  Fe48  1  0.24669033  0.75097170  0.49761827  1
  Fe  Fe49  1  0.62597841  0.12591809  0.87309863  1
  Fe  Fe50  1  0.87276010  0.12542346  0.62468095  1
  Fe  Fe51  1  0.25030565  0.00238225  0.49861691  1
  Fe  Fe52  1  0.87192561  0.37367238  0.12398618  1
  Fe  Fe53  1  0.12595422  0.37000640  0.62370983  1
  Fe  Fe54  1  -0.00337430  -0.00042145  0.00087685  1
  Fe  Fe55  1  0.25106567  0.24846160  0.25166216  1
  Fe  Fe56  1  0.49980635  0.49799581  0.50178154  1
  Fe  Fe57  1  0.62480838  0.62394130  0.62564211  1
  Fe  Fe58  1  -0.00131741  0.24890265  0.00120990  1
  Fe  Fe59  1  0.87625474  0.12780686  0.37334414  1
  Fe  Fe60  1  0.62681452  0.62397955  0.87353887  1
  Fe  Fe61  1  0.87280710  0.12635310  0.87639101  1
  Fe  Fe62  1  0.49889172  0.75009394  0.50167756  1
  Fe  Fe63  1  0.75182339  0.49958086  0.74912628  1
  Fe  Fe64  1  0.37693154  0.87740100  0.37377457  1
  Fe  Fe65  1  0.37567109  0.37576956  0.87492740  1
  Fe  Fe66  1  0.62997514  0.12415691  0.12691699  1
  Fe  Fe67  1  0.24895243  0.49943433  0.25167950  1
  Fe  Fe68  1  0.49920734  0.24945976  0.24770615  1
  Fe  Fe69  1  0.12254650  0.12594170  0.37375790  1
  Fe  Fe70  1  0.12706081  0.12691480  0.62552801  1
  Fe  Fe71  1  0.00199935  0.49662541  0.49817182  1
  Fe  Fe72  1  0.87401591  0.37299342  0.62203548  1
  Fe  Fe73  1  0.62556004  0.62215678  0.12542147  1
  Fe  Fe74  1  0.24770644  0.75128765  0.75200852  1
  Fe  Fe75  1  0.12236913  0.62660580  0.62422627  1
  Fe  Fe76  1  0.87821073  0.62495643  0.37671601  1
  Fe  Fe77  1  0.62501556  0.87464182  0.37445633  1
  Fe  Fe78  1  -0.00098924  -0.00232242  0.75038511  1
  Fe  Fe79  1  0.25179569  0.00257947  0.25029208  1
  Fe  Fe80  1  0.37583037  0.62393398  0.37546360  1
  Fe  Fe81  1  -0.00173834  0.75575900  0.74617243  1
  Fe  Fe82  1  0.50061523  0.74993871  0.74912446  1
  Fe  Fe83  1  0.87447609  0.62577418  0.12537353  1
  Fe  Fe84  1  0.49866356  0.24845117  0.74719257  1
  Fe  Fe85  1  0.74883315  0.00362231  0.49793577  1
  Fe  Fe86  1  0.37560169  0.87653701  0.12483938  1
  Fe  Fe87  1  0.49971913  0.00342507  0.50289217  1
  Fe  Fe88  1  -0.00219257  0.25116182  0.24995133  1
  Fe  Fe89  1  0.87449289  0.62835142  0.87316933  1
  Co  Co90  1  0.37176611  0.12690343  0.62552031  1
  Co  Co91  1  0.75106042  0.00125779  -0.00100232  1
  Co  Co92  1  0.75095245  0.74953482  0.74532177  1
  Co  Co93  1  0.87207949  0.87893734  0.62227828  1
  Co  Co94  1  0.37941478  0.12490081  0.37468980  1
  Co  Co95  1  0.87388955  0.37463297  0.37668515  1
  Co  Co96  1  0.49993876  0.49962159  0.25179065  1
  Co  Co97  1  0.37755112  0.12483859  0.87591878  1
  Co  Co98  1  0.75140697  0.00152211  0.25322842  1
  Co  Co99  1  0.87951532  0.62240828  0.62466351  1
  Co  Co100  1  -0.00246512  0.00006321  0.24888049  1
  Co  Co101  1  0.50064717  0.24776478  0.50371730  1
  Co  Co102  1  0.12450842  0.87672432  0.87598460  1
  Co  Co103  1  0.11999682  0.62804625  0.87393061  1
  Co  Co104  1  0.12215221  0.62443527  0.37487589  1
  Co  Co105  1  0.50084270  0.00046734  0.24768203  1
  Co  Co106  1  0.12740513  0.87676358  0.62508580  1
  Co  Co107  1  0.12243077  0.37194025  0.87711777  1
  Co  Co108  1  0.75034610  0.74818832  0.25158601  1
  Co  Co109  1  0.75243064  0.25074323  0.75036678  1
  Co  Co110  1  0.87175298  0.87264612  0.87532989  1
  Co  Co111  1  0.75024765  0.24744872  0.49891501  1
  Co  Co112  1  0.87248075  0.12634762  0.12518833  1
  Co  Co113  1  0.74838409  0.24999447  -0.00039367  1
  Co  Co114  1  0.24965707  0.24771755  0.49603579  1
  Co  Co115  1  0.74919517  0.74836010  0.00200436  1
  Co  Co116  1  -0.00051518  0.24913396  0.50024783  1
  Co  Co117  1  0.12424159  0.37274114  0.37384339  1
  Co  Co118  1  0.24968100  0.24984909  0.75389447  1
  Co  Co119  1  0.37508194  0.12538662  0.12404977  1
  Co  Co120  1  0.24790979  0.50065200  -0.00319425  1
  Co  Co121  1  0.50068349  0.50011194  -0.00112231  1
  Co  Co122  1  0.75171923  0.50084801  -0.00136784  1
  Co  Co123  1  0.50040113  0.49856710  0.74729084  1
  Co  Co124  1  0.75065518  0.25088971  0.25074955  1
  Co  Co125  1  0.00125762  0.75418796  0.50078369  1
  Co  Co126  1  0.62845123  0.12538764  0.62760312  1
  Co  Co127  1  0.12477869  0.87810801  0.37343260  1
