# generated using pymatgen
data_Fe45Co19
_symmetry_space_group_name_H-M   'P 1'
_cell_length_a   11.41458270
_cell_length_b   11.41613825
_cell_length_c   11.41460677
_cell_angle_alpha   89.99706161
_cell_angle_beta   90.00411029
_cell_angle_gamma   90.00385429
_symmetry_Int_Tables_number   1
_chemical_formula_structural   Fe45Co19
_chemical_formula_sum   'Fe90 Co38'
_cell_volume   1487.44258377
_cell_formula_units_Z   2
loop_
 _symmetry_equiv_pos_site_id
 _symmetry_equiv_pos_as_xyz
  1  'x, y, z'
loop_
 _atom_site_type_symbol
 _atom_site_label
 _atom_site_symmetry_multiplicity
 _atom_site_fract_x
 _atom_site_fract_y
 _atom_site_fract_z
 _atom_site_occupancy
  Fe  Fe0  1  0.62604017  0.37659845  0.12790899  1
  Fe  Fe1  1  0.62460475  0.87431487  0.12490842  1
  Fe  Fe2  1  0.12245649  0.87954267  0.62001233  1
  Fe  Fe3  1  0.75027295  0.75030818  -0.00050754  1
  Fe  Fe4  1  0.62675263  0.12556077  0.87418833  1
  Fe  Fe5  1  0.37476877  0.87375048  0.87270161  1
  Fe  Fe6  1  0.87635971  0.62660986  0.12537868  1
  Fe  Fe7  1  0.75176891  0.50195902  0.00231659  1
  Fe  Fe8  1  0.62787086  0.12396432  0.62652636  1
  Fe  Fe9  1  0.62555790  0.37408016  0.87543747  1
  Fe  Fe10  1  0.49822289  0.50016111  0.00014523  1
  Fe  Fe11  1  -0.00057490  0.24862930  0.49740906  1
  Fe  Fe12  1  0.62373784  0.87538107  0.87471407  1
  Fe  Fe13  1  0.87242025  0.12333526  0.62571345  1
  Fe  Fe14  1  0.49955701  0.49848809  0.49875794  1
  Fe  Fe15  1  0.49741568  0.74899743  0.25060431  1
  Fe  Fe16  1  0.12873724  0.62826655  0.12864533  1
  Fe  Fe17  1  0.87108318  0.12426744  0.37422325  1
  Fe  Fe18  1  0.50203155  0.25035983  0.49824035  1
  Fe  Fe19  1  0.37420455  0.12450200  0.62626121  1
  Fe  Fe20  1  0.87065623  0.37822763  0.37439434  1
  Fe  Fe21  1  0.87740886  0.62471553  0.87367128  1
  Fe  Fe22  1  0.49744483  0.74805841  -0.00012695  1
  Fe  Fe23  1  0.24830280  0.25069895  0.75046537  1
  Fe  Fe24  1  0.62417265  0.62416992  0.87299901  1
  Fe  Fe25  1  0.37387011  0.87487117  0.37771570  1
  Fe  Fe26  1  0.87559722  0.87379597  0.37887035  1
  Fe  Fe27  1  0.12454607  0.12449840  0.62471971  1
  Fe  Fe28  1  0.24519978  0.74813007  0.50038760  1
  Fe  Fe29  1  0.87627077  0.37512938  0.62322784  1
  Fe  Fe30  1  0.00156459  0.75121459  0.25473213  1
  Fe  Fe31  1  0.24797866  -0.00037202  0.75193168  1
  Fe  Fe32  1  0.12113860  0.37433349  0.87788612  1
  Fe  Fe33  1  0.37428543  0.62716459  0.87103009  1
  Fe  Fe34  1  0.62244668  0.62471548  0.12596036  1
  Fe  Fe35  1  0.74786771  -0.00239177  0.25304394  1
  Fe  Fe36  1  0.75023848  0.75178361  0.74997147  1
  Fe  Fe37  1  0.12114384  0.37287707  0.12370534  1
  Fe  Fe38  1  0.12696772  0.87331315  0.12458456  1
  Fe  Fe39  1  0.00285939  0.75204413  0.74646227  1
  Fe  Fe40  1  0.75227722  0.49761577  0.74921479  1
  Fe  Fe41  1  0.87690450  0.87737207  0.62160995  1
  Fe  Fe42  1  0.87745908  0.62504293  0.62496355  1
  Fe  Fe43  1  0.12356437  0.37681166  0.62226302  1
  Fe  Fe44  1  0.24873998  0.00078596  -0.00224344  1
  Fe  Fe45  1  0.87730495  0.87570752  0.87554075  1
  Fe  Fe46  1  0.87465573  0.12345795  0.87350118  1
  Fe  Fe47  1  0.00161687  0.00195455  -0.00099296  1
  Fe  Fe48  1  0.75372987  0.24828853  0.00450150  1
  Fe  Fe49  1  0.37550288  0.12673204  0.12475443  1
  Fe  Fe50  1  0.24915863  0.24872022  0.00031004  1
  Fe  Fe51  1  0.49984041  -0.00146026  0.25217956  1
  Fe  Fe52  1  0.62721083  0.62163642  0.37400753  1
  Fe  Fe53  1  0.62667358  0.12368148  0.12669076  1
  Fe  Fe54  1  0.00082268  0.50248135  0.49714090  1
  Fe  Fe55  1  0.74782437  0.25082853  0.49831985  1
  Fe  Fe56  1  0.37395609  0.62497119  0.62704248  1
  Fe  Fe57  1  0.37475897  0.12638159  0.37446417  1
  Fe  Fe58  1  0.24992320  0.49656310  0.25012082  1
  Fe  Fe59  1  0.24902926  0.50200995  0.00050459  1
  Fe  Fe60  1  0.00155715  -0.00144855  0.25292265  1
  Fe  Fe61  1  0.37530971  0.37409083  0.62492168  1
  Fe  Fe62  1  0.37165039  0.62386540  0.37443992  1
  Fe  Fe63  1  0.37342302  0.37328433  0.37501806  1
  Fe  Fe64  1  0.62444149  0.37564117  0.62580840  1
  Fe  Fe65  1  0.50037152  0.24858354  0.75081455  1
  Fe  Fe66  1  0.12689825  0.12599823  0.37439167  1
  Fe  Fe67  1  0.24934523  0.49828955  0.74907580  1
  Fe  Fe68  1  0.25036138  -0.00088124  0.25113697  1
  Fe  Fe69  1  0.50248988  0.25150676  0.25135722  1
  Fe  Fe70  1  0.37347519  0.87321353  0.12345657  1
  Fe  Fe71  1  -0.00110063  0.50044001  0.25055973  1
  Fe  Fe72  1  0.37606079  0.37233202  0.87558263  1
  Fe  Fe73  1  0.62501709  0.87658903  0.62466166  1
  Fe  Fe74  1  0.62371426  0.62299317  0.62744487  1
  Fe  Fe75  1  0.87491355  0.87682031  0.12405300  1
  Fe  Fe76  1  0.49961895  0.00216668  -0.00139017  1
  Fe  Fe77  1  0.50167245  0.00095832  0.49883409  1
  Fe  Fe78  1  0.24909079  0.25036904  0.49911818  1
  Fe  Fe79  1  0.75060272  0.74973974  0.25076840  1
  Fe  Fe80  1  0.00182125  0.74878368  0.00054745  1
  Fe  Fe81  1  0.12506165  0.62646008  0.87117845  1
  Fe  Fe82  1  0.37591430  0.37391286  0.12460682  1
  Fe  Fe83  1  0.50101971  0.74841582  0.49979315  1
  Fe  Fe84  1  0.37579316  0.87534260  0.62501076  1
  Fe  Fe85  1  0.12409208  0.12623752  0.12619715  1
  Fe  Fe86  1  -0.00065193  0.25019515  0.75022352  1
  Fe  Fe87  1  0.74971063  0.74862712  0.50011017  1
  Fe  Fe88  1  0.87851469  0.37675720  0.87969403  1
  Fe  Fe89  1  -0.00337729  0.25059407  0.24959664  1
  Co  Co90  1  0.49725025  0.49917934  0.25135219  1
  Co  Co91  1  0.12440566  0.62026513  0.62546486  1
  Co  Co92  1  0.50170544  0.75090108  0.74876765  1
  Co  Co93  1  0.37308051  0.62470798  0.12682707  1
  Co  Co94  1  0.62934170  0.37872574  0.37350512  1
  Co  Co95  1  0.62438807  0.87171231  0.37508071  1
  Co  Co96  1  0.12455458  0.12743121  0.87420430  1
  Co  Co97  1  0.74958063  -0.00058743  -0.00090495  1
  Co  Co98  1  0.37424146  0.12684746  0.87487658  1
  Co  Co99  1  0.12317562  0.87328470  0.87662351  1
  Co  Co100  1  0.00311709  0.50587162  0.00261416  1
  Co  Co101  1  0.75308073  0.50231593  0.24594226  1
  Co  Co102  1  -0.00081274  0.49786295  0.74920405  1
  Co  Co103  1  0.49901566  0.49804194  0.75051154  1
  Co  Co104  1  0.25059701  0.49891229  0.49976759  1
  Co  Co105  1  0.50016230  0.00156263  0.75000935  1
  Co  Co106  1  0.25085700  0.74826936  -0.00161121  1
  Co  Co107  1  0.00362395  0.74704167  0.49865690  1
  Co  Co108  1  0.24960032  0.25080257  0.24918526  1
  Co  Co109  1  0.12700901  0.62322445  0.37283143  1
  Co  Co110  1  -0.00367305  0.24466949  0.00198412  1
  Co  Co111  1  0.12562707  0.87708651  0.37833304  1
  Co  Co112  1  0.00055301  0.00080481  0.74962285  1
  Co  Co113  1  0.75200615  0.25050667  0.24780119  1
  Co  Co114  1  0.25144551  0.75352635  0.25268178  1
  Co  Co115  1  0.87371793  0.62486138  0.37625108  1
  Co  Co116  1  0.87443711  0.11885474  0.12787398  1
  Co  Co117  1  0.62537305  0.12572666  0.37385437  1
  Co  Co118  1  0.74854180  -0.00082363  0.49806990  1
  Co  Co119  1  0.24595401  0.75298078  0.74586423  1
  Co  Co120  1  0.50185571  0.24966849  0.00145727  1
  Co  Co121  1  0.25090992  0.00249855  0.49906748  1
  Co  Co122  1  0.12452424  0.37421450  0.37545241  1
  Co  Co123  1  0.75235518  0.25325008  0.75050869  1
  Co  Co124  1  0.75056292  -0.00310743  0.75064191  1
  Co  Co125  1  -0.00131188  0.00494193  0.49739989  1
  Co  Co126  1  0.87781004  0.37743374  0.12266036  1
  Co  Co127  1  0.75032329  0.50101830  0.50452197  1
