# generated using pymatgen
data_Fe45Co19
_symmetry_space_group_name_H-M   'P 1'
_cell_length_a   11.41495603
_cell_length_b   11.41375435
_cell_length_c   11.41581234
_cell_angle_alpha   89.99707073
_cell_angle_beta   89.99439716
_cell_angle_gamma   89.98927626
_symmetry_Int_Tables_number   1
_chemical_formula_structural   Fe45Co19
_chemical_formula_sum   'Fe90 Co38'
_cell_volume   1487.33766120
_cell_formula_units_Z   2
loop_
 _symmetry_equiv_pos_site_id
 _symmetry_equiv_pos_as_xyz
  1  'x, y, z'
loop_
 _atom_site_type_symbol
 _atom_site_label
 _atom_site_symmetry_multiplicity
 _atom_site_fract_x
 _atom_site_fract_y
 _atom_site_fract_z
 _atom_site_occupancy
  Fe  Fe0  1  0.75144626  0.74783922  0.49893393  1
  Fe  Fe1  1  0.12505883  0.62269593  0.12336088  1
  Fe  Fe2  1  0.87546771  0.87130157  0.62823236  1
  Fe  Fe3  1  0.87391315  0.62751125  0.12689948  1
  Fe  Fe4  1  0.12414558  0.62473662  0.62654416  1
  Fe  Fe5  1  0.49716479  0.00083975  0.49755043  1
  Fe  Fe6  1  0.50261333  0.74941078  0.24998295  1
  Fe  Fe7  1  -0.00315334  0.50231307  0.50003701  1
  Fe  Fe8  1  0.62636901  0.62209288  0.37592195  1
  Fe  Fe9  1  0.24841259  0.75134241  0.49770806  1
  Fe  Fe10  1  0.50118599  -0.00057461  -0.00115311  1
  Fe  Fe11  1  0.00153582  0.49762171  0.24971142  1
  Fe  Fe12  1  0.12200477  0.13094868  0.12108825  1
  Fe  Fe13  1  0.50099276  0.74578037  0.75036511  1
  Fe  Fe14  1  0.50208115  0.25061792  0.74910741  1
  Fe  Fe15  1  0.74819133  -0.00130785  -0.00146731  1
  Fe  Fe16  1  0.12579226  0.12311987  0.62579249  1
  Fe  Fe17  1  0.24980309  0.00271806  0.00102245  1
  Fe  Fe18  1  0.75244741  -0.00061743  0.50037744  1
  Fe  Fe19  1  0.24921945  0.74949274  -0.00041008  1
  Fe  Fe20  1  0.62588907  0.12318907  0.12394708  1
  Fe  Fe21  1  0.87710502  0.87204771  0.37176619  1
  Fe  Fe22  1  0.37422222  0.12482704  0.87419196  1
  Fe  Fe23  1  0.50022485  0.49933253  0.00088859  1
  Fe  Fe24  1  0.62636582  0.12461768  0.62483571  1
  Fe  Fe25  1  0.25410348  0.50227037  0.74890117  1
  Fe  Fe26  1  0.25138087  0.49909537  0.50185429  1
  Fe  Fe27  1  0.87835156  0.37144796  0.12499286  1
  Fe  Fe28  1  0.37519612  0.87574821  0.12716948  1
  Fe  Fe29  1  0.75062610  0.24937184  0.00016687  1
  Fe  Fe30  1  0.37559684  0.87414688  0.87515233  1
  Fe  Fe31  1  0.62641533  0.62170617  0.62364188  1
  Fe  Fe32  1  0.12314684  0.37701599  0.62641483  1
  Fe  Fe33  1  0.37683169  0.37631158  0.87378164  1
  Fe  Fe34  1  0.24621685  0.25489573  0.24757489  1
  Fe  Fe35  1  0.87546045  0.87373222  0.12666699  1
  Fe  Fe36  1  0.62463869  0.87521641  0.37490966  1
  Fe  Fe37  1  0.62708584  0.37696132  0.87341318  1
  Fe  Fe38  1  0.00032202  0.00139770  0.75099196  1
  Fe  Fe39  1  0.62705259  0.12573929  0.37640783  1
  Fe  Fe40  1  -0.00148669  0.00262762  -0.00260218  1
  Fe  Fe41  1  0.25215787  0.49674466  0.00219524  1
  Fe  Fe42  1  0.49808548  0.49858214  0.50060335  1
  Fe  Fe43  1  -0.00019479  0.24798000  0.49961528  1
  Fe  Fe44  1  0.00190617  0.74802732  -0.00206065  1
  Fe  Fe45  1  -0.00219996  0.00110156  0.49977855  1
  Fe  Fe46  1  0.37570915  0.62660936  0.37535125  1
  Fe  Fe47  1  0.24864115  0.24984602  0.75098202  1
  Fe  Fe48  1  0.12354565  0.62356797  0.37433189  1
  Fe  Fe49  1  0.74833353  0.00088569  0.75060186  1
  Fe  Fe50  1  0.37561369  0.62424915  0.12551418  1
  Fe  Fe51  1  0.75145548  0.00008577  0.24979318  1
  Fe  Fe52  1  -0.00012828  0.74855975  0.49886673  1
  Fe  Fe53  1  0.12654769  0.12532087  0.37504685  1
  Fe  Fe54  1  0.87099449  0.37560490  0.87408290  1
  Fe  Fe55  1  0.62680284  0.37799279  0.62553942  1
  Fe  Fe56  1  0.49934402  0.25012149  0.00032028  1
  Fe  Fe57  1  0.50145622  0.25024426  0.25096821  1
  Fe  Fe58  1  0.87536466  0.37466396  0.62594052  1
  Fe  Fe59  1  0.62832168  0.62185579  0.87554251  1
  Fe  Fe60  1  0.37411387  0.12621424  0.62488018  1
  Fe  Fe61  1  0.12469892  0.87505497  0.62545177  1
  Fe  Fe62  1  0.49833787  0.00139690  0.25273166  1
  Fe  Fe63  1  0.24984668  0.74800900  0.75158014  1
  Fe  Fe64  1  0.25320673  -0.00200034  0.49639821  1
  Fe  Fe65  1  0.24913861  0.25242604  0.50105299  1
  Fe  Fe66  1  0.37578709  0.37473140  0.37389921  1
  Fe  Fe67  1  0.62463044  0.87434220  0.62553650  1
  Fe  Fe68  1  0.37653693  0.87145914  0.62395514  1
  Fe  Fe69  1  0.12398027  0.87643090  0.12508860  1
  Fe  Fe70  1  0.74631641  0.75295827  0.00225294  1
  Fe  Fe71  1  0.24633873  0.75222791  0.25093136  1
  Fe  Fe72  1  0.75095632  0.24907176  0.24989670  1
  Fe  Fe73  1  0.50238443  0.75098402  0.00098668  1
  Fe  Fe74  1  0.00029974  0.00341520  0.24966588  1
  Fe  Fe75  1  0.12665346  0.87672566  0.87431730  1
  Fe  Fe76  1  0.87343273  0.87143093  0.87276361  1
  Fe  Fe77  1  0.49983076  0.25059309  0.49986707  1
  Fe  Fe78  1  0.62613371  0.62272816  0.12569841  1
  Fe  Fe79  1  -0.00363917  0.50196000  -0.00143104  1
  Fe  Fe80  1  0.24855606  0.49645437  0.24827902  1
  Fe  Fe81  1  0.49994203  0.00066119  0.74999146  1
  Fe  Fe82  1  0.75019056  0.49857047  0.25094635  1
  Fe  Fe83  1  -0.00405995  0.50540061  0.75311196  1
  Fe  Fe84  1  0.12469042  0.37603413  0.87710442  1
  Fe  Fe85  1  0.62348120  0.37536750  0.12637660  1
  Fe  Fe86  1  0.37346317  0.12637714  0.12736434  1
  Fe  Fe87  1  0.87521333  0.37435446  0.37551224  1
  Fe  Fe88  1  -0.00094139  0.24686459  0.75286581  1
  Fe  Fe89  1  0.75122730  0.25033532  0.50165445  1
  Co  Co90  1  0.25317788  0.25223441  -0.00061092  1
  Co  Co91  1  0.75357787  0.50183349  0.74793121  1
  Co  Co92  1  0.00318172  0.74745999  0.75359112  1
  Co  Co93  1  0.25159421  -0.00117174  0.74850686  1
  Co  Co94  1  0.50089246  0.50075257  0.25149962  1
  Co  Co95  1  0.37500423  0.37349196  0.62576229  1
  Co  Co96  1  0.62529230  0.12636824  0.87549034  1
  Co  Co97  1  0.87612131  0.62831958  0.62603236  1
  Co  Co98  1  0.37568983  0.62474638  0.87842113  1
  Co  Co99  1  0.00411428  0.74912055  0.24798983  1
  Co  Co100  1  0.12383760  0.37674599  0.37871271  1
  Co  Co101  1  0.62328298  0.87856742  0.12781294  1
  Co  Co102  1  0.37507128  0.62780212  0.62216036  1
  Co  Co103  1  0.74949244  0.25020028  0.74857601  1
  Co  Co104  1  0.75425206  0.50070892  0.49945417  1
  Co  Co105  1  0.87602669  0.62592567  0.37053555  1
  Co  Co106  1  0.37867679  0.37595851  0.12684040  1
  Co  Co107  1  0.87031802  0.12330701  0.87417821  1
  Co  Co108  1  0.00101759  0.25002496  0.25369606  1
  Co  Co109  1  0.12729203  0.12450204  0.87546153  1
  Co  Co110  1  0.24705100  -0.00011355  0.24973306  1
  Co  Co111  1  0.75144913  0.49797081  0.00384231  1
  Co  Co112  1  0.12103207  0.87691465  0.37498962  1
  Co  Co113  1  0.37249732  0.12943907  0.37303411  1
  Co  Co114  1  0.11955163  0.37263312  0.11873974  1
  Co  Co115  1  0.49863167  0.50167356  0.74889340  1
  Co  Co116  1  0.86925738  0.62931724  0.87802483  1
  Co  Co117  1  0.87335014  0.12550592  0.37530985  1
  Co  Co118  1  0.87534002  0.12512408  0.12370392  1
  Co  Co119  1  0.74720881  0.74701799  0.74811054  1
  Co  Co120  1  0.87430235  0.12465925  0.62663655  1
  Co  Co121  1  0.12799439  0.62152543  0.87646622  1
  Co  Co122  1  0.50377868  0.74975387  0.49970620  1
  Co  Co123  1  0.62567204  0.37478377  0.37627550  1
  Co  Co124  1  0.74653854  0.74997079  0.25019304  1
  Co  Co125  1  0.37684686  0.87178178  0.37291309  1
  Co  Co126  1  -0.00419184  0.24865515  -0.00704787  1
  Co  Co127  1  0.62383468  0.87428444  0.87201810  1
