# generated using pymatgen
data_Fe45Co19
_symmetry_space_group_name_H-M   'P 1'
_cell_length_a   11.41479404
_cell_length_b   11.41561324
_cell_length_c   11.41495001
_cell_angle_alpha   90.00004709
_cell_angle_beta   90.01502040
_cell_angle_gamma   89.99193276
_symmetry_Int_Tables_number   1
_chemical_formula_structural   Fe45Co19
_chemical_formula_sum   'Fe90 Co38'
_cell_volume   1487.44638650
_cell_formula_units_Z   2
loop_
 _symmetry_equiv_pos_site_id
 _symmetry_equiv_pos_as_xyz
  1  'x, y, z'
loop_
 _atom_site_type_symbol
 _atom_site_label
 _atom_site_symmetry_multiplicity
 _atom_site_fract_x
 _atom_site_fract_y
 _atom_site_fract_z
 _atom_site_occupancy
  Fe  Fe0  1  0.37431439  0.87436481  0.37258607  1
  Fe  Fe1  1  0.00056647  0.75101599  0.00028364  1
  Fe  Fe2  1  0.50159526  -0.00320531  0.50194554  1
  Fe  Fe3  1  0.74902383  -0.00454534  0.00297032  1
  Fe  Fe4  1  0.25484633  0.24725912  0.25345723  1
  Fe  Fe5  1  0.50025691  0.75213964  0.00030618  1
  Fe  Fe6  1  0.62643130  0.12231234  0.87421781  1
  Fe  Fe7  1  0.24740676  0.74918662  0.49538676  1
  Fe  Fe8  1  0.62561018  0.62569441  0.87794551  1
  Fe  Fe9  1  0.62088265  0.37894028  0.37236114  1
  Fe  Fe10  1  0.62507605  0.12230280  0.37743906  1
  Fe  Fe11  1  -0.00322346  -0.00088932  0.74766411  1
  Fe  Fe12  1  0.87628789  0.87379777  0.37223437  1
  Fe  Fe13  1  0.87058631  0.87417513  0.87016436  1
  Fe  Fe14  1  0.25267182  0.50088481  0.50218680  1
  Fe  Fe15  1  0.00083351  0.74409889  0.25005070  1
  Fe  Fe16  1  0.24869924  0.25103744  0.75179175  1
  Fe  Fe17  1  0.37421394  0.62448130  0.87646607  1
  Fe  Fe18  1  0.37787388  0.37679953  0.87524258  1
  Fe  Fe19  1  0.24684874  -0.00124133  0.49572406  1
  Fe  Fe20  1  0.50161887  -0.00089973  0.74829394  1
  Fe  Fe21  1  0.37468132  0.37493159  0.62627012  1
  Fe  Fe22  1  0.75276407  0.75000838  0.49925505  1
  Fe  Fe23  1  0.50029886  -0.00230218  -0.00007960  1
  Fe  Fe24  1  0.24881682  0.74860993  0.75033875  1
  Fe  Fe25  1  0.12378677  0.12622405  0.62311585  1
  Fe  Fe26  1  0.00029624  0.25325325  0.49695699  1
  Fe  Fe27  1  0.25237756  0.49745114  0.00190201  1
  Fe  Fe28  1  0.37552219  0.12420220  0.62196986  1
  Fe  Fe29  1  0.50073829  0.74976135  0.74974511  1
  Fe  Fe30  1  0.37666756  0.12532838  0.12341056  1
  Fe  Fe31  1  0.12609121  0.87681385  0.87467527  1
  Fe  Fe32  1  0.12637757  0.87606439  0.13194983  1
  Fe  Fe33  1  0.49887717  0.00168689  0.25075722  1
  Fe  Fe34  1  0.12401607  0.62561306  0.62455066  1
  Fe  Fe35  1  0.74983340  0.50133468  0.74945603  1
  Fe  Fe36  1  -0.00140489  0.50005023  0.49879738  1
  Fe  Fe37  1  0.62894268  0.87352653  0.62746439  1
  Fe  Fe38  1  0.50200987  0.74433165  0.24954005  1
  Fe  Fe39  1  0.87416283  0.37455943  0.87469662  1
  Fe  Fe40  1  0.37447035  0.87576035  0.87414898  1
  Fe  Fe41  1  0.12704895  0.37820566  0.37280790  1
  Fe  Fe42  1  0.87356681  0.62331131  0.37203498  1
  Fe  Fe43  1  0.87391874  0.37724477  0.37217789  1
  Fe  Fe44  1  0.00029274  0.50059066  0.75157934  1
  Fe  Fe45  1  0.87274639  0.37192458  0.62534239  1
  Fe  Fe46  1  0.74510256  0.25346459  -0.00071163  1
  Fe  Fe47  1  0.37257040  0.87318652  0.62431843  1
  Fe  Fe48  1  0.87286278  0.37590843  0.12706315  1
  Fe  Fe49  1  0.24932430  0.75277703  0.00238592  1
  Fe  Fe50  1  0.49924067  0.25336916  0.49578272  1
  Fe  Fe51  1  0.74558349  0.49608557  0.00197195  1
  Fe  Fe52  1  0.37838930  0.62212946  0.37851206  1
  Fe  Fe53  1  -0.00100364  -0.00168456  0.49941844  1
  Fe  Fe54  1  -0.00120373  0.25042987  0.25018340  1
  Fe  Fe55  1  -0.00100581  0.49861196  0.00263702  1
  Fe  Fe56  1  0.12700835  0.62165038  0.87765100  1
  Fe  Fe57  1  0.38376094  0.37448211  0.12782013  1
  Fe  Fe58  1  0.12594571  0.12357002  0.12707934  1
  Fe  Fe59  1  0.00074176  0.25131877  0.00132235  1
  Fe  Fe60  1  0.49915380  0.50339719  0.74779358  1
  Fe  Fe61  1  0.75286189  0.00023896  0.50485134  1
  Fe  Fe62  1  0.50032147  0.24805661  0.75172239  1
  Fe  Fe63  1  0.74723234  0.24980344  0.25149105  1
  Fe  Fe64  1  0.62401425  0.12575509  0.12521073  1
  Fe  Fe65  1  0.12576226  0.12373693  0.87646379  1
  Fe  Fe66  1  0.62410283  0.62590417  0.62096038  1
  Fe  Fe67  1  0.87790931  0.62841713  0.62607080  1
  Fe  Fe68  1  0.37331698  0.87448710  0.12914705  1
  Fe  Fe69  1  0.87316192  0.12548935  0.12381060  1
  Fe  Fe70  1  0.75144551  -0.00200012  0.24786576  1
  Fe  Fe71  1  0.25086675  0.25125678  -0.00022397  1
  Fe  Fe72  1  0.87305567  0.62647057  0.87776450  1
  Fe  Fe73  1  0.74957750  0.75498818  0.00457478  1
  Fe  Fe74  1  -0.00023115  -0.00213251  0.00202354  1
  Fe  Fe75  1  0.50027686  0.75126406  0.50043434  1
  Fe  Fe76  1  0.74469343  0.50365162  0.24709143  1
  Fe  Fe77  1  0.37314616  0.12285594  0.87616010  1
  Fe  Fe78  1  0.12587801  0.37670604  0.62589625  1
  Fe  Fe79  1  0.62726888  0.87352334  0.37272626  1
  Fe  Fe80  1  0.62683987  0.37214453  0.62658649  1
  Fe  Fe81  1  0.12515084  0.37527830  0.12660452  1
  Fe  Fe82  1  0.24944584  -0.00052735  0.74805802  1
  Fe  Fe83  1  0.12200736  0.87109201  0.62297421  1
  Fe  Fe84  1  0.00083386  0.25126335  0.75172423  1
  Fe  Fe85  1  0.74970442  0.49927646  0.50030893  1
  Fe  Fe86  1  0.25208638  0.25090084  0.49651315  1
  Fe  Fe87  1  0.87493570  0.12594678  0.37643565  1
  Fe  Fe88  1  0.87400473  0.12454927  0.87632577  1
  Fe  Fe89  1  0.25170370  0.50454744  0.24717387  1
  Co  Co90  1  0.87647561  0.13103147  0.62225619  1
  Co  Co91  1  0.12319187  0.87500497  0.36919013  1
  Co  Co92  1  0.50250691  0.24962389  -0.00305001  1
  Co  Co93  1  0.49992781  0.49747992  0.50348015  1
  Co  Co94  1  0.75033365  0.24781790  0.75289280  1
  Co  Co95  1  0.12496628  0.61969727  0.37568087  1
  Co  Co96  1  -0.00038001  0.74830581  0.49478459  1
  Co  Co97  1  0.74798770  0.25189719  0.49525038  1
  Co  Co98  1  0.00033209  0.50117883  0.24788996  1
  Co  Co99  1  0.62754622  0.87551916  0.87281378  1
  Co  Co100  1  0.25238635  0.00438141  0.25377766  1
  Co  Co101  1  0.12274330  0.12697953  0.37467841  1
  Co  Co102  1  0.75149365  0.00401914  0.74419094  1
  Co  Co103  1  0.62683468  0.62770290  0.12044737  1
  Co  Co104  1  0.37752903  0.12155901  0.38117845  1
  Co  Co105  1  0.74937300  0.74927451  0.24809089  1
  Co  Co106  1  0.37442495  0.62831836  0.62342020  1
  Co  Co107  1  0.12494204  0.37702726  0.87654171  1
  Co  Co108  1  0.74765730  0.74568206  0.74870917  1
  Co  Co109  1  0.37498884  0.62615458  0.12095076  1
  Co  Co110  1  0.61907192  0.37237028  0.12901187  1
  Co  Co111  1  0.00247610  0.74848421  0.75482257  1
  Co  Co112  1  0.25037592  -0.00173839  0.00259868  1
  Co  Co113  1  0.25055725  0.74412202  0.25191630  1
  Co  Co114  1  0.49907712  0.24548956  0.25519109  1
  Co  Co115  1  0.50283515  0.50882635  0.24677329  1
  Co  Co116  1  0.62307395  0.12911129  0.62232028  1
  Co  Co117  1  0.62494578  0.62648702  0.37974669  1
  Co  Co118  1  0.87347847  0.62396664  0.12336030  1
  Co  Co119  1  0.50223834  0.50022150  0.00180488  1
  Co  Co120  1  0.37631111  0.38193701  0.37085741  1
  Co  Co121  1  0.62102699  0.87487056  0.12866010  1
  Co  Co122  1  0.12495229  0.62461331  0.12157946  1
  Co  Co123  1  0.25111889  0.50070804  0.74949289  1
  Co  Co124  1  0.62270533  0.37732323  0.87078814  1
  Co  Co125  1  0.87935179  0.87347202  0.12834374  1
  Co  Co126  1  0.87608253  0.86930119  0.62761381  1
  Co  Co127  1  -0.00210499  0.00394211  0.25038871  1
