# generated using pymatgen
data_Fe45Co19
_symmetry_space_group_name_H-M   'P 1'
_cell_length_a   11.41588821
_cell_length_b   11.41373831
_cell_length_c   11.41450246
_cell_angle_alpha   89.98467622
_cell_angle_beta   89.99800376
_cell_angle_gamma   89.99869055
_symmetry_Int_Tables_number   1
_chemical_formula_structural   Fe45Co19
_chemical_formula_sum   'Fe90 Co38'
_cell_volume   1487.28633631
_cell_formula_units_Z   2
loop_
 _symmetry_equiv_pos_site_id
 _symmetry_equiv_pos_as_xyz
  1  'x, y, z'
loop_
 _atom_site_type_symbol
 _atom_site_label
 _atom_site_symmetry_multiplicity
 _atom_site_fract_x
 _atom_site_fract_y
 _atom_site_fract_z
 _atom_site_occupancy
  Fe  Fe0  1  -0.00242339  0.00034658  0.75016251  1
  Fe  Fe1  1  0.12499785  0.37723055  0.62247707  1
  Fe  Fe2  1  0.00282265  0.50026057  0.25102928  1
  Fe  Fe3  1  0.62327627  0.12905254  0.12540209  1
  Fe  Fe4  1  0.25047447  0.49932749  0.25136276  1
  Fe  Fe5  1  0.12460911  0.87444780  0.62526538  1
  Fe  Fe6  1  0.75052990  0.74984752  0.75047956  1
  Fe  Fe7  1  0.75300858  0.24884370  0.74894612  1
  Fe  Fe8  1  0.37578739  0.12265714  0.37810645  1
  Fe  Fe9  1  0.49922984  0.74888264  0.74940668  1
  Fe  Fe10  1  0.49662579  0.75212400  0.00167793  1
  Fe  Fe11  1  0.37517148  0.37842641  0.37953967  1
  Fe  Fe12  1  0.12473589  0.12455084  0.87432869  1
  Fe  Fe13  1  0.25128659  0.24882691  -0.00128464  1
  Fe  Fe14  1  0.74871530  0.50119619  0.75157445  1
  Fe  Fe15  1  0.74901938  0.49973944  0.49773314  1
  Fe  Fe16  1  0.37607570  0.61982090  0.62141548  1
  Fe  Fe17  1  0.24989286  -0.00195780  0.75199586  1
  Fe  Fe18  1  0.37338440  0.12311758  0.12573903  1
  Fe  Fe19  1  0.49890783  0.24944458  0.50170691  1
  Fe  Fe20  1  0.12391130  0.37395425  0.87575622  1
  Fe  Fe21  1  0.25222146  0.25030972  0.25180082  1
  Fe  Fe22  1  0.37301943  0.12581339  0.87147503  1
  Fe  Fe23  1  0.62305347  0.62723057  0.37305794  1
  Fe  Fe24  1  0.74912560  0.75277371  0.49880883  1
  Fe  Fe25  1  0.87494407  0.87412224  0.12909656  1
  Fe  Fe26  1  0.87422635  0.12291019  0.37852707  1
  Fe  Fe27  1  0.24883614  0.49934082  0.74822360  1
  Fe  Fe28  1  0.25135573  0.25075519  0.50230773  1
  Fe  Fe29  1  0.87628628  0.62605467  0.12663246  1
  Fe  Fe30  1  -0.00110973  -0.00158568  -0.00108896  1
  Fe  Fe31  1  0.87491304  0.87754818  0.62161482  1
  Fe  Fe32  1  0.75154296  0.00178354  0.00044926  1
  Fe  Fe33  1  -0.00127186  0.75114187  0.75113998  1
  Fe  Fe34  1  0.87546326  0.62500464  0.87757158  1
  Fe  Fe35  1  0.62561339  0.37422514  0.62428526  1
  Fe  Fe36  1  0.24856294  -0.00117394  0.49808516  1
  Fe  Fe37  1  0.37510821  0.62331566  0.87664363  1
  Fe  Fe38  1  0.50132138  0.49926734  0.75036786  1
  Fe  Fe39  1  0.25176673  0.74988114  0.74948518  1
  Fe  Fe40  1  0.12470049  0.12792745  0.37487781  1
  Fe  Fe41  1  0.62534131  0.12613309  0.37565711  1
  Fe  Fe42  1  0.25290697  0.75481699  -0.00207914  1
  Fe  Fe43  1  0.24907186  0.49774449  0.00042517  1
  Fe  Fe44  1  0.87450982  0.37628352  0.62319290  1
  Fe  Fe45  1  0.49798765  0.00043937  0.25134029  1
  Fe  Fe46  1  0.74766221  0.49884784  0.00099763  1
  Fe  Fe47  1  0.12602590  0.12368333  0.62532179  1
  Fe  Fe48  1  0.74930443  -0.00097458  0.25181950  1
  Fe  Fe49  1  0.37710696  0.37380641  0.12457667  1
  Fe  Fe50  1  0.25153139  0.74907408  0.50078823  1
  Fe  Fe51  1  0.87639537  0.37605376  0.12603825  1
  Fe  Fe52  1  0.37679745  0.87832196  0.62374682  1
  Fe  Fe53  1  0.12341025  0.37186946  0.12721271  1
  Fe  Fe54  1  0.12539984  0.62611898  0.87496624  1
  Fe  Fe55  1  0.13052507  0.87767704  0.12708269  1
  Fe  Fe56  1  0.50165198  0.00179926  0.74745553  1
  Fe  Fe57  1  0.87553183  0.62407469  0.62281288  1
  Fe  Fe58  1  0.87591994  0.62851864  0.37209162  1
  Fe  Fe59  1  0.75098129  0.00012147  0.74801966  1
  Fe  Fe60  1  0.62727569  0.12773806  0.87662995  1
  Fe  Fe61  1  0.12570416  0.12365235  0.12662900  1
  Fe  Fe62  1  0.49612292  0.25035160  0.74768449  1
  Fe  Fe63  1  -0.00058620  0.24991917  0.50083920  1
  Fe  Fe64  1  0.62197572  0.87373830  0.37368025  1
  Fe  Fe65  1  0.74921394  0.74997073  0.00115946  1
  Fe  Fe66  1  0.49749533  0.00079747  -0.00117239  1
  Fe  Fe67  1  0.00254878  -0.00204177  0.25423644  1
  Fe  Fe68  1  -0.00056226  0.24820319  0.74774654  1
  Fe  Fe69  1  0.62821548  0.12569825  0.62183935  1
  Fe  Fe70  1  0.62229777  0.62592726  0.12597150  1
  Fe  Fe71  1  0.49834580  0.50133750  0.25020178  1
  Fe  Fe72  1  0.62273774  0.87520627  0.12652137  1
  Fe  Fe73  1  0.50097338  0.49792512  -0.00048817  1
  Fe  Fe74  1  0.00124323  0.75185373  0.49817485  1
  Fe  Fe75  1  0.25632777  0.74921277  0.25142667  1
  Fe  Fe76  1  0.00162508  0.75217362  0.00082737  1
  Fe  Fe77  1  0.75208280  0.24887273  0.24818679  1
  Fe  Fe78  1  0.00048044  0.50151543  0.74963815  1
  Fe  Fe79  1  0.62490799  0.87396804  0.87361013  1
  Fe  Fe80  1  -0.00293064  0.24742949  0.00202251  1
  Fe  Fe81  1  0.74843972  0.50062976  0.24912532  1
  Fe  Fe82  1  0.62385114  0.37289841  0.37223923  1
  Fe  Fe83  1  0.87565139  0.37417328  0.87660273  1
  Fe  Fe84  1  0.12758968  0.62572353  0.12456114  1
  Fe  Fe85  1  0.49875510  0.75089530  0.49963756  1
  Fe  Fe86  1  0.12596906  0.62566761  0.37552989  1
  Fe  Fe87  1  0.87670448  0.37445794  0.37471237  1
  Fe  Fe88  1  0.62509047  0.37101051  0.87747330  1
  Fe  Fe89  1  0.62613694  0.62551819  0.62434612  1
  Co  Co90  1  -0.00185065  0.24842902  0.25047826  1
  Co  Co91  1  0.37596068  0.62181245  0.37853275  1
  Co  Co92  1  0.62416370  0.87347625  0.62667157  1
  Co  Co93  1  0.50270084  0.00111563  0.50137646  1
  Co  Co94  1  0.87455890  0.87339721  0.37324238  1
  Co  Co95  1  0.87416951  0.12324973  0.62036403  1
  Co  Co96  1  0.37239037  0.88001849  0.12745544  1
  Co  Co97  1  0.12426389  0.87500777  0.87333260  1
  Co  Co98  1  0.49635118  0.24812395  -0.00119319  1
  Co  Co99  1  0.50597355  0.49932929  0.49983236  1
  Co  Co100  1  0.00346873  -0.00151543  0.49690935  1
  Co  Co101  1  0.24974852  0.00268044  0.25482280  1
  Co  Co102  1  0.87670698  0.12073069  0.12827257  1
  Co  Co103  1  0.00182638  0.50102692  0.00148612  1
  Co  Co104  1  0.24534293  0.50142666  0.50019454  1
  Co  Co105  1  0.25155288  0.00020151  -0.00418661  1
  Co  Co106  1  0.87441246  0.12564686  0.87448821  1
  Co  Co107  1  0.37455977  0.62320341  0.12240424  1
  Co  Co108  1  0.37579656  0.87730613  0.37584725  1
  Co  Co109  1  0.62217135  0.37133141  0.12642998  1
  Co  Co110  1  0.87269327  0.87509694  0.87564042  1
  Co  Co111  1  0.62398812  0.62692825  0.87608003  1
  Co  Co112  1  0.74673889  -0.00380464  0.49895226  1
  Co  Co113  1  0.12479420  0.37295942  0.37527808  1
  Co  Co114  1  0.37438046  0.37564296  0.87431565  1
  Co  Co115  1  0.12901451  0.87151831  0.37406386  1
  Co  Co116  1  0.37178979  0.12201652  0.62532864  1
  Co  Co117  1  -0.00028983  0.50125711  0.49744028  1
  Co  Co118  1  0.37821279  0.87647857  0.87178613  1
  Co  Co119  1  0.49479809  0.75005539  0.24865777  1
  Co  Co120  1  0.74946000  0.25227052  0.49867830  1
  Co  Co121  1  0.75335601  0.24921029  0.00450337  1
  Co  Co122  1  0.49598141  0.24862856  0.25260586  1
  Co  Co123  1  0.37516108  0.37879726  0.62215550  1
  Co  Co124  1  0.00452884  0.75125971  0.24828294  1
  Co  Co125  1  0.24974791  0.25302699  0.74839687  1
  Co  Co126  1  0.12282294  0.62656787  0.62497208  1
  Co  Co127  1  0.74709004  0.75047230  0.24885914  1
