# generated using pymatgen
data_Fe45Co19
_symmetry_space_group_name_H-M   'P 1'
_cell_length_a   11.41478853
_cell_length_b   11.41462867
_cell_length_c   11.41485359
_cell_angle_alpha   90.01308954
_cell_angle_beta   90.00505882
_cell_angle_gamma   90.00245032
_symmetry_Int_Tables_number   1
_chemical_formula_structural   Fe45Co19
_chemical_formula_sum   'Fe90 Co38'
_cell_volume   1487.30483652
_cell_formula_units_Z   2
loop_
 _symmetry_equiv_pos_site_id
 _symmetry_equiv_pos_as_xyz
  1  'x, y, z'
loop_
 _atom_site_type_symbol
 _atom_site_label
 _atom_site_symmetry_multiplicity
 _atom_site_fract_x
 _atom_site_fract_y
 _atom_site_fract_z
 _atom_site_occupancy
  Fe  Fe0  1  0.49926376  0.24836216  0.25028977  1
  Fe  Fe1  1  0.12470708  0.12256333  0.37221762  1
  Fe  Fe2  1  0.00097364  0.50504354  0.00344580  1
  Fe  Fe3  1  0.74824873  -0.00347698  0.00088688  1
  Fe  Fe4  1  0.87265614  0.62268714  0.37227459  1
  Fe  Fe5  1  0.74576536  0.74791062  0.24916611  1
  Fe  Fe6  1  0.12743102  0.12403424  0.87684804  1
  Fe  Fe7  1  0.50261729  0.50058941  0.75194015  1
  Fe  Fe8  1  0.50080539  0.00114424  0.24754603  1
  Fe  Fe9  1  0.37202466  0.12348826  0.12118003  1
  Fe  Fe10  1  0.12333615  0.87288610  0.62267777  1
  Fe  Fe11  1  0.37296451  0.62460764  0.87246303  1
  Fe  Fe12  1  0.61994742  0.86925604  0.12344309  1
  Fe  Fe13  1  0.50058649  0.75326852  0.49804959  1
  Fe  Fe14  1  0.87657979  0.37858726  0.37428517  1
  Fe  Fe15  1  0.25010643  0.50016911  0.00105987  1
  Fe  Fe16  1  -0.00351193  0.00023281  0.49520412  1
  Fe  Fe17  1  0.37732534  0.37609780  0.12333708  1
  Fe  Fe18  1  0.50150660  -0.00043102  0.75184746  1
  Fe  Fe19  1  -0.00079297  0.74566842  0.50074184  1
  Fe  Fe20  1  0.50145375  0.50383978  -0.00350000  1
  Fe  Fe21  1  0.49815174  0.24713289  0.49779588  1
  Fe  Fe22  1  0.62507916  0.62827655  0.62542533  1
  Fe  Fe23  1  0.37654640  0.62582640  0.12790337  1
  Fe  Fe24  1  0.75156384  0.25067824  0.75234013  1
  Fe  Fe25  1  0.87960183  0.37391307  0.62421716  1
  Fe  Fe26  1  0.50068406  0.25039155  0.75453333  1
  Fe  Fe27  1  0.87546919  0.12394989  0.12578397  1
  Fe  Fe28  1  0.75210054  -0.00230217  0.49756050  1
  Fe  Fe29  1  0.25194893  0.75176769  0.00278104  1
  Fe  Fe30  1  0.24961145  -0.00044978  0.50050012  1
  Fe  Fe31  1  0.24952066  0.25118843  0.75217055  1
  Fe  Fe32  1  0.00280791  0.00103564  0.00335050  1
  Fe  Fe33  1  0.87313435  0.12346755  0.87674618  1
  Fe  Fe34  1  0.75050978  0.75225360  0.75072895  1
  Fe  Fe35  1  0.12141362  0.37384224  0.62371614  1
  Fe  Fe36  1  0.37578874  0.37409595  0.62598685  1
  Fe  Fe37  1  0.25205776  0.25055121  0.24984214  1
  Fe  Fe38  1  0.62698687  0.12548454  0.12260836  1
  Fe  Fe39  1  0.62478872  0.37578281  0.12191970  1
  Fe  Fe40  1  0.12536317  0.37435341  0.12463350  1
  Fe  Fe41  1  0.74980638  0.25297886  0.24892205  1
  Fe  Fe42  1  0.37526050  0.62441980  0.37604281  1
  Fe  Fe43  1  0.62608269  0.12367136  0.62616842  1
  Fe  Fe44  1  -0.00135518  0.25013059  0.25093890  1
  Fe  Fe45  1  0.12295018  0.12597352  0.62501092  1
  Fe  Fe46  1  0.12361814  0.87290377  0.87600122  1
  Fe  Fe47  1  0.37442585  0.87790754  0.87690936  1
  Fe  Fe48  1  -0.00066350  0.74503533  0.00164306  1
  Fe  Fe49  1  0.75143880  0.25017241  0.49924714  1
  Fe  Fe50  1  0.24902103  0.75171647  0.74893198  1
  Fe  Fe51  1  0.24866250  0.49975120  0.74859907  1
  Fe  Fe52  1  0.74807310  0.75288693  0.49895036  1
  Fe  Fe53  1  0.24639891  -0.00337132  0.24455499  1
  Fe  Fe54  1  0.50518584  0.50195811  0.25195813  1
  Fe  Fe55  1  0.74974241  -0.00200484  0.75140233  1
  Fe  Fe56  1  0.74924951  0.49848997  0.49934017  1
  Fe  Fe57  1  0.87787710  0.87267112  0.12577688  1
  Fe  Fe58  1  0.50113359  -0.00020911  0.49954889  1
  Fe  Fe59  1  0.00120896  -0.00016805  0.75019066  1
  Fe  Fe60  1  0.50051490  0.24927552  -0.00338906  1
  Fe  Fe61  1  0.37421837  0.12414621  0.62708212  1
  Fe  Fe62  1  0.75191235  -0.00330063  0.24967087  1
  Fe  Fe63  1  0.62701489  0.12421261  0.37393509  1
  Fe  Fe64  1  0.87650083  0.87385899  0.62523598  1
  Fe  Fe65  1  0.87434945  0.62676295  0.87349035  1
  Fe  Fe66  1  0.25067891  0.75283909  0.25020037  1
  Fe  Fe67  1  0.24978449  0.49879134  0.24978482  1
  Fe  Fe68  1  0.37461585  0.62640263  0.62430300  1
  Fe  Fe69  1  -0.00100507  0.25004667  -0.00030449  1
  Fe  Fe70  1  0.87433739  0.37915607  0.12583326  1
  Fe  Fe71  1  0.62256646  0.87103304  0.87688879  1
  Fe  Fe72  1  0.12279395  0.37705275  0.37618830  1
  Fe  Fe73  1  0.25046237  0.24899792  0.49828773  1
  Fe  Fe74  1  0.00084694  0.50565645  0.74675972  1
  Fe  Fe75  1  0.87808874  0.87386279  0.87596787  1
  Fe  Fe76  1  0.87680423  0.12597262  0.62553619  1
  Fe  Fe77  1  0.37511564  0.87558431  0.62523110  1
  Fe  Fe78  1  0.12375623  0.37739256  0.87573029  1
  Fe  Fe79  1  0.50171536  0.49912328  0.49948591  1
  Fe  Fe80  1  0.37702302  0.37517398  0.37459727  1
  Fe  Fe81  1  0.12740433  0.62444654  0.37582457  1
  Fe  Fe82  1  0.00252905  0.74727913  0.25013205  1
  Fe  Fe83  1  0.74893510  0.50027831  0.74942711  1
  Fe  Fe84  1  0.74904824  0.50578378  0.00240893  1
  Fe  Fe85  1  0.37505953  0.87823935  0.37257897  1
  Fe  Fe86  1  0.37156171  0.12116449  0.87762877  1
  Fe  Fe87  1  0.24991734  0.49917240  0.50113171  1
  Fe  Fe88  1  0.62393518  0.37254704  0.62527922  1
  Fe  Fe89  1  0.87468284  0.37733603  0.87627483  1
  Co  Co90  1  0.62580580  0.62578958  0.37845057  1
  Co  Co91  1  0.12348291  0.87477090  0.37651230  1
  Co  Co92  1  0.37480592  0.37734871  0.87530285  1
  Co  Co93  1  0.12959363  0.62709545  0.62398132  1
  Co  Co94  1  -0.00034375  0.24902189  0.75409070  1
  Co  Co95  1  0.75221070  0.24984752  0.00114554  1
  Co  Co96  1  0.49790700  0.75070169  0.74984932  1
  Co  Co97  1  0.87380534  0.62485060  0.12987689  1
  Co  Co98  1  0.25034234  0.25226308  -0.00118722  1
  Co  Co99  1  -0.00134962  -0.00098490  0.25115142  1
  Co  Co100  1  0.49485551  0.74708074  -0.00231527  1
  Co  Co101  1  0.62703054  0.62936357  0.87395836  1
  Co  Co102  1  0.37948450  0.87478617  0.12557557  1
  Co  Co103  1  0.49975965  0.74838711  0.25447959  1
  Co  Co104  1  0.62387823  0.37151076  0.37572916  1
  Co  Co105  1  0.62802533  0.12521684  0.87548499  1
  Co  Co106  1  0.86932868  0.62705236  0.62520434  1
  Co  Co107  1  0.12427507  0.12814513  0.12651953  1
  Co  Co108  1  0.62176554  0.62855749  0.12239290  1
  Co  Co109  1  0.24604056  -0.00389235  0.00491601  1
  Co  Co110  1  0.62838312  0.37580737  0.87704818  1
  Co  Co111  1  0.87225090  0.12615962  0.37208986  1
  Co  Co112  1  -0.00062167  0.50519688  0.50203075  1
  Co  Co113  1  0.37312222  0.12078884  0.37284680  1
  Co  Co114  1  0.25281214  0.75176076  0.49782147  1
  Co  Co115  1  0.12682810  0.62643827  0.87607870  1
  Co  Co116  1  0.00001390  0.24788592  0.49607894  1
  Co  Co117  1  0.12015653  0.87170419  0.12493287  1
  Co  Co118  1  0.87553193  0.86984653  0.37261080  1
  Co  Co119  1  0.75301572  0.74987686  0.00083609  1
  Co  Co120  1  0.50298415  -0.00028227  -0.00011384  1
  Co  Co121  1  0.62548202  0.87567785  0.62638341  1
  Co  Co122  1  0.00278995  0.50208277  0.24829054  1
  Co  Co123  1  0.24750940  -0.00196049  0.74871117  1
  Co  Co124  1  0.62442900  0.87773842  0.37261714  1
  Co  Co125  1  0.74425303  0.50023879  0.24990193  1
  Co  Co126  1  0.00057025  0.74727779  0.74808135  1
  Co  Co127  1  0.12937671  0.62587952  0.12534826  1
