# generated using pymatgen
data_Fe45Co19
_symmetry_space_group_name_H-M   'P 1'
_cell_length_a   11.41530355
_cell_length_b   11.41537951
_cell_length_c   11.41357868
_cell_angle_alpha   90.00271407
_cell_angle_beta   90.00068322
_cell_angle_gamma   90.00736371
_symmetry_Int_Tables_number   1
_chemical_formula_structural   Fe45Co19
_chemical_formula_sum   'Fe90 Co38'
_cell_volume   1487.30367792
_cell_formula_units_Z   2
loop_
 _symmetry_equiv_pos_site_id
 _symmetry_equiv_pos_as_xyz
  1  'x, y, z'
loop_
 _atom_site_type_symbol
 _atom_site_label
 _atom_site_symmetry_multiplicity
 _atom_site_fract_x
 _atom_site_fract_y
 _atom_site_fract_z
 _atom_site_occupancy
  Fe  Fe0  1  0.75202461  -0.00285280  -0.00429420  1
  Fe  Fe1  1  0.50023143  0.49627256  0.50090529  1
  Fe  Fe2  1  0.12475182  0.37537504  0.37787949  1
  Fe  Fe3  1  0.00047934  0.25074241  -0.00177724  1
  Fe  Fe4  1  0.25119723  0.24803036  -0.00282959  1
  Fe  Fe5  1  0.00048275  0.25009562  0.24985341  1
  Fe  Fe6  1  0.75072242  -0.00119793  0.25206047  1
  Fe  Fe7  1  0.12418175  0.12307894  0.12345724  1
  Fe  Fe8  1  0.87145213  0.87810431  0.62301347  1
  Fe  Fe9  1  0.37530734  0.62382652  0.62249241  1
  Fe  Fe10  1  0.12729229  0.87677280  0.12323018  1
  Fe  Fe11  1  0.37617724  0.37397324  0.87178122  1
  Fe  Fe12  1  0.12619828  0.87352468  0.37938220  1
  Fe  Fe13  1  0.00098222  0.50196546  -0.00285353  1
  Fe  Fe14  1  0.12502430  0.12277803  0.87409263  1
  Fe  Fe15  1  0.49910694  -0.00329818  0.74766803  1
  Fe  Fe16  1  0.25291546  0.50196493  0.25380911  1
  Fe  Fe17  1  0.12453898  0.12653481  0.37802020  1
  Fe  Fe18  1  -0.00012404  -0.00260941  0.74998255  1
  Fe  Fe19  1  0.87560781  0.12403816  0.87196302  1
  Fe  Fe20  1  0.74911802  0.50273317  -0.00230261  1
  Fe  Fe21  1  0.12676788  0.61670201  0.62371286  1
  Fe  Fe22  1  0.12485132  0.37796888  0.87042053  1
  Fe  Fe23  1  0.87532898  0.87497041  0.38036040  1
  Fe  Fe24  1  0.12706334  0.87587276  0.87653618  1
  Fe  Fe25  1  0.62521138  0.12293687  0.12588514  1
  Fe  Fe26  1  0.87662740  0.62748626  0.87267283  1
  Fe  Fe27  1  0.87598553  0.12386303  0.12351430  1
  Fe  Fe28  1  0.50480602  0.24722826  0.50312116  1
  Fe  Fe29  1  0.49769670  0.74934672  0.25065737  1
  Fe  Fe30  1  0.87512927  0.62537131  0.12603373  1
  Fe  Fe31  1  0.74855138  0.50180460  0.25282340  1
  Fe  Fe32  1  0.62649455  0.37086503  0.37672378  1
  Fe  Fe33  1  0.87283950  0.62182046  0.62186948  1
  Fe  Fe34  1  0.49743981  0.75076867  -0.00059437  1
  Fe  Fe35  1  0.24973530  0.25091563  0.74832393  1
  Fe  Fe36  1  0.00240662  0.74933069  0.74450921  1
  Fe  Fe37  1  0.74939390  0.75063593  0.25184667  1
  Fe  Fe38  1  0.50335349  0.50253677  0.74845115  1
  Fe  Fe39  1  0.74964893  0.24859036  0.24968146  1
  Fe  Fe40  1  -0.00224715  0.25315181  0.74764462  1
  Fe  Fe41  1  0.49961507  0.75366499  0.50504530  1
  Fe  Fe42  1  0.37340384  0.37464260  0.12622671  1
  Fe  Fe43  1  0.12745666  0.62577571  0.12442453  1
  Fe  Fe44  1  0.87689989  0.87506633  0.12515796  1
  Fe  Fe45  1  0.50256507  0.25074354  0.74798396  1
  Fe  Fe46  1  0.87246583  0.37695018  0.87294367  1
  Fe  Fe47  1  0.37514563  0.62638629  0.87365683  1
  Fe  Fe48  1  0.62674263  0.37539486  0.87186350  1
  Fe  Fe49  1  0.12300112  0.12476897  0.62518606  1
  Fe  Fe50  1  0.87246518  0.37398299  0.37644721  1
  Fe  Fe51  1  0.37264234  0.87420821  0.38036003  1
  Fe  Fe52  1  0.37469697  0.12820357  0.12874586  1
  Fe  Fe53  1  0.62585133  0.87533363  0.37800770  1
  Fe  Fe54  1  0.25254318  0.74681307  0.25278108  1
  Fe  Fe55  1  0.49993078  0.24961583  -0.00053326  1
  Fe  Fe56  1  0.50158203  0.00217853  0.50112226  1
  Fe  Fe57  1  0.12906271  0.87823722  0.62122592  1
  Fe  Fe58  1  0.62351184  0.87595439  0.12497139  1
  Fe  Fe59  1  0.00145580  0.75035355  0.25199162  1
  Fe  Fe60  1  0.25014600  0.50236817  -0.00346736  1
  Fe  Fe61  1  0.62391362  0.87212434  0.87153285  1
  Fe  Fe62  1  0.62233157  0.62749628  0.37824076  1
  Fe  Fe63  1  0.25044384  0.25145987  0.50335410  1
  Fe  Fe64  1  0.12475699  0.62345338  0.38139695  1
  Fe  Fe65  1  0.87670347  0.62624394  0.37858666  1
  Fe  Fe66  1  0.25112682  0.00203944  0.25386591  1
  Fe  Fe67  1  0.62650683  0.37538228  0.12477138  1
  Fe  Fe68  1  0.49902436  0.50029365  0.25085391  1
  Fe  Fe69  1  0.62313209  0.62645797  0.12437330  1
  Fe  Fe70  1  0.74981489  0.75126679  0.00002794  1
  Fe  Fe71  1  0.37228532  0.87547194  0.87223527  1
  Fe  Fe72  1  0.37473438  0.12393119  0.62618292  1
  Fe  Fe73  1  0.49813511  0.00067573  0.25317237  1
  Fe  Fe74  1  0.87420216  0.12443967  0.37924044  1
  Fe  Fe75  1  0.74569137  0.74687733  0.74637290  1
  Fe  Fe76  1  0.12601870  0.37584397  0.12470054  1
  Fe  Fe77  1  -0.00268658  0.25259372  0.50432809  1
  Fe  Fe78  1  0.00056704  -0.00034067  0.25263085  1
  Fe  Fe79  1  0.00087544  0.50013278  0.25172438  1
  Fe  Fe80  1  0.37607348  0.36973320  0.37438302  1
  Fe  Fe81  1  0.00193806  0.75044255  -0.00072362  1
  Fe  Fe82  1  0.62440717  0.12371075  0.87190008  1
  Fe  Fe83  1  0.86747463  0.37789724  0.62538100  1
  Fe  Fe84  1  0.25048934  0.74936489  0.74695942  1
  Fe  Fe85  1  0.49997612  0.50005383  -0.00074480  1
  Fe  Fe86  1  0.74936390  0.24889826  -0.00224931  1
  Fe  Fe87  1  0.37285215  0.87389518  0.12534853  1
  Fe  Fe88  1  0.49635768  0.00122913  -0.00154100  1
  Fe  Fe89  1  0.87528297  0.37625706  0.12471549  1
  Co  Co90  1  -0.00295736  0.49671602  0.50173744  1
  Co  Co91  1  0.24619551  0.25012014  0.25084187  1
  Co  Co92  1  0.25160012  0.00401625  0.49861021  1
  Co  Co93  1  0.62692556  0.87537556  0.62592021  1
  Co  Co94  1  0.24898236  0.74762030  0.50345610  1
  Co  Co95  1  0.25444251  0.49926030  0.74940480  1
  Co  Co96  1  0.62271511  0.62856727  0.87697430  1
  Co  Co97  1  0.62668192  0.12263778  0.63099744  1
  Co  Co98  1  0.75065638  0.24878347  0.74851076  1
  Co  Co99  1  -0.00258470  -0.00198711  -0.00288167  1
  Co  Co100  1  0.37778004  0.37353963  0.62700271  1
  Co  Co101  1  -0.00380698  0.49902375  0.74853066  1
  Co  Co102  1  0.37629369  0.12597769  0.86930172  1
  Co  Co103  1  0.74547609  0.00299900  0.50082800  1
  Co  Co104  1  0.24916731  0.00069714  0.74903118  1
  Co  Co105  1  0.37635414  0.12985352  0.37547637  1
  Co  Co106  1  0.62258687  0.62477240  0.62039989  1
  Co  Co107  1  0.75022992  -0.00168416  0.75218555  1
  Co  Co108  1  0.37551654  0.62446172  0.12363397  1
  Co  Co109  1  0.74710129  0.50118584  0.49702486  1
  Co  Co110  1  0.37790464  0.62637554  0.38087807  1
  Co  Co111  1  0.62894475  0.37650137  0.62624419  1
  Co  Co112  1  0.25472666  0.49550081  0.49951089  1
  Co  Co113  1  0.25444368  0.00345411  -0.00052586  1
  Co  Co114  1  0.74592265  0.50537280  0.75110611  1
  Co  Co115  1  0.49780771  0.74979163  0.74623715  1
  Co  Co116  1  0.00107750  -0.00081195  0.50078585  1
  Co  Co117  1  0.74789378  0.24529584  0.50378930  1
  Co  Co118  1  0.00106551  0.74978579  0.50444493  1
  Co  Co119  1  0.25051589  0.74870266  -0.00201695  1
  Co  Co120  1  0.12432308  0.62519883  0.86988108  1
  Co  Co121  1  0.62498402  0.12517533  0.37204569  1
  Co  Co122  1  0.87590518  0.86940762  0.87043821  1
  Co  Co123  1  0.12605780  0.37877518  0.62649473  1
  Co  Co124  1  0.50350782  0.25150856  0.24809078  1
  Co  Co125  1  0.74979976  0.74981270  0.50094483  1
  Co  Co126  1  0.87588430  0.12075588  0.62622929  1
  Co  Co127  1  0.37214968  0.87747325  0.62354644  1
