# generated using pymatgen
data_Fe45Co19
_symmetry_space_group_name_H-M   'P 1'
_cell_length_a   11.41452000
_cell_length_b   11.41476967
_cell_length_c   11.41583522
_cell_angle_alpha   89.99587255
_cell_angle_beta   90.00145459
_cell_angle_gamma   90.00837097
_symmetry_Int_Tables_number   1
_chemical_formula_structural   Fe45Co19
_chemical_formula_sum   'Fe90 Co38'
_cell_volume   1487.41614636
_cell_formula_units_Z   2
loop_
 _symmetry_equiv_pos_site_id
 _symmetry_equiv_pos_as_xyz
  1  'x, y, z'
loop_
 _atom_site_type_symbol
 _atom_site_label
 _atom_site_symmetry_multiplicity
 _atom_site_fract_x
 _atom_site_fract_y
 _atom_site_fract_z
 _atom_site_occupancy
  Fe  Fe0  1  0.62208307  0.12287941  0.37383899  1
  Fe  Fe1  1  0.50035485  0.24966373  0.50014094  1
  Fe  Fe2  1  0.37688057  0.87450823  0.37844350  1
  Fe  Fe3  1  0.87435864  0.12450674  0.37330567  1
  Fe  Fe4  1  0.74715152  -0.00073192  0.49834939  1
  Fe  Fe5  1  0.37961419  0.63022245  0.87464358  1
  Fe  Fe6  1  0.25208766  -0.00042339  0.75387237  1
  Fe  Fe7  1  0.12471926  0.37821748  0.12197407  1
  Fe  Fe8  1  0.87188784  0.62613010  0.37390082  1
  Fe  Fe9  1  -0.00096292  0.25102259  0.24864613  1
  Fe  Fe10  1  0.00131783  0.00016711  0.50078952  1
  Fe  Fe11  1  0.75214244  0.00188386  -0.00203859  1
  Fe  Fe12  1  0.12367440  0.37602310  0.62673819  1
  Fe  Fe13  1  0.62339074  0.12394170  0.12261158  1
  Fe  Fe14  1  0.87563749  0.62621205  0.87355827  1
  Fe  Fe15  1  0.12750858  0.87605732  0.88024262  1
  Fe  Fe16  1  0.37534951  0.12594137  0.62868725  1
  Fe  Fe17  1  0.49688097  -0.00111428  -0.00371645  1
  Fe  Fe18  1  0.49926566  0.25293705  0.24858001  1
  Fe  Fe19  1  -0.00019727  0.75219064  0.24976618  1
  Fe  Fe20  1  0.25200678  -0.00237027  0.24697417  1
  Fe  Fe21  1  0.87498738  0.12290146  0.62833274  1
  Fe  Fe22  1  0.62531478  0.37811338  0.62826795  1
  Fe  Fe23  1  0.62575189  0.87345629  0.12258517  1
  Fe  Fe24  1  0.87396404  0.87441862  0.62350843  1
  Fe  Fe25  1  -0.00249145  0.24701111  -0.00057567  1
  Fe  Fe26  1  0.49721543  0.75058144  0.24795858  1
  Fe  Fe27  1  0.12447574  0.12311226  0.12603825  1
  Fe  Fe28  1  0.62349001  0.62352496  0.63412520  1
  Fe  Fe29  1  0.00163247  0.50187956  0.49981015  1
  Fe  Fe30  1  0.74894761  0.24927943  0.50252219  1
  Fe  Fe31  1  0.87505620  0.62635564  0.62624363  1
  Fe  Fe32  1  0.37768787  0.12667008  0.12167872  1
  Fe  Fe33  1  0.49898709  -0.00334086  0.24811036  1
  Fe  Fe34  1  0.74817165  -0.00373719  0.25055043  1
  Fe  Fe35  1  0.37471995  0.87317559  0.62342479  1
  Fe  Fe36  1  0.00049353  0.75341765  0.75009311  1
  Fe  Fe37  1  0.00558980  0.74530295  0.00062323  1
  Fe  Fe38  1  -0.00040235  0.24930966  0.50034920  1
  Fe  Fe39  1  0.62487760  0.37594873  0.37552819  1
  Fe  Fe40  1  0.25108276  0.00078846  0.50087969  1
  Fe  Fe41  1  -0.00139671  0.49759487  0.24897582  1
  Fe  Fe42  1  0.74884381  -0.00183941  0.75287205  1
  Fe  Fe43  1  0.62363556  0.12375421  0.62885115  1
  Fe  Fe44  1  0.37154561  0.62124461  0.37800830  1
  Fe  Fe45  1  0.87487470  0.62530866  0.12617057  1
  Fe  Fe46  1  0.00241386  0.74905327  0.49956455  1
  Fe  Fe47  1  0.12741500  0.87462683  0.37423822  1
  Fe  Fe48  1  0.12554183  0.12609556  0.62779778  1
  Fe  Fe49  1  0.37524368  0.37754999  0.12123322  1
  Fe  Fe50  1  -0.00499986  0.49688099  0.75098284  1
  Fe  Fe51  1  0.12695703  0.37559625  0.37445736  1
  Fe  Fe52  1  0.12400172  0.37809739  0.87648667  1
  Fe  Fe53  1  0.37791310  0.37860018  0.62264154  1
  Fe  Fe54  1  0.25243050  0.25300636  0.24855662  1
  Fe  Fe55  1  -0.00008450  -0.00201697  0.24780711  1
  Fe  Fe56  1  0.62457336  0.86965938  0.87658314  1
  Fe  Fe57  1  0.74877674  0.25065996  0.24927137  1
  Fe  Fe58  1  0.49906677  0.49941181  0.25039642  1
  Fe  Fe59  1  0.12693153  0.87427443  0.62429677  1
  Fe  Fe60  1  0.49713092  -0.00439754  0.75396792  1
  Fe  Fe61  1  0.49980240  0.25265875  0.75342343  1
  Fe  Fe62  1  0.37309504  0.37387063  0.87835195  1
  Fe  Fe63  1  0.87787306  0.87519869  0.87673937  1
  Fe  Fe64  1  0.75039532  0.24498179  -0.00354600  1
  Fe  Fe65  1  0.25119181  0.74948699  0.75049107  1
  Fe  Fe66  1  0.24689422  0.50822805  0.00030872  1
  Fe  Fe67  1  0.87218955  0.87242020  0.37796596  1
  Fe  Fe68  1  0.50274294  0.50217667  -0.00291689  1
  Fe  Fe69  1  0.74786248  0.50304895  0.50184158  1
  Fe  Fe70  1  0.87297738  0.37634931  0.37741507  1
  Fe  Fe71  1  0.50118126  0.74639199  0.50272474  1
  Fe  Fe72  1  0.12924313  0.62448164  0.37146299  1
  Fe  Fe73  1  0.62771917  0.62850512  0.37085090  1
  Fe  Fe74  1  0.12341610  0.12453065  0.87254094  1
  Fe  Fe75  1  0.62504066  0.62678748  0.12598351  1
  Fe  Fe76  1  0.25062084  0.25225698  0.50124812  1
  Fe  Fe77  1  0.12642538  0.62471695  0.62745294  1
  Fe  Fe78  1  0.62887497  0.37552287  0.87308215  1
  Fe  Fe79  1  0.87351977  0.37571764  0.12117694  1
  Fe  Fe80  1  0.36921691  0.87004553  0.11705542  1
  Fe  Fe81  1  0.37595030  0.12495485  0.37472936  1
  Fe  Fe82  1  0.87643157  0.87453651  0.12163043  1
  Fe  Fe83  1  0.62619392  0.37566043  0.12309157  1
  Fe  Fe84  1  0.24936758  0.24720661  -0.00120810  1
  Fe  Fe85  1  0.62506422  0.87424072  0.62351297  1
  Fe  Fe86  1  0.12682915  0.12442612  0.37349974  1
  Fe  Fe87  1  0.25373170  0.50004354  0.74989462  1
  Fe  Fe88  1  0.74903407  0.50480981  -0.00243990  1
  Fe  Fe89  1  -0.00422454  0.25326488  0.75108916  1
  Co  Co90  1  0.75065459  0.74765339  -0.00066354  1
  Co  Co91  1  0.50192328  0.25289570  -0.00160305  1
  Co  Co92  1  0.25384098  0.75167314  0.24958961  1
  Co  Co93  1  0.87350404  0.37645207  0.62144536  1
  Co  Co94  1  -0.00031595  0.00328868  0.00213073  1
  Co  Co95  1  0.75076670  0.75391975  0.24676004  1
  Co  Co96  1  0.75410703  0.50052960  0.75217021  1
  Co  Co97  1  0.50252686  0.74871965  0.00192685  1
  Co  Co98  1  0.74696636  0.74686058  0.50340210  1
  Co  Co99  1  0.24678664  0.49792937  0.50338495  1
  Co  Co100  1  0.12469233  0.62539374  0.13405913  1
  Co  Co101  1  0.87759998  0.12187224  0.87008174  1
  Co  Co102  1  0.25014585  0.25386260  0.75069253  1
  Co  Co103  1  0.12756886  0.87368578  0.12135022  1
  Co  Co104  1  0.37075947  0.86869017  0.88050836  1
  Co  Co105  1  0.87351093  0.37612690  0.88000725  1
  Co  Co106  1  0.62176928  0.12455007  0.87401502  1
  Co  Co107  1  0.62216400  0.87214515  0.37650539  1
  Co  Co108  1  0.49664666  0.49778088  0.75501692  1
  Co  Co109  1  0.75017957  0.49902517  0.24851632  1
  Co  Co110  1  0.75161245  0.25011087  0.75030588  1
  Co  Co111  1  0.00251864  -0.00412041  0.74881320  1
  Co  Co112  1  0.37720724  0.12798775  0.87372150  1
  Co  Co113  1  0.87266922  0.12445164  0.12786333  1
  Co  Co114  1  0.00086768  0.50496127  0.00076188  1
  Co  Co115  1  0.49854261  0.75437402  0.74832360  1
  Co  Co116  1  0.12231219  0.62189670  0.86677833  1
  Co  Co117  1  0.25228033  0.49690036  0.24750922  1
  Co  Co118  1  0.49942779  0.00100557  0.50190361  1
  Co  Co119  1  0.25150959  0.00539497  -0.00170132  1
  Co  Co120  1  0.24924755  0.74952666  0.50050002  1
  Co  Co121  1  0.62319947  0.62812909  0.87078268  1
  Co  Co122  1  0.37521029  0.62340565  0.62461339  1
  Co  Co123  1  0.37666567  0.62387255  0.12367266  1
  Co  Co124  1  0.75188991  0.75193690  0.75130130  1
  Co  Co125  1  0.24346414  0.73924062  -0.00089643  1
  Co  Co126  1  0.50525589  0.50423594  0.49852924  1
  Co  Co127  1  0.37614303  0.37791968  0.37794710  1
