# generated using pymatgen
data_Fe45Co19
_symmetry_space_group_name_H-M   'P 1'
_cell_length_a   11.41544737
_cell_length_b   11.41563188
_cell_length_c   11.41387230
_cell_angle_alpha   89.99300165
_cell_angle_beta   90.00424900
_cell_angle_gamma   89.99860308
_symmetry_Int_Tables_number   1
_chemical_formula_structural   Fe45Co19
_chemical_formula_sum   'Fe90 Co38'
_cell_volume   1487.39355971
_cell_formula_units_Z   2
loop_
 _symmetry_equiv_pos_site_id
 _symmetry_equiv_pos_as_xyz
  1  'x, y, z'
loop_
 _atom_site_type_symbol
 _atom_site_label
 _atom_site_symmetry_multiplicity
 _atom_site_fract_x
 _atom_site_fract_y
 _atom_site_fract_z
 _atom_site_occupancy
  Fe  Fe0  1  0.75108350  -0.00367067  0.25364273  1
  Fe  Fe1  1  0.74836246  0.75329959  -0.00053275  1
  Fe  Fe2  1  0.12617369  0.87191667  0.87312200  1
  Fe  Fe3  1  0.50170432  0.00192628  -0.00015738  1
  Fe  Fe4  1  0.00031138  0.50131931  -0.00350689  1
  Fe  Fe5  1  -0.00127656  0.24706748  0.75045081  1
  Fe  Fe6  1  0.74770500  0.50019806  -0.00093678  1
  Fe  Fe7  1  0.62291390  0.37564850  0.62563727  1
  Fe  Fe8  1  0.25064981  0.25022880  0.50176921  1
  Fe  Fe9  1  0.25554678  0.75018467  0.50275055  1
  Fe  Fe10  1  0.25216815  0.25118990  0.24545825  1
  Fe  Fe11  1  0.87437249  0.37500017  0.87437445  1
  Fe  Fe12  1  0.12813194  0.37169347  0.87144898  1
  Fe  Fe13  1  0.49888346  0.75070643  0.25081588  1
  Fe  Fe14  1  0.74757659  0.49809407  0.49979792  1
  Fe  Fe15  1  0.87424350  0.62514781  0.12320658  1
  Fe  Fe16  1  0.74915666  0.50286764  0.74906555  1
  Fe  Fe17  1  0.62339333  0.87706404  0.12521543  1
  Fe  Fe18  1  -0.00111591  -0.00126862  0.49827136  1
  Fe  Fe19  1  0.37644306  0.87752958  0.12545514  1
  Fe  Fe20  1  0.62337512  0.62472766  0.12448887  1
  Fe  Fe21  1  0.24832847  -0.00203847  -0.00081498  1
  Fe  Fe22  1  0.37482812  0.62269277  0.12564262  1
  Fe  Fe23  1  0.74888197  0.74971455  0.25090873  1
  Fe  Fe24  1  0.37500895  0.37475915  0.37290957  1
  Fe  Fe25  1  0.12573842  0.12691056  0.37543761  1
  Fe  Fe26  1  0.62396216  0.37317059  0.37345561  1
  Fe  Fe27  1  0.75141658  0.25158269  0.25071395  1
  Fe  Fe28  1  0.50180418  0.00229314  0.25178516  1
  Fe  Fe29  1  0.74765877  0.25070897  0.00129017  1
  Fe  Fe30  1  0.12563897  0.12369070  0.12411039  1
  Fe  Fe31  1  0.25011106  0.49818504  -0.00125420  1
  Fe  Fe32  1  0.61879053  0.87191361  0.62732357  1
  Fe  Fe33  1  -0.00108010  0.00016305  0.25243455  1
  Fe  Fe34  1  0.12500992  0.87483954  0.62620402  1
  Fe  Fe35  1  -0.00340205  0.25162135  0.49884796  1
  Fe  Fe36  1  0.37465624  0.12410146  0.37669905  1
  Fe  Fe37  1  0.49967614  0.75043727  -0.00093423  1
  Fe  Fe38  1  0.00070939  0.50014971  0.49955386  1
  Fe  Fe39  1  0.37306432  0.62601945  0.87485472  1
  Fe  Fe40  1  0.74876669  -0.00321956  0.74811846  1
  Fe  Fe41  1  0.37503964  0.12137706  0.62168532  1
  Fe  Fe42  1  0.87033747  0.12373328  0.62171715  1
  Fe  Fe43  1  0.00001444  0.00409656  0.75262372  1
  Fe  Fe44  1  0.37634956  0.37165302  0.87809163  1
  Fe  Fe45  1  0.62186412  0.37413553  0.87701691  1
  Fe  Fe46  1  0.62675401  0.62999034  0.87199681  1
  Fe  Fe47  1  0.37540385  0.37689588  0.62715039  1
  Fe  Fe48  1  0.75126222  0.75470414  0.50338936  1
  Fe  Fe49  1  0.12811257  0.62638767  0.37638786  1
  Fe  Fe50  1  0.12608634  0.37615873  0.62704409  1
  Fe  Fe51  1  0.25298213  0.50090235  0.50002658  1
  Fe  Fe52  1  0.87674948  0.87310299  0.12738140  1
  Fe  Fe53  1  0.74906519  0.25106195  0.74863267  1
  Fe  Fe54  1  0.24891744  0.00219907  0.74952244  1
  Fe  Fe55  1  0.37548379  0.87440817  0.87347605  1
  Fe  Fe56  1  0.87456491  0.62659434  0.37682651  1
  Fe  Fe57  1  0.62904126  0.12467225  0.37931157  1
  Fe  Fe58  1  0.12388353  0.87228692  0.37521951  1
  Fe  Fe59  1  0.62051454  0.62862982  0.38051916  1
  Fe  Fe60  1  0.24880315  -0.00079206  0.25196083  1
  Fe  Fe61  1  0.50120778  0.24973826  0.50161332  1
  Fe  Fe62  1  0.00068029  0.50485452  0.75175172  1
  Fe  Fe63  1  0.12327312  0.37569314  0.12616014  1
  Fe  Fe64  1  0.87389528  0.87320204  0.87185117  1
  Fe  Fe65  1  0.50012256  0.49999245  0.25099585  1
  Fe  Fe66  1  0.00069516  0.50376566  0.25099795  1
  Fe  Fe67  1  0.50035941  0.50247865  0.75134774  1
  Fe  Fe68  1  -0.00153714  0.00146316  -0.00375017  1
  Fe  Fe69  1  0.50048508  0.24731319  0.24399477  1
  Fe  Fe70  1  0.25161995  0.75041139  0.25000134  1
  Fe  Fe71  1  0.12771025  0.62638709  0.12288660  1
  Fe  Fe72  1  0.12588422  0.37498139  0.37384527  1
  Fe  Fe73  1  0.12525746  0.12536849  0.62387995  1
  Fe  Fe74  1  0.74853749  0.50161615  0.25140038  1
  Fe  Fe75  1  -0.00023511  0.74909715  -0.00155354  1
  Fe  Fe76  1  0.62802974  0.12345684  0.87578011  1
  Fe  Fe77  1  0.87466743  0.37692755  0.12543617  1
  Fe  Fe78  1  0.49978717  0.24700331  0.74939197  1
  Fe  Fe79  1  -0.00351208  0.24898259  0.25256209  1
  Fe  Fe80  1  -0.00158119  0.74985887  0.50233643  1
  Fe  Fe81  1  0.87553231  0.37732941  0.62565770  1
  Fe  Fe82  1  0.50029685  0.00215916  0.75040614  1
  Fe  Fe83  1  0.37178392  0.12797657  0.87857961  1
  Fe  Fe84  1  -0.00037151  0.24752714  -0.00269097  1
  Fe  Fe85  1  0.25299788  0.74695956  0.74598666  1
  Fe  Fe86  1  0.37690341  0.87804663  0.37769395  1
  Fe  Fe87  1  -0.00163062  0.74440323  0.74925929  1
  Fe  Fe88  1  0.87274111  0.12398286  0.12374682  1
  Fe  Fe89  1  0.12390096  0.87384909  0.12481632  1
  Co  Co90  1  0.63050239  0.12070180  0.12639268  1
  Co  Co91  1  0.62253555  0.62611012  0.62216797  1
  Co  Co92  1  0.75212606  -0.00492493  -0.00071904  1
  Co  Co93  1  0.25263154  0.24830128  0.74615915  1
  Co  Co94  1  0.37721742  0.62406815  0.37426918  1
  Co  Co95  1  0.75050355  0.25566652  0.50065350  1
  Co  Co96  1  0.49970125  0.49635055  0.49868527  1
  Co  Co97  1  0.24994822  0.49975557  0.24974131  1
  Co  Co98  1  0.24915165  0.25244953  0.00490868  1
  Co  Co99  1  0.87987761  0.87626983  0.62860458  1
  Co  Co100  1  0.87326632  0.62292064  0.62303443  1
  Co  Co101  1  0.62343827  0.37767072  0.12485215  1
  Co  Co102  1  0.12630655  0.62415662  0.62370469  1
  Co  Co103  1  0.50445150  -0.00016024  0.50029877  1
  Co  Co104  1  0.87062201  0.12276276  0.37945787  1
  Co  Co105  1  0.12855843  0.62740504  0.87588048  1
  Co  Co106  1  0.75054692  0.75082774  0.74567054  1
  Co  Co107  1  0.50153175  0.50467958  -0.00303109  1
  Co  Co108  1  0.24652440  -0.00090918  0.49921220  1
  Co  Co109  1  0.50375121  0.24483972  0.00434237  1
  Co  Co110  1  0.12944493  0.12777419  0.87558829  1
  Co  Co111  1  0.38001265  0.62099113  0.62412116  1
  Co  Co112  1  0.25300763  0.75187545  0.00182687  1
  Co  Co113  1  0.62798275  0.12584485  0.62308157  1
  Co  Co114  1  0.87121378  0.62631937  0.87567277  1
  Co  Co115  1  0.37218506  0.12155670  0.12401360  1
  Co  Co116  1  0.25134243  0.50134026  0.75065002  1
  Co  Co117  1  0.87739266  0.87210747  0.37286984  1
  Co  Co118  1  0.87550026  0.37840370  0.37380503  1
  Co  Co119  1  0.62244104  0.87219880  0.37485097  1
  Co  Co120  1  0.00164165  0.74606271  0.24902645  1
  Co  Co121  1  0.37545011  0.88060426  0.62583479  1
  Co  Co122  1  0.38015155  0.37806397  0.12154427  1
  Co  Co123  1  0.49384889  0.75250072  0.50212927  1
  Co  Co124  1  0.49659958  0.74843673  0.74976762  1
  Co  Co125  1  0.74839872  -0.00835650  0.50184300  1
  Co  Co126  1  0.86892327  0.12526312  0.87400174  1
  Co  Co127  1  0.62316828  0.87448139  0.87359850  1
