# generated using pymatgen
data_Fe45Co19
_symmetry_space_group_name_H-M   'P 1'
_cell_length_a   11.41515498
_cell_length_b   11.41530158
_cell_length_c   11.41446498
_cell_angle_alpha   89.98233791
_cell_angle_beta   89.99720396
_cell_angle_gamma   90.00798980
_symmetry_Int_Tables_number   1
_chemical_formula_structural   Fe45Co19
_chemical_formula_sum   'Fe90 Co38'
_cell_volume   1487.38958525
_cell_formula_units_Z   2
loop_
 _symmetry_equiv_pos_site_id
 _symmetry_equiv_pos_as_xyz
  1  'x, y, z'
loop_
 _atom_site_type_symbol
 _atom_site_label
 _atom_site_symmetry_multiplicity
 _atom_site_fract_x
 _atom_site_fract_y
 _atom_site_fract_z
 _atom_site_occupancy
  Fe  Fe0  1  0.24980031  0.50019898  0.24886703  1
  Fe  Fe1  1  -0.00054854  0.50098378  0.49966244  1
  Fe  Fe2  1  0.37555285  0.37410139  0.12157198  1
  Fe  Fe3  1  0.24940928  0.74891771  0.75181911  1
  Fe  Fe4  1  0.74769191  0.75052835  0.24516670  1
  Fe  Fe5  1  0.37506312  0.12679651  0.37809609  1
  Fe  Fe6  1  0.12390238  0.12492150  0.12388786  1
  Fe  Fe7  1  0.37382424  0.87381884  0.37575776  1
  Fe  Fe8  1  0.87240701  0.37434865  0.37475098  1
  Fe  Fe9  1  0.37652239  0.87357941  0.62609197  1
  Fe  Fe10  1  0.12418321  0.37557058  0.62708207  1
  Fe  Fe11  1  0.87826847  0.62695551  0.12325229  1
  Fe  Fe12  1  0.50114465  0.24746035  -0.00259262  1
  Fe  Fe13  1  0.62292949  0.12243601  0.12357016  1
  Fe  Fe14  1  0.74746426  0.49858132  0.50128178  1
  Fe  Fe15  1  -0.00277257  0.75144834  0.75245584  1
  Fe  Fe16  1  0.74954355  0.49776758  0.24443524  1
  Fe  Fe17  1  0.12446884  0.37630923  0.37487395  1
  Fe  Fe18  1  0.25276860  0.50159271  0.75439832  1
  Fe  Fe19  1  0.62596804  0.62337269  0.37251386  1
  Fe  Fe20  1  0.37795575  0.37663281  0.62560970  1
  Fe  Fe21  1  0.75207965  -0.00021446  0.24701092  1
  Fe  Fe22  1  0.74996765  -0.00171782  0.50435204  1
  Fe  Fe23  1  0.87474723  0.12447998  0.62537125  1
  Fe  Fe24  1  0.62798951  0.11803020  0.87464121  1
  Fe  Fe25  1  0.62641728  0.37648156  0.87325055  1
  Fe  Fe26  1  0.50066547  0.50006899  -0.00275394  1
  Fe  Fe27  1  0.86761761  0.87457276  0.87652569  1
  Fe  Fe28  1  0.87263701  0.62825259  0.62424721  1
  Fe  Fe29  1  0.62846400  0.62506535  0.87428536  1
  Fe  Fe30  1  0.74914475  0.24858572  0.00112088  1
  Fe  Fe31  1  0.49839008  0.00070294  0.25084740  1
  Fe  Fe32  1  -0.00060234  0.24901517  0.75115771  1
  Fe  Fe33  1  0.50598847  0.75383011  -0.00102975  1
  Fe  Fe34  1  0.25016461  0.50018905  0.50066220  1
  Fe  Fe35  1  0.50169245  0.75143052  0.24843922  1
  Fe  Fe36  1  0.75005263  0.50002468  0.00173925  1
  Fe  Fe37  1  -0.00363798  -0.00073753  -0.00095297  1
  Fe  Fe38  1  0.49932813  -0.00273088  0.75361907  1
  Fe  Fe39  1  0.37683611  0.12533309  0.62536869  1
  Fe  Fe40  1  0.37543257  0.12534845  0.12317180  1
  Fe  Fe41  1  0.00080494  0.74841341  0.49702774  1
  Fe  Fe42  1  0.37604558  0.37468822  0.37761743  1
  Fe  Fe43  1  0.87487113  0.37241574  0.87632814  1
  Fe  Fe44  1  0.25037927  -0.00000382  0.25082193  1
  Fe  Fe45  1  0.87775501  0.12695185  0.12570906  1
  Fe  Fe46  1  0.12487785  0.12369222  0.87264918  1
  Fe  Fe47  1  0.24674764  0.74843469  -0.00169135  1
  Fe  Fe48  1  0.12584825  0.87702334  0.87292078  1
  Fe  Fe49  1  0.87231006  0.12369599  0.87324847  1
  Fe  Fe50  1  0.00178452  0.49627310  -0.00007572  1
  Fe  Fe51  1  -0.00158148  0.24969772  0.49916401  1
  Fe  Fe52  1  0.12234499  0.87647635  0.62646785  1
  Fe  Fe53  1  0.50264278  0.74765792  0.49880111  1
  Fe  Fe54  1  0.87319589  0.62395958  0.37370131  1
  Fe  Fe55  1  0.25106101  0.25046484  0.74991020  1
  Fe  Fe56  1  0.62874551  0.12636794  0.37742832  1
  Fe  Fe57  1  0.62662993  0.62336258  0.62771074  1
  Fe  Fe58  1  0.87431273  0.62842227  0.87845968  1
  Fe  Fe59  1  0.50394265  0.75130530  0.75416157  1
  Fe  Fe60  1  0.24807418  0.49999471  -0.00348537  1
  Fe  Fe61  1  0.12247007  0.87711736  0.12492908  1
  Fe  Fe62  1  0.50115176  0.25022317  0.25034442  1
  Fe  Fe63  1  0.25018144  0.00052548  0.50161282  1
  Fe  Fe64  1  0.62641826  0.87520519  0.37470211  1
  Fe  Fe65  1  0.50112240  -0.00118580  0.49962187  1
  Fe  Fe66  1  0.24804882  0.25142487  -0.00305490  1
  Fe  Fe67  1  0.87463359  0.87556056  0.37457077  1
  Fe  Fe68  1  0.50534448  0.25357485  0.50173230  1
  Fe  Fe69  1  0.25058344  0.25019947  0.25064684  1
  Fe  Fe70  1  0.12344501  0.62466865  0.62728745  1
  Fe  Fe71  1  0.25368107  0.00030241  -0.00284006  1
  Fe  Fe72  1  0.37709999  0.62521480  0.62619177  1
  Fe  Fe73  1  0.50013056  0.49735887  0.24980081  1
  Fe  Fe74  1  0.37461126  0.62543860  0.37497344  1
  Fe  Fe75  1  0.24802289  0.75030505  0.25048444  1
  Fe  Fe76  1  0.12227690  0.62405937  0.12459907  1
  Fe  Fe77  1  0.24776482  0.74984442  0.49990939  1
  Fe  Fe78  1  -0.00142312  0.00113823  0.49855558  1
  Fe  Fe79  1  -0.00059940  0.25078301  0.24961192  1
  Fe  Fe80  1  0.50207762  0.25001015  0.75097519  1
  Fe  Fe81  1  0.87325875  0.37456678  0.62579698  1
  Fe  Fe82  1  -0.00385261  0.50065057  0.75122865  1
  Fe  Fe83  1  0.74938930  0.25145629  0.24765316  1
  Fe  Fe84  1  0.12466331  0.12369503  0.62709796  1
  Fe  Fe85  1  0.74749882  0.24940219  0.74719194  1
  Fe  Fe86  1  0.00234461  0.75047346  0.25230450  1
  Fe  Fe87  1  0.12499762  0.12497080  0.37520751  1
  Fe  Fe88  1  0.37703458  0.62644540  0.12198855  1
  Fe  Fe89  1  0.37610056  0.87465823  0.12333366  1
  Co  Co90  1  0.37432789  0.12683942  0.87320547  1
  Co  Co91  1  0.62373171  0.88116122  0.12377497  1
  Co  Co92  1  0.74831519  0.25082881  0.50513230  1
  Co  Co93  1  0.50265995  0.50118944  0.49927595  1
  Co  Co94  1  0.63218557  0.88051797  0.87786154  1
  Co  Co95  1  0.25351222  -0.00032481  0.74955035  1
  Co  Co96  1  0.87772848  0.87205817  0.62249892  1
  Co  Co97  1  0.62775309  0.37416469  0.37400986  1
  Co  Co98  1  0.62208574  0.62215600  0.12514671  1
  Co  Co99  1  0.74592796  0.74921949  0.00550370  1
  Co  Co100  1  0.24926882  0.25057306  0.50201994  1
  Co  Co101  1  0.37348008  0.87089407  0.87572523  1
  Co  Co102  1  -0.00133534  0.49909291  0.24935730  1
  Co  Co103  1  0.12545090  0.37417600  0.12574619  1
  Co  Co104  1  0.00143090  0.75411030  -0.00289797  1
  Co  Co105  1  0.12120981  0.62385003  0.87352344  1
  Co  Co106  1  -0.00033384  0.00093189  0.24973224  1
  Co  Co107  1  0.37644692  0.62885540  0.87807747  1
  Co  Co108  1  0.49597389  -0.00058190  -0.00327107  1
  Co  Co109  1  0.12596156  0.62266473  0.37482727  1
  Co  Co110  1  0.62326432  0.37395922  0.12224439  1
  Co  Co111  1  0.37650340  0.37393021  0.87567906  1
  Co  Co112  1  0.49780749  0.50264938  0.75347013  1
  Co  Co113  1  0.75057307  -0.00280216  0.74305325  1
  Co  Co114  1  0.87587237  0.37330463  0.12223306  1
  Co  Co115  1  0.62506508  0.38027007  0.63009181  1
  Co  Co116  1  0.74960315  0.75171657  0.74893991  1
  Co  Co117  1  0.00104600  0.24825223  -0.00152553  1
  Co  Co118  1  0.62249864  0.87328003  0.62485819  1
  Co  Co119  1  0.75504300  0.00138635  0.00636438  1
  Co  Co120  1  0.87133906  0.12533930  0.37491305  1
  Co  Co121  1  0.62301884  0.12288418  0.62555765  1
  Co  Co122  1  0.87765264  0.87151398  0.12623431  1
  Co  Co123  1  0.75481409  0.50135066  0.75198544  1
  Co  Co124  1  0.74784918  0.75025501  0.49980417  1
  Co  Co125  1  0.12307625  0.37512296  0.87175000  1
  Co  Co126  1  0.12502477  0.87712707  0.37636494  1
  Co  Co127  1  -0.00402424  -0.00163073  0.75222343  1
