# generated using pymatgen
data_Fe45Co19
_symmetry_space_group_name_H-M   'P 1'
_cell_length_a   11.41603228
_cell_length_b   11.41523889
_cell_length_c   11.41530698
_cell_angle_alpha   89.99863503
_cell_angle_beta   89.99943803
_cell_angle_gamma   90.00758432
_symmetry_Int_Tables_number   1
_chemical_formula_structural   Fe45Co19
_chemical_formula_sum   'Fe90 Co38'
_cell_volume   1487.60552825
_cell_formula_units_Z   2
loop_
 _symmetry_equiv_pos_site_id
 _symmetry_equiv_pos_as_xyz
  1  'x, y, z'
loop_
 _atom_site_type_symbol
 _atom_site_label
 _atom_site_symmetry_multiplicity
 _atom_site_fract_x
 _atom_site_fract_y
 _atom_site_fract_z
 _atom_site_occupancy
  Fe  Fe0  1  0.74693673  0.75083719  0.74805785  1
  Fe  Fe1  1  0.37470803  0.12213936  0.12821337  1
  Fe  Fe2  1  0.12675040  0.12344418  0.12427992  1
  Fe  Fe3  1  -0.00149162  -0.00127241  0.25162232  1
  Fe  Fe4  1  0.62293240  0.87512686  0.61819415  1
  Fe  Fe5  1  0.62518100  0.87271219  0.12640817  1
  Fe  Fe6  1  0.87686884  0.37323128  0.37395999  1
  Fe  Fe7  1  -0.00359724  0.24581062  0.75353021  1
  Fe  Fe8  1  0.87170192  0.62598572  0.12290429  1
  Fe  Fe9  1  -0.00082900  0.50049628  0.00136793  1
  Fe  Fe10  1  0.62458040  0.37560362  0.37535631  1
  Fe  Fe11  1  0.49813855  0.49922910  0.25392956  1
  Fe  Fe12  1  0.62468650  0.37398030  0.12695088  1
  Fe  Fe13  1  0.24858882  0.75190646  0.25194569  1
  Fe  Fe14  1  0.49951245  0.24841292  0.00060074  1
  Fe  Fe15  1  0.12464618  0.37495574  0.37515563  1
  Fe  Fe16  1  0.25383245  0.74960655  0.74976824  1
  Fe  Fe17  1  0.87299059  0.87369980  0.62037851  1
  Fe  Fe18  1  0.37519554  0.62635633  0.12718377  1
  Fe  Fe19  1  0.87495078  0.37399151  0.62634699  1
  Fe  Fe20  1  0.12450297  0.37551597  0.87332622  1
  Fe  Fe21  1  -0.00058761  0.50283670  0.24817638  1
  Fe  Fe22  1  0.62668078  0.12705172  0.12715200  1
  Fe  Fe23  1  0.87211842  0.62539222  0.87613184  1
  Fe  Fe24  1  0.37582270  0.37413951  0.12654083  1
  Fe  Fe25  1  0.12312357  0.12481409  0.37452527  1
  Fe  Fe26  1  0.25134517  0.25056021  0.74995241  1
  Fe  Fe27  1  0.50130152  -0.00022830  0.00273765  1
  Fe  Fe28  1  0.62221275  0.87291575  0.87495102  1
  Fe  Fe29  1  0.75241863  0.25443294  -0.00068507  1
  Fe  Fe30  1  0.25172878  0.50098478  -0.00135860  1
  Fe  Fe31  1  0.12460861  0.87550709  0.12490205  1
  Fe  Fe32  1  0.12507044  0.37622463  0.12472783  1
  Fe  Fe33  1  0.25154564  0.75068382  0.00013234  1
  Fe  Fe34  1  0.12420717  0.12248715  0.62923686  1
  Fe  Fe35  1  0.12331736  0.62626601  0.37508315  1
  Fe  Fe36  1  -0.00258451  0.00083657  0.50062002  1
  Fe  Fe37  1  0.75162669  0.24910487  0.49887882  1
  Fe  Fe38  1  0.24946862  0.75018637  0.49773145  1
  Fe  Fe39  1  0.00063668  0.74903504  0.00065484  1
  Fe  Fe40  1  0.62582923  0.62694254  0.12665042  1
  Fe  Fe41  1  0.37584645  0.62352475  0.62100353  1
  Fe  Fe42  1  0.12067775  0.87327403  0.37556883  1
  Fe  Fe43  1  0.24997665  0.49932019  0.25211136  1
  Fe  Fe44  1  0.12503342  0.87710487  0.62706001  1
  Fe  Fe45  1  0.50003797  -0.00033690  0.74775620  1
  Fe  Fe46  1  0.62406860  0.12364824  0.37405283  1
  Fe  Fe47  1  0.49952576  0.50202836  0.74950619  1
  Fe  Fe48  1  -0.00168530  0.24856157  -0.00246786  1
  Fe  Fe49  1  0.87509143  0.62867287  0.37808871  1
  Fe  Fe50  1  0.75245989  0.49778262  0.24980925  1
  Fe  Fe51  1  0.37531256  0.12502077  0.62577433  1
  Fe  Fe52  1  0.74819277  -0.00268015  0.00083355  1
  Fe  Fe53  1  0.37448580  0.87721310  0.12876918  1
  Fe  Fe54  1  0.12694234  0.62549743  0.87444723  1
  Fe  Fe55  1  0.37489480  0.37836529  0.62133779  1
  Fe  Fe56  1  0.49894342  0.25011955  0.49856483  1
  Fe  Fe57  1  0.25077911  0.24993631  0.25118917  1
  Fe  Fe58  1  -0.00012365  0.24889312  0.50112320  1
  Fe  Fe59  1  0.24990241  0.00014874  0.49882182  1
  Fe  Fe60  1  0.75164274  -0.00187951  0.25489807  1
  Fe  Fe61  1  0.37664753  0.12167148  0.37181458  1
  Fe  Fe62  1  0.37849403  0.87400015  0.87497190  1
  Fe  Fe63  1  -0.00039483  0.25000377  0.24778218  1
  Fe  Fe64  1  0.62388325  0.37352296  0.87347426  1
  Fe  Fe65  1  0.24988322  0.24836051  -0.00086407  1
  Fe  Fe66  1  0.87091919  0.62657775  0.62246076  1
  Fe  Fe67  1  0.24966979  0.24907646  0.49916246  1
  Fe  Fe68  1  -0.00000002  0.50081868  0.50118459  1
  Fe  Fe69  1  0.37928089  0.87262262  0.61890550  1
  Fe  Fe70  1  0.50169189  0.75142271  0.25756154  1
  Fe  Fe71  1  0.75049339  -0.00044273  0.74700886  1
  Fe  Fe72  1  0.87557154  0.87419434  0.12490898  1
  Fe  Fe73  1  0.87385628  0.87473336  0.87517955  1
  Fe  Fe74  1  0.62271500  0.62911962  0.87638525  1
  Fe  Fe75  1  0.62652047  0.12637722  0.87299983  1
  Fe  Fe76  1  0.87269294  0.12581887  0.12600660  1
  Fe  Fe77  1  0.62603731  0.12721773  0.62573034  1
  Fe  Fe78  1  -0.00071186  0.50238144  0.74885056  1
  Fe  Fe79  1  0.12544760  0.37560286  0.62682473  1
  Fe  Fe80  1  0.62405256  0.37594257  0.62377589  1
  Fe  Fe81  1  0.74996006  0.75363408  0.25546690  1
  Fe  Fe82  1  -0.00076898  0.75052828  0.74819492  1
  Fe  Fe83  1  0.37479041  0.12305818  0.87384421  1
  Fe  Fe84  1  0.00050483  0.00197795  -0.00292983  1
  Fe  Fe85  1  0.37634219  0.37592013  0.87433527  1
  Fe  Fe86  1  0.12619655  0.87817378  0.87197558  1
  Fe  Fe87  1  0.12746763  0.62408783  0.62565617  1
  Fe  Fe88  1  0.74905423  0.49923652  0.75068358  1
  Fe  Fe89  1  0.50122155  0.50198344  0.00127094  1
  Co  Co90  1  0.74612366  0.49876463  -0.00009871  1
  Co  Co91  1  0.75293814  0.00359506  0.49803033  1
  Co  Co92  1  0.86905096  0.12221409  0.87641792  1
  Co  Co93  1  -0.00075012  0.74820134  0.24612380  1
  Co  Co94  1  0.74935625  0.25105255  0.25187739  1
  Co  Co95  1  0.87794809  0.87082198  0.37964440  1
  Co  Co96  1  0.74915224  0.75153432  0.00013652  1
  Co  Co97  1  0.87598467  0.37815020  0.87399564  1
  Co  Co98  1  0.37839203  0.62681298  0.87630901  1
  Co  Co99  1  0.50108908  0.50272834  0.49644631  1
  Co  Co100  1  0.25180960  0.50106537  0.75076485  1
  Co  Co101  1  0.75209118  0.25144643  0.74975494  1
  Co  Co102  1  0.24602328  0.49999494  0.49848853  1
  Co  Co103  1  0.12831775  0.62421324  0.12431476  1
  Co  Co104  1  0.49925652  0.25061425  0.25109890  1
  Co  Co105  1  0.25561387  -0.00280974  0.74754862  1
  Co  Co106  1  0.00260244  0.74833081  0.50484639  1
  Co  Co107  1  0.49796639  0.25084213  0.74870689  1
  Co  Co108  1  0.50068887  0.74873584  0.74482812  1
  Co  Co109  1  0.37425680  0.37519314  0.37759194  1
  Co  Co110  1  0.62227179  0.88077532  0.38175073  1
  Co  Co111  1  0.62632130  0.62171193  0.62412776  1
  Co  Co112  1  0.62984370  0.61984859  0.37323141  1
  Co  Co113  1  0.37180168  0.62473498  0.37566969  1
  Co  Co114  1  0.87548794  0.37504334  0.12567218  1
  Co  Co115  1  0.75268755  0.49716892  0.49951189  1
  Co  Co116  1  0.74362279  0.74906925  0.49788539  1
  Co  Co117  1  0.25126055  -0.00119122  0.00010850  1
  Co  Co118  1  0.49894488  0.75156704  0.00456892  1
  Co  Co119  1  0.50425140  -0.00178927  0.24747147  1
  Co  Co120  1  0.37806702  0.87726030  0.37720245  1
  Co  Co121  1  0.87671875  0.12660702  0.37336819  1
  Co  Co122  1  -0.00508835  -0.00057598  0.74972722  1
  Co  Co123  1  0.12811698  0.12177660  0.87146019  1
  Co  Co124  1  0.87466197  0.12578607  0.62482366  1
  Co  Co125  1  0.49825568  0.00505602  0.50160441  1
  Co  Co126  1  0.50447458  0.74307800  0.49494949  1
  Co  Co127  1  0.24618719  -0.00120989  0.25294747  1
