# generated using pymatgen
data_Fe45Co19
_symmetry_space_group_name_H-M   'P 1'
_cell_length_a   11.41400651
_cell_length_b   11.41365494
_cell_length_c   11.41400304
_cell_angle_alpha   90.00466834
_cell_angle_beta   90.00662596
_cell_angle_gamma   89.99539705
_symmetry_Int_Tables_number   1
_chemical_formula_structural   Fe45Co19
_chemical_formula_sum   'Fe90 Co38'
_cell_volume   1486.96529557
_cell_formula_units_Z   2
loop_
 _symmetry_equiv_pos_site_id
 _symmetry_equiv_pos_as_xyz
  1  'x, y, z'
loop_
 _atom_site_type_symbol
 _atom_site_label
 _atom_site_symmetry_multiplicity
 _atom_site_fract_x
 _atom_site_fract_y
 _atom_site_fract_z
 _atom_site_occupancy
  Fe  Fe0  1  0.24934218  0.24967880  -0.00184161  1
  Fe  Fe1  1  -0.00329732  0.25191041  0.75125000  1
  Fe  Fe2  1  0.25196402  0.00247035  0.74756688  1
  Fe  Fe3  1  0.74909755  0.00220529  0.50196243  1
  Fe  Fe4  1  0.12263838  0.37276599  0.12281817  1
  Fe  Fe5  1  0.12514388  0.37426143  0.62645017  1
  Fe  Fe6  1  0.12622634  0.62630805  0.12346905  1
  Fe  Fe7  1  0.12179302  0.62280034  0.62779428  1
  Fe  Fe8  1  0.49824552  0.25008204  0.49935089  1
  Fe  Fe9  1  0.87415893  0.87534178  0.12258343  1
  Fe  Fe10  1  0.87123686  0.12497396  0.87353970  1
  Fe  Fe11  1  0.75020189  0.50067694  0.24886942  1
  Fe  Fe12  1  0.00124029  0.75327400  -0.00579921  1
  Fe  Fe13  1  -0.00116686  -0.00149519  -0.00606228  1
  Fe  Fe14  1  0.00111295  0.00141640  0.50238082  1
  Fe  Fe15  1  0.12062068  0.12724853  0.12379453  1
  Fe  Fe16  1  0.00155531  -0.00092811  0.25074892  1
  Fe  Fe17  1  0.25138075  0.49959941  0.75115559  1
  Fe  Fe18  1  0.12790438  0.62578576  0.37352844  1
  Fe  Fe19  1  0.37379388  0.62376433  0.37319582  1
  Fe  Fe20  1  0.62752262  0.87812651  0.87583329  1
  Fe  Fe21  1  0.25085860  0.50126579  0.50390659  1
  Fe  Fe22  1  0.37127421  0.87304201  0.87249909  1
  Fe  Fe23  1  0.37545420  0.37656223  0.87617020  1
  Fe  Fe24  1  0.12585269  0.12569290  0.37495440  1
  Fe  Fe25  1  0.49921989  0.24915709  -0.00063112  1
  Fe  Fe26  1  0.74893054  0.50007100  0.00102145  1
  Fe  Fe27  1  0.37743932  0.12509334  0.62660338  1
  Fe  Fe28  1  0.62432346  0.37255833  0.12530839  1
  Fe  Fe29  1  0.37692032  0.12698536  0.12553288  1
  Fe  Fe30  1  0.87450699  0.62565499  0.37477845  1
  Fe  Fe31  1  0.87530723  0.37608448  0.37673215  1
  Fe  Fe32  1  0.87596449  0.12403023  0.37516180  1
  Fe  Fe33  1  0.74766651  0.74741045  0.50123626  1
  Fe  Fe34  1  0.62466274  0.37437784  0.37439742  1
  Fe  Fe35  1  0.37419865  0.12538563  0.37355808  1
  Fe  Fe36  1  0.62429605  0.12697059  0.37402725  1
  Fe  Fe37  1  0.50177652  0.74879007  0.50203837  1
  Fe  Fe38  1  0.37971641  0.62665506  0.63156532  1
  Fe  Fe39  1  0.25039921  -0.00156534  0.24812118  1
  Fe  Fe40  1  0.49829822  0.75105961  0.24998130  1
  Fe  Fe41  1  0.00249125  0.75311295  0.75441849  1
  Fe  Fe42  1  0.25087942  0.74903931  0.50434552  1
  Fe  Fe43  1  0.00174755  0.49848234  0.25088527  1
  Fe  Fe44  1  0.49945648  -0.00002858  0.50039455  1
  Fe  Fe45  1  0.12630255  0.37523200  0.37693993  1
  Fe  Fe46  1  -0.00198216  0.49555284  0.75290684  1
  Fe  Fe47  1  0.87500162  0.87673743  0.62820038  1
  Fe  Fe48  1  0.62738158  0.37233598  0.87621863  1
  Fe  Fe49  1  0.75125104  0.24792632  0.50386472  1
  Fe  Fe50  1  0.62621645  0.87307883  0.37413195  1
  Fe  Fe51  1  0.50104456  0.50114487  0.50208090  1
  Fe  Fe52  1  -0.00031044  0.24933750  0.50222899  1
  Fe  Fe53  1  0.37345673  0.37665848  0.37548082  1
  Fe  Fe54  1  0.12763356  0.87342105  0.12155228  1
  Fe  Fe55  1  0.49920591  0.00251680  -0.00381801  1
  Fe  Fe56  1  0.62282141  0.87712031  0.62614669  1
  Fe  Fe57  1  0.75325032  0.24757838  0.24714094  1
  Fe  Fe58  1  -0.00007489  0.75005514  0.50130000  1
  Fe  Fe59  1  0.74929838  0.49741214  0.74955873  1
  Fe  Fe60  1  0.87507840  0.62461243  0.87486148  1
  Fe  Fe61  1  0.74686764  0.00475259  0.74854406  1
  Fe  Fe62  1  0.74769203  0.74861722  0.75012864  1
  Fe  Fe63  1  0.12558189  0.87682167  0.62766193  1
  Fe  Fe64  1  0.37339329  0.87441954  0.37633966  1
  Fe  Fe65  1  0.62110096  0.62169215  0.87273477  1
  Fe  Fe66  1  0.75339486  0.24655194  0.00480042  1
  Fe  Fe67  1  0.62414041  0.87562726  0.12310692  1
  Fe  Fe68  1  0.62413465  0.37334021  0.62516926  1
  Fe  Fe69  1  0.25051145  0.00129787  0.50293635  1
  Fe  Fe70  1  0.37278657  0.62519006  0.12453185  1
  Fe  Fe71  1  0.49812872  0.49705851  0.24719483  1
  Fe  Fe72  1  0.87605121  0.62538750  0.12336883  1
  Fe  Fe73  1  -0.00092720  0.49601798  -0.00317557  1
  Fe  Fe74  1  0.25077791  0.50114902  -0.00192311  1
  Fe  Fe75  1  0.74745003  0.50284334  0.50102222  1
  Fe  Fe76  1  0.62442786  0.62659372  0.12629430  1
  Fe  Fe77  1  0.74941014  0.00174950  0.24623259  1
  Fe  Fe78  1  0.87620654  0.62319795  0.62627988  1
  Fe  Fe79  1  0.87331169  0.87480212  0.37535840  1
  Fe  Fe80  1  0.12680589  0.12650026  0.87186215  1
  Fe  Fe81  1  0.25031334  0.25184808  0.24912455  1
  Fe  Fe82  1  0.12730314  0.87370932  0.37638505  1
  Fe  Fe83  1  0.25141583  0.00150804  0.00104998  1
  Fe  Fe84  1  0.49794482  0.74874148  -0.00340666  1
  Fe  Fe85  1  0.74955251  0.74961419  -0.00113211  1
  Fe  Fe86  1  0.00015731  0.75103605  0.24956523  1
  Fe  Fe87  1  0.49974396  0.00042770  0.24988294  1
  Fe  Fe88  1  0.49991137  0.24835661  0.75237704  1
  Fe  Fe89  1  0.25054719  0.24907952  0.50349084  1
  Co  Co90  1  0.49782186  0.25224050  0.25017781  1
  Co  Co91  1  0.50015419  0.00194646  0.75400394  1
  Co  Co92  1  0.75094655  0.00308555  0.00317712  1
  Co  Co93  1  0.62061313  0.12529792  0.12436813  1
  Co  Co94  1  0.37614588  0.37425574  0.62544236  1
  Co  Co95  1  0.86890736  0.37367841  0.87656799  1
  Co  Co96  1  0.50068294  0.49974878  0.00247913  1
  Co  Co97  1  -0.00172284  0.25050897  -0.00620333  1
  Co  Co98  1  0.37205929  0.12569635  0.87477718  1
  Co  Co99  1  0.62024750  0.12567226  0.62474506  1
  Co  Co100  1  0.88247108  0.12369934  0.12436828  1
  Co  Co101  1  0.62326154  0.62496311  0.37152942  1
  Co  Co102  1  0.86948882  0.87617926  0.87249721  1
  Co  Co103  1  0.37603673  0.87500162  0.12175773  1
  Co  Co104  1  0.13232816  0.87860594  0.87440937  1
  Co  Co105  1  0.37346467  0.37307886  0.12127481  1
  Co  Co106  1  0.75086281  0.24941656  0.74479837  1
  Co  Co107  1  0.62916104  0.12782978  0.87621260  1
  Co  Co108  1  0.25092919  0.74638683  -0.00410514  1
  Co  Co109  1  0.25090930  0.75275110  0.24872061  1
  Co  Co110  1  0.24633311  0.74627075  0.75137673  1
  Co  Co111  1  0.12468768  0.12654437  0.62924830  1
  Co  Co112  1  0.37572990  0.87416698  0.62799517  1
  Co  Co113  1  0.37910567  0.62315721  0.87113456  1
  Co  Co114  1  0.24869799  0.49680620  0.24775727  1
  Co  Co115  1  -0.00072629  0.25146127  0.25268001  1
  Co  Co116  1  0.00026470  -0.00072126  0.75376762  1
  Co  Co117  1  0.12746644  0.37394275  0.87364747  1
  Co  Co118  1  0.25380254  0.25170692  0.74959582  1
  Co  Co119  1  0.50340222  0.75410161  0.75247385  1
  Co  Co120  1  0.87522718  0.37812112  0.62235287  1
  Co  Co121  1  0.87735631  0.37607589  0.12435518  1
  Co  Co122  1  0.50133143  0.49393162  0.75014494  1
  Co  Co123  1  0.75095682  0.75074908  0.24863733  1
  Co  Co124  1  0.62306216  0.62323514  0.62906581  1
  Co  Co125  1  0.00202747  0.50076202  0.49797241  1
  Co  Co126  1  0.87734351  0.12273376  0.62658288  1
  Co  Co127  1  0.12309474  0.62210462  0.87601720  1
