# generated using pymatgen
data_Fe45Co19
_symmetry_space_group_name_H-M   'P 1'
_cell_length_a   11.41311110
_cell_length_b   11.41413702
_cell_length_c   11.41495053
_cell_angle_alpha   89.99354963
_cell_angle_beta   89.99711876
_cell_angle_gamma   90.00356344
_symmetry_Int_Tables_number   1
_chemical_formula_structural   Fe45Co19
_chemical_formula_sum   'Fe90 Co38'
_cell_volume   1487.03488125
_cell_formula_units_Z   2
loop_
 _symmetry_equiv_pos_site_id
 _symmetry_equiv_pos_as_xyz
  1  'x, y, z'
loop_
 _atom_site_type_symbol
 _atom_site_label
 _atom_site_symmetry_multiplicity
 _atom_site_fract_x
 _atom_site_fract_y
 _atom_site_fract_z
 _atom_site_occupancy
  Fe  Fe0  1  0.75524910  0.25133768  0.49608263  1
  Fe  Fe1  1  0.12095195  0.12320592  0.37703678  1
  Fe  Fe2  1  0.49995031  -0.00035884  0.74894151  1
  Fe  Fe3  1  0.25063226  0.50025262  -0.00041075  1
  Fe  Fe4  1  0.50117947  0.49992249  0.24893896  1
  Fe  Fe5  1  0.74869117  0.00231979  0.24799246  1
  Fe  Fe6  1  0.50534439  0.50179650  0.74884640  1
  Fe  Fe7  1  0.37506976  0.12700960  0.62462911  1
  Fe  Fe8  1  0.37753651  0.62363671  0.62479419  1
  Fe  Fe9  1  0.24850329  0.50036993  0.75206076  1
  Fe  Fe10  1  0.87604554  0.12646292  0.62465070  1
  Fe  Fe11  1  0.00364830  0.75310627  0.24888751  1
  Fe  Fe12  1  0.37454148  0.87530993  0.37266366  1
  Fe  Fe13  1  0.62936750  0.37321813  0.12626400  1
  Fe  Fe14  1  0.24436135  -0.00103842  0.24793482  1
  Fe  Fe15  1  0.37613447  0.37553951  0.87533141  1
  Fe  Fe16  1  0.63108229  0.37636527  0.62499185  1
  Fe  Fe17  1  0.49857794  0.25346012  0.49871515  1
  Fe  Fe18  1  0.12469356  0.87506634  0.62526886  1
  Fe  Fe19  1  0.50164616  0.75253036  0.00014947  1
  Fe  Fe20  1  0.24809412  0.75052378  0.24965492  1
  Fe  Fe21  1  0.87497469  0.62251619  0.87685418  1
  Fe  Fe22  1  0.12438952  0.37353066  0.87895273  1
  Fe  Fe23  1  0.24931841  0.00166932  0.75097685  1
  Fe  Fe24  1  0.75146176  -0.00132491  0.50055851  1
  Fe  Fe25  1  0.74740826  0.75127507  0.25100782  1
  Fe  Fe26  1  0.62558856  0.62612463  0.12437767  1
  Fe  Fe27  1  0.87441324  0.62495172  0.62580276  1
  Fe  Fe28  1  0.74626545  0.74618848  0.75169022  1
  Fe  Fe29  1  0.00106826  0.74882156  0.75223119  1
  Fe  Fe30  1  -0.00155988  0.49853569  0.75041853  1
  Fe  Fe31  1  0.37599589  0.87377211  0.87349098  1
  Fe  Fe32  1  0.37251099  0.37434747  0.12644706  1
  Fe  Fe33  1  0.87735643  0.12779136  0.87961534  1
  Fe  Fe34  1  0.63094654  0.37592005  0.87607239  1
  Fe  Fe35  1  0.86888468  0.37357998  0.13068456  1
  Fe  Fe36  1  -0.00021437  0.24956970  0.24702401  1
  Fe  Fe37  1  0.49832830  -0.00185871  0.50090695  1
  Fe  Fe38  1  0.62665616  0.37490081  0.37286987  1
  Fe  Fe39  1  0.87335671  0.62645056  0.12784697  1
  Fe  Fe40  1  0.62437266  0.12545561  0.87664983  1
  Fe  Fe41  1  0.24936376  0.25159781  0.49760485  1
  Fe  Fe42  1  0.50147093  -0.00081549  0.00219558  1
  Fe  Fe43  1  0.24938163  0.00189234  -0.00087969  1
  Fe  Fe44  1  0.37618415  0.62540185  0.12384097  1
  Fe  Fe45  1  0.62569262  0.12735360  0.62309321  1
  Fe  Fe46  1  0.49946217  0.75238588  0.50019368  1
  Fe  Fe47  1  0.12397201  0.62309429  0.62473962  1
  Fe  Fe48  1  0.75139856  0.75153726  0.49795622  1
  Fe  Fe49  1  0.50011148  0.24965612  0.24936935  1
  Fe  Fe50  1  0.87727062  0.87648666  0.37321416  1
  Fe  Fe51  1  0.12000107  0.12553162  0.11755052  1
  Fe  Fe52  1  0.37359024  0.87405983  0.12524948  1
  Fe  Fe53  1  0.25021885  0.75025527  0.49961219  1
  Fe  Fe54  1  0.87492018  0.87438532  0.62814114  1
  Fe  Fe55  1  0.74989053  0.00343592  0.75039506  1
  Fe  Fe56  1  0.00059507  0.00053503  0.75292334  1
  Fe  Fe57  1  0.62406410  0.12404454  0.37579422  1
  Fe  Fe58  1  0.25055969  0.49843169  0.49806744  1
  Fe  Fe59  1  0.50270353  -0.00150670  0.24812447  1
  Fe  Fe60  1  0.87089162  0.87389164  0.87484958  1
  Fe  Fe61  1  0.62682640  0.62366716  0.88003306  1
  Fe  Fe62  1  -0.00238244  0.25187116  0.75147058  1
  Fe  Fe63  1  0.37751305  0.62305200  0.37477218  1
  Fe  Fe64  1  0.12518907  0.62533235  0.12184410  1
  Fe  Fe65  1  0.87499727  0.87668068  0.12522281  1
  Fe  Fe66  1  0.62373415  0.62556805  0.37621360  1
  Fe  Fe67  1  0.75605582  0.50034290  0.49518449  1
  Fe  Fe68  1  0.37572642  0.12680868  0.87538965  1
  Fe  Fe69  1  0.12599420  0.87294027  0.87727601  1
  Fe  Fe70  1  0.37489555  0.12510755  0.37265010  1
  Fe  Fe71  1  0.24994899  0.74694080  0.75196114  1
  Fe  Fe72  1  0.24879549  0.50124823  0.25020544  1
  Fe  Fe73  1  0.50284466  0.25159344  0.74927239  1
  Fe  Fe74  1  -0.00150806  0.75081444  -0.00040414  1
  Fe  Fe75  1  0.12177771  0.37539276  0.62273159  1
  Fe  Fe76  1  0.24914673  0.25016872  0.75141037  1
  Fe  Fe77  1  -0.00085318  0.75056421  0.49990103  1
  Fe  Fe78  1  0.12306018  0.12562166  0.62465689  1
  Fe  Fe79  1  0.12083461  0.62331112  0.37508568  1
  Fe  Fe80  1  0.87877076  0.12239724  0.37298288  1
  Fe  Fe81  1  0.49956199  0.25093432  0.00208438  1
  Fe  Fe82  1  0.37518481  0.37631551  0.62572910  1
  Fe  Fe83  1  0.24731398  0.24795908  0.24862849  1
  Fe  Fe84  1  0.11966635  0.37763306  0.37399823  1
  Fe  Fe85  1  -0.00373745  0.49572711  0.00359510  1
  Fe  Fe86  1  0.62497615  0.87385900  0.62762096  1
  Fe  Fe87  1  0.37751241  0.62361221  0.87611144  1
  Fe  Fe88  1  0.25033606  -0.00112455  0.50097446  1
  Fe  Fe89  1  0.74913699  0.00141019  0.00215228  1
  Co  Co90  1  0.75077943  0.74970393  0.00079698  1
  Co  Co91  1  0.74834426  0.50336225  0.25240545  1
  Co  Co92  1  0.75093079  0.24463400  0.25263144  1
  Co  Co93  1  0.62474050  0.12744385  0.12498948  1
  Co  Co94  1  0.49988538  0.49576948  0.49890085  1
  Co  Co95  1  0.37360984  0.37452223  0.37048045  1
  Co  Co96  1  0.50335292  0.74669496  0.75173342  1
  Co  Co97  1  0.50160723  0.49727150  0.00219987  1
  Co  Co98  1  -0.00092853  -0.00402363  -0.00313913  1
  Co  Co99  1  0.62669197  0.87386805  0.12444148  1
  Co  Co100  1  0.37501437  0.87275189  0.62772667  1
  Co  Co101  1  0.12870072  0.37533743  0.12428587  1
  Co  Co102  1  0.50079220  0.74976918  0.24950176  1
  Co  Co103  1  -0.00156411  -0.00137422  0.50230950  1
  Co  Co104  1  0.25329201  0.24873761  0.00082768  1
  Co  Co105  1  0.74878603  0.50513559  0.75018082  1
  Co  Co106  1  0.86953781  0.37667941  0.87277660  1
  Co  Co107  1  0.75070549  0.24804491  0.00053760  1
  Co  Co108  1  -0.00526497  0.25778162  0.00214314  1
  Co  Co109  1  0.87872690  0.37653870  0.36862759  1
  Co  Co110  1  0.87231644  0.37550017  0.62775675  1
  Co  Co111  1  -0.00334546  0.25129119  0.49948377  1
  Co  Co112  1  0.12402937  0.87508444  0.37815513  1
  Co  Co113  1  0.12280588  0.12936109  0.87832678  1
  Co  Co114  1  0.00370528  -0.00186777  0.24755865  1
  Co  Co115  1  0.75057538  0.24616063  0.75142805  1
  Co  Co116  1  0.12558809  0.87328725  0.11971151  1
  Co  Co117  1  0.87832206  0.12327752  0.12375293  1
  Co  Co118  1  0.62544712  0.87635483  0.37477300  1
  Co  Co119  1  0.75212370  0.50046269  0.00372515  1
  Co  Co120  1  -0.00567881  0.50067761  0.50050378  1
  Co  Co121  1  0.12169488  0.62216513  0.87832701  1
  Co  Co122  1  0.87810895  0.62770970  0.37035721  1
  Co  Co123  1  0.62597759  0.62426424  0.61842478  1
  Co  Co124  1  0.25137478  0.74767896  -0.00165997  1
  Co  Co125  1  0.37560784  0.12357644  0.12702519  1
  Co  Co126  1  0.00008934  0.50038960  0.24463464  1
  Co  Co127  1  0.62763268  0.87631974  0.87466556  1
