# generated using pymatgen
data_Fe45Co19
_symmetry_space_group_name_H-M   'P 1'
_cell_length_a   11.41678895
_cell_length_b   11.41475181
_cell_length_c   11.41524792
_cell_angle_alpha   89.99549582
_cell_angle_beta   90.00438646
_cell_angle_gamma   89.99733197
_symmetry_Int_Tables_number   1
_chemical_formula_structural   Fe45Co19
_chemical_formula_sum   'Fe90 Co38'
_cell_volume   1487.63295608
_cell_formula_units_Z   2
loop_
 _symmetry_equiv_pos_site_id
 _symmetry_equiv_pos_as_xyz
  1  'x, y, z'
loop_
 _atom_site_type_symbol
 _atom_site_label
 _atom_site_symmetry_multiplicity
 _atom_site_fract_x
 _atom_site_fract_y
 _atom_site_fract_z
 _atom_site_occupancy
  Fe  Fe0  1  0.74860665  0.24985016  0.75016830  1
  Fe  Fe1  1  0.25208197  -0.00275120  0.49976086  1
  Fe  Fe2  1  0.25053673  0.49936882  -0.00048218  1
  Fe  Fe3  1  0.37357789  0.62595165  0.87130487  1
  Fe  Fe4  1  0.37892277  0.87221598  0.62684563  1
  Fe  Fe5  1  0.62562406  0.12479801  0.62359837  1
  Fe  Fe6  1  0.50070783  0.24926922  0.75050217  1
  Fe  Fe7  1  0.49835533  0.24994564  0.50009334  1
  Fe  Fe8  1  0.74953417  0.00054657  0.49713788  1
  Fe  Fe9  1  0.25211625  0.25068278  0.24711586  1
  Fe  Fe10  1  0.37686701  0.37643846  0.87621653  1
  Fe  Fe11  1  0.37942143  0.86985978  0.37336081  1
  Fe  Fe12  1  0.12356685  0.87325257  0.37581891  1
  Fe  Fe13  1  0.00011017  0.50169230  0.74987568  1
  Fe  Fe14  1  -0.00000223  -0.00094353  0.24954758  1
  Fe  Fe15  1  0.12827628  0.62552137  0.62848119  1
  Fe  Fe16  1  -0.00360497  0.74994587  -0.00093358  1
  Fe  Fe17  1  0.87605445  0.87333001  0.37409080  1
  Fe  Fe18  1  0.87183285  0.62493189  0.37248087  1
  Fe  Fe19  1  0.37631481  0.12170397  0.87757339  1
  Fe  Fe20  1  0.12485446  0.12288567  0.12395097  1
  Fe  Fe21  1  0.87463635  0.12046491  0.87205379  1
  Fe  Fe22  1  0.12760299  0.62561751  0.37500731  1
  Fe  Fe23  1  0.24822561  0.75052872  0.24889605  1
  Fe  Fe24  1  0.50103604  0.50308724  0.24890764  1
  Fe  Fe25  1  0.49953140  0.50137322  0.75065743  1
  Fe  Fe26  1  0.12501870  0.37650328  0.37593989  1
  Fe  Fe27  1  0.25313940  0.24936094  0.00272054  1
  Fe  Fe28  1  0.37514760  0.37860752  0.37281733  1
  Fe  Fe29  1  0.49989268  0.25033716  0.24855718  1
  Fe  Fe30  1  0.74801396  0.74978127  0.49869085  1
  Fe  Fe31  1  0.87463182  0.37786134  0.37569429  1
  Fe  Fe32  1  0.87433585  0.87167416  0.12716797  1
  Fe  Fe33  1  0.50008218  -0.00025261  0.49795514  1
  Fe  Fe34  1  0.62488422  0.12432767  0.12306307  1
  Fe  Fe35  1  0.49756727  0.50603548  0.50011904  1
  Fe  Fe36  1  0.87610301  0.37546093  0.87296624  1
  Fe  Fe37  1  -0.00122051  0.74844334  0.50042480  1
  Fe  Fe38  1  0.00084023  0.50483930  0.24671523  1
  Fe  Fe39  1  0.12381273  0.37530008  0.87573994  1
  Fe  Fe40  1  0.86960884  0.62820232  0.87573766  1
  Fe  Fe41  1  0.74911298  0.49962367  0.74979993  1
  Fe  Fe42  1  -0.00267469  0.50386609  0.00071171  1
  Fe  Fe43  1  0.37524299  0.12527965  0.37407294  1
  Fe  Fe44  1  0.25195933  0.25244530  0.50156996  1
  Fe  Fe45  1  0.25086977  -0.00132686  0.24945606  1
  Fe  Fe46  1  0.25377490  0.74908116  0.50196629  1
  Fe  Fe47  1  0.37735313  0.87561006  0.87668090  1
  Fe  Fe48  1  0.12759482  0.62672877  0.87342011  1
  Fe  Fe49  1  0.37535843  0.12355456  0.62708795  1
  Fe  Fe50  1  0.87280095  0.12416650  0.12660342  1
  Fe  Fe51  1  0.12468604  0.37675318  0.12274154  1
  Fe  Fe52  1  0.12658181  0.12541605  0.62375976  1
  Fe  Fe53  1  0.62437719  0.37816876  0.12110774  1
  Fe  Fe54  1  0.12348527  0.87176655  0.62580416  1
  Fe  Fe55  1  0.62523230  0.37807539  0.37739357  1
  Fe  Fe56  1  0.87441339  0.87647418  0.62965121  1
  Fe  Fe57  1  0.75006684  -0.00267337  -0.00254880  1
  Fe  Fe58  1  0.62786098  0.87000380  0.87356459  1
  Fe  Fe59  1  0.49798839  0.24939458  0.00189645  1
  Fe  Fe60  1  0.62489994  0.37619892  0.62317894  1
  Fe  Fe61  1  -0.00137702  0.00103692  0.50156387  1
  Fe  Fe62  1  0.87360440  0.62465198  0.62543846  1
  Fe  Fe63  1  0.50437881  0.00009991  0.75261365  1
  Fe  Fe64  1  0.74818580  -0.00047790  0.25388363  1
  Fe  Fe65  1  0.62491822  0.87379846  0.12717611  1
  Fe  Fe66  1  0.50289658  0.74656492  -0.00006620  1
  Fe  Fe67  1  0.50150887  0.00092553  0.25151247  1
  Fe  Fe68  1  0.25040851  0.75239160  -0.00187341  1
  Fe  Fe69  1  0.37162798  0.62435869  0.12587898  1
  Fe  Fe70  1  -0.00023756  0.24939134  0.74733197  1
  Fe  Fe71  1  0.62343714  0.37727597  0.87788845  1
  Fe  Fe72  1  0.74836419  0.25193826  0.25136216  1
  Fe  Fe73  1  0.87513004  0.37692783  0.12444180  1
  Fe  Fe74  1  -0.00072713  0.50030919  0.50214607  1
  Fe  Fe75  1  0.12300382  0.87352685  0.12263178  1
  Fe  Fe76  1  0.24758797  -0.00378389  0.75214558  1
  Fe  Fe77  1  0.62347422  0.62712399  0.62697782  1
  Fe  Fe78  1  -0.00027011  0.25049449  0.24984856  1
  Fe  Fe79  1  0.12427039  0.12271494  0.87756159  1
  Fe  Fe80  1  0.75293607  0.24905567  0.49979997  1
  Fe  Fe81  1  -0.00339688  0.25000049  0.50271872  1
  Fe  Fe82  1  -0.00236272  0.24792077  0.00036310  1
  Fe  Fe83  1  0.37829217  0.87629153  0.12306111  1
  Fe  Fe84  1  0.63226341  0.62369008  0.12311779  1
  Fe  Fe85  1  0.25082041  0.25270393  0.74978196  1
  Fe  Fe86  1  0.25362158  0.50037870  0.50398329  1
  Fe  Fe87  1  0.62360062  0.87308485  0.62370498  1
  Fe  Fe88  1  0.75138591  0.25146425  -0.00140435  1
  Fe  Fe89  1  0.12452333  0.12480883  0.37602924  1
  Co  Co90  1  0.62821098  0.62437529  0.87542352  1
  Co  Co91  1  0.12688141  0.62721072  0.12139897  1
  Co  Co92  1  0.87277082  0.12198826  0.62844086  1
  Co  Co93  1  0.50194019  0.74501101  0.24607148  1
  Co  Co94  1  0.62511567  0.12821517  0.87818550  1
  Co  Co95  1  0.75011895  0.74886074  0.74684097  1
  Co  Co96  1  0.24935084  0.75566540  0.75177886  1
  Co  Co97  1  0.74861350  0.75166692  0.25292038  1
  Co  Co98  1  0.25064334  0.49546691  0.74933718  1
  Co  Co99  1  0.37415330  0.62842417  0.63114125  1
  Co  Co100  1  0.50619675  -0.00289034  -0.00277381  1
  Co  Co101  1  0.37227717  0.62643391  0.37122471  1
  Co  Co102  1  0.37605588  0.37955150  0.12513283  1
  Co  Co103  1  0.75007716  0.49696628  0.24933295  1
  Co  Co104  1  0.49874468  0.50579722  -0.00032983  1
  Co  Co105  1  0.87362356  0.37685097  0.62596934  1
  Co  Co106  1  0.75298268  0.49752248  -0.00160717  1
  Co  Co107  1  0.62723629  0.62603258  0.37292092  1
  Co  Co108  1  0.62095476  0.87197126  0.37539617  1
  Co  Co109  1  0.74968581  0.75358646  -0.00037282  1
  Co  Co110  1  0.62462626  0.12638199  0.37587115  1
  Co  Co111  1  -0.00085564  0.74740726  0.75038930  1
  Co  Co112  1  0.12313980  0.37586607  0.62526499  1
  Co  Co113  1  0.24801712  -0.00161994  -0.00010477  1
  Co  Co114  1  0.74383985  0.00019985  0.75169165  1
  Co  Co115  1  -0.00367628  -0.00149669  0.00120436  1
  Co  Co116  1  0.00464108  -0.00082656  0.74855554  1
  Co  Co117  1  0.74865836  0.50296580  0.50109070  1
  Co  Co118  1  0.49949524  0.74467457  0.49916485  1
  Co  Co119  1  0.37821669  0.11993292  0.12320671  1
  Co  Co120  1  0.87606517  0.12492183  0.37334243  1
  Co  Co121  1  0.00113685  0.74690112  0.25014562  1
  Co  Co122  1  0.12038916  0.87398284  0.87732782  1
  Co  Co123  1  0.37842107  0.37522461  0.62557707  1
  Co  Co124  1  0.86974356  0.62754543  0.12579661  1
  Co  Co125  1  0.24688522  0.49987392  0.24830296  1
  Co  Co126  1  0.87468797  0.87574047  0.86957698  1
  Co  Co127  1  0.50143591  0.75029273  0.75328650  1
