# generated using pymatgen
data_Fe45Co19
_symmetry_space_group_name_H-M   'P 1'
_cell_length_a   11.41553887
_cell_length_b   11.41558980
_cell_length_c   11.41396500
_cell_angle_alpha   90.01206982
_cell_angle_beta   89.98564353
_cell_angle_gamma   90.00341439
_symmetry_Int_Tables_number   1
_chemical_formula_structural   Fe45Co19
_chemical_formula_sum   'Fe90 Co38'
_cell_volume   1487.41201068
_cell_formula_units_Z   2
loop_
 _symmetry_equiv_pos_site_id
 _symmetry_equiv_pos_as_xyz
  1  'x, y, z'
loop_
 _atom_site_type_symbol
 _atom_site_label
 _atom_site_symmetry_multiplicity
 _atom_site_fract_x
 _atom_site_fract_y
 _atom_site_fract_z
 _atom_site_occupancy
  Fe  Fe0  1  0.12325374  0.86983351  0.12831380  1
  Fe  Fe1  1  0.62421554  0.12514780  0.37538615  1
  Fe  Fe2  1  0.74776835  0.50096418  0.74377626  1
  Fe  Fe3  1  0.24911118  0.50209157  0.00280034  1
  Fe  Fe4  1  0.37501812  0.37824151  0.37282309  1
  Fe  Fe5  1  -0.00034850  0.25102117  0.50028831  1
  Fe  Fe6  1  0.62904501  0.37676269  0.37761023  1
  Fe  Fe7  1  0.12613310  0.87428062  0.62140921  1
  Fe  Fe8  1  -0.00235971  0.50118892  0.24984133  1
  Fe  Fe9  1  0.37482735  0.87300815  0.12628340  1
  Fe  Fe10  1  0.24864397  0.00011711  0.74992289  1
  Fe  Fe11  1  0.37192440  0.12486274  0.13026932  1
  Fe  Fe12  1  0.11969828  0.63063725  0.12855255  1
  Fe  Fe13  1  0.87473897  0.87462006  0.12455740  1
  Fe  Fe14  1  -0.00280462  0.49443480  0.50384304  1
  Fe  Fe15  1  0.62736686  0.37430856  0.12250504  1
  Fe  Fe16  1  0.37760634  0.62557440  0.62657100  1
  Fe  Fe17  1  -0.00364253  0.24687365  0.00344593  1
  Fe  Fe18  1  0.37708085  0.12176875  0.62460601  1
  Fe  Fe19  1  0.00333110  -0.00198400  0.74886312  1
  Fe  Fe20  1  0.62502017  0.87272860  0.61766976  1
  Fe  Fe21  1  -0.00420643  0.75172780  0.50130183  1
  Fe  Fe22  1  0.12228677  0.62689391  0.87247525  1
  Fe  Fe23  1  0.87176442  0.87964877  0.38063206  1
  Fe  Fe24  1  0.50178860  0.50155582  -0.00182091  1
  Fe  Fe25  1  0.87485670  0.87598894  0.87318525  1
  Fe  Fe26  1  0.12526045  0.87057248  0.37401206  1
  Fe  Fe27  1  0.24973740  -0.00085633  0.00323942  1
  Fe  Fe28  1  0.12501613  0.37404890  0.87825734  1
  Fe  Fe29  1  0.24895744  0.50230448  0.49971440  1
  Fe  Fe30  1  0.25025616  0.00173714  0.49638966  1
  Fe  Fe31  1  0.25137937  0.74839974  -0.00091864  1
  Fe  Fe32  1  0.37693279  0.62464179  0.12624498  1
  Fe  Fe33  1  0.87571071  0.12391953  0.37470789  1
  Fe  Fe34  1  0.24747176  0.50180214  0.24896946  1
  Fe  Fe35  1  0.75388480  0.74796795  -0.00101029  1
  Fe  Fe36  1  0.49723087  0.24989355  0.49773563  1
  Fe  Fe37  1  0.25157816  0.25005415  0.49777590  1
  Fe  Fe38  1  0.75340217  0.75205560  0.74362552  1
  Fe  Fe39  1  0.75287419  0.74907076  0.25255528  1
  Fe  Fe40  1  0.62807775  0.62678077  0.38033363  1
  Fe  Fe41  1  0.87748090  0.62620555  0.86845888  1
  Fe  Fe42  1  0.62691114  0.87324481  0.12379309  1
  Fe  Fe43  1  0.12585076  0.12588241  0.62346152  1
  Fe  Fe44  1  0.25078634  0.24941034  0.75082185  1
  Fe  Fe45  1  0.12041234  0.62484132  0.62524411  1
  Fe  Fe46  1  0.74792794  -0.00086791  0.25209985  1
  Fe  Fe47  1  0.49972356  0.25157236  0.25027321  1
  Fe  Fe48  1  0.12557203  0.87390144  0.87657809  1
  Fe  Fe49  1  0.87301815  0.61988498  0.37820994  1
  Fe  Fe50  1  0.87738298  0.12137252  0.62392874  1
  Fe  Fe51  1  0.75039458  0.00392207  -0.00266995  1
  Fe  Fe52  1  0.50229776  0.49864890  0.74942749  1
  Fe  Fe53  1  0.62576764  0.62808956  0.87168253  1
  Fe  Fe54  1  -0.00242809  0.50329721  -0.00093017  1
  Fe  Fe55  1  0.74930474  0.24596225  0.75116158  1
  Fe  Fe56  1  0.37578415  0.87542915  0.37459208  1
  Fe  Fe57  1  0.12377549  0.37612495  0.37431531  1
  Fe  Fe58  1  0.49837368  0.75491270  0.75263364  1
  Fe  Fe59  1  0.87268335  0.37665428  0.12621796  1
  Fe  Fe60  1  0.50352317  0.49992035  0.50321408  1
  Fe  Fe61  1  0.37352538  0.37763405  0.87735505  1
  Fe  Fe62  1  0.25027921  0.75025803  0.75091581  1
  Fe  Fe63  1  0.37419292  0.87638247  0.62305701  1
  Fe  Fe64  1  0.62689888  0.62773093  0.12457734  1
  Fe  Fe65  1  0.75243292  0.25026131  0.50023273  1
  Fe  Fe66  1  0.74597715  0.00107116  0.74965636  1
  Fe  Fe67  1  0.00096809  -0.00109798  0.25045467  1
  Fe  Fe68  1  0.12847223  0.12619763  0.37012433  1
  Fe  Fe69  1  -0.00078910  0.00116504  0.00173049  1
  Fe  Fe70  1  0.00239859  0.25173190  0.74856539  1
  Fe  Fe71  1  0.24782637  0.49944868  0.74983486  1
  Fe  Fe72  1  0.25059967  0.25113539  0.00463099  1
  Fe  Fe73  1  0.75051575  0.25110596  0.25017290  1
  Fe  Fe74  1  0.62088204  0.12594506  0.62402042  1
  Fe  Fe75  1  0.62687455  0.37253952  0.87523351  1
  Fe  Fe76  1  0.50538178  0.50052004  0.24965213  1
  Fe  Fe77  1  0.49856192  0.75110074  -0.00390303  1
  Fe  Fe78  1  0.25195055  0.74457961  0.49625018  1
  Fe  Fe79  1  0.62741864  0.12556291  0.12320429  1
  Fe  Fe80  1  0.00009245  0.24980991  0.24733121  1
  Fe  Fe81  1  0.49845463  0.24937155  0.00136820  1
  Fe  Fe82  1  0.37386145  0.37554517  0.62450020  1
  Fe  Fe83  1  0.87409523  0.37412430  0.87252023  1
  Fe  Fe84  1  0.49796650  0.25070382  0.75166829  1
  Fe  Fe85  1  0.37779028  0.11947957  0.87511684  1
  Fe  Fe86  1  0.50182392  -0.00078396  0.25131129  1
  Fe  Fe87  1  0.12398808  0.12547988  0.87752638  1
  Fe  Fe88  1  0.50063735  0.74923734  0.25346140  1
  Fe  Fe89  1  0.75082791  0.50220725  -0.00015729  1
  Co  Co90  1  0.12868156  0.37358661  0.62349945  1
  Co  Co91  1  0.87577236  0.62583560  0.12643223  1
  Co  Co92  1  0.62671189  0.87156276  0.37782732  1
  Co  Co93  1  0.24856971  0.25740239  0.24751395  1
  Co  Co94  1  0.12020023  0.37735605  0.12338609  1
  Co  Co95  1  0.87276044  0.37194120  0.62795788  1
  Co  Co96  1  0.75365449  0.24802408  -0.00113026  1
  Co  Co97  1  0.37824472  0.61942423  0.37418444  1
  Co  Co98  1  0.75663423  0.74737228  0.50312576  1
  Co  Co99  1  0.00552494  0.00142684  0.49721319  1
  Co  Co100  1  0.49974807  0.00053875  0.49660232  1
  Co  Co101  1  0.62514095  0.36938015  0.62551780  1
  Co  Co102  1  0.87232696  0.12262901  0.12861484  1
  Co  Co103  1  0.62078274  0.12516488  0.87671982  1
  Co  Co104  1  -0.00237841  0.74985266  -0.00264420  1
  Co  Co105  1  -0.00788492  0.75158425  0.25525502  1
  Co  Co106  1  0.00004308  0.75581874  0.74721040  1
  Co  Co107  1  0.24871505  -0.00508240  0.25095134  1
  Co  Co108  1  0.74858273  0.49916759  0.50735572  1
  Co  Co109  1  0.74517183  0.00431434  0.50002846  1
  Co  Co110  1  0.50408336  -0.00512564  0.74881798  1
  Co  Co111  1  0.62151563  0.63093294  0.62410317  1
  Co  Co112  1  0.87341807  0.37591891  0.37312648  1
  Co  Co113  1  0.37523044  0.62366110  0.87319602  1
  Co  Co114  1  0.37320579  0.87929047  0.87535213  1
  Co  Co115  1  0.11869791  0.62442125  0.37567104  1
  Co  Co116  1  0.49549165  0.74985612  0.49694643  1
  Co  Co117  1  0.74791994  0.50173295  0.24867386  1
  Co  Co118  1  0.37775594  0.37871641  0.12634208  1
  Co  Co119  1  0.88083510  0.62224366  0.62694331  1
  Co  Co120  1  0.25244720  0.74554952  0.25374027  1
  Co  Co121  1  0.37245159  0.12573252  0.37018604  1
  Co  Co122  1  0.62819276  0.87407856  0.87789348  1
  Co  Co123  1  0.50047187  -0.00068091  0.00381172  1
  Co  Co124  1  0.00285134  0.49443575  0.74969276  1
  Co  Co125  1  0.87800727  0.12361820  0.87101264  1
  Co  Co126  1  0.12719668  0.12330435  0.12736861  1
  Co  Co127  1  0.87488864  0.88346731  0.62183041  1
