# generated using pymatgen
data_Fe45Co19
_symmetry_space_group_name_H-M   'P 1'
_cell_length_a   11.41476040
_cell_length_b   11.41551993
_cell_length_c   11.41486933
_cell_angle_alpha   90.00130739
_cell_angle_beta   89.99011269
_cell_angle_gamma   89.99969480
_symmetry_Int_Tables_number   1
_chemical_formula_structural   Fe45Co19
_chemical_formula_sum   'Fe90 Co38'
_cell_volume   1487.41937626
_cell_formula_units_Z   2
loop_
 _symmetry_equiv_pos_site_id
 _symmetry_equiv_pos_as_xyz
  1  'x, y, z'
loop_
 _atom_site_type_symbol
 _atom_site_label
 _atom_site_symmetry_multiplicity
 _atom_site_fract_x
 _atom_site_fract_y
 _atom_site_fract_z
 _atom_site_occupancy
  Fe  Fe0  1  0.87617767  0.37500924  0.37303103  1
  Fe  Fe1  1  0.62103576  0.62737504  0.37498239  1
  Fe  Fe2  1  0.37027876  0.11952912  0.62827197  1
  Fe  Fe3  1  -0.00147874  -0.00153356  0.50185488  1
  Fe  Fe4  1  0.50404582  0.50016224  0.75008377  1
  Fe  Fe5  1  0.74767156  0.75064911  0.75036016  1
  Fe  Fe6  1  0.00220342  0.00104721  0.24962829  1
  Fe  Fe7  1  0.24850505  0.49931226  0.75153241  1
  Fe  Fe8  1  0.24850668  0.24825230  0.24835920  1
  Fe  Fe9  1  0.12614926  0.87286687  0.37678009  1
  Fe  Fe10  1  0.62561886  0.62422214  0.62427552  1
  Fe  Fe11  1  0.37691860  0.12741864  0.37390547  1
  Fe  Fe12  1  0.25236803  0.50212280  0.50038104  1
  Fe  Fe13  1  0.49851177  0.49955280  0.49852832  1
  Fe  Fe14  1  0.74831246  0.50114624  0.24874600  1
  Fe  Fe15  1  0.62127587  0.87509324  0.87460746  1
  Fe  Fe16  1  0.75201728  0.75377769  0.49867057  1
  Fe  Fe17  1  0.75072530  0.24863798  0.49724957  1
  Fe  Fe18  1  0.37700456  0.62709074  0.87186312  1
  Fe  Fe19  1  0.87304997  0.62487343  0.62650047  1
  Fe  Fe20  1  0.00187860  0.24891743  0.74824568  1
  Fe  Fe21  1  0.87410538  0.37573468  0.12518984  1
  Fe  Fe22  1  0.62490870  0.87702694  0.12655039  1
  Fe  Fe23  1  0.25299922  0.50245688  0.25135213  1
  Fe  Fe24  1  0.87641627  0.62483725  0.37202466  1
  Fe  Fe25  1  0.00074368  0.24923069  0.00207218  1
  Fe  Fe26  1  0.25509064  0.75161481  0.00222058  1
  Fe  Fe27  1  -0.00186555  0.50173383  0.00090334  1
  Fe  Fe28  1  0.49597490  0.74975188  0.50442384  1
  Fe  Fe29  1  0.12570635  0.87222815  0.87601885  1
  Fe  Fe30  1  0.87434706  0.12474347  0.87547143  1
  Fe  Fe31  1  0.12592966  0.37504063  0.37496029  1
  Fe  Fe32  1  0.62231658  0.37766746  0.12163465  1
  Fe  Fe33  1  0.62422972  0.62500451  0.87744490  1
  Fe  Fe34  1  -0.00129590  0.74965137  0.00183860  1
  Fe  Fe35  1  0.62536381  0.37577266  0.87853343  1
  Fe  Fe36  1  0.49978524  -0.00046256  0.25048717  1
  Fe  Fe37  1  0.12755273  0.62290693  0.12274401  1
  Fe  Fe38  1  0.50151745  0.24727018  0.74873561  1
  Fe  Fe39  1  0.62440379  0.87693771  0.62342288  1
  Fe  Fe40  1  0.74955145  -0.00051355  -0.00092771  1
  Fe  Fe41  1  0.24921149  0.00168509  0.25287473  1
  Fe  Fe42  1  0.12812890  0.87736784  0.12441872  1
  Fe  Fe43  1  0.87389092  0.87541534  0.12760638  1
  Fe  Fe44  1  0.50051277  0.25113596  0.24810771  1
  Fe  Fe45  1  0.12664620  0.62587159  0.87478656  1
  Fe  Fe46  1  -0.00093808  0.75093093  0.50333022  1
  Fe  Fe47  1  0.37543408  0.87053772  0.37177812  1
  Fe  Fe48  1  0.49624804  0.75356208  0.00307464  1
  Fe  Fe49  1  0.87346709  0.12410204  0.62325424  1
  Fe  Fe50  1  0.74835376  0.00078866  0.25789669  1
  Fe  Fe51  1  0.49816011  0.00021055  0.49813421  1
  Fe  Fe52  1  0.74718638  0.00050833  0.75003383  1
  Fe  Fe53  1  0.12666951  0.12671705  0.87837332  1
  Fe  Fe54  1  0.74901892  0.49938878  0.49974331  1
  Fe  Fe55  1  0.37583999  0.37659836  0.62777547  1
  Fe  Fe56  1  0.00361928  0.74915896  0.24799720  1
  Fe  Fe57  1  0.25371530  0.74880579  0.50425385  1
  Fe  Fe58  1  0.37404987  0.12626441  0.12147863  1
  Fe  Fe59  1  0.75057394  0.74974714  0.00139663  1
  Fe  Fe60  1  0.12621497  0.37480318  0.62541516  1
  Fe  Fe61  1  0.87297671  0.62510963  0.87416033  1
  Fe  Fe62  1  0.24848229  0.24903581  0.75280333  1
  Fe  Fe63  1  0.00233983  0.24929101  0.24842976  1
  Fe  Fe64  1  0.62331554  0.37306678  0.37620283  1
  Fe  Fe65  1  0.25581371  0.49628203  -0.00296712  1
  Fe  Fe66  1  0.00146516  0.75142949  0.74743656  1
  Fe  Fe67  1  -0.00026956  -0.00082420  -0.00037369  1
  Fe  Fe68  1  0.12796808  0.37569587  0.12342053  1
  Fe  Fe69  1  0.25216437  0.75248395  0.74578281  1
  Fe  Fe70  1  0.87480517  0.87542947  0.87320978  1
  Fe  Fe71  1  0.74864811  0.24817513  0.25035867  1
  Fe  Fe72  1  0.12235605  0.12641848  0.37895172  1
  Fe  Fe73  1  0.00014606  0.50052087  0.74955330  1
  Fe  Fe74  1  0.62124725  0.12467306  0.87980546  1
  Fe  Fe75  1  0.49734865  0.24946903  0.50216459  1
  Fe  Fe76  1  0.00064640  0.49899878  0.50046826  1
  Fe  Fe77  1  0.87369902  0.12348998  0.12581659  1
  Fe  Fe78  1  0.87354952  0.37532519  0.87635984  1
  Fe  Fe79  1  0.62343545  0.12438348  0.12327885  1
  Fe  Fe80  1  0.62640981  0.12395496  0.62017134  1
  Fe  Fe81  1  0.74769989  0.75025141  0.25099897  1
  Fe  Fe82  1  0.25469630  -0.00215827  -0.00381648  1
  Fe  Fe83  1  0.12557947  0.62503076  0.37647643  1
  Fe  Fe84  1  0.00397389  -0.00027730  0.74862208  1
  Fe  Fe85  1  0.37459488  0.37373763  0.37401345  1
  Fe  Fe86  1  0.74779280  0.25032881  0.75116956  1
  Fe  Fe87  1  0.25003771  0.24892581  0.50103140  1
  Fe  Fe88  1  0.62036506  0.62181570  0.12357327  1
  Fe  Fe89  1  0.87222817  0.37469030  0.62540414  1
  Co  Co90  1  0.75039679  -0.00188309  0.49513369  1
  Co  Co91  1  0.37495689  0.37474276  0.12825471  1
  Co  Co92  1  0.37940623  0.87461557  0.86929043  1
  Co  Co93  1  0.49706249  -0.00406464  0.00181275  1
  Co  Co94  1  0.12171282  0.37567237  0.87609062  1
  Co  Co95  1  0.25298642  0.25418140  -0.00302779  1
  Co  Co96  1  0.74740164  0.49917318  0.75015134  1
  Co  Co97  1  0.87522677  0.62733515  0.12845076  1
  Co  Co98  1  0.50031136  0.75044358  0.24494307  1
  Co  Co99  1  0.37687959  0.62302682  0.12681520  1
  Co  Co100  1  0.37685864  0.12456887  0.87556460  1
  Co  Co101  1  0.25277380  -0.00012570  0.49418233  1
  Co  Co102  1  0.87773274  0.87351285  0.37243718  1
  Co  Co103  1  0.37829356  0.37297823  0.86904061  1
  Co  Co104  1  0.87276776  0.87690394  0.62775329  1
  Co  Co105  1  0.37206963  0.87676662  0.13039267  1
  Co  Co106  1  0.75238593  0.50183684  0.00165831  1
  Co  Co107  1  0.50070759  0.74935171  0.74632689  1
  Co  Co108  1  0.37604881  0.61992076  0.62848568  1
  Co  Co109  1  0.00186756  0.49976106  0.24918426  1
  Co  Co110  1  0.62178267  0.12728016  0.37627473  1
  Co  Co111  1  0.50304674  0.00279691  0.74982343  1
  Co  Co112  1  0.87841010  0.12627772  0.37561032  1
  Co  Co113  1  0.24714593  0.74764419  0.24800040  1
  Co  Co114  1  0.24621072  -0.00180348  0.75581059  1
  Co  Co115  1  0.62444265  0.37362324  0.62263338  1
  Co  Co116  1  0.74963903  0.24900070  0.00069463  1
  Co  Co117  1  0.12850812  0.12363938  0.12047296  1
  Co  Co118  1  0.49882884  0.49870741  0.25364969  1
  Co  Co119  1  0.12533554  0.62436891  0.62570055  1
  Co  Co120  1  0.49731433  0.25254771  -0.00007730  1
  Co  Co121  1  0.12892871  0.87737265  0.62268146  1
  Co  Co122  1  0.37670984  0.62882957  0.37260513  1
  Co  Co123  1  0.00101909  0.25282468  0.50187870  1
  Co  Co124  1  0.49342802  0.49907072  -0.00275543  1
  Co  Co125  1  0.12849364  0.12291138  0.62277946  1
  Co  Co126  1  0.37491848  0.88123907  0.62762368  1
  Co  Co127  1  0.61991351  0.87244045  0.37645830  1
