# generated using pymatgen
data_Fe45Co19
_symmetry_space_group_name_H-M   'P 1'
_cell_length_a   11.41547012
_cell_length_b   11.41402466
_cell_length_c   11.41486978
_cell_angle_alpha   90.01327640
_cell_angle_beta   89.99852508
_cell_angle_gamma   89.99436875
_symmetry_Int_Tables_number   1
_chemical_formula_structural   Fe45Co19
_chemical_formula_sum   'Fe90 Co38'
_cell_volume   1487.31704768
_cell_formula_units_Z   2
loop_
 _symmetry_equiv_pos_site_id
 _symmetry_equiv_pos_as_xyz
  1  'x, y, z'
loop_
 _atom_site_type_symbol
 _atom_site_label
 _atom_site_symmetry_multiplicity
 _atom_site_fract_x
 _atom_site_fract_y
 _atom_site_fract_z
 _atom_site_occupancy
  Fe  Fe0  1  0.75091277  0.74842725  0.75099167  1
  Fe  Fe1  1  0.00003628  0.75042669  0.25506973  1
  Fe  Fe2  1  0.87536968  0.87662042  0.87642807  1
  Fe  Fe3  1  0.50054845  0.00108193  0.25051364  1
  Fe  Fe4  1  0.75198993  0.24897454  0.75084676  1
  Fe  Fe5  1  0.75233807  0.50114288  0.24631622  1
  Fe  Fe6  1  0.37336769  0.87357525  0.87428314  1
  Fe  Fe7  1  0.12560801  0.87610953  0.62473376  1
  Fe  Fe8  1  0.62337834  0.62475321  0.87569217  1
  Fe  Fe9  1  0.24959394  0.74632785  0.75144247  1
  Fe  Fe10  1  0.24662359  0.00206797  -0.00057124  1
  Fe  Fe11  1  0.87676831  0.12631170  0.37489180  1
  Fe  Fe12  1  0.74946108  0.00215117  0.50007049  1
  Fe  Fe13  1  0.62380688  0.12720271  0.62667337  1
  Fe  Fe14  1  0.24931524  0.50158353  0.74930963  1
  Fe  Fe15  1  0.74913616  0.00520204  0.24902755  1
  Fe  Fe16  1  0.50067218  -0.00185452  0.75260317  1
  Fe  Fe17  1  0.37284398  0.87578979  0.12410415  1
  Fe  Fe18  1  0.24933088  0.74757980  0.25154738  1
  Fe  Fe19  1  0.37140436  0.87571474  0.37497532  1
  Fe  Fe20  1  0.62579063  0.37486268  0.37409294  1
  Fe  Fe21  1  0.62412706  0.37405389  0.62607380  1
  Fe  Fe22  1  0.12962379  0.37369151  0.37561964  1
  Fe  Fe23  1  0.50058078  0.75061516  -0.00006602  1
  Fe  Fe24  1  0.24578882  0.25000714  -0.00008322  1
  Fe  Fe25  1  0.62357093  0.62434053  0.62431702  1
  Fe  Fe26  1  0.37632868  0.12554099  0.12398643  1
  Fe  Fe27  1  0.12514256  0.87579147  0.12792935  1
  Fe  Fe28  1  0.74983001  0.50181842  0.00336075  1
  Fe  Fe29  1  0.37717378  0.12498015  0.62665523  1
  Fe  Fe30  1  0.62694369  0.87543388  0.37315347  1
  Fe  Fe31  1  0.75021784  0.49981596  0.50168804  1
  Fe  Fe32  1  0.87741864  0.62518989  0.62146778  1
  Fe  Fe33  1  0.50207092  0.25008621  -0.00186608  1
  Fe  Fe34  1  0.62537849  0.87354462  0.62647404  1
  Fe  Fe35  1  0.37358246  0.12619255  0.87403168  1
  Fe  Fe36  1  0.87685537  0.87615369  0.12640940  1
  Fe  Fe37  1  0.12249971  0.62439344  0.62189576  1
  Fe  Fe38  1  0.37382407  0.87310106  0.62567408  1
  Fe  Fe39  1  0.75201286  0.50125162  0.74860421  1
  Fe  Fe40  1  0.37379764  0.37666705  0.87617030  1
  Fe  Fe41  1  0.12111144  0.12887245  0.12636341  1
  Fe  Fe42  1  0.62491076  0.87542138  0.12545149  1
  Fe  Fe43  1  0.49705438  0.74901831  0.25028340  1
  Fe  Fe44  1  0.87514901  0.87534116  0.62349991  1
  Fe  Fe45  1  0.75308034  0.74736887  0.24899398  1
  Fe  Fe46  1  0.00154688  0.75194549  -0.00022598  1
  Fe  Fe47  1  0.24956330  0.00281451  0.24867035  1
  Fe  Fe48  1  0.62674428  0.37408837  0.87424138  1
  Fe  Fe49  1  0.25152237  0.25138485  0.74622872  1
  Fe  Fe50  1  0.75004393  0.24915336  0.49968551  1
  Fe  Fe51  1  0.49843744  0.49890158  0.24914597  1
  Fe  Fe52  1  0.49975971  0.74951517  0.49866789  1
  Fe  Fe53  1  0.37623459  0.62332286  0.62325897  1
  Fe  Fe54  1  0.37140915  0.37593999  0.12294491  1
  Fe  Fe55  1  0.12328074  0.12539200  0.62729475  1
  Fe  Fe56  1  0.37056637  0.37497828  0.37718738  1
  Fe  Fe57  1  0.49846409  0.25243456  0.50136436  1
  Fe  Fe58  1  0.75032134  0.74761392  0.00227165  1
  Fe  Fe59  1  0.87865186  0.12444793  0.87714599  1
  Fe  Fe60  1  0.87825127  0.62403629  0.87761424  1
  Fe  Fe61  1  0.75130010  0.00061179  0.75020548  1
  Fe  Fe62  1  -0.00137302  0.50007338  0.74792644  1
  Fe  Fe63  1  0.12574724  0.12714517  0.37413485  1
  Fe  Fe64  1  -0.00079780  0.75132688  0.75051783  1
  Fe  Fe65  1  0.87349697  0.37497274  0.37591787  1
  Fe  Fe66  1  0.25018229  0.00136705  0.50132282  1
  Fe  Fe67  1  0.62602156  0.62332492  0.37334302  1
  Fe  Fe68  1  0.00053884  0.75161804  0.49378303  1
  Fe  Fe69  1  0.00203995  0.49487739  0.00307650  1
  Fe  Fe70  1  0.87765813  0.37294169  0.62321345  1
  Fe  Fe71  1  0.74867708  0.00350094  0.00120815  1
  Fe  Fe72  1  0.12519170  0.37508712  0.87165581  1
  Fe  Fe73  1  0.62829232  0.37098130  0.12543061  1
  Fe  Fe74  1  0.12451407  0.87878218  0.87227267  1
  Fe  Fe75  1  0.50056336  -0.00143244  0.49906208  1
  Fe  Fe76  1  0.37407605  0.62135933  0.12054442  1
  Fe  Fe77  1  0.24741802  0.74702823  -0.00288876  1
  Fe  Fe78  1  0.12400702  0.62267802  0.12587052  1
  Fe  Fe79  1  0.87896390  0.13125265  0.12469012  1
  Fe  Fe80  1  0.37431486  0.12680420  0.37602935  1
  Fe  Fe81  1  0.50182705  0.00054785  -0.00180320  1
  Fe  Fe82  1  0.87431594  0.37571978  0.87701366  1
  Fe  Fe83  1  0.75128886  0.74937978  0.49754185  1
  Fe  Fe84  1  0.37119174  0.62192976  0.37866612  1
  Fe  Fe85  1  0.49976888  0.49901255  0.75095845  1
  Fe  Fe86  1  -0.00037831  0.00008397  0.49906057  1
  Fe  Fe87  1  -0.00196423  0.24806947  0.75076274  1
  Fe  Fe88  1  -0.00019146  0.49641807  0.25084370  1
  Fe  Fe89  1  0.49930035  0.25020492  0.25063269  1
  Co  Co90  1  0.62267955  0.12796657  0.12546365  1
  Co  Co91  1  0.62418837  0.12622221  0.87210803  1
  Co  Co92  1  0.87163892  0.37083252  0.12385049  1
  Co  Co93  1  0.62193552  0.62592842  0.12671031  1
  Co  Co94  1  0.25143574  0.24807670  0.24819743  1
  Co  Co95  1  0.00218767  0.00029787  0.00155545  1
  Co  Co96  1  0.12671546  0.62149106  0.37592192  1
  Co  Co97  1  0.87540662  0.12627650  0.62367570  1
  Co  Co98  1  0.25160292  0.50100243  0.24918208  1
  Co  Co99  1  0.12927498  0.37505180  0.12803015  1
  Co  Co100  1  0.75040970  0.24752158  0.25284941  1
  Co  Co101  1  0.37807976  0.62252923  0.87786030  1
  Co  Co102  1  -0.00009762  0.00091159  0.25014043  1
  Co  Co103  1  0.25161116  -0.00013582  0.74935186  1
  Co  Co104  1  0.12813036  0.87824520  0.37383431  1
  Co  Co105  1  0.88121802  0.62471954  0.12484598  1
  Co  Co106  1  0.62238778  0.12648335  0.37695571  1
  Co  Co107  1  0.11976307  0.62291817  0.87469402  1
  Co  Co108  1  0.87262628  0.87834683  0.37363207  1
  Co  Co109  1  0.24727716  0.49692686  0.50469672  1
  Co  Co110  1  0.12472154  0.12495791  0.87170868  1
  Co  Co111  1  0.50361005  0.49637315  0.00164405  1
  Co  Co112  1  0.00369957  0.25395774  -0.00116204  1
  Co  Co113  1  0.00107916  0.49691727  0.49810853  1
  Co  Co114  1  0.25057811  0.24986200  0.50514445  1
  Co  Co115  1  0.87486792  0.62189280  0.37560559  1
  Co  Co116  1  0.49977971  0.74942856  0.75011437  1
  Co  Co117  1  0.74967966  0.24767431  -0.00269648  1
  Co  Co118  1  0.12076610  0.37348387  0.62664112  1
  Co  Co119  1  -0.00015420  0.25507971  0.25135217  1
  Co  Co120  1  0.24546889  0.50038387  -0.00262012  1
  Co  Co121  1  0.00116861  0.24972477  0.49848561  1
  Co  Co122  1  0.37642722  0.37870194  0.62441896  1
  Co  Co123  1  0.49803353  0.25270769  0.75084529  1
  Co  Co124  1  0.24848385  0.75021321  0.50012926  1
  Co  Co125  1  0.62729598  0.87396571  0.87619176  1
  Co  Co126  1  -0.00262249  -0.00017788  0.74884270  1
  Co  Co127  1  0.50148611  0.49886234  0.49807108  1
