# generated using pymatgen
data_Fe45Co19
_symmetry_space_group_name_H-M   'P 1'
_cell_length_a   11.41586843
_cell_length_b   11.41700639
_cell_length_c   11.41560619
_cell_angle_alpha   89.99594293
_cell_angle_beta   90.00323770
_cell_angle_gamma   89.99912160
_symmetry_Int_Tables_number   1
_chemical_formula_structural   Fe45Co19
_chemical_formula_sum   'Fe90 Co38'
_cell_volume   1487.85351528
_cell_formula_units_Z   2
loop_
 _symmetry_equiv_pos_site_id
 _symmetry_equiv_pos_as_xyz
  1  'x, y, z'
loop_
 _atom_site_type_symbol
 _atom_site_label
 _atom_site_symmetry_multiplicity
 _atom_site_fract_x
 _atom_site_fract_y
 _atom_site_fract_z
 _atom_site_occupancy
  Fe  Fe0  1  0.49846241  0.24833977  0.24991411  1
  Fe  Fe1  1  0.50164459  0.49991343  0.00191550  1
  Fe  Fe2  1  0.50233388  0.24734631  0.75102447  1
  Fe  Fe3  1  0.12407847  0.37730951  0.37018619  1
  Fe  Fe4  1  0.87528274  0.37477460  0.12750293  1
  Fe  Fe5  1  0.24793499  0.49924432  0.00331268  1
  Fe  Fe6  1  0.24869282  0.50128902  0.75126871  1
  Fe  Fe7  1  0.12426737  0.87932478  0.37148806  1
  Fe  Fe8  1  0.87386239  0.62486759  0.12559690  1
  Fe  Fe9  1  0.74882991  0.24919130  0.25154830  1
  Fe  Fe10  1  0.24690885  0.75261697  0.75075742  1
  Fe  Fe11  1  0.87436305  0.62227099  0.61919959  1
  Fe  Fe12  1  0.37456798  0.87373261  0.62414273  1
  Fe  Fe13  1  0.49841431  0.25039192  0.50094699  1
  Fe  Fe14  1  -0.00027391  0.24864993  0.74995264  1
  Fe  Fe15  1  0.87617403  0.62526038  0.87591327  1
  Fe  Fe16  1  0.25023313  0.24924800  0.75089860  1
  Fe  Fe17  1  0.75106205  0.49894031  0.25353825  1
  Fe  Fe18  1  0.25173480  0.50090641  0.49684619  1
  Fe  Fe19  1  0.12765379  0.12189320  0.12799480  1
  Fe  Fe20  1  0.75004937  -0.00154614  0.50003494  1
  Fe  Fe21  1  0.12475668  0.12125599  0.87413755  1
  Fe  Fe22  1  0.50025638  0.75041031  0.25180007  1
  Fe  Fe23  1  0.12493504  0.62440515  0.62206545  1
  Fe  Fe24  1  0.49908389  0.50178603  0.25046576  1
  Fe  Fe25  1  0.00103930  0.24797331  0.00064163  1
  Fe  Fe26  1  0.50133741  0.75203627  0.00130536  1
  Fe  Fe27  1  0.74967657  0.75116490  0.74636607  1
  Fe  Fe28  1  0.75019966  0.25263044  0.49974330  1
  Fe  Fe29  1  0.87732645  0.37656398  0.62432382  1
  Fe  Fe30  1  0.00253951  0.49959792  0.00473586  1
  Fe  Fe31  1  0.62410439  0.12361167  0.12452065  1
  Fe  Fe32  1  0.24867663  0.75428669  -0.00039496  1
  Fe  Fe33  1  0.62622596  0.62589415  0.87431007  1
  Fe  Fe34  1  0.00082124  0.75235460  0.00227485  1
  Fe  Fe35  1  0.74654969  0.25359401  -0.00112890  1
  Fe  Fe36  1  0.87663177  0.87758300  0.62535335  1
  Fe  Fe37  1  0.49931660  0.50424035  0.74776657  1
  Fe  Fe38  1  0.87639113  0.37578696  0.87413711  1
  Fe  Fe39  1  0.24700270  -0.00342742  0.74887161  1
  Fe  Fe40  1  0.00187819  0.75012165  0.74797792  1
  Fe  Fe41  1  0.37400436  0.62686281  0.87570396  1
  Fe  Fe42  1  0.87257533  0.12409950  0.62715727  1
  Fe  Fe43  1  0.24973504  0.24978279  0.49752220  1
  Fe  Fe44  1  0.00150375  0.25046181  0.49928381  1
  Fe  Fe45  1  0.24919701  0.24992803  -0.00099872  1
  Fe  Fe46  1  0.25182559  -0.00496726  0.00212244  1
  Fe  Fe47  1  0.24970053  0.75016236  0.25164866  1
  Fe  Fe48  1  0.50103871  0.74804805  0.74533001  1
  Fe  Fe49  1  0.37385326  0.37414970  0.12699170  1
  Fe  Fe50  1  0.12339943  0.62579854  0.87656289  1
  Fe  Fe51  1  0.37380004  0.37549128  0.62535443  1
  Fe  Fe52  1  0.25053192  0.00151552  0.49743835  1
  Fe  Fe53  1  0.75050228  -0.00031663  0.25181507  1
  Fe  Fe54  1  0.75181347  0.75132506  0.25398582  1
  Fe  Fe55  1  0.62334782  0.87359989  0.37827054  1
  Fe  Fe56  1  0.74901776  0.75208809  0.00119198  1
  Fe  Fe57  1  0.87527002  0.12560337  0.37689696  1
  Fe  Fe58  1  0.25400828  0.24535139  0.25289803  1
  Fe  Fe59  1  0.50124926  -0.00499447  0.00052690  1
  Fe  Fe60  1  0.50569867  0.00021696  0.74959276  1
  Fe  Fe61  1  0.12530399  0.12501094  0.62441464  1
  Fe  Fe62  1  0.87143090  0.12261471  0.87178589  1
  Fe  Fe63  1  0.12426992  0.37747820  0.62530202  1
  Fe  Fe64  1  0.00041688  0.00122944  0.49949968  1
  Fe  Fe65  1  0.62810979  0.62729728  0.38069048  1
  Fe  Fe66  1  0.87143493  0.12504829  0.12371888  1
  Fe  Fe67  1  0.75100933  0.50041084  0.74918977  1
  Fe  Fe68  1  0.49559127  -0.00069854  0.24949243  1
  Fe  Fe69  1  -0.00109786  0.74952480  0.49629353  1
  Fe  Fe70  1  0.37590211  0.37613084  0.87451058  1
  Fe  Fe71  1  0.87556313  0.87499734  0.12837567  1
  Fe  Fe72  1  0.49786362  0.50425604  0.50102318  1
  Fe  Fe73  1  -0.00120583  0.74694402  0.25270386  1
  Fe  Fe74  1  0.37595329  0.12182428  0.87598273  1
  Fe  Fe75  1  0.37460131  0.12490130  0.62472015  1
  Fe  Fe76  1  0.37386465  0.62733072  0.12561221  1
  Fe  Fe77  1  0.62308536  0.12467033  0.37665989  1
  Fe  Fe78  1  0.74740541  -0.00451090  -0.00028287  1
  Fe  Fe79  1  0.49926360  -0.00059841  0.50107512  1
  Fe  Fe80  1  -0.00080517  0.24649294  0.24962255  1
  Fe  Fe81  1  0.62241058  0.37448511  0.37462750  1
  Fe  Fe82  1  0.50290451  0.25251946  -0.00042110  1
  Fe  Fe83  1  0.25169667  0.74908943  0.49670161  1
  Fe  Fe84  1  0.87569155  0.87639388  0.87157946  1
  Fe  Fe85  1  -0.00022961  -0.00071881  0.00224401  1
  Fe  Fe86  1  0.12278783  0.37545052  0.87415080  1
  Fe  Fe87  1  0.74783658  0.49891820  0.00077060  1
  Fe  Fe88  1  0.62424099  0.37543219  0.62638098  1
  Fe  Fe89  1  0.62715454  0.62604473  0.12706951  1
  Co  Co90  1  0.37808081  0.12566160  0.37923250  1
  Co  Co91  1  -0.00407443  0.00305908  0.24894949  1
  Co  Co92  1  0.37546283  0.37653964  0.37457581  1
  Co  Co93  1  0.74954356  0.49404409  0.49792919  1
  Co  Co94  1  0.62579453  0.87425623  0.12892167  1
  Co  Co95  1  0.62730407  0.12437440  0.87827610  1
  Co  Co96  1  0.12586549  0.62885341  0.12514427  1
  Co  Co97  1  0.37645540  0.12614262  0.12078427  1
  Co  Co98  1  0.12500590  0.87369134  0.61906171  1
  Co  Co99  1  0.00300474  -0.00025601  0.74768771  1
  Co  Co100  1  0.62489513  0.87064158  0.87329056  1
  Co  Co101  1  0.00138800  0.50024573  0.49602224  1
  Co  Co102  1  0.12362649  0.12258947  0.37341926  1
  Co  Co103  1  0.62533967  0.37562458  0.12883314  1
  Co  Co104  1  0.25021372  0.50199413  0.24728611  1
  Co  Co105  1  0.37507893  0.62515516  0.37245571  1
  Co  Co106  1  0.74436178  -0.00191566  0.74819706  1
  Co  Co107  1  0.37729864  0.87444668  0.87158687  1
  Co  Co108  1  0.12569875  0.37090015  0.12953017  1
  Co  Co109  1  0.75376988  0.75514323  0.50058523  1
  Co  Co110  1  0.63073582  0.62501773  0.62062702  1
  Co  Co111  1  0.00020355  0.50301427  0.74945531  1
  Co  Co112  1  0.49652536  0.74540233  0.50262227  1
  Co  Co113  1  0.87892290  0.37400535  0.37266278  1
  Co  Co114  1  0.12441991  0.87699041  0.13031637  1
  Co  Co115  1  0.36905706  0.62627465  0.62616695  1
  Co  Co116  1  0.87711800  0.87730486  0.37458133  1
  Co  Co117  1  0.62302563  0.87287002  0.62053639  1
  Co  Co118  1  0.62684950  0.12631936  0.62161346  1
  Co  Co119  1  0.87178394  0.62262644  0.37871565  1
  Co  Co120  1  -0.00054460  0.50408168  0.24806965  1
  Co  Co121  1  0.37418233  0.87184515  0.12712021  1
  Co  Co122  1  0.74934101  0.25156091  0.74940449  1
  Co  Co123  1  0.62390966  0.37818840  0.87114412  1
  Co  Co124  1  0.12626663  0.62338318  0.37445479  1
  Co  Co125  1  0.12158153  0.87597576  0.87627398  1
  Co  Co126  1  0.37612399  0.87352612  0.37719808  1
  Co  Co127  1  0.25683084  0.00241082  0.25122281  1
