# generated using pymatgen
data_Fe45Co19
_symmetry_space_group_name_H-M   'P 1'
_cell_length_a   11.41390286
_cell_length_b   11.41529836
_cell_length_c   11.41539816
_cell_angle_alpha   90.00009493
_cell_angle_beta   90.00349734
_cell_angle_gamma   89.99590623
_symmetry_Int_Tables_number   1
_chemical_formula_structural   Fe45Co19
_chemical_formula_sum   'Fe90 Co38'
_cell_volume   1487.34768147
_cell_formula_units_Z   2
loop_
 _symmetry_equiv_pos_site_id
 _symmetry_equiv_pos_as_xyz
  1  'x, y, z'
loop_
 _atom_site_type_symbol
 _atom_site_label
 _atom_site_symmetry_multiplicity
 _atom_site_fract_x
 _atom_site_fract_y
 _atom_site_fract_z
 _atom_site_occupancy
  Fe  Fe0  1  0.74719163  0.24938992  -0.00290176  1
  Fe  Fe1  1  0.87844646  0.62402635  0.12286245  1
  Fe  Fe2  1  0.62616707  0.62669147  0.12691063  1
  Fe  Fe3  1  0.12466888  0.37409521  0.37349819  1
  Fe  Fe4  1  0.24998777  0.49999073  0.75065603  1
  Fe  Fe5  1  0.50203472  0.75082258  0.49974595  1
  Fe  Fe6  1  0.37072026  0.37664549  0.12418878  1
  Fe  Fe7  1  0.62536519  0.87454697  0.62571933  1
  Fe  Fe8  1  0.24598863  0.50360296  -0.00061528  1
  Fe  Fe9  1  0.87398986  0.87789037  0.62497435  1
  Fe  Fe10  1  0.62344632  0.12477465  0.37129296  1
  Fe  Fe11  1  0.25217330  0.75039686  0.75206898  1
  Fe  Fe12  1  0.25104623  0.24677252  0.24904181  1
  Fe  Fe13  1  0.75028377  0.00220085  0.49775937  1
  Fe  Fe14  1  0.37485058  0.37486852  0.62290525  1
  Fe  Fe15  1  -0.00233661  0.00354214  0.50197529  1
  Fe  Fe16  1  -0.00088290  0.49947760  0.75024474  1
  Fe  Fe17  1  0.87184873  0.87737080  0.12378046  1
  Fe  Fe18  1  0.37615865  0.62466596  0.87569483  1
  Fe  Fe19  1  0.12571023  0.37273423  0.87441869  1
  Fe  Fe20  1  0.37798669  0.12439835  0.87727579  1
  Fe  Fe21  1  0.50022432  0.50059491  0.00223042  1
  Fe  Fe22  1  0.37484450  0.37467632  0.87836308  1
  Fe  Fe23  1  0.87566349  0.37365760  0.37641893  1
  Fe  Fe24  1  0.37630444  0.62561381  0.62337297  1
  Fe  Fe25  1  0.37434785  0.87646768  0.37502275  1
  Fe  Fe26  1  0.25053801  0.24814915  0.50065484  1
  Fe  Fe27  1  0.00068105  0.49893626  0.49961459  1
  Fe  Fe28  1  0.62422463  0.62559134  0.87395300  1
  Fe  Fe29  1  0.74492136  0.50137036  0.49862327  1
  Fe  Fe30  1  0.74937248  0.25202149  0.75399967  1
  Fe  Fe31  1  0.37463885  0.11934885  0.12222855  1
  Fe  Fe32  1  0.37742942  0.12245641  0.37640653  1
  Fe  Fe33  1  0.87390359  0.87676663  0.87711396  1
  Fe  Fe34  1  0.87268470  0.87539632  0.37396842  1
  Fe  Fe35  1  0.75187247  0.24953615  0.25029669  1
  Fe  Fe36  1  0.50520665  0.50019828  0.49881279  1
  Fe  Fe37  1  0.62511168  0.37301481  0.12446835  1
  Fe  Fe38  1  0.62298785  0.12468648  0.62614449  1
  Fe  Fe39  1  0.12516750  0.62668765  0.62577656  1
  Fe  Fe40  1  0.12567900  0.37357381  0.62536605  1
  Fe  Fe41  1  0.12500420  0.87472096  0.87448170  1
  Fe  Fe42  1  0.50057275  0.25056412  0.49922646  1
  Fe  Fe43  1  0.50131418  0.49791606  0.74823618  1
  Fe  Fe44  1  0.37801652  0.87608402  0.88259136  1
  Fe  Fe45  1  0.74906663  0.00039441  0.75147352  1
  Fe  Fe46  1  0.12672179  0.87561460  0.62547758  1
  Fe  Fe47  1  0.49885724  0.75097507  0.75027804  1
  Fe  Fe48  1  0.74999866  0.24644890  0.49841448  1
  Fe  Fe49  1  0.00390313  0.49967377  0.00053141  1
  Fe  Fe50  1  0.24637553  0.50527952  0.25181552  1
  Fe  Fe51  1  0.50153203  0.49972566  0.25029589  1
  Fe  Fe52  1  0.25109232  0.74806070  0.49722384  1
  Fe  Fe53  1  0.49837028  -0.00192764  0.74911142  1
  Fe  Fe54  1  0.25264121  0.00201961  0.50153698  1
  Fe  Fe55  1  0.12344067  0.12452208  0.37343390  1
  Fe  Fe56  1  0.62900364  0.87201403  0.37078057  1
  Fe  Fe57  1  0.25342379  0.00002083  0.75091514  1
  Fe  Fe58  1  0.00432733  -0.00032149  -0.00009230  1
  Fe  Fe59  1  0.87570890  0.37576994  0.12290810  1
  Fe  Fe60  1  -0.00021564  0.25104562  0.24808558  1
  Fe  Fe61  1  0.74121042  0.00081849  0.00111330  1
  Fe  Fe62  1  0.49672460  0.25133463  0.24711730  1
  Fe  Fe63  1  0.24919455  0.50212807  0.49877009  1
  Fe  Fe64  1  0.49586544  0.75067024  0.24704866  1
  Fe  Fe65  1  0.74884132  0.49883587  -0.00197582  1
  Fe  Fe66  1  0.37134098  0.62810323  0.12463896  1
  Fe  Fe67  1  0.12587294  0.87599339  0.37578977  1
  Fe  Fe68  1  0.74880533  0.49708683  0.75199076  1
  Fe  Fe69  1  0.00301001  0.24819089  0.00158756  1
  Fe  Fe70  1  0.75108716  0.75056606  0.74993122  1
  Fe  Fe71  1  0.87418225  0.12281082  0.12456528  1
  Fe  Fe72  1  0.87477518  0.62643392  0.37575371  1
  Fe  Fe73  1  0.87735749  0.62574377  0.87680889  1
  Fe  Fe74  1  0.74808080  0.75043149  0.00036782  1
  Fe  Fe75  1  0.75034222  0.50003609  0.25136522  1
  Fe  Fe76  1  0.24748806  0.24611979  0.00080469  1
  Fe  Fe77  1  0.49880707  0.25308297  0.75062823  1
  Fe  Fe78  1  -0.00050937  0.75072202  0.24862917  1
  Fe  Fe79  1  -0.00216828  0.75199256  0.75001494  1
  Fe  Fe80  1  0.37448635  0.37710772  0.37425639  1
  Fe  Fe81  1  0.87616481  0.12263566  0.87541550  1
  Fe  Fe82  1  -0.00178185  0.75145741  0.50169376  1
  Fe  Fe83  1  0.50059019  -0.00258473  0.24578369  1
  Fe  Fe84  1  0.87279869  0.37314059  0.62306765  1
  Fe  Fe85  1  0.13245571  0.87348740  0.12578912  1
  Fe  Fe86  1  -0.00001449  -0.00113145  0.24897996  1
  Fe  Fe87  1  0.87295718  0.62415451  0.62437525  1
  Fe  Fe88  1  0.12573376  0.12455586  0.62875385  1
  Fe  Fe89  1  -0.00221278  0.24979049  0.74961458  1
  Co  Co90  1  0.37885141  0.62295105  0.37624094  1
  Co  Co91  1  0.37836926  0.12506102  0.62447293  1
  Co  Co92  1  0.00091523  0.24801545  0.50152602  1
  Co  Co93  1  0.50241434  -0.00310035  0.49912321  1
  Co  Co94  1  0.50149314  0.74932005  0.00229664  1
  Co  Co95  1  0.87770597  0.12494627  0.37133804  1
  Co  Co96  1  0.00057304  0.75441799  0.00093992  1
  Co  Co97  1  0.12030605  0.62677977  0.37560514  1
  Co  Co98  1  0.12415360  0.62894777  0.12566589  1
  Co  Co99  1  0.74894237  0.00174695  0.24944041  1
  Co  Co100  1  -0.00071463  -0.00179753  0.75013030  1
  Co  Co101  1  0.62347521  0.87286071  0.87337300  1
  Co  Co102  1  -0.00091947  0.49964972  0.25015023  1
  Co  Co103  1  0.62082754  0.12567005  0.87233844  1
  Co  Co104  1  0.49864959  0.24959033  0.00291912  1
  Co  Co105  1  0.24611697  0.00333750  -0.00311275  1
  Co  Co106  1  0.62561336  0.12927273  0.12792403  1
  Co  Co107  1  0.62644031  0.87115444  0.12820953  1
  Co  Co108  1  0.87806894  0.37497269  0.87727723  1
  Co  Co109  1  0.75016800  0.75093100  0.50243000  1
  Co  Co110  1  0.12162876  0.62662627  0.87304258  1
  Co  Co111  1  0.37418939  0.87347482  0.62285312  1
  Co  Co112  1  0.87356589  0.12569203  0.62839511  1
  Co  Co113  1  0.25140448  0.74867598  0.25458645  1
  Co  Co114  1  0.12707978  0.37548182  0.12685691  1
  Co  Co115  1  0.62454407  0.37230965  0.37241212  1
  Co  Co116  1  0.62606991  0.62965485  0.37221244  1
  Co  Co117  1  0.62664415  0.37242584  0.62462700  1
  Co  Co118  1  0.75559801  0.74759349  0.24598392  1
  Co  Co119  1  0.25175655  0.00081678  0.25204245  1
  Co  Co120  1  0.12481748  0.12233043  0.12854722  1
  Co  Co121  1  0.25371209  0.24974150  0.75003759  1
  Co  Co122  1  0.62076430  0.37579666  0.87766611  1
  Co  Co123  1  0.37030922  0.87637626  0.12031420  1
  Co  Co124  1  0.24940251  0.74711761  -0.00310655  1
  Co  Co125  1  0.12338079  0.12564603  0.87038046  1
  Co  Co126  1  0.50754775  -0.00101971  0.00401752  1
  Co  Co127  1  0.62484441  0.62656787  0.62710545  1
