# generated using pymatgen
data_Fe45Co19
_symmetry_space_group_name_H-M   'P 1'
_cell_length_a   11.41493522
_cell_length_b   11.41408719
_cell_length_c   11.41524243
_cell_angle_alpha   90.00429821
_cell_angle_beta   89.99961702
_cell_angle_gamma   90.00016594
_symmetry_Int_Tables_number   1
_chemical_formula_structural   Fe45Co19
_chemical_formula_sum   'Fe90 Co38'
_cell_volume   1487.30410034
_cell_formula_units_Z   2
loop_
 _symmetry_equiv_pos_site_id
 _symmetry_equiv_pos_as_xyz
  1  'x, y, z'
loop_
 _atom_site_type_symbol
 _atom_site_label
 _atom_site_symmetry_multiplicity
 _atom_site_fract_x
 _atom_site_fract_y
 _atom_site_fract_z
 _atom_site_occupancy
  Fe  Fe0  1  0.49869158  0.75102719  0.25028397  1
  Fe  Fe1  1  0.50129718  0.00110628  0.50001950  1
  Fe  Fe2  1  0.25029525  0.00169180  0.50068878  1
  Fe  Fe3  1  0.49749843  0.74987719  0.50124846  1
  Fe  Fe4  1  0.74902475  0.49995827  0.24948952  1
  Fe  Fe5  1  0.62575554  0.87671151  0.37324431  1
  Fe  Fe6  1  0.74572533  -0.00179550  0.00250842  1
  Fe  Fe7  1  0.87828280  0.12361709  0.37507316  1
  Fe  Fe8  1  0.74996927  0.25097129  -0.00131705  1
  Fe  Fe9  1  0.62670989  0.87680617  0.62587214  1
  Fe  Fe10  1  0.75086213  0.00115390  0.49951075  1
  Fe  Fe11  1  0.74918557  0.49872801  0.49868463  1
  Fe  Fe12  1  0.00137636  0.25157163  0.50318997  1
  Fe  Fe13  1  0.87638399  0.37508649  0.37623768  1
  Fe  Fe14  1  0.24966380  0.75314775  0.24932578  1
  Fe  Fe15  1  0.00125206  0.49883647  0.50263931  1
  Fe  Fe16  1  0.87461182  0.87491411  0.62367968  1
  Fe  Fe17  1  0.37344120  0.37172490  0.62585091  1
  Fe  Fe18  1  0.24491130  -0.00242872  0.00035481  1
  Fe  Fe19  1  0.49637121  0.25036801  0.24778881  1
  Fe  Fe20  1  0.25007151  0.50005228  0.00044304  1
  Fe  Fe21  1  0.49956693  0.49925230  0.74848298  1
  Fe  Fe22  1  0.87630093  0.62462294  0.37445498  1
  Fe  Fe23  1  0.87755151  0.12762901  0.12332134  1
  Fe  Fe24  1  0.62521612  0.62696662  0.87572534  1
  Fe  Fe25  1  0.49909696  0.49954355  0.00179954  1
  Fe  Fe26  1  0.50047985  0.75553248  -0.00141511  1
  Fe  Fe27  1  0.87366502  0.62402345  0.87623963  1
  Fe  Fe28  1  0.25300916  0.75046628  0.49989910  1
  Fe  Fe29  1  0.87353708  0.12670482  0.87515406  1
  Fe  Fe30  1  0.62304324  0.37369633  0.87687553  1
  Fe  Fe31  1  0.74864640  0.49823637  0.75032665  1
  Fe  Fe32  1  0.49917915  0.75222162  0.75053800  1
  Fe  Fe33  1  0.62765366  0.37275364  0.62236744  1
  Fe  Fe34  1  0.37506979  0.37250093  0.87634293  1
  Fe  Fe35  1  0.87426877  0.87576300  0.87729952  1
  Fe  Fe36  1  0.00088491  0.50002161  0.24983050  1
  Fe  Fe37  1  0.24837412  0.24777320  0.00082285  1
  Fe  Fe38  1  0.37470467  0.62633229  0.12426738  1
  Fe  Fe39  1  0.62562066  0.12509105  0.37238026  1
  Fe  Fe40  1  0.37563529  0.62626228  0.87567911  1
  Fe  Fe41  1  0.75106729  -0.00006409  0.24773449  1
  Fe  Fe42  1  0.12693740  0.62559556  0.37450519  1
  Fe  Fe43  1  0.62433855  0.62503614  0.62427909  1
  Fe  Fe44  1  0.37660306  0.12069341  0.87805241  1
  Fe  Fe45  1  0.75238689  0.25072397  0.25292559  1
  Fe  Fe46  1  -0.00170354  0.00069046  0.75077578  1
  Fe  Fe47  1  0.12580804  0.62645456  0.87559437  1
  Fe  Fe48  1  0.50255002  0.00219323  0.75048005  1
  Fe  Fe49  1  0.12268071  0.12379891  0.37479955  1
  Fe  Fe50  1  0.12344627  0.62928270  0.12463948  1
  Fe  Fe51  1  0.00015828  0.50016400  0.00031306  1
  Fe  Fe52  1  0.62500124  0.62654460  0.12445558  1
  Fe  Fe53  1  0.25526965  0.50204438  0.50045130  1
  Fe  Fe54  1  0.87662441  0.37358908  0.87238927  1
  Fe  Fe55  1  0.12375957  0.37186761  0.12452078  1
  Fe  Fe56  1  -0.00054830  0.75175274  0.49769773  1
  Fe  Fe57  1  0.25094408  0.75432325  0.75384147  1
  Fe  Fe58  1  0.37431381  0.12412093  0.37377551  1
  Fe  Fe59  1  0.75044911  0.75106283  0.75075331  1
  Fe  Fe60  1  0.61929945  0.62170763  0.37523039  1
  Fe  Fe61  1  0.87437092  0.62487261  0.62409978  1
  Fe  Fe62  1  0.24816154  0.24448286  0.74835909  1
  Fe  Fe63  1  0.24907943  0.24610144  0.50226500  1
  Fe  Fe64  1  0.50262204  0.24636250  0.75024821  1
  Fe  Fe65  1  0.74987875  0.75113720  0.49734265  1
  Fe  Fe66  1  -0.00063326  0.74992847  0.75153039  1
  Fe  Fe67  1  0.12703866  0.62627821  0.62536183  1
  Fe  Fe68  1  0.62455602  0.37261711  0.12639367  1
  Fe  Fe69  1  0.25060588  0.24758349  0.24784258  1
  Fe  Fe70  1  0.50171333  0.24889850  0.49955685  1
  Fe  Fe71  1  0.12749982  0.37452061  0.37601212  1
  Fe  Fe72  1  0.37370684  0.87897799  0.62760278  1
  Fe  Fe73  1  0.00155640  -0.00135293  0.24730070  1
  Fe  Fe74  1  0.25358194  0.49870380  0.24871949  1
  Fe  Fe75  1  0.50031431  0.24503146  0.00257120  1
  Fe  Fe76  1  0.12520198  0.37388459  0.87338475  1
  Fe  Fe77  1  0.87753100  0.87017920  0.12438217  1
  Fe  Fe78  1  0.25223607  0.50009162  0.75101842  1
  Fe  Fe79  1  0.12458114  0.87810628  0.62626206  1
  Fe  Fe80  1  0.75134761  0.74851179  0.25149043  1
  Fe  Fe81  1  0.87301159  0.12867934  0.62604730  1
  Fe  Fe82  1  0.87734180  0.37417493  0.12542554  1
  Fe  Fe83  1  0.12395593  0.87690920  0.37587252  1
  Fe  Fe84  1  0.37501404  0.87754445  0.37379123  1
  Fe  Fe85  1  0.00050841  0.49817635  0.74688941  1
  Fe  Fe86  1  0.12096817  0.12417207  0.87537448  1
  Fe  Fe87  1  0.50075931  0.00200349  0.24669464  1
  Fe  Fe88  1  0.37431106  0.87937499  0.12386935  1
  Fe  Fe89  1  0.75045286  0.49978464  0.00120657  1
  Co  Co90  1  0.62247552  0.37554298  0.37398696  1
  Co  Co91  1  0.62832527  0.12462585  0.62475941  1
  Co  Co92  1  0.37664485  0.62514980  0.37210310  1
  Co  Co93  1  0.00223836  0.25067451  0.74750878  1
  Co  Co94  1  0.00055076  0.25029790  0.25155291  1
  Co  Co95  1  0.37658242  0.88095998  0.87608384  1
  Co  Co96  1  0.75023838  0.24784771  0.49520712  1
  Co  Co97  1  0.00023304  0.25118555  -0.00162962  1
  Co  Co98  1  0.49590821  0.49954057  0.50311926  1
  Co  Co99  1  -0.00044616  0.00105877  0.00066950  1
  Co  Co100  1  0.12274626  0.12615109  0.12490637  1
  Co  Co101  1  0.37381710  0.62704262  0.62875242  1
  Co  Co102  1  0.87152570  0.37291641  0.62515113  1
  Co  Co103  1  0.87608024  0.62682395  0.12514297  1
  Co  Co104  1  0.87397032  0.87695641  0.37361350  1
  Co  Co105  1  -0.00218050  -0.00083022  0.50085922  1
  Co  Co106  1  0.62623915  0.87628526  0.87247966  1
  Co  Co107  1  0.62749797  0.12872703  0.12765642  1
  Co  Co108  1  0.24848644  0.00302999  0.75115091  1
  Co  Co109  1  0.12184841  0.87594811  0.87491679  1
  Co  Co110  1  0.74703628  0.25108984  0.75305815  1
  Co  Co111  1  0.50712651  -0.00051831  0.00342646  1
  Co  Co112  1  0.37359045  0.37315234  0.12128383  1
  Co  Co113  1  0.62732607  0.12276528  0.87572951  1
  Co  Co114  1  0.12142736  0.87164702  0.12266684  1
  Co  Co115  1  0.74950101  0.75102748  -0.00099361  1
  Co  Co116  1  0.25128370  0.75298951  -0.00155859  1
  Co  Co117  1  0.12950651  0.37692849  0.62542696  1
  Co  Co118  1  0.37218885  0.11980931  0.12273543  1
  Co  Co119  1  -0.00013642  0.74764921  -0.00345804  1
  Co  Co120  1  0.12183904  0.12052865  0.62437053  1
  Co  Co121  1  0.00007751  0.75115560  0.25395411  1
  Co  Co122  1  0.62604724  0.87213754  0.12875198  1
  Co  Co123  1  0.37707708  0.12357476  0.62492887  1
  Co  Co124  1  0.37416862  0.37321186  0.37614801  1
  Co  Co125  1  0.75194369  0.00015829  0.74936411  1
  Co  Co126  1  0.24606027  -0.00011158  0.25002392  1
  Co  Co127  1  0.49760974  0.49703226  0.24681263  1
