# generated using pymatgen
data_Fe45Co19
_symmetry_space_group_name_H-M   'P 1'
_cell_length_a   11.41581166
_cell_length_b   11.41558100
_cell_length_c   11.41490027
_cell_angle_alpha   89.99577117
_cell_angle_beta   89.99374897
_cell_angle_gamma   89.99800315
_symmetry_Int_Tables_number   1
_chemical_formula_structural   Fe45Co19
_chemical_formula_sum   'Fe90 Co38'
_cell_volume   1487.56836031
_cell_formula_units_Z   2
loop_
 _symmetry_equiv_pos_site_id
 _symmetry_equiv_pos_as_xyz
  1  'x, y, z'
loop_
 _atom_site_type_symbol
 _atom_site_label
 _atom_site_symmetry_multiplicity
 _atom_site_fract_x
 _atom_site_fract_y
 _atom_site_fract_z
 _atom_site_occupancy
  Fe  Fe0  1  0.74814436  0.49917116  -0.00059970  1
  Fe  Fe1  1  0.12758154  0.62476659  0.37509617  1
  Fe  Fe2  1  0.74788142  0.25074220  0.50230781  1
  Fe  Fe3  1  0.87391007  0.37592071  0.37559539  1
  Fe  Fe4  1  0.24958133  -0.00241702  0.00063949  1
  Fe  Fe5  1  0.87566955  0.87322374  0.37259684  1
  Fe  Fe6  1  0.12388666  0.87458600  0.37272411  1
  Fe  Fe7  1  0.74987799  -0.00101097  0.00018983  1
  Fe  Fe8  1  0.62242037  0.37343174  0.37085235  1
  Fe  Fe9  1  0.25512834  0.49743913  0.24564420  1
  Fe  Fe10  1  0.49768477  0.24955974  0.50123836  1
  Fe  Fe11  1  0.75002827  0.25082206  0.00197097  1
  Fe  Fe12  1  0.62457594  0.12701671  0.12703689  1
  Fe  Fe13  1  0.25151330  0.25079976  0.50190303  1
  Fe  Fe14  1  0.62477871  0.62579453  0.37205610  1
  Fe  Fe15  1  0.49870419  0.74822223  0.24796168  1
  Fe  Fe16  1  0.87639010  0.37587027  0.12467993  1
  Fe  Fe17  1  0.50006624  -0.00106212  -0.00157663  1
  Fe  Fe18  1  0.62428663  0.12709519  0.37211075  1
  Fe  Fe19  1  0.37268707  0.12655476  0.37263646  1
  Fe  Fe20  1  0.12436074  0.37343370  0.12392678  1
  Fe  Fe21  1  0.75202559  0.00040898  0.25029484  1
  Fe  Fe22  1  0.25134877  0.74997237  0.50155223  1
  Fe  Fe23  1  0.12488145  0.87355943  0.62509589  1
  Fe  Fe24  1  0.00155660  0.25064136  0.50045815  1
  Fe  Fe25  1  0.00453542  0.49968631  -0.00449030  1
  Fe  Fe26  1  0.37640145  0.12501376  0.87376813  1
  Fe  Fe27  1  0.87404145  0.62266894  0.37600250  1
  Fe  Fe28  1  0.00244690  0.50319252  0.75271000  1
  Fe  Fe29  1  0.24973032  0.49995722  0.50058061  1
  Fe  Fe30  1  0.37045104  0.63148671  0.88319904  1
  Fe  Fe31  1  0.00102242  0.74701820  0.74950078  1
  Fe  Fe32  1  0.50112943  0.25206785  -0.00007115  1
  Fe  Fe33  1  0.24715947  0.50458333  0.75433274  1
  Fe  Fe34  1  -0.00059087  -0.00042428  0.75018641  1
  Fe  Fe35  1  0.50180080  0.50190464  0.49698446  1
  Fe  Fe36  1  0.37579074  0.62449509  0.62425694  1
  Fe  Fe37  1  0.75395190  0.74775452  0.24398236  1
  Fe  Fe38  1  0.37371117  0.12628204  0.12539706  1
  Fe  Fe39  1  0.62502433  0.62371680  0.62712811  1
  Fe  Fe40  1  0.24798418  0.25090406  0.00001677  1
  Fe  Fe41  1  0.87306827  0.62715646  0.87881099  1
  Fe  Fe42  1  0.87434446  0.87537186  0.62516532  1
  Fe  Fe43  1  0.12710381  0.87057229  0.87390307  1
  Fe  Fe44  1  0.87339416  0.87250218  0.87665784  1
  Fe  Fe45  1  -0.00056821  0.00049261  0.49976629  1
  Fe  Fe46  1  0.25349095  -0.00091369  0.50097482  1
  Fe  Fe47  1  0.87639890  0.12516591  0.12531609  1
  Fe  Fe48  1  0.74765307  -0.00108840  0.74879523  1
  Fe  Fe49  1  0.25424989  -0.00249107  0.75013827  1
  Fe  Fe50  1  0.25068354  0.75032598  0.24724962  1
  Fe  Fe51  1  0.62619012  0.37612966  0.87473065  1
  Fe  Fe52  1  0.74778887  0.74816043  0.74853817  1
  Fe  Fe53  1  0.38264961  0.87415942  0.62475664  1
  Fe  Fe54  1  0.12827832  0.12468652  0.37220408  1
  Fe  Fe55  1  0.62444129  0.87129653  0.87473876  1
  Fe  Fe56  1  0.12500755  0.62489048  0.12307533  1
  Fe  Fe57  1  0.74794162  -0.00081951  0.50133973  1
  Fe  Fe58  1  0.62426363  0.12661758  0.87364646  1
  Fe  Fe59  1  0.37442210  0.62391460  0.37322683  1
  Fe  Fe60  1  0.25120665  0.24969350  0.74886717  1
  Fe  Fe61  1  0.74999106  0.25108384  0.74816112  1
  Fe  Fe62  1  -0.00089468  0.24954405  0.74856074  1
  Fe  Fe63  1  0.00046825  -0.00015926  -0.00136728  1
  Fe  Fe64  1  0.49906353  0.50383752  0.75661202  1
  Fe  Fe65  1  0.12621355  0.12322849  0.62561520  1
  Fe  Fe66  1  0.37726975  0.87356141  0.37534926  1
  Fe  Fe67  1  0.87437990  0.12575997  0.87422529  1
  Fe  Fe68  1  0.49833974  0.00103244  0.25061620  1
  Fe  Fe69  1  0.12717199  0.37580425  0.37467044  1
  Fe  Fe70  1  0.87572874  0.37359627  0.87527879  1
  Fe  Fe71  1  0.12519887  0.12589787  0.87352390  1
  Fe  Fe72  1  0.74862692  0.49925041  0.24893791  1
  Fe  Fe73  1  0.74789319  0.74931802  0.50100000  1
  Fe  Fe74  1  0.37691240  0.87452710  0.12392142  1
  Fe  Fe75  1  0.62308002  0.37880757  0.62783866  1
  Fe  Fe76  1  0.62037170  0.12342630  0.62772024  1
  Fe  Fe77  1  0.12533775  0.37821197  0.62738929  1
  Fe  Fe78  1  0.37198791  0.37457575  0.87669418  1
  Fe  Fe79  1  0.87453803  0.37874725  0.62325551  1
  Fe  Fe80  1  0.12517864  0.12583613  0.12836065  1
  Fe  Fe81  1  0.87413550  0.62117105  0.62189051  1
  Fe  Fe82  1  0.00065613  0.74746960  0.49886971  1
  Fe  Fe83  1  0.87424253  0.12743377  0.37570143  1
  Fe  Fe84  1  0.37591854  0.37773242  0.62633907  1
  Fe  Fe85  1  0.62526532  0.87621746  0.12633747  1
  Fe  Fe86  1  0.62395652  0.87334423  0.37486267  1
  Fe  Fe87  1  0.11914834  0.87571235  0.12916291  1
  Fe  Fe88  1  0.00050252  0.50077001  0.25133420  1
  Fe  Fe89  1  0.62103996  0.62153887  0.12205761  1
  Co  Co90  1  0.49969266  -0.00290008  0.75438556  1
  Co  Co91  1  0.37574777  0.37598070  0.37756944  1
  Co  Co92  1  0.25146109  0.25468599  0.24887719  1
  Co  Co93  1  0.12544813  0.62479764  0.62352009  1
  Co  Co94  1  0.37702601  0.37499945  0.12037884  1
  Co  Co95  1  0.37771245  0.12502763  0.62800838  1
  Co  Co96  1  0.87424785  0.12371083  0.62507911  1
  Co  Co97  1  0.49684662  0.49902515  0.24947933  1
  Co  Co98  1  0.24766008  0.49791902  -0.00004605  1
  Co  Co99  1  0.25256767  0.74992458  0.74557157  1
  Co  Co100  1  0.49917843  0.49862255  -0.00372603  1
  Co  Co101  1  0.62366618  0.37588534  0.12574420  1
  Co  Co102  1  0.00020311  0.25101285  0.25129946  1
  Co  Co103  1  -0.00174580  0.00326079  0.25235239  1
  Co  Co104  1  0.37624020  0.62471388  0.12067598  1
  Co  Co105  1  0.37368082  0.87109587  0.87702035  1
  Co  Co106  1  -0.00221608  0.74501495  0.25003075  1
  Co  Co107  1  0.62056676  0.87409811  0.62334868  1
  Co  Co108  1  0.49959032  0.74654608  0.75280622  1
  Co  Co109  1  0.75134236  0.50085371  0.75250744  1
  Co  Co110  1  0.00069828  0.24892690  0.00063985  1
  Co  Co111  1  0.87735887  0.87765360  0.12560046  1
  Co  Co112  1  0.49945680  0.25401467  0.75152489  1
  Co  Co113  1  0.50112596  0.74510611  0.49877834  1
  Co  Co114  1  0.75210166  0.25138132  0.24776247  1
  Co  Co115  1  0.25172673  -0.00314572  0.24887822  1
  Co  Co116  1  0.49990774  0.00326286  0.49652062  1
  Co  Co117  1  -0.00112087  0.75114497  0.00197392  1
  Co  Co118  1  0.50260658  0.75184718  0.00058163  1
  Co  Co119  1  0.74999806  0.75081111  0.00530879  1
  Co  Co120  1  0.00252930  0.49995421  0.49864751  1
  Co  Co121  1  0.24753356  0.75568553  0.00741957  1
  Co  Co122  1  0.12902971  0.63193220  0.87855451  1
  Co  Co123  1  0.62797656  0.62649773  0.87852781  1
  Co  Co124  1  0.87694842  0.61980898  0.12085372  1
  Co  Co125  1  0.49564537  0.25157079  0.24842324  1
  Co  Co126  1  0.12545413  0.37196974  0.87284671  1
  Co  Co127  1  0.74481518  0.49935243  0.49757800  1
