# generated using pymatgen
data_Fe45Co19
_symmetry_space_group_name_H-M   'P 1'
_cell_length_a   11.41422295
_cell_length_b   11.41566408
_cell_length_c   11.41473242
_cell_angle_alpha   89.98818566
_cell_angle_beta   89.98707911
_cell_angle_gamma   90.00487087
_symmetry_Int_Tables_number   1
_chemical_formula_structural   Fe45Co19
_chemical_formula_sum   'Fe90 Co38'
_cell_volume   1487.35023094
_cell_formula_units_Z   2
loop_
 _symmetry_equiv_pos_site_id
 _symmetry_equiv_pos_as_xyz
  1  'x, y, z'
loop_
 _atom_site_type_symbol
 _atom_site_label
 _atom_site_symmetry_multiplicity
 _atom_site_fract_x
 _atom_site_fract_y
 _atom_site_fract_z
 _atom_site_occupancy
  Fe  Fe0  1  0.62076226  0.12106521  0.38049587  1
  Fe  Fe1  1  0.12361927  0.12334651  0.62559024  1
  Fe  Fe2  1  0.87579694  0.37294349  0.37352930  1
  Fe  Fe3  1  0.00240211  0.24987724  0.25051171  1
  Fe  Fe4  1  0.62488589  0.62510620  0.12539773  1
  Fe  Fe5  1  0.88003246  0.87631519  0.37083447  1
  Fe  Fe6  1  0.74609581  0.24542234  0.75029231  1
  Fe  Fe7  1  0.12638653  0.12271461  0.87476742  1
  Fe  Fe8  1  0.49712102  -0.00041840  0.24831555  1
  Fe  Fe9  1  0.36911574  0.37381939  0.37751100  1
  Fe  Fe10  1  -0.00110273  0.75275131  -0.00031104  1
  Fe  Fe11  1  0.37467549  0.37615429  0.87182440  1
  Fe  Fe12  1  0.00054556  0.49950886  0.24924389  1
  Fe  Fe13  1  -0.00215464  0.49828842  -0.00006442  1
  Fe  Fe14  1  0.87526820  0.62768742  0.12665044  1
  Fe  Fe15  1  0.12632662  0.12431400  0.37612841  1
  Fe  Fe16  1  0.00006586  0.24870942  0.50074087  1
  Fe  Fe17  1  0.37454580  0.62758167  0.12567243  1
  Fe  Fe18  1  0.50431794  0.75157105  0.74714646  1
  Fe  Fe19  1  0.87662239  0.12520581  0.12720782  1
  Fe  Fe20  1  0.49807908  0.50056132  0.25299552  1
  Fe  Fe21  1  0.87283922  0.12284018  0.62553579  1
  Fe  Fe22  1  0.75016356  0.49917214  0.24954968  1
  Fe  Fe23  1  0.63114412  0.87784587  0.61783511  1
  Fe  Fe24  1  0.87504131  0.12394120  0.87428034  1
  Fe  Fe25  1  0.00035271  0.50263815  0.74698160  1
  Fe  Fe26  1  0.50195426  0.50151999  0.74826990  1
  Fe  Fe27  1  0.62572681  0.87697006  0.87624551  1
  Fe  Fe28  1  0.49936496  0.49936340  0.00100465  1
  Fe  Fe29  1  0.25067729  0.74999864  0.49987329  1
  Fe  Fe30  1  0.37276470  0.87590731  0.87337047  1
  Fe  Fe31  1  0.49831195  0.24865907  0.25419786  1
  Fe  Fe32  1  0.37515166  0.62615021  0.62356742  1
  Fe  Fe33  1  0.62509900  0.62648847  0.87666043  1
  Fe  Fe34  1  0.49924379  0.75244561  0.00114901  1
  Fe  Fe35  1  0.75170609  0.49859732  0.00091623  1
  Fe  Fe36  1  0.75125871  0.75310724  0.00124230  1
  Fe  Fe37  1  0.12482557  0.87373237  0.12739071  1
  Fe  Fe38  1  0.12384359  0.87502275  0.62426020  1
  Fe  Fe39  1  0.37607453  0.62676300  0.87436593  1
  Fe  Fe40  1  0.37578044  0.87509552  0.37479753  1
  Fe  Fe41  1  0.62795140  0.62764315  0.61921585  1
  Fe  Fe42  1  0.62435080  0.37449826  0.12695337  1
  Fe  Fe43  1  0.12721992  0.62262009  0.37761875  1
  Fe  Fe44  1  0.50279180  0.75036897  0.25278648  1
  Fe  Fe45  1  0.37350737  0.12206966  0.87594803  1
  Fe  Fe46  1  0.24865222  0.74826994  0.25185983  1
  Fe  Fe47  1  0.00067873  0.25188436  -0.00218174  1
  Fe  Fe48  1  0.24990701  0.50065541  0.74745040  1
  Fe  Fe49  1  -0.00340272  0.74844464  0.50255661  1
  Fe  Fe50  1  0.87500951  0.62378229  0.37435020  1
  Fe  Fe51  1  0.75277318  -0.00235583  0.00146819  1
  Fe  Fe52  1  0.25192592  0.00262653  0.24813125  1
  Fe  Fe53  1  0.12777176  0.37566104  0.37634402  1
  Fe  Fe54  1  0.37239726  0.37145590  0.12632744  1
  Fe  Fe55  1  0.12457185  0.62557419  0.87463579  1
  Fe  Fe56  1  0.12781070  0.12717376  0.12336875  1
  Fe  Fe57  1  -0.00197428  -0.00233670  0.75001670  1
  Fe  Fe58  1  0.74940663  0.24862019  0.49792716  1
  Fe  Fe59  1  0.87588252  0.37396874  0.87158064  1
  Fe  Fe60  1  0.75039393  0.25081216  0.00069788  1
  Fe  Fe61  1  -0.00070169  0.50141063  0.50281504  1
  Fe  Fe62  1  0.49809612  0.49901650  0.49806279  1
  Fe  Fe63  1  0.12535513  0.62541461  0.12450575  1
  Fe  Fe64  1  0.24903345  0.24885103  0.74974261  1
  Fe  Fe65  1  0.37749195  0.12807557  0.62208723  1
  Fe  Fe66  1  0.75123125  0.49891504  0.49887800  1
  Fe  Fe67  1  0.24807257  0.74972326  0.74982561  1
  Fe  Fe68  1  0.25078060  0.49935851  -0.00016717  1
  Fe  Fe69  1  0.25169953  0.00058943  0.50137717  1
  Fe  Fe70  1  0.87447284  0.62858161  0.87077282  1
  Fe  Fe71  1  0.50378222  0.00116748  0.74705423  1
  Fe  Fe72  1  0.74822113  0.24808903  0.25134643  1
  Fe  Fe73  1  0.74983356  0.00002849  0.25257300  1
  Fe  Fe74  1  0.62259118  0.12402110  0.12333481  1
  Fe  Fe75  1  0.12727381  0.37412763  0.12492191  1
  Fe  Fe76  1  -0.00067897  -0.00270825  0.00200837  1
  Fe  Fe77  1  0.49581996  -0.00245124  0.00338783  1
  Fe  Fe78  1  0.49876191  0.25085714  -0.00144405  1
  Fe  Fe79  1  0.74722601  0.75241719  0.25359181  1
  Fe  Fe80  1  0.12750275  0.87666801  0.87404005  1
  Fe  Fe81  1  0.12364330  0.87633701  0.37486448  1
  Fe  Fe82  1  -0.00296536  0.00081034  0.49894631  1
  Fe  Fe83  1  0.37417377  0.87370667  0.62597982  1
  Fe  Fe84  1  0.62501612  0.37492763  0.87596307  1
  Fe  Fe85  1  0.87475980  0.37346987  0.62654133  1
  Fe  Fe86  1  0.50343936  0.24694724  0.75030900  1
  Fe  Fe87  1  0.62326589  0.37269608  0.62304380  1
  Fe  Fe88  1  0.74718591  0.50095913  0.74968258  1
  Fe  Fe89  1  0.12574941  0.37445715  0.62550798  1
  Co  Co90  1  0.12376841  0.37672821  0.87188591  1
  Co  Co91  1  0.87776333  0.12774335  0.37218471  1
  Co  Co92  1  0.00194871  0.75164673  0.74774407  1
  Co  Co93  1  0.24960389  0.75044411  -0.00113147  1
  Co  Co94  1  0.49925492  0.75056112  0.49994452  1
  Co  Co95  1  0.87149663  0.62621978  0.62745742  1
  Co  Co96  1  0.37502775  0.12882052  0.12308759  1
  Co  Co97  1  0.87223501  0.87655787  0.62692492  1
  Co  Co98  1  0.62539137  0.87647962  0.12543724  1
  Co  Co99  1  0.12652321  0.62690663  0.62376409  1
  Co  Co100  1  0.37384613  0.62650193  0.37628972  1
  Co  Co101  1  0.62172161  0.87811484  0.37919662  1
  Co  Co102  1  0.37627641  0.37287296  0.62568242  1
  Co  Co103  1  0.25130998  0.50014381  0.50320397  1
  Co  Co104  1  0.00046050  0.24749846  0.74926030  1
  Co  Co105  1  0.00241523  0.74647289  0.25182547  1
  Co  Co106  1  0.00320338  0.00368646  0.24888554  1
  Co  Co107  1  0.25049103  0.00124990  0.74604336  1
  Co  Co108  1  0.74640283  0.75223718  0.74910965  1
  Co  Co109  1  0.62527735  0.62439559  0.37742094  1
  Co  Co110  1  0.49524862  -0.00298228  0.50380743  1
  Co  Co111  1  0.25036534  0.24691352  0.25260065  1
  Co  Co112  1  0.87559937  0.37236718  0.12746974  1
  Co  Co113  1  0.74637023  0.00233275  0.75162550  1
  Co  Co114  1  0.37555241  0.12322502  0.37882962  1
  Co  Co115  1  0.87398824  0.87410790  0.87178868  1
  Co  Co116  1  0.25050481  0.50129925  0.24867240  1
  Co  Co117  1  0.37305298  0.87073847  0.12772748  1
  Co  Co118  1  0.62521940  0.12299087  0.61759485  1
  Co  Co119  1  0.62378686  0.12230191  0.88088242  1
  Co  Co120  1  0.87685271  0.87499494  0.13087160  1
  Co  Co121  1  0.24947324  0.25135913  -0.00471903  1
  Co  Co122  1  0.25097218  -0.00162651  0.00460771  1
  Co  Co123  1  0.62680332  0.37620950  0.37417151  1
  Co  Co124  1  0.50033827  0.25344294  0.49620483  1
  Co  Co125  1  0.75665564  -0.00010146  0.49346612  1
  Co  Co126  1  0.24763375  0.24759863  0.50238391  1
  Co  Co127  1  0.75467410  0.75286180  0.49521501  1
