# generated using pymatgen
data_Fe45Co19
_symmetry_space_group_name_H-M   'P 1'
_cell_length_a   11.41440834
_cell_length_b   11.41495038
_cell_length_c   11.41609105
_cell_angle_alpha   89.99070286
_cell_angle_beta   89.99618475
_cell_angle_gamma   90.00713933
_symmetry_Int_Tables_number   1
_chemical_formula_structural   Fe45Co19
_chemical_formula_sum   'Fe90 Co38'
_cell_volume   1487.45846156
_cell_formula_units_Z   2
loop_
 _symmetry_equiv_pos_site_id
 _symmetry_equiv_pos_as_xyz
  1  'x, y, z'
loop_
 _atom_site_type_symbol
 _atom_site_label
 _atom_site_symmetry_multiplicity
 _atom_site_fract_x
 _atom_site_fract_y
 _atom_site_fract_z
 _atom_site_occupancy
  Fe  Fe0  1  0.87431863  0.87518045  0.62554617  1
  Fe  Fe1  1  0.12428041  0.37189641  0.37467133  1
  Fe  Fe2  1  0.24910007  0.24860562  -0.00031781  1
  Fe  Fe3  1  0.37543136  0.37451623  0.37588969  1
  Fe  Fe4  1  0.62563129  0.62613471  0.12548118  1
  Fe  Fe5  1  0.00377860  0.00100693  0.00173257  1
  Fe  Fe6  1  0.62443091  0.37440030  0.62444548  1
  Fe  Fe7  1  0.75306418  0.24869857  0.74840144  1
  Fe  Fe8  1  0.37617693  0.37580474  0.87590909  1
  Fe  Fe9  1  0.62470609  0.12401517  0.62360075  1
  Fe  Fe10  1  0.37090661  0.87363611  0.37500204  1
  Fe  Fe11  1  0.87553714  0.62448756  0.87646108  1
  Fe  Fe12  1  0.87516840  0.37527032  0.12562981  1
  Fe  Fe13  1  0.75070050  0.50207789  0.49786316  1
  Fe  Fe14  1  0.87701667  0.87535995  0.37457908  1
  Fe  Fe15  1  0.74832706  0.00010206  0.00101804  1
  Fe  Fe16  1  0.37440982  0.37365847  0.62358401  1
  Fe  Fe17  1  0.24353422  -0.00242630  0.49818718  1
  Fe  Fe18  1  0.37539179  0.37382953  0.12558610  1
  Fe  Fe19  1  0.49887283  0.50187958  0.25213746  1
  Fe  Fe20  1  0.74917202  -0.00032656  0.74918330  1
  Fe  Fe21  1  0.62254018  0.87688102  0.87275004  1
  Fe  Fe22  1  0.62418293  0.62624924  0.87390757  1
  Fe  Fe23  1  0.12495899  0.37241066  0.62866785  1
  Fe  Fe24  1  0.75211865  0.75112104  -0.00019163  1
  Fe  Fe25  1  0.37339054  0.12398961  0.12364094  1
  Fe  Fe26  1  0.75097316  0.50190188  0.75005469  1
  Fe  Fe27  1  0.50129267  -0.00012838  0.49917569  1
  Fe  Fe28  1  0.37809820  0.12066036  0.87836685  1
  Fe  Fe29  1  0.12438377  0.62351828  0.12514336  1
  Fe  Fe30  1  0.37298878  0.87598897  0.62558776  1
  Fe  Fe31  1  -0.00098880  0.74933364  0.74980795  1
  Fe  Fe32  1  0.62594773  0.37228132  0.37449442  1
  Fe  Fe33  1  0.24501648  0.00413037  0.25310357  1
  Fe  Fe34  1  0.62433109  0.37311743  0.12728684  1
  Fe  Fe35  1  0.49610523  0.75285322  -0.00089174  1
  Fe  Fe36  1  -0.00251466  0.49912757  0.25467536  1
  Fe  Fe37  1  0.00456677  -0.00042854  0.50085693  1
  Fe  Fe38  1  0.12729354  0.87365724  0.87264813  1
  Fe  Fe39  1  0.12649022  0.62919463  0.37435962  1
  Fe  Fe40  1  0.87754365  0.12562505  0.37479005  1
  Fe  Fe41  1  0.62679447  0.87347689  0.12631916  1
  Fe  Fe42  1  0.49852781  0.24661408  0.25383419  1
  Fe  Fe43  1  0.74859210  -0.00260816  0.49911803  1
  Fe  Fe44  1  0.37011477  0.87834850  0.12308135  1
  Fe  Fe45  1  0.49936698  0.00047520  0.25092004  1
  Fe  Fe46  1  0.75151218  0.25028951  0.00058266  1
  Fe  Fe47  1  0.75001714  0.24907314  0.49981833  1
  Fe  Fe48  1  0.75508639  0.74843897  0.24959146  1
  Fe  Fe49  1  0.87631340  0.12507410  0.87562339  1
  Fe  Fe50  1  -0.00019198  0.24880228  0.50403820  1
  Fe  Fe51  1  0.24976386  0.00115310  0.75035929  1
  Fe  Fe52  1  0.50039522  0.50036850  0.74907306  1
  Fe  Fe53  1  0.87600269  0.87705874  0.87539011  1
  Fe  Fe54  1  0.74992513  0.49866457  -0.00045732  1
  Fe  Fe55  1  0.00251364  0.75230178  0.50104007  1
  Fe  Fe56  1  -0.00246842  0.75082760  0.24685879  1
  Fe  Fe57  1  0.24941913  0.50022849  0.75088138  1
  Fe  Fe58  1  0.62538765  0.37265077  0.87410314  1
  Fe  Fe59  1  0.87463797  0.62608448  0.62251170  1
  Fe  Fe60  1  0.00000943  0.49708895  -0.00232310  1
  Fe  Fe61  1  0.50121607  0.50065350  0.49947216  1
  Fe  Fe62  1  0.75302972  0.50107340  0.25269651  1
  Fe  Fe63  1  0.37260590  0.12530977  0.62128267  1
  Fe  Fe64  1  0.00064594  0.00276634  0.74659560  1
  Fe  Fe65  1  0.12643087  0.62661376  0.87482752  1
  Fe  Fe66  1  0.87920711  0.12428182  0.12580492  1
  Fe  Fe67  1  0.50162462  0.49938453  -0.00019794  1
  Fe  Fe68  1  0.12267442  0.12892710  0.87206224  1
  Fe  Fe69  1  0.62252071  0.12439729  0.87519643  1
  Fe  Fe70  1  0.49768452  0.24805868  0.74874935  1
  Fe  Fe71  1  0.24963637  0.24919783  0.49795171  1
  Fe  Fe72  1  0.37391316  0.62414212  0.62360113  1
  Fe  Fe73  1  0.00010333  0.75143753  0.00218296  1
  Fe  Fe74  1  0.24781933  0.50076661  0.49888020  1
  Fe  Fe75  1  0.62538119  0.62724003  0.37518358  1
  Fe  Fe76  1  0.87718527  0.37868092  0.62488628  1
  Fe  Fe77  1  0.37406951  0.62320804  0.12284890  1
  Fe  Fe78  1  0.12608135  0.62659778  0.62592634  1
  Fe  Fe79  1  0.49590262  0.74979363  0.24981701  1
  Fe  Fe80  1  0.75146269  0.00113373  0.24961837  1
  Fe  Fe81  1  0.24862143  0.49948169  -0.00135167  1
  Fe  Fe82  1  0.12148851  0.37086071  0.87015965  1
  Fe  Fe83  1  0.50095252  0.75038587  0.50076300  1
  Fe  Fe84  1  0.62369421  0.12593840  0.12606317  1
  Fe  Fe85  1  0.49805073  0.75057407  0.74923410  1
  Fe  Fe86  1  0.12552921  0.37219796  0.12696223  1
  Fe  Fe87  1  0.12712683  0.87568460  0.12630495  1
  Fe  Fe88  1  0.62544682  0.87450910  0.37343876  1
  Fe  Fe89  1  0.25106791  0.50079181  0.25222424  1
  Co  Co90  1  0.37314689  0.12250321  0.37840522  1
  Co  Co91  1  0.12109816  0.12828005  0.37497712  1
  Co  Co92  1  0.75187052  0.24856467  0.24995872  1
  Co  Co93  1  0.49957440  0.24986501  0.00044691  1
  Co  Co94  1  0.00399028  0.50036380  0.49904887  1
  Co  Co95  1  0.12883687  0.12723585  0.62598640  1
  Co  Co96  1  0.25226590  0.24834002  0.25117968  1
  Co  Co97  1  0.50262639  -0.00286020  0.00367977  1
  Co  Co98  1  0.49887682  0.00146419  0.74633054  1
  Co  Co99  1  0.87623095  0.62129323  0.12264562  1
  Co  Co100  1  -0.00070502  0.25167252  0.00020645  1
  Co  Co101  1  0.87278393  0.12077425  0.62241461  1
  Co  Co102  1  0.87752113  0.62750295  0.37841969  1
  Co  Co103  1  0.50058777  0.24888853  0.49866646  1
  Co  Co104  1  0.62667381  0.12364232  0.37571405  1
  Co  Co105  1  0.12503130  0.87484582  0.62934213  1
  Co  Co106  1  0.25521002  0.24840179  0.75280470  1
  Co  Co107  1  0.74880453  0.75229520  0.49986737  1
  Co  Co108  1  0.25159240  0.74794529  0.24685851  1
  Co  Co109  1  0.62557311  0.87575313  0.62607144  1
  Co  Co110  1  0.24831484  0.75210899  0.50243764  1
  Co  Co111  1  0.87566980  0.37217288  0.37845177  1
  Co  Co112  1  0.87611608  0.37458372  0.87230165  1
  Co  Co113  1  0.12514144  0.87069065  0.37137730  1
  Co  Co114  1  0.87520120  0.87847331  0.12336712  1
  Co  Co115  1  0.37328961  0.62651271  0.37809506  1
  Co  Co116  1  0.75076972  0.75119861  0.75047095  1
  Co  Co117  1  -0.00560966  0.24686211  0.74487760  1
  Co  Co118  1  0.00046206  0.50253690  0.74958091  1
  Co  Co119  1  0.00264812  -0.00109182  0.25030423  1
  Co  Co120  1  -0.00137314  0.25225949  0.25001168  1
  Co  Co121  1  0.37460116  0.62331097  0.87525037  1
  Co  Co122  1  0.25049155  0.74980363  0.00012834  1
  Co  Co123  1  0.25289797  0.75005124  0.75038714  1
  Co  Co124  1  0.37416818  0.87879543  0.87519091  1
  Co  Co125  1  0.12337918  0.12880421  0.12715321  1
  Co  Co126  1  0.24440860  0.00275892  -0.00165078  1
  Co  Co127  1  0.62626609  0.62560392  0.62486696  1
