# generated using pymatgen
data_Fe45Co19
_symmetry_space_group_name_H-M   'P 1'
_cell_length_a   11.41361313
_cell_length_b   11.41544338
_cell_length_c   11.41564560
_cell_angle_alpha   90.00323753
_cell_angle_beta   90.00943297
_cell_angle_gamma   90.00231624
_symmetry_Int_Tables_number   1
_chemical_formula_structural   Fe45Co19
_chemical_formula_sum   'Fe90 Co38'
_cell_volume   1487.36104481
_cell_formula_units_Z   2
loop_
 _symmetry_equiv_pos_site_id
 _symmetry_equiv_pos_as_xyz
  1  'x, y, z'
loop_
 _atom_site_type_symbol
 _atom_site_label
 _atom_site_symmetry_multiplicity
 _atom_site_fract_x
 _atom_site_fract_y
 _atom_site_fract_z
 _atom_site_occupancy
  Fe  Fe0  1  0.12147840  0.37816234  0.12479001  1
  Fe  Fe1  1  0.62544061  0.12439073  0.12570776  1
  Fe  Fe2  1  0.62483041  0.62546696  0.12619467  1
  Fe  Fe3  1  0.87457041  0.62129608  0.62398472  1
  Fe  Fe4  1  0.50033073  0.74971579  0.00167508  1
  Fe  Fe5  1  0.12767140  0.87452913  0.37461319  1
  Fe  Fe6  1  0.75037368  -0.00221688  0.00341743  1
  Fe  Fe7  1  0.75180425  0.25090198  0.74938314  1
  Fe  Fe8  1  0.49730573  0.24941297  0.25037847  1
  Fe  Fe9  1  0.87611902  0.12512413  0.62249353  1
  Fe  Fe10  1  0.87597781  0.62661954  0.12439730  1
  Fe  Fe11  1  0.49797502  0.00172037  -0.00014967  1
  Fe  Fe12  1  0.37452646  0.87410276  0.87518077  1
  Fe  Fe13  1  0.87567804  0.12588744  0.87948421  1
  Fe  Fe14  1  0.62412329  0.87552954  0.62504813  1
  Fe  Fe15  1  0.75084374  -0.00150372  0.49794859  1
  Fe  Fe16  1  0.12298435  0.12472463  0.37376657  1
  Fe  Fe17  1  0.75043340  0.50038361  0.00126025  1
  Fe  Fe18  1  0.62588277  0.12458702  0.62512378  1
  Fe  Fe19  1  0.62583374  0.37774542  0.62513886  1
  Fe  Fe20  1  0.24759611  0.24750814  0.00204878  1
  Fe  Fe21  1  0.87518416  0.37507992  0.37547788  1
  Fe  Fe22  1  0.37375256  0.87556970  0.12577959  1
  Fe  Fe23  1  0.74721663  0.74837419  0.50237546  1
  Fe  Fe24  1  0.12440918  0.62458745  0.62775506  1
  Fe  Fe25  1  0.49994051  0.74598484  0.49885021  1
  Fe  Fe26  1  0.49927490  0.74892222  0.74807724  1
  Fe  Fe27  1  -0.00129047  0.24916956  0.75056517  1
  Fe  Fe28  1  0.49971994  0.50223428  -0.00123942  1
  Fe  Fe29  1  0.87779239  0.37358725  0.87850584  1
  Fe  Fe30  1  0.50584984  0.50210264  0.49644704  1
  Fe  Fe31  1  0.12271887  0.87284011  0.87093115  1
  Fe  Fe32  1  0.12682175  0.62343776  0.12722359  1
  Fe  Fe33  1  0.62390820  0.87342408  0.37315604  1
  Fe  Fe34  1  0.12484364  0.37780050  0.37175897  1
  Fe  Fe35  1  0.25101435  0.74800486  0.74881406  1
  Fe  Fe36  1  0.87906097  0.37387840  0.12247464  1
  Fe  Fe37  1  0.75089698  0.49920800  0.25042347  1
  Fe  Fe38  1  0.75093971  0.25311759  0.50092329  1
  Fe  Fe39  1  0.37486361  0.37564325  0.12200135  1
  Fe  Fe40  1  0.49880298  0.00044956  0.75065395  1
  Fe  Fe41  1  0.25321938  -0.00016083  0.25368023  1
  Fe  Fe42  1  0.00302264  0.75098096  0.00284549  1
  Fe  Fe43  1  0.37279956  0.37573943  0.87446220  1
  Fe  Fe44  1  0.37353309  0.87595921  0.62172230  1
  Fe  Fe45  1  0.62564502  0.37362567  0.87693064  1
  Fe  Fe46  1  0.87682960  0.87286657  0.87686480  1
  Fe  Fe47  1  0.00074398  0.25264406  0.49938038  1
  Fe  Fe48  1  0.87632865  0.62718970  0.87746645  1
  Fe  Fe49  1  0.49456606  0.74742362  0.25067495  1
  Fe  Fe50  1  0.75221131  -0.00030156  0.75018496  1
  Fe  Fe51  1  0.62468629  0.62631401  0.87374454  1
  Fe  Fe52  1  0.12498022  0.12534150  0.87305850  1
  Fe  Fe53  1  0.62495832  0.87433763  0.87549974  1
  Fe  Fe54  1  0.49691966  0.00197682  0.25196766  1
  Fe  Fe55  1  0.25183309  0.25210815  0.74732792  1
  Fe  Fe56  1  0.62759708  0.12665758  0.37405308  1
  Fe  Fe57  1  0.75048507  0.49899227  0.75140108  1
  Fe  Fe58  1  0.37386381  0.12446437  0.62331764  1
  Fe  Fe59  1  0.49999622  0.25072379  0.50007509  1
  Fe  Fe60  1  0.00244034  0.50091183  0.75489868  1
  Fe  Fe61  1  0.75093435  0.75038424  0.74925024  1
  Fe  Fe62  1  0.49851835  0.00139354  0.49722409  1
  Fe  Fe63  1  0.87763701  0.87470005  0.62426979  1
  Fe  Fe64  1  0.00089481  0.50092122  0.49756570  1
  Fe  Fe65  1  0.24959452  -0.00108644  0.74806789  1
  Fe  Fe66  1  0.49887322  0.24694664  -0.00051849  1
  Fe  Fe67  1  0.87313179  0.62715851  0.37469410  1
  Fe  Fe68  1  0.37343349  0.37734700  0.37737881  1
  Fe  Fe69  1  0.11980714  0.11989576  0.12880462  1
  Fe  Fe70  1  0.24931334  0.25155287  0.24854243  1
  Fe  Fe71  1  0.12359499  0.37684544  0.62780826  1
  Fe  Fe72  1  0.49795546  0.50153121  0.25122369  1
  Fe  Fe73  1  0.75040698  0.75410647  0.24603757  1
  Fe  Fe74  1  0.12840864  0.62235079  0.37072192  1
  Fe  Fe75  1  0.00209957  0.75241518  0.24912613  1
  Fe  Fe76  1  0.25037424  0.74820115  0.49983234  1
  Fe  Fe77  1  0.12399748  0.12311840  0.62451819  1
  Fe  Fe78  1  0.62603026  0.12567381  0.87548024  1
  Fe  Fe79  1  0.24906176  0.25203612  0.50112172  1
  Fe  Fe80  1  0.24930046  0.75024312  0.00155850  1
  Fe  Fe81  1  0.37477352  0.61803849  0.62589780  1
  Fe  Fe82  1  0.62376336  0.37438192  0.12550739  1
  Fe  Fe83  1  0.24924740  0.00027043  -0.00120889  1
  Fe  Fe84  1  0.00257126  0.74923091  0.50035934  1
  Fe  Fe85  1  0.75404959  0.24884768  0.24761830  1
  Fe  Fe86  1  0.24753157  0.50240795  -0.00380564  1
  Fe  Fe87  1  0.75678034  -0.00132640  0.25004311  1
  Fe  Fe88  1  0.00064056  -0.00221034  0.49857333  1
  Fe  Fe89  1  0.49814220  0.25121088  0.74907184  1
  Co  Co90  1  0.37050205  0.62041301  0.37661626  1
  Co  Co91  1  0.12546875  0.37164818  0.87524942  1
  Co  Co92  1  -0.00236785  0.74933011  0.74746073  1
  Co  Co93  1  0.50106001  0.49852974  0.75191408  1
  Co  Co94  1  0.87740080  0.37865228  0.62525651  1
  Co  Co95  1  0.87860988  0.87452358  0.12194211  1
  Co  Co96  1  0.74954740  0.25047003  0.00313232  1
  Co  Co97  1  0.24522590  0.49959474  0.50152627  1
  Co  Co98  1  0.62663230  0.62301393  0.62791022  1
  Co  Co99  1  0.37523279  0.38051312  0.62297554  1
  Co  Co100  1  0.37589571  0.62534298  0.87428487  1
  Co  Co101  1  0.62902569  0.62823805  0.37069709  1
  Co  Co102  1  -0.00294143  0.50103419  0.25046959  1
  Co  Co103  1  0.62613945  0.37233082  0.37202705  1
  Co  Co104  1  0.62182058  0.87639307  0.12780565  1
  Co  Co105  1  0.37297067  0.12590627  0.87346708  1
  Co  Co106  1  0.00152997  0.50211968  -0.00137756  1
  Co  Co107  1  0.87462246  0.86891572  0.37837982  1
  Co  Co108  1  0.87986818  0.12404253  0.12263373  1
  Co  Co109  1  0.00401544  0.24830340  0.00131030  1
  Co  Co110  1  0.12673074  0.87878255  0.12880908  1
  Co  Co111  1  0.37256028  0.12910819  0.37639865  1
  Co  Co112  1  -0.00030301  0.25082370  0.25005353  1
  Co  Co113  1  0.25303801  0.49761458  0.24726694  1
  Co  Co114  1  0.25218482  0.75003488  0.25000514  1
  Co  Co115  1  0.74827168  0.49967244  0.49674368  1
  Co  Co116  1  -0.00620987  -0.00413973  0.25492401  1
  Co  Co117  1  0.00219778  -0.00193299  -0.00237811  1
  Co  Co118  1  -0.00152582  0.00081848  0.75009003  1
  Co  Co119  1  0.12474900  0.87473563  0.62582218  1
  Co  Co120  1  0.74725778  0.75045984  0.00147376  1
  Co  Co121  1  0.12377180  0.63040565  0.87463122  1
  Co  Co122  1  0.24669531  0.50090310  0.75378387  1
  Co  Co123  1  0.87621637  0.12797410  0.37774551  1
  Co  Co124  1  0.37284528  0.12486096  0.12533123  1
  Co  Co125  1  0.37250101  0.62442951  0.12287472  1
  Co  Co126  1  0.24902594  0.00054286  0.49882696  1
  Co  Co127  1  0.37470706  0.87370529  0.37675573  1
