# generated using pymatgen
data_Fe45Co19
_symmetry_space_group_name_H-M   'P 1'
_cell_length_a   11.41370364
_cell_length_b   11.41540207
_cell_length_c   11.41470008
_cell_angle_alpha   90.00353111
_cell_angle_beta   89.99243474
_cell_angle_gamma   89.99346501
_symmetry_Int_Tables_number   1
_chemical_formula_structural   Fe45Co19
_chemical_formula_sum   'Fe90 Co38'
_cell_volume   1487.24426287
_cell_formula_units_Z   2
loop_
 _symmetry_equiv_pos_site_id
 _symmetry_equiv_pos_as_xyz
  1  'x, y, z'
loop_
 _atom_site_type_symbol
 _atom_site_label
 _atom_site_symmetry_multiplicity
 _atom_site_fract_x
 _atom_site_fract_y
 _atom_site_fract_z
 _atom_site_occupancy
  Fe  Fe0  1  -0.00290610  0.75194207  0.50171268  1
  Fe  Fe1  1  0.00230770  0.74640934  0.00060995  1
  Fe  Fe2  1  0.37749382  0.87664275  0.37547040  1
  Fe  Fe3  1  0.62467592  0.37585425  0.37445923  1
  Fe  Fe4  1  0.62684510  0.12409189  0.12525293  1
  Fe  Fe5  1  0.87900775  0.62136339  0.87359065  1
  Fe  Fe6  1  0.75019779  0.74960046  0.75039372  1
  Fe  Fe7  1  0.11985242  0.37638263  0.87156580  1
  Fe  Fe8  1  0.74989729  0.25279558  0.50070001  1
  Fe  Fe9  1  0.50109974  0.24644253  0.74739888  1
  Fe  Fe10  1  0.00103733  0.49913446  0.50344039  1
  Fe  Fe11  1  0.12260549  0.87383689  0.87300248  1
  Fe  Fe12  1  0.25082660  0.75241298  0.49934257  1
  Fe  Fe13  1  0.50056672  0.50160256  0.74870883  1
  Fe  Fe14  1  0.37677649  0.37571351  0.37428870  1
  Fe  Fe15  1  0.37266974  0.12456526  0.12127745  1
  Fe  Fe16  1  -0.00088322  0.50243149  0.24909780  1
  Fe  Fe17  1  0.50012758  0.50355690  0.24877342  1
  Fe  Fe18  1  0.12418679  0.12612606  0.87560213  1
  Fe  Fe19  1  0.49999037  0.49908561  0.50171241  1
  Fe  Fe20  1  0.12635244  0.12530176  0.12283134  1
  Fe  Fe21  1  -0.00158113  0.24776759  0.25182622  1
  Fe  Fe22  1  0.12558578  0.62746935  0.62529733  1
  Fe  Fe23  1  0.74939106  -0.00299371  0.00007985  1
  Fe  Fe24  1  0.75197638  0.25047349  0.75188719  1
  Fe  Fe25  1  0.50191289  0.24830574  0.50206924  1
  Fe  Fe26  1  0.24899537  0.49778534  0.50071148  1
  Fe  Fe27  1  -0.00217114  0.00236039  0.25181056  1
  Fe  Fe28  1  0.87423181  0.37708580  0.12511828  1
  Fe  Fe29  1  0.74915400  0.49967219  -0.00173426  1
  Fe  Fe30  1  0.62819337  0.12314096  0.37457111  1
  Fe  Fe31  1  0.75215117  0.25147187  0.25156024  1
  Fe  Fe32  1  0.62334727  0.87660501  0.62836964  1
  Fe  Fe33  1  0.24945172  0.00083653  0.75134279  1
  Fe  Fe34  1  0.37473708  0.12558797  0.87705200  1
  Fe  Fe35  1  0.12486295  0.37542045  0.12588139  1
  Fe  Fe36  1  0.87259827  0.62605216  0.62500362  1
  Fe  Fe37  1  0.87419069  0.62707311  0.37650804  1
  Fe  Fe38  1  0.62635973  0.62507928  0.62332379  1
  Fe  Fe39  1  0.24941732  0.74934965  -0.00237757  1
  Fe  Fe40  1  0.00048479  0.00081063  -0.00066684  1
  Fe  Fe41  1  0.25040545  0.50114878  0.25201245  1
  Fe  Fe42  1  0.37306261  0.12159013  0.37860688  1
  Fe  Fe43  1  0.24882579  0.00122096  0.25044298  1
  Fe  Fe44  1  0.50052140  -0.00185008  -0.00079101  1
  Fe  Fe45  1  0.75237232  0.25238848  -0.00293321  1
  Fe  Fe46  1  0.37726786  0.87681860  0.62535895  1
  Fe  Fe47  1  0.12289611  0.37407529  0.37573912  1
  Fe  Fe48  1  0.62609626  0.62480184  0.37574628  1
  Fe  Fe49  1  0.37363614  0.37297568  0.62652176  1
  Fe  Fe50  1  -0.00062604  -0.00106212  0.50025227  1
  Fe  Fe51  1  0.25070335  0.74883113  0.25163294  1
  Fe  Fe52  1  0.49986136  0.25284172  0.00125370  1
  Fe  Fe53  1  0.50117189  0.75037165  0.49966610  1
  Fe  Fe54  1  0.49912925  0.49965278  0.00063815  1
  Fe  Fe55  1  0.12448295  0.87434111  0.12584791  1
  Fe  Fe56  1  0.87832687  0.87619169  0.87222450  1
  Fe  Fe57  1  0.62367312  0.87645914  0.37138005  1
  Fe  Fe58  1  0.74913883  0.75136456  -0.00199458  1
  Fe  Fe59  1  0.12443925  0.62663305  0.37629607  1
  Fe  Fe60  1  0.24886895  0.49967430  0.75041171  1
  Fe  Fe61  1  0.87346265  0.62455012  0.12467243  1
  Fe  Fe62  1  0.62584730  0.37659692  0.12698223  1
  Fe  Fe63  1  0.37170953  0.12349208  0.62220202  1
  Fe  Fe64  1  0.25078499  0.25476841  -0.00224826  1
  Fe  Fe65  1  0.37893841  0.87301854  0.87261487  1
  Fe  Fe66  1  0.62412790  0.37515543  0.87220658  1
  Fe  Fe67  1  -0.00392453  0.25127713  -0.00279243  1
  Fe  Fe68  1  0.62617385  0.12393219  0.87609022  1
  Fe  Fe69  1  0.87341676  0.37735869  0.62905767  1
  Fe  Fe70  1  0.37404365  0.62564979  0.12333923  1
  Fe  Fe71  1  0.25054532  0.24917719  0.25178349  1
  Fe  Fe72  1  0.74934543  -0.00159830  0.75218012  1
  Fe  Fe73  1  0.87328370  0.12469487  0.12392801  1
  Fe  Fe74  1  0.25024426  0.74821833  0.75151510  1
  Fe  Fe75  1  0.12829954  0.12835870  0.62314473  1
  Fe  Fe76  1  0.87315278  0.12214350  0.62566583  1
  Fe  Fe77  1  0.74981700  0.74948725  0.25021995  1
  Fe  Fe78  1  0.75033067  0.49802654  0.49921203  1
  Fe  Fe79  1  0.12274698  0.87375763  0.62787414  1
  Fe  Fe80  1  0.49854926  0.24735053  0.24908692  1
  Fe  Fe81  1  0.25083496  0.49868319  -0.00321240  1
  Fe  Fe82  1  0.62125284  0.62816106  0.87623427  1
  Fe  Fe83  1  0.87714928  0.87356611  0.12661031  1
  Fe  Fe84  1  0.62249354  0.87364217  0.12731639  1
  Fe  Fe85  1  0.37543199  0.87517083  0.12606695  1
  Fe  Fe86  1  0.37419146  0.62597068  0.62394575  1
  Fe  Fe87  1  0.75096014  -0.00461025  0.49873694  1
  Fe  Fe88  1  0.12221383  0.87427382  0.37348049  1
  Fe  Fe89  1  -0.00135135  0.25044569  0.50108545  1
  Co  Co90  1  0.87609106  0.87276952  0.37308417  1
  Co  Co91  1  -0.00302222  0.24778834  0.74944989  1
  Co  Co92  1  0.50315090  0.00105016  0.50076783  1
  Co  Co93  1  0.62630108  0.37560107  0.62701363  1
  Co  Co94  1  0.62620313  0.62560788  0.12360780  1
  Co  Co95  1  0.37842961  0.37489779  0.87161419  1
  Co  Co96  1  0.49922576  0.74641860  0.25094886  1
  Co  Co97  1  0.12338970  0.62309603  0.87425212  1
  Co  Co98  1  0.00254767  0.50104532  0.74401992  1
  Co  Co99  1  0.87258589  0.12441357  0.37751957  1
  Co  Co100  1  0.00041464  0.74640683  0.24827448  1
  Co  Co101  1  0.49846586  0.00387444  0.24880490  1
  Co  Co102  1  0.87527091  0.87602711  0.62857360  1
  Co  Co103  1  0.12504527  0.12517531  0.37802151  1
  Co  Co104  1  0.87361865  0.12106534  0.87500298  1
  Co  Co105  1  0.49888768  0.00460833  0.75047086  1
  Co  Co106  1  0.87725086  0.38035449  0.87218308  1
  Co  Co107  1  0.24645799  -0.00479629  0.50072047  1
  Co  Co108  1  0.00298594  0.00367352  0.74854213  1
  Co  Co109  1  0.12958360  0.62416250  0.12471877  1
  Co  Co110  1  0.00062290  0.50092217  0.00363387  1
  Co  Co111  1  0.25161081  0.25343665  0.49635505  1
  Co  Co112  1  0.49944439  0.75166027  0.00207059  1
  Co  Co113  1  -0.00150280  0.74719921  0.74978556  1
  Co  Co114  1  0.37442865  0.37594217  0.12672428  1
  Co  Co115  1  0.50106736  0.74765386  0.74618213  1
  Co  Co116  1  0.87722631  0.37562114  0.37567738  1
  Co  Co117  1  0.37449193  0.62475468  0.37814907  1
  Co  Co118  1  0.75141234  0.50044633  0.25174995  1
  Co  Co119  1  0.25056156  0.24912123  0.75313429  1
  Co  Co120  1  0.37692742  0.62587798  0.87461519  1
  Co  Co121  1  0.12688074  0.37029415  0.62644582  1
  Co  Co122  1  0.74709591  0.50344277  0.75175223  1
  Co  Co123  1  0.75255897  -0.00120262  0.24822672  1
  Co  Co124  1  0.62983209  0.12275653  0.62507883  1
  Co  Co125  1  0.62223740  0.87421000  0.87208979  1
  Co  Co126  1  0.74845920  0.75401753  0.50112587  1
  Co  Co127  1  0.24941777  -0.00322761  -0.00256535  1
