# generated using pymatgen
data_Fe45Co19
_symmetry_space_group_name_H-M   'P 1'
_cell_length_a   11.41426773
_cell_length_b   11.41306547
_cell_length_c   11.41544095
_cell_angle_alpha   89.98808199
_cell_angle_beta   90.00359591
_cell_angle_gamma   90.00395007
_symmetry_Int_Tables_number   1
_chemical_formula_structural   Fe45Co19
_chemical_formula_sum   'Fe90 Co38'
_cell_volume   1487.10982898
_cell_formula_units_Z   2
loop_
 _symmetry_equiv_pos_site_id
 _symmetry_equiv_pos_as_xyz
  1  'x, y, z'
loop_
 _atom_site_type_symbol
 _atom_site_label
 _atom_site_symmetry_multiplicity
 _atom_site_fract_x
 _atom_site_fract_y
 _atom_site_fract_z
 _atom_site_occupancy
  Fe  Fe0  1  0.62756324  0.12385271  0.62466729  1
  Fe  Fe1  1  0.12373335  0.87413296  0.62647694  1
  Fe  Fe2  1  0.37479448  0.12720010  0.62791704  1
  Fe  Fe3  1  0.37492879  0.37530785  0.12614840  1
  Fe  Fe4  1  0.75045731  0.50559450  0.25286562  1
  Fe  Fe5  1  -0.00066302  0.74330783  0.74892469  1
  Fe  Fe6  1  0.50131421  -0.00041151  0.75069206  1
  Fe  Fe7  1  -0.00051364  0.24991974  0.74917475  1
  Fe  Fe8  1  -0.00137860  -0.00133228  -0.00188675  1
  Fe  Fe9  1  0.24883116  0.00034428  0.50068177  1
  Fe  Fe10  1  0.75262197  -0.00198524  0.00005335  1
  Fe  Fe11  1  0.50018319  0.25082463  0.24985657  1
  Fe  Fe12  1  0.24798528  0.24812977  0.50236225  1
  Fe  Fe13  1  0.37356955  0.62504050  0.87551346  1
  Fe  Fe14  1  0.24873887  0.50180272  0.74856401  1
  Fe  Fe15  1  0.62740319  0.37647069  0.87466580  1
  Fe  Fe16  1  0.12479727  0.87300123  0.87417595  1
  Fe  Fe17  1  0.50207933  0.74979802  0.75003047  1
  Fe  Fe18  1  0.62655084  0.12481514  0.87546949  1
  Fe  Fe19  1  0.75219142  0.25151583  0.49827344  1
  Fe  Fe20  1  0.62698071  0.37638931  0.12679555  1
  Fe  Fe21  1  0.62633798  0.62637327  0.37849003  1
  Fe  Fe22  1  0.49677421  -0.00138557  0.00097018  1
  Fe  Fe23  1  0.24717968  0.00172454  0.74939080  1
  Fe  Fe24  1  0.62626638  0.12220736  0.37476119  1
  Fe  Fe25  1  -0.00092706  0.00031617  0.75091276  1
  Fe  Fe26  1  -0.00181777  0.25286385  0.49520374  1
  Fe  Fe27  1  0.37459645  0.62620730  0.37724148  1
  Fe  Fe28  1  0.75194823  0.25045862  0.74947968  1
  Fe  Fe29  1  0.12244874  0.37900926  0.87528553  1
  Fe  Fe30  1  0.75425953  0.50277403  0.74870988  1
  Fe  Fe31  1  0.87681458  0.12380846  0.12552539  1
  Fe  Fe32  1  0.75293102  0.25166796  0.00017345  1
  Fe  Fe33  1  0.87404969  0.87017984  0.87664358  1
  Fe  Fe34  1  -0.00145831  -0.00496510  0.49854875  1
  Fe  Fe35  1  0.74984444  0.74809111  0.74944447  1
  Fe  Fe36  1  0.62686469  0.37577775  0.37463771  1
  Fe  Fe37  1  0.75030039  -0.00568115  0.49734019  1
  Fe  Fe38  1  0.12259011  0.12464256  0.37514479  1
  Fe  Fe39  1  0.12737164  0.87913587  0.12429237  1
  Fe  Fe40  1  0.00176091  0.74770675  0.00247234  1
  Fe  Fe41  1  0.37371804  0.12916343  0.87289548  1
  Fe  Fe42  1  0.62572097  0.12603449  0.12429430  1
  Fe  Fe43  1  0.24831227  0.74972666  0.24750772  1
  Fe  Fe44  1  0.87699642  0.37716279  0.13043316  1
  Fe  Fe45  1  0.12153131  0.37773628  0.62373087  1
  Fe  Fe46  1  0.62517687  0.37658184  0.62435940  1
  Fe  Fe47  1  0.00212635  0.50472938  0.25786597  1
  Fe  Fe48  1  0.50122092  0.75091319  0.00133619  1
  Fe  Fe49  1  -0.00032399  0.25078345  0.00245796  1
  Fe  Fe50  1  0.24877813  0.50162984  0.50009168  1
  Fe  Fe51  1  0.49916997  0.49786061  -0.00103555  1
  Fe  Fe52  1  0.37611609  0.37401387  0.62679073  1
  Fe  Fe53  1  0.62730642  0.62506175  0.87818991  1
  Fe  Fe54  1  0.87611564  0.12346169  0.62238604  1
  Fe  Fe55  1  0.24831610  0.74936097  0.00115893  1
  Fe  Fe56  1  0.37404000  0.87337027  0.87411234  1
  Fe  Fe57  1  0.49792992  -0.00058614  0.24765406  1
  Fe  Fe58  1  0.87770181  0.38045031  0.62222413  1
  Fe  Fe59  1  0.87259889  0.86809468  0.36895198  1
  Fe  Fe60  1  0.49919253  0.25262366  -0.00123673  1
  Fe  Fe61  1  0.37536273  0.62458618  0.12484015  1
  Fe  Fe62  1  0.24868452  0.50256771  0.25197595  1
  Fe  Fe63  1  0.12367688  0.12580263  0.87513588  1
  Fe  Fe64  1  0.50191245  0.75263320  0.50139607  1
  Fe  Fe65  1  0.25006374  0.74968958  0.50398750  1
  Fe  Fe66  1  0.12150908  0.37725623  0.12861935  1
  Fe  Fe67  1  0.75330119  0.50124508  0.00180641  1
  Fe  Fe68  1  0.37490946  0.87397990  0.37374361  1
  Fe  Fe69  1  0.37546530  0.87512338  0.62670953  1
  Fe  Fe70  1  -0.00092456  -0.00116798  0.25035564  1
  Fe  Fe71  1  0.24827850  0.74605963  0.74766660  1
  Fe  Fe72  1  0.50021839  -0.00152974  0.50039306  1
  Fe  Fe73  1  0.49890734  0.50011767  0.75095986  1
  Fe  Fe74  1  0.37501715  0.12519011  0.37358577  1
  Fe  Fe75  1  0.62824563  0.87447705  0.12619616  1
  Fe  Fe76  1  0.49989534  0.50033925  0.25220850  1
  Fe  Fe77  1  0.75141527  -0.00136712  0.75218184  1
  Fe  Fe78  1  0.24737410  0.24643708  0.24738723  1
  Fe  Fe79  1  0.37223793  0.37398072  0.37526100  1
  Fe  Fe80  1  0.12602337  0.87202742  0.37464731  1
  Fe  Fe81  1  0.24944469  0.49987294  0.00111085  1
  Fe  Fe82  1  0.87748203  0.62713077  0.12668671  1
  Fe  Fe83  1  0.50167172  0.74873616  0.24828194  1
  Fe  Fe84  1  0.87434919  0.87225755  0.62678197  1
  Fe  Fe85  1  0.87746515  0.37724057  0.87493646  1
  Fe  Fe86  1  0.24827039  0.24988003  0.00129596  1
  Fe  Fe87  1  0.75309885  0.24699137  0.25181921  1
  Fe  Fe88  1  0.62558524  0.62397208  0.62176688  1
  Fe  Fe89  1  0.50108562  0.25094516  0.50002251  1
  Co  Co90  1  0.00200828  0.49925185  0.49094502  1
  Co  Co91  1  0.37439424  0.12591272  0.12472199  1
  Co  Co92  1  0.62648908  0.87470549  0.87676444  1
  Co  Co93  1  0.11915307  0.12413608  0.62239546  1
  Co  Co94  1  0.37213965  0.37417344  0.87276597  1
  Co  Co95  1  0.62513035  0.87646336  0.62736809  1
  Co  Co96  1  0.75114940  0.49891755  0.49789101  1
  Co  Co97  1  0.12313387  0.12090599  0.12435618  1
  Co  Co98  1  0.25244453  0.00079569  -0.00324426  1
  Co  Co99  1  0.87491549  0.87360314  0.12581095  1
  Co  Co100  1  0.62323374  0.62178080  0.12256635  1
  Co  Co101  1  0.74731311  0.74584916  0.24748505  1
  Co  Co102  1  0.12824930  0.37232571  0.37311710  1
  Co  Co103  1  -0.00119670  0.24776768  0.25125672  1
  Co  Co104  1  0.87540698  0.12626433  0.87502722  1
  Co  Co105  1  0.12497462  0.62195869  0.12528020  1
  Co  Co106  1  0.12037894  0.62341358  0.62121051  1
  Co  Co107  1  0.24410629  0.25132273  0.74836480  1
  Co  Co108  1  0.87499390  0.62635500  0.87760522  1
  Co  Co109  1  0.12651336  0.63137713  0.37837296  1
  Co  Co110  1  0.74767566  0.75482500  0.50063826  1
  Co  Co111  1  0.50391929  0.25139288  0.75063796  1
  Co  Co112  1  0.75027885  0.74852980  0.00334398  1
  Co  Co113  1  -0.00005526  0.75300558  0.50105402  1
  Co  Co114  1  0.37797882  0.62471034  0.62425940  1
  Co  Co115  1  -0.00167412  0.50507496  0.75075507  1
  Co  Co116  1  0.87520286  0.63157074  0.37972965  1
  Co  Co117  1  0.37215904  0.87369613  0.12590923  1
  Co  Co118  1  0.75189585  0.00100614  0.24903386  1
  Co  Co119  1  0.12553439  0.62317877  0.87651694  1
  Co  Co120  1  0.87329090  0.37695172  0.37206916  1
  Co  Co121  1  0.00397336  0.74944851  0.24692799  1
  Co  Co122  1  0.87534898  0.62389256  0.61734087  1
  Co  Co123  1  0.25007449  0.00060569  0.25206235  1
  Co  Co124  1  0.87563430  0.12230121  0.37743781  1
  Co  Co125  1  0.62438306  0.87536454  0.37022758  1
  Co  Co126  1  0.49913688  0.49776677  0.49868257  1
  Co  Co127  1  -0.00176472  0.50211922  0.00129339  1
