# generated using pymatgen
data_Fe45Co19
_symmetry_space_group_name_H-M   'P 1'
_cell_length_a   11.41455506
_cell_length_b   11.41389929
_cell_length_c   11.41356248
_cell_angle_alpha   89.99195979
_cell_angle_beta   89.99514955
_cell_angle_gamma   90.01210280
_symmetry_Int_Tables_number   1
_chemical_formula_structural   Fe45Co19
_chemical_formula_sum   'Fe90 Co38'
_cell_volume   1487.01116291
_cell_formula_units_Z   2
loop_
 _symmetry_equiv_pos_site_id
 _symmetry_equiv_pos_as_xyz
  1  'x, y, z'
loop_
 _atom_site_type_symbol
 _atom_site_label
 _atom_site_symmetry_multiplicity
 _atom_site_fract_x
 _atom_site_fract_y
 _atom_site_fract_z
 _atom_site_occupancy
  Fe  Fe0  1  0.37155946  0.37496709  0.12767374  1
  Fe  Fe1  1  0.87552664  0.87301695  0.12790822  1
  Fe  Fe2  1  0.75240767  0.74794103  0.00216321  1
  Fe  Fe3  1  0.75192156  0.50070342  0.75179093  1
  Fe  Fe4  1  0.12496447  0.87456681  0.87694022  1
  Fe  Fe5  1  0.37444731  0.62322703  0.37465031  1
  Fe  Fe6  1  -0.00095084  0.50056217  0.49707530  1
  Fe  Fe7  1  0.87389291  0.37375302  0.62408108  1
  Fe  Fe8  1  0.75555271  0.50134872  0.00218720  1
  Fe  Fe9  1  0.25100505  0.75037707  0.50266992  1
  Fe  Fe10  1  0.87961876  0.37595419  0.13011088  1
  Fe  Fe11  1  0.49654299  0.74796830  0.00491784  1
  Fe  Fe12  1  0.25179930  0.74737387  0.00209226  1
  Fe  Fe13  1  0.75052847  0.24922208  0.49783816  1
  Fe  Fe14  1  0.25110877  0.00133595  0.49734018  1
  Fe  Fe15  1  0.62551726  0.87545451  0.62410509  1
  Fe  Fe16  1  0.36714877  0.12604921  0.12813548  1
  Fe  Fe17  1  0.25083939  0.49736017  0.75232169  1
  Fe  Fe18  1  0.25146122  0.75155146  0.24757415  1
  Fe  Fe19  1  0.87449956  0.62480382  0.62515878  1
  Fe  Fe20  1  0.37401662  0.87674860  0.62645364  1
  Fe  Fe21  1  0.24870219  0.74877507  0.74914415  1
  Fe  Fe22  1  0.74895488  0.74861633  0.75101013  1
  Fe  Fe23  1  0.62242857  0.87517905  0.12460429  1
  Fe  Fe24  1  0.12262972  0.61988931  0.87662787  1
  Fe  Fe25  1  0.49804850  0.00207589  0.24746264  1
  Fe  Fe26  1  0.12742205  0.62135786  0.62370098  1
  Fe  Fe27  1  0.62170182  0.87563665  0.37409282  1
  Fe  Fe28  1  0.50038990  0.00241516  0.75138472  1
  Fe  Fe29  1  0.00139419  0.24919448  0.74921040  1
  Fe  Fe30  1  0.12572445  0.37583402  0.62466081  1
  Fe  Fe31  1  0.12596799  0.12534057  0.62208762  1
  Fe  Fe32  1  0.50117715  0.50028490  0.24930666  1
  Fe  Fe33  1  0.12582109  0.61902332  0.12462927  1
  Fe  Fe34  1  0.62551009  0.62397234  0.87731573  1
  Fe  Fe35  1  0.24372958  0.25695851  -0.00179586  1
  Fe  Fe36  1  0.12425715  0.87496026  0.37650343  1
  Fe  Fe37  1  0.62211398  0.12604394  0.37311833  1
  Fe  Fe38  1  0.62715004  0.62523855  0.12863750  1
  Fe  Fe39  1  0.87940858  0.37432433  0.87521765  1
  Fe  Fe40  1  0.37388489  0.12698272  0.62541971  1
  Fe  Fe41  1  0.62398148  0.37377099  0.87757487  1
  Fe  Fe42  1  0.12101153  0.37205564  0.37185705  1
  Fe  Fe43  1  0.62751060  0.12646116  0.12272350  1
  Fe  Fe44  1  0.75040813  0.00063891  0.49875328  1
  Fe  Fe45  1  -0.00085391  0.74705672  0.00403554  1
  Fe  Fe46  1  0.49815695  0.25006152  0.49938908  1
  Fe  Fe47  1  -0.00038374  0.00092436  0.74916195  1
  Fe  Fe48  1  0.75175453  -0.00020428  -0.00194492  1
  Fe  Fe49  1  0.12066570  0.12449664  0.88012445  1
  Fe  Fe50  1  0.24814762  0.00160525  0.75190422  1
  Fe  Fe51  1  0.37649598  0.87653231  0.37328826  1
  Fe  Fe52  1  0.25227805  0.25112174  0.49420944  1
  Fe  Fe53  1  0.49776357  0.49937547  0.50070182  1
  Fe  Fe54  1  0.87666752  0.12759612  0.11978348  1
  Fe  Fe55  1  0.87754090  0.12575544  0.37444885  1
  Fe  Fe56  1  0.62548704  0.37422525  0.12451633  1
  Fe  Fe57  1  0.62748612  0.37538770  0.62448394  1
  Fe  Fe58  1  0.37246360  0.37342673  0.62706505  1
  Fe  Fe59  1  -0.00037000  -0.00003016  0.50156107  1
  Fe  Fe60  1  -0.00181855  0.25053225  0.50029482  1
  Fe  Fe61  1  0.37440835  0.62321049  0.87625158  1
  Fe  Fe62  1  0.49878848  0.25008665  0.00255115  1
  Fe  Fe63  1  0.75074150  0.25082151  0.24971605  1
  Fe  Fe64  1  0.49854340  0.74748835  0.50063562  1
  Fe  Fe65  1  0.75140285  0.00361379  0.75370071  1
  Fe  Fe66  1  0.74997620  0.74935770  0.49591033  1
  Fe  Fe67  1  0.62500320  0.12508624  0.62492367  1
  Fe  Fe68  1  0.24913241  0.49698208  0.25280274  1
  Fe  Fe69  1  0.00217182  0.74874489  0.74782561  1
  Fe  Fe70  1  0.87455990  0.62736988  0.36670986  1
  Fe  Fe71  1  0.62524143  0.62342338  0.62388471  1
  Fe  Fe72  1  0.87829809  0.87481471  0.37123534  1
  Fe  Fe73  1  0.87699247  0.87310817  0.87498270  1
  Fe  Fe74  1  0.62294146  0.87487825  0.87754171  1
  Fe  Fe75  1  0.75007928  0.24727028  0.75362223  1
  Fe  Fe76  1  0.49872005  0.49806494  0.75035990  1
  Fe  Fe77  1  0.62356178  0.37419163  0.37382132  1
  Fe  Fe78  1  0.87449643  0.87526827  0.62520725  1
  Fe  Fe79  1  0.75061813  0.00074239  0.24930475  1
  Fe  Fe80  1  0.12714423  0.62685545  0.37470081  1
  Fe  Fe81  1  0.37487657  0.13166391  0.87285849  1
  Fe  Fe82  1  0.37496087  0.87298290  0.87616831  1
  Fe  Fe83  1  0.49966260  0.74772769  0.74855958  1
  Fe  Fe84  1  0.49591994  0.00318947  -0.00003749  1
  Fe  Fe85  1  0.75204294  0.50020410  0.49463572  1
  Fe  Fe86  1  0.13082032  0.88003000  0.12190161  1
  Fe  Fe87  1  0.00033669  0.74878553  0.50052812  1
  Fe  Fe88  1  0.00469683  0.00343962  0.24679320  1
  Fe  Fe89  1  0.49731946  0.49954107  0.00102928  1
  Co  Co90  1  0.37693498  0.37171985  0.87452441  1
  Co  Co91  1  0.74608867  0.75351963  0.25155701  1
  Co  Co92  1  0.25078892  0.49535889  -0.00189125  1
  Co  Co93  1  0.24391397  0.24994866  0.75265173  1
  Co  Co94  1  0.00574873  0.25572619  0.00335993  1
  Co  Co95  1  0.62439766  0.12738767  0.87910348  1
  Co  Co96  1  0.75234991  0.25362520  -0.00029574  1
  Co  Co97  1  0.37225917  0.61999872  0.12714249  1
  Co  Co98  1  0.11991022  0.38114619  0.87262597  1
  Co  Co99  1  0.37231407  0.87874787  0.12493760  1
  Co  Co100  1  0.50019215  0.24925958  0.24679381  1
  Co  Co101  1  0.37779686  0.12483212  0.37232320  1
  Co  Co102  1  0.12587658  0.87669804  0.62390748  1
  Co  Co103  1  0.87481870  0.12579586  0.62403159  1
  Co  Co104  1  0.13029823  0.12299290  0.12044613  1
  Co  Co105  1  0.49711986  0.74934043  0.24845089  1
  Co  Co106  1  0.62334658  0.62343606  0.37326402  1
  Co  Co107  1  0.49992741  0.00115446  0.50094469  1
  Co  Co108  1  0.24664629  0.24976560  0.25339672  1
  Co  Co109  1  -0.00152839  -0.00368308  0.00274951  1
  Co  Co110  1  0.24867883  0.49521831  0.49650435  1
  Co  Co111  1  0.87418666  0.62558830  0.13321484  1
  Co  Co112  1  0.37190971  0.62175051  0.62500233  1
  Co  Co113  1  -0.00373345  0.50031432  0.00272677  1
  Co  Co114  1  0.37826097  0.37554995  0.37089265  1
  Co  Co115  1  0.50378264  0.25152004  0.74782248  1
  Co  Co116  1  0.12413520  0.37915166  0.13013468  1
  Co  Co117  1  0.74862788  0.49580789  0.25087739  1
  Co  Co118  1  0.00146190  0.50194552  0.25384849  1
  Co  Co119  1  0.87739807  0.62641110  0.87419846  1
  Co  Co120  1  0.12240938  0.12618681  0.37793172  1
  Co  Co121  1  0.87766292  0.37186505  0.37235030  1
  Co  Co122  1  0.88005012  0.12708875  0.88001982  1
  Co  Co123  1  -0.00217710  0.50004281  0.74620058  1
  Co  Co124  1  0.00280950  0.24403749  0.24587730  1
  Co  Co125  1  0.00688145  0.75199976  0.24626825  1
  Co  Co126  1  0.25404575  0.00167588  -0.00643933  1
  Co  Co127  1  0.24673335  0.00095325  0.25496127  1
