# generated using pymatgen
data_Fe45Co19
_symmetry_space_group_name_H-M   'P 1'
_cell_length_a   11.41491173
_cell_length_b   11.41516440
_cell_length_c   11.41522935
_cell_angle_alpha   90.00611428
_cell_angle_beta   89.99756872
_cell_angle_gamma   90.00028039
_symmetry_Int_Tables_number   1
_chemical_formula_structural   Fe45Co19
_chemical_formula_sum   'Fe90 Co38'
_cell_volume   1487.43969313
_cell_formula_units_Z   2
loop_
 _symmetry_equiv_pos_site_id
 _symmetry_equiv_pos_as_xyz
  1  'x, y, z'
loop_
 _atom_site_type_symbol
 _atom_site_label
 _atom_site_symmetry_multiplicity
 _atom_site_fract_x
 _atom_site_fract_y
 _atom_site_fract_z
 _atom_site_occupancy
  Fe  Fe0  1  0.49827986  0.50225185  0.24749205  1
  Fe  Fe1  1  0.37420694  0.12644113  0.12618179  1
  Fe  Fe2  1  0.62524334  0.37421191  0.87232987  1
  Fe  Fe3  1  0.25306684  -0.00228569  0.25212496  1
  Fe  Fe4  1  -0.00008077  0.74788718  0.25287010  1
  Fe  Fe5  1  0.00020335  0.25144368  0.25020874  1
  Fe  Fe6  1  0.25145934  0.25105441  0.74985918  1
  Fe  Fe7  1  0.62447980  0.37586584  0.37696350  1
  Fe  Fe8  1  0.87760190  0.37582248  0.12238775  1
  Fe  Fe9  1  0.87566428  0.62422698  0.12511139  1
  Fe  Fe10  1  -0.00164041  0.75254691  0.75002654  1
  Fe  Fe11  1  0.12383507  0.37628564  0.62404861  1
  Fe  Fe12  1  0.75055834  0.25103301  0.24946030  1
  Fe  Fe13  1  0.74901591  0.49957365  -0.00042212  1
  Fe  Fe14  1  0.12714000  0.12623408  0.12728633  1
  Fe  Fe15  1  0.87415677  0.12315160  0.87722897  1
  Fe  Fe16  1  0.37582689  0.87233560  0.87872784  1
  Fe  Fe17  1  0.75066032  0.49775645  0.74716549  1
  Fe  Fe18  1  0.25147707  0.24972092  0.49946864  1
  Fe  Fe19  1  -0.00192941  0.50296470  0.49718010  1
  Fe  Fe20  1  0.74960523  0.75245402  0.24870383  1
  Fe  Fe21  1  0.37679391  0.12372148  0.87226821  1
  Fe  Fe22  1  0.24847612  0.75181741  0.49805809  1
  Fe  Fe23  1  0.74809800  0.00031032  0.50070472  1
  Fe  Fe24  1  0.12575511  0.12521299  0.37406179  1
  Fe  Fe25  1  0.25031138  0.75262504  0.75076126  1
  Fe  Fe26  1  0.50255981  0.24824631  -0.00160950  1
  Fe  Fe27  1  0.62909398  0.62278711  0.37534077  1
  Fe  Fe28  1  0.75002549  0.75207701  0.00224547  1
  Fe  Fe29  1  0.24860600  0.75087624  0.25093426  1
  Fe  Fe30  1  -0.00135348  0.50104422  0.75015600  1
  Fe  Fe31  1  0.37460114  0.37708852  0.62621364  1
  Fe  Fe32  1  0.37519666  0.37916302  0.87652339  1
  Fe  Fe33  1  0.12596686  0.12409160  0.62481741  1
  Fe  Fe34  1  0.37714015  0.87587340  0.62220471  1
  Fe  Fe35  1  0.12586726  0.37838358  0.37396745  1
  Fe  Fe36  1  0.50101151  0.74616602  0.24892386  1
  Fe  Fe37  1  0.87665793  0.12568062  0.62370665  1
  Fe  Fe38  1  0.75295866  0.49808923  0.25186122  1
  Fe  Fe39  1  0.87085084  0.62934533  0.62262196  1
  Fe  Fe40  1  0.00067390  0.74972212  0.49728828  1
  Fe  Fe41  1  0.62158223  0.87595218  0.37408659  1
  Fe  Fe42  1  0.62458211  0.37630398  0.12496839  1
  Fe  Fe43  1  0.50138614  0.50209435  0.75127896  1
  Fe  Fe44  1  0.63015295  0.62735314  0.62616365  1
  Fe  Fe45  1  0.37149579  0.62518019  0.37472566  1
  Fe  Fe46  1  0.37763932  0.87221210  0.12383597  1
  Fe  Fe47  1  0.87417723  0.37191581  0.37880095  1
  Fe  Fe48  1  -0.00003795  0.24914772  0.74990626  1
  Fe  Fe49  1  0.87513944  0.87576800  0.37537264  1
  Fe  Fe50  1  0.50150767  0.74845154  0.49934941  1
  Fe  Fe51  1  0.62109517  0.12554447  0.63251466  1
  Fe  Fe52  1  0.24923758  0.50185117  0.00169884  1
  Fe  Fe53  1  0.12555638  0.62524238  0.87253612  1
  Fe  Fe54  1  0.25411818  -0.00034826  0.49623920  1
  Fe  Fe55  1  0.50065282  0.50191411  0.50142585  1
  Fe  Fe56  1  0.25133697  -0.00327469  0.75121231  1
  Fe  Fe57  1  0.12155138  0.87513444  0.12521769  1
  Fe  Fe58  1  -0.00162065  0.00150259  0.24967652  1
  Fe  Fe59  1  0.00169589  0.24874530  0.00087926  1
  Fe  Fe60  1  0.37507859  0.37524818  0.37450328  1
  Fe  Fe61  1  0.62499403  0.12505083  0.37269827  1
  Fe  Fe62  1  0.12661571  0.62387162  0.62433793  1
  Fe  Fe63  1  0.24603389  0.74952045  0.00042185  1
  Fe  Fe64  1  0.37249667  0.62448113  0.62661982  1
  Fe  Fe65  1  0.37448033  0.37474579  0.12359290  1
  Fe  Fe66  1  0.88043029  0.87808308  0.88100697  1
  Fe  Fe67  1  0.75273907  -0.00311601  0.75097078  1
  Fe  Fe68  1  0.74697621  0.24906758  0.50287745  1
  Fe  Fe69  1  0.87505762  0.37356848  0.87520371  1
  Fe  Fe70  1  0.49903304  0.24747575  0.50275972  1
  Fe  Fe71  1  0.87290916  0.62576533  0.87495577  1
  Fe  Fe72  1  0.12415091  0.12262046  0.87282978  1
  Fe  Fe73  1  0.12152944  0.62034557  0.12767310  1
  Fe  Fe74  1  0.50003495  0.74882696  0.75185739  1
  Fe  Fe75  1  0.50369765  0.00330779  0.00018902  1
  Fe  Fe76  1  0.24914602  0.24929874  0.00004295  1
  Fe  Fe77  1  0.74628717  0.24718922  -0.00063945  1
  Fe  Fe78  1  0.12398774  0.37605552  0.87595092  1
  Fe  Fe79  1  0.62545964  0.87364706  0.62570882  1
  Fe  Fe80  1  0.50307431  0.74222371  0.00027938  1
  Fe  Fe81  1  0.24814738  -0.00132906  0.00014685  1
  Fe  Fe82  1  0.12297259  0.87705847  0.62471939  1
  Fe  Fe83  1  0.87684336  0.37330954  0.62234400  1
  Fe  Fe84  1  0.62492233  0.87468858  0.87681155  1
  Fe  Fe85  1  0.49964325  0.24985622  0.24922034  1
  Fe  Fe86  1  -0.00152049  0.00141097  0.49892560  1
  Fe  Fe87  1  0.87308167  0.12413623  0.12376360  1
  Fe  Fe88  1  0.49812895  0.00082864  0.24995609  1
  Fe  Fe89  1  0.74981495  -0.00232680  0.24599918  1
  Co  Co90  1  0.75402094  0.25062200  0.74784994  1
  Co  Co91  1  0.25242927  0.49888529  0.24749272  1
  Co  Co92  1  -0.00088475  0.50124015  -0.00289208  1
  Co  Co93  1  0.62961609  0.62452962  0.87308823  1
  Co  Co94  1  0.75029503  0.49805546  0.50154258  1
  Co  Co95  1  0.62984396  0.62237358  0.12623622  1
  Co  Co96  1  0.74592239  -0.00038782  0.00228413  1
  Co  Co97  1  0.62552470  0.12599597  0.86855222  1
  Co  Co98  1  0.24887730  0.25196972  0.25073185  1
  Co  Co99  1  0.00183959  0.74695711  -0.00051295  1
  Co  Co100  1  0.49908507  -0.00553039  0.75149340  1
  Co  Co101  1  0.74790885  0.75412113  0.49666031  1
  Co  Co102  1  0.62007216  0.87351403  0.12453098  1
  Co  Co103  1  0.12346133  0.37726945  0.12416029  1
  Co  Co104  1  0.25164276  0.49885501  0.50012149  1
  Co  Co105  1  0.12270734  0.87712638  0.37508092  1
  Co  Co106  1  0.37873755  0.87214862  0.37494436  1
  Co  Co107  1  0.87104895  0.62764169  0.37600532  1
  Co  Co108  1  0.12182394  0.87598563  0.87410039  1
  Co  Co109  1  0.87269869  0.12538860  0.37479065  1
  Co  Co110  1  0.75292907  0.75552840  0.75350430  1
  Co  Co111  1  -0.00417487  0.49852914  0.25403880  1
  Co  Co112  1  0.12845417  0.62174643  0.37508049  1
  Co  Co113  1  0.37593321  0.12682749  0.37378564  1
  Co  Co114  1  0.37330669  0.62697387  0.12394244  1
  Co  Co115  1  0.62512637  0.12627998  0.12797809  1
  Co  Co116  1  0.24827751  0.49896929  0.75026812  1
  Co  Co117  1  0.50100748  0.00209582  0.50036613  1
  Co  Co118  1  0.50162951  0.50267727  0.00063917  1
  Co  Co119  1  -0.00244434  0.00004043  0.74840439  1
  Co  Co120  1  0.37226362  0.62465300  0.87442132  1
  Co  Co121  1  0.49521037  0.25313096  0.75135604  1
  Co  Co122  1  0.00213395  0.24865878  0.49818738  1
  Co  Co123  1  0.87594227  0.87374808  0.62100438  1
  Co  Co124  1  0.87948463  0.87449165  0.12322268  1
  Co  Co125  1  0.00404011  0.00325918  0.00285114  1
  Co  Co126  1  0.37510324  0.12262975  0.62774534  1
  Co  Co127  1  0.62348891  0.37410076  0.62587382  1
