# generated using pymatgen
data_Fe45Co19
_symmetry_space_group_name_H-M   'P 1'
_cell_length_a   11.41462298
_cell_length_b   11.41512844
_cell_length_c   11.41432535
_cell_angle_alpha   90.00447792
_cell_angle_beta   89.99670141
_cell_angle_gamma   89.99414418
_symmetry_Int_Tables_number   1
_chemical_formula_structural   Fe45Co19
_chemical_formula_sum   'Fe90 Co38'
_cell_volume   1487.27958510
_cell_formula_units_Z   2
loop_
 _symmetry_equiv_pos_site_id
 _symmetry_equiv_pos_as_xyz
  1  'x, y, z'
loop_
 _atom_site_type_symbol
 _atom_site_label
 _atom_site_symmetry_multiplicity
 _atom_site_fract_x
 _atom_site_fract_y
 _atom_site_fract_z
 _atom_site_occupancy
  Fe  Fe0  1  0.12756356  0.87252338  0.87522420  1
  Fe  Fe1  1  0.37457176  0.62740517  0.62587234  1
  Fe  Fe2  1  0.24689806  0.25132564  0.50106209  1
  Fe  Fe3  1  0.75005856  0.50137018  0.74769302  1
  Fe  Fe4  1  0.62324211  0.87508620  0.62534397  1
  Fe  Fe5  1  0.87261511  0.87429685  0.37489314  1
  Fe  Fe6  1  0.75197793  -0.00317569  0.50195760  1
  Fe  Fe7  1  0.12281630  0.12418817  0.12549969  1
  Fe  Fe8  1  0.50051704  0.49988418  0.49897280  1
  Fe  Fe9  1  -0.00404502  0.74955473  0.49814910  1
  Fe  Fe10  1  0.50005051  0.74963750  0.74929386  1
  Fe  Fe11  1  0.62629119  0.87656960  0.37263121  1
  Fe  Fe12  1  0.62901390  0.37510344  0.37417295  1
  Fe  Fe13  1  -0.00068097  0.50267345  -0.00020217  1
  Fe  Fe14  1  0.62577493  0.87631565  0.87410411  1
  Fe  Fe15  1  0.00104363  -0.00300124  -0.00102442  1
  Fe  Fe16  1  0.50102514  0.24941527  0.24977073  1
  Fe  Fe17  1  0.62503301  0.12513936  0.62342556  1
  Fe  Fe18  1  0.25132661  0.75099454  0.49992425  1
  Fe  Fe19  1  0.37348628  0.87206365  0.87389166  1
  Fe  Fe20  1  0.50049660  0.74810142  0.25247039  1
  Fe  Fe21  1  0.24792045  -0.00140039  0.49973519  1
  Fe  Fe22  1  0.12496733  0.87134267  0.37078040  1
  Fe  Fe23  1  0.12440082  0.37736118  0.87357775  1
  Fe  Fe24  1  0.62579117  0.62620536  0.87455129  1
  Fe  Fe25  1  0.75521382  0.24954103  0.24789945  1
  Fe  Fe26  1  0.87310385  0.87386639  0.87283586  1
  Fe  Fe27  1  0.37587484  0.87568666  0.37411643  1
  Fe  Fe28  1  0.74952464  0.75031924  0.74641424  1
  Fe  Fe29  1  0.62422326  0.37350912  0.87627821  1
  Fe  Fe30  1  0.37659313  0.62234142  0.12754856  1
  Fe  Fe31  1  0.37243801  0.62252656  0.37314876  1
  Fe  Fe32  1  0.00117505  0.74731564  0.75043045  1
  Fe  Fe33  1  0.24859007  -0.00130308  0.74734962  1
  Fe  Fe34  1  0.12251708  0.87411600  0.62497945  1
  Fe  Fe35  1  0.49984067  0.24986709  0.75024374  1
  Fe  Fe36  1  0.00282824  0.24920467  0.74671398  1
  Fe  Fe37  1  0.87653016  0.37599607  0.87287439  1
  Fe  Fe38  1  0.12605033  0.62392305  0.37762315  1
  Fe  Fe39  1  0.24804448  0.50366127  0.74869898  1
  Fe  Fe40  1  0.11971826  0.37533550  0.12575996  1
  Fe  Fe41  1  0.50009239  0.25036019  0.49790773  1
  Fe  Fe42  1  0.24732933  0.25033344  0.74738923  1
  Fe  Fe43  1  0.75163500  -0.00251598  0.00169896  1
  Fe  Fe44  1  0.87831937  0.86956444  0.12353197  1
  Fe  Fe45  1  0.49799732  0.00097483  0.00231049  1
  Fe  Fe46  1  0.62601726  0.12324954  0.12660949  1
  Fe  Fe47  1  0.75565631  0.25177573  0.50109019  1
  Fe  Fe48  1  0.87536673  0.12320770  0.87497490  1
  Fe  Fe49  1  0.37995049  0.37843218  0.12621371  1
  Fe  Fe50  1  0.62438779  0.87497078  0.12766738  1
  Fe  Fe51  1  0.12145107  0.37884268  0.37884572  1
  Fe  Fe52  1  0.00097425  0.50432099  0.74558058  1
  Fe  Fe53  1  0.37359040  0.12513512  0.37379066  1
  Fe  Fe54  1  0.75301852  0.49994673  0.24723613  1
  Fe  Fe55  1  0.12137995  0.12577348  0.37770211  1
  Fe  Fe56  1  0.37407564  0.37540486  0.62436975  1
  Fe  Fe57  1  0.12654293  0.12512012  0.87501119  1
  Fe  Fe58  1  0.50023329  0.50126326  0.75088028  1
  Fe  Fe59  1  0.24926126  -0.00024556  0.00292283  1
  Fe  Fe60  1  0.62534684  0.37484522  0.62525552  1
  Fe  Fe61  1  -0.00369305  0.24856047  0.25222572  1
  Fe  Fe62  1  0.75043468  0.49870870  0.00161113  1
  Fe  Fe63  1  0.24894907  -0.00055513  0.24958390  1
  Fe  Fe64  1  0.12119894  0.63038781  0.12693883  1
  Fe  Fe65  1  0.37384476  0.37764417  0.37295933  1
  Fe  Fe66  1  0.24768348  0.25328807  0.24927968  1
  Fe  Fe67  1  0.37531473  0.37684368  0.87741111  1
  Fe  Fe68  1  0.88130231  0.11927343  0.62302829  1
  Fe  Fe69  1  0.37365986  0.12396131  0.62353567  1
  Fe  Fe70  1  0.24789040  0.50182386  0.00223161  1
  Fe  Fe71  1  0.50090841  0.74926941  0.49902363  1
  Fe  Fe72  1  -0.00368189  0.50526612  0.25166263  1
  Fe  Fe73  1  0.50068992  0.74792536  -0.00048120  1
  Fe  Fe74  1  0.63146301  0.62436492  0.37974334  1
  Fe  Fe75  1  0.62533793  0.12422532  0.87601846  1
  Fe  Fe76  1  0.75227925  0.74895328  0.24946293  1
  Fe  Fe77  1  0.37443459  0.87399683  0.12750168  1
  Fe  Fe78  1  -0.00262845  -0.00076375  0.25054000  1
  Fe  Fe79  1  0.75136208  0.25213870  0.00210013  1
  Fe  Fe80  1  -0.00050808  0.25025411  -0.00171276  1
  Fe  Fe81  1  0.24841119  0.74812800  0.00183343  1
  Fe  Fe82  1  0.62582160  0.62440337  0.12494016  1
  Fe  Fe83  1  0.37440424  0.12584460  0.87550975  1
  Fe  Fe84  1  0.25029136  0.25190937  0.00248906  1
  Fe  Fe85  1  0.49940204  0.00038546  0.74907943  1
  Fe  Fe86  1  0.75218645  0.24706705  0.74838084  1
  Fe  Fe87  1  0.62940153  0.12253959  0.37259373  1
  Fe  Fe88  1  0.50041759  0.00065347  0.49831979  1
  Fe  Fe89  1  0.87397333  0.62662051  0.87718566  1
  Co  Co90  1  0.75626531  -0.00136500  0.24748922  1
  Co  Co91  1  0.87927042  0.87601425  0.62805087  1
  Co  Co92  1  0.12198784  0.12189437  0.62216725  1
  Co  Co93  1  0.87173435  0.62725684  0.62171762  1
  Co  Co94  1  0.87756824  0.12501467  0.12197755  1
  Co  Co95  1  0.87872153  0.37554833  0.12520380  1
  Co  Co96  1  0.00124376  -0.00610938  0.49511866  1
  Co  Co97  1  0.50232384  0.50304642  -0.00253520  1
  Co  Co98  1  -0.00170899  0.25392863  0.50260973  1
  Co  Co99  1  0.24551113  0.49918510  0.24777998  1
  Co  Co100  1  0.74992437  0.00108226  0.74806158  1
  Co  Co101  1  0.75078088  0.75627011  0.50354827  1
  Co  Co102  1  0.00266657  -0.00094329  0.75479263  1
  Co  Co103  1  0.87539228  0.37563596  0.62902306  1
  Co  Co104  1  0.12557836  0.62446191  0.87572502  1
  Co  Co105  1  0.12295863  0.87242714  0.12837739  1
  Co  Co106  1  0.87592222  0.37744279  0.37284542  1
  Co  Co107  1  0.86887294  0.62373541  0.38025726  1
  Co  Co108  1  0.50402640  0.50154483  0.25454622  1
  Co  Co109  1  -0.00477722  0.74690247  0.25518243  1
  Co  Co110  1  0.62335655  0.37560471  0.12562099  1
  Co  Co111  1  0.50000303  0.24840184  0.00165754  1
  Co  Co112  1  0.24668081  0.74919721  0.74792705  1
  Co  Co113  1  0.37301063  0.62679282  0.87382003  1
  Co  Co114  1  0.74731052  0.75101537  -0.00031007  1
  Co  Co115  1  0.12574480  0.37888306  0.62298740  1
  Co  Co116  1  0.37271848  0.12610641  0.12785150  1
  Co  Co117  1  0.25149428  0.74836618  0.25047294  1
  Co  Co118  1  0.49812141  0.00052220  0.25049611  1
  Co  Co119  1  0.87575732  0.62844967  0.12114512  1
  Co  Co120  1  0.75209087  0.49458719  0.50368668  1
  Co  Co121  1  -0.00460334  0.50000993  0.50278758  1
  Co  Co122  1  0.00179951  0.75115791  -0.00426731  1
  Co  Co123  1  0.62576301  0.62432397  0.62251336  1
  Co  Co124  1  0.12504842  0.62623120  0.61935696  1
  Co  Co125  1  0.87549815  0.12359475  0.37907141  1
  Co  Co126  1  0.37573826  0.87459934  0.62402587  1
  Co  Co127  1  0.25260502  0.50041770  0.50054737  1
