# generated using pymatgen
data_Fe45Co19
_symmetry_space_group_name_H-M   'P 1'
_cell_length_a   11.41536475
_cell_length_b   11.41427593
_cell_length_c   11.41399288
_cell_angle_alpha   90.00799102
_cell_angle_beta   90.00419987
_cell_angle_gamma   89.99687682
_symmetry_Int_Tables_number   1
_chemical_formula_structural   Fe45Co19
_chemical_formula_sum   'Fe90 Co38'
_cell_volume   1487.22182827
_cell_formula_units_Z   2
loop_
 _symmetry_equiv_pos_site_id
 _symmetry_equiv_pos_as_xyz
  1  'x, y, z'
loop_
 _atom_site_type_symbol
 _atom_site_label
 _atom_site_symmetry_multiplicity
 _atom_site_fract_x
 _atom_site_fract_y
 _atom_site_fract_z
 _atom_site_occupancy
  Fe  Fe0  1  0.62612466  0.37595819  0.37719392  1
  Fe  Fe1  1  0.87714450  0.87493051  0.12643611  1
  Fe  Fe2  1  0.37545688  0.62786833  0.62181090  1
  Fe  Fe3  1  0.62206735  0.62752682  0.36829374  1
  Fe  Fe4  1  0.00196135  0.00093270  0.25390548  1
  Fe  Fe5  1  0.50075848  0.50237352  0.49840418  1
  Fe  Fe6  1  0.24784578  0.00170726  -0.00051384  1
  Fe  Fe7  1  0.50088318  0.24947632  0.74823342  1
  Fe  Fe8  1  0.00141210  -0.00011990  -0.00230484  1
  Fe  Fe9  1  0.12780248  0.37704867  0.62749793  1
  Fe  Fe10  1  0.49873813  0.75268563  -0.00101289  1
  Fe  Fe11  1  0.50088519  0.24832370  0.00166940  1
  Fe  Fe12  1  -0.00058392  0.25200657  0.50200598  1
  Fe  Fe13  1  0.75088189  0.24982373  0.24959968  1
  Fe  Fe14  1  0.87589669  0.62454725  0.62436526  1
  Fe  Fe15  1  0.74986048  0.74949510  0.00179696  1
  Fe  Fe16  1  0.00272354  0.74848333  0.50025967  1
  Fe  Fe17  1  0.12544347  0.62377460  0.12565977  1
  Fe  Fe18  1  0.24974690  0.74797216  0.00171501  1
  Fe  Fe19  1  0.62388939  0.87393680  0.37755381  1
  Fe  Fe20  1  0.37920734  0.62430335  0.12832675  1
  Fe  Fe21  1  0.00093375  0.74854997  -0.00195718  1
  Fe  Fe22  1  0.25253109  0.75123834  0.74745643  1
  Fe  Fe23  1  0.62275528  0.12136713  0.87292450  1
  Fe  Fe24  1  0.74787419  0.74792577  0.50016230  1
  Fe  Fe25  1  0.25183395  0.75066866  0.25197416  1
  Fe  Fe26  1  0.37674777  0.12146377  0.87396833  1
  Fe  Fe27  1  0.00041507  0.25013005  0.75059962  1
  Fe  Fe28  1  0.74854706  0.00010814  0.00070541  1
  Fe  Fe29  1  0.87519175  0.87366486  0.62305169  1
  Fe  Fe30  1  0.25404866  0.49807246  0.24898530  1
  Fe  Fe31  1  0.74845130  0.24839500  -0.00040267  1
  Fe  Fe32  1  0.37234882  0.62606386  0.87580216  1
  Fe  Fe33  1  0.12783149  0.62333337  0.37586958  1
  Fe  Fe34  1  0.87214707  0.37932435  0.37912222  1
  Fe  Fe35  1  0.87479488  0.37594684  0.12276975  1
  Fe  Fe36  1  0.75113305  0.50116167  0.75116191  1
  Fe  Fe37  1  0.87281997  0.37926334  0.62403597  1
  Fe  Fe38  1  0.25314503  -0.00170553  0.74859009  1
  Fe  Fe39  1  0.37528365  0.12745123  0.37488782  1
  Fe  Fe40  1  0.12613877  0.62218671  0.62539459  1
  Fe  Fe41  1  0.50264358  0.24922366  0.50267246  1
  Fe  Fe42  1  0.12600922  0.37594615  0.12457798  1
  Fe  Fe43  1  0.24785085  -0.00032956  0.25609915  1
  Fe  Fe44  1  0.37317166  0.87722709  0.12380492  1
  Fe  Fe45  1  0.74931502  0.50336576  0.24996423  1
  Fe  Fe46  1  0.87637457  0.87323977  0.37658747  1
  Fe  Fe47  1  0.37507556  0.87195430  0.38208433  1
  Fe  Fe48  1  0.37613641  0.37584743  0.62545683  1
  Fe  Fe49  1  0.87555300  0.12456234  0.12472079  1
  Fe  Fe50  1  0.13032345  0.37740402  0.87246756  1
  Fe  Fe51  1  0.37754688  0.12102239  0.62506739  1
  Fe  Fe52  1  0.12571302  0.12367295  0.62382368  1
  Fe  Fe53  1  0.12471340  0.87437082  0.12701968  1
  Fe  Fe54  1  0.62364538  0.87439530  0.12525908  1
  Fe  Fe55  1  -0.00120595  0.50177376  0.75332859  1
  Fe  Fe56  1  0.37500353  0.12432041  0.12710181  1
  Fe  Fe57  1  -0.00204070  0.50051163  0.25248637  1
  Fe  Fe58  1  0.75023647  0.50228627  -0.00212061  1
  Fe  Fe59  1  0.62600975  0.12459540  0.37565411  1
  Fe  Fe60  1  0.00059514  -0.00207334  0.74965481  1
  Fe  Fe61  1  0.25064172  0.24992926  0.50158704  1
  Fe  Fe62  1  0.87394895  0.87174700  0.87265409  1
  Fe  Fe63  1  0.74996772  -0.00132303  0.25080133  1
  Fe  Fe64  1  0.25008319  0.24901618  -0.00050750  1
  Fe  Fe65  1  0.37587656  0.37491541  0.37555944  1
  Fe  Fe66  1  0.62473058  0.62869395  0.87342982  1
  Fe  Fe67  1  0.74749783  0.24999114  0.50424793  1
  Fe  Fe68  1  0.87372770  0.12257502  0.62483584  1
  Fe  Fe69  1  0.00145502  0.24930342  -0.00349102  1
  Fe  Fe70  1  0.37344780  0.37511499  0.87459942  1
  Fe  Fe71  1  0.12790296  0.87657505  0.62099299  1
  Fe  Fe72  1  0.74709717  0.25125968  0.74770700  1
  Fe  Fe73  1  0.87474048  0.12417505  0.37892302  1
  Fe  Fe74  1  0.62186902  0.62698570  0.62855821  1
  Fe  Fe75  1  0.12684941  0.37467826  0.37563245  1
  Fe  Fe76  1  0.49712192  0.50174601  0.75076972  1
  Fe  Fe77  1  -0.00043022  0.74791420  0.25183080  1
  Fe  Fe78  1  0.62577250  0.37622547  0.12499678  1
  Fe  Fe79  1  0.12700787  0.87275992  0.87411608  1
  Fe  Fe80  1  -0.00130258  0.25113038  0.25166284  1
  Fe  Fe81  1  0.12524099  0.12553520  0.12772626  1
  Fe  Fe82  1  0.74430951  -0.00537629  0.74623254  1
  Fe  Fe83  1  -0.00035310  0.50213093  -0.00497302  1
  Fe  Fe84  1  0.49992190  0.49982187  0.00108606  1
  Fe  Fe85  1  0.62426360  0.37612098  0.87282924  1
  Fe  Fe86  1  0.49931489  -0.00191690  0.25121229  1
  Fe  Fe87  1  0.87390381  0.12446937  0.87238659  1
  Fe  Fe88  1  0.87457686  0.62557457  0.12510208  1
  Fe  Fe89  1  0.50141304  0.25157181  0.24813004  1
  Co  Co90  1  0.74852842  -0.00242170  0.50121425  1
  Co  Co91  1  0.50004577  -0.00794570  0.75031661  1
  Co  Co92  1  0.61775494  0.87176129  0.62028897  1
  Co  Co93  1  0.62184830  0.62733021  0.12620501  1
  Co  Co94  1  0.49679724  0.75556550  0.24959528  1
  Co  Co95  1  0.62320727  0.12234682  0.62597319  1
  Co  Co96  1  0.25169472  0.50154883  0.00238075  1
  Co  Co97  1  0.37744603  0.87426609  0.61783324  1
  Co  Co98  1  0.00046760  -0.00055471  0.49970463  1
  Co  Co99  1  0.25234540  0.49884184  0.50019893  1
  Co  Co100  1  0.74781740  0.75252657  0.74573401  1
  Co  Co101  1  0.50104603  0.74470732  0.49767339  1
  Co  Co102  1  0.49584677  0.75450973  0.75308128  1
  Co  Co103  1  0.37166585  0.87624051  0.87790767  1
  Co  Co104  1  0.87381981  0.63051979  0.87251923  1
  Co  Co105  1  0.62346267  0.37943938  0.62600038  1
  Co  Co106  1  0.25013668  0.25118030  0.25021798  1
  Co  Co107  1  0.87385361  0.37247605  0.87442366  1
  Co  Co108  1  0.12380791  0.87235188  0.37630643  1
  Co  Co109  1  0.12840127  0.62616649  0.87303529  1
  Co  Co110  1  0.25406452  0.50248453  0.74822100  1
  Co  Co111  1  0.74458189  0.50568052  0.50045916  1
  Co  Co112  1  0.62432527  0.12333384  0.12741565  1
  Co  Co113  1  0.00275881  0.75074970  0.74760847  1
  Co  Co114  1  0.37519109  0.62472204  0.37325288  1
  Co  Co115  1  0.24804385  0.74780360  0.49980995  1
  Co  Co116  1  0.12387975  0.12905828  0.37782289  1
  Co  Co117  1  0.25244603  0.24721410  0.74898640  1
  Co  Co118  1  0.37556252  0.37353183  0.12376456  1
  Co  Co119  1  0.25000538  0.00207615  0.49648658  1
  Co  Co120  1  0.00284755  0.49953325  0.49937366  1
  Co  Co121  1  0.62600665  0.87280748  0.87701765  1
  Co  Co122  1  0.12597071  0.12398622  0.87154261  1
  Co  Co123  1  0.87519971  0.62527143  0.37776786  1
  Co  Co124  1  0.50008671  0.49630421  0.25010747  1
  Co  Co125  1  0.50081535  0.00257845  0.49876316  1
  Co  Co126  1  0.75115082  0.75076067  0.24978619  1
  Co  Co127  1  0.50068387  -0.00107855  0.00085632  1
