# generated using pymatgen
data_Fe45Co19
_symmetry_space_group_name_H-M   'P 1'
_cell_length_a   11.41415891
_cell_length_b   11.41499239
_cell_length_c   11.41538979
_cell_angle_alpha   90.00326742
_cell_angle_beta   89.99317827
_cell_angle_gamma   89.99633557
_symmetry_Int_Tables_number   1
_chemical_formula_structural   Fe45Co19
_chemical_formula_sum   'Fe90 Co38'
_cell_volume   1487.34008157
_cell_formula_units_Z   2
loop_
 _symmetry_equiv_pos_site_id
 _symmetry_equiv_pos_as_xyz
  1  'x, y, z'
loop_
 _atom_site_type_symbol
 _atom_site_label
 _atom_site_symmetry_multiplicity
 _atom_site_fract_x
 _atom_site_fract_y
 _atom_site_fract_z
 _atom_site_occupancy
  Fe  Fe0  1  0.87188915  0.37213620  0.37349352  1
  Fe  Fe1  1  0.12277184  0.12206197  0.37320587  1
  Fe  Fe2  1  0.37159751  0.87465957  0.87551731  1
  Fe  Fe3  1  0.24950722  0.25026377  0.49728177  1
  Fe  Fe4  1  0.37436991  0.37595071  0.87798643  1
  Fe  Fe5  1  0.37733431  0.37500969  0.62314307  1
  Fe  Fe6  1  0.87806488  0.62806930  0.12588470  1
  Fe  Fe7  1  0.87668672  0.62369579  0.87253630  1
  Fe  Fe8  1  0.87638547  0.62531662  0.62649167  1
  Fe  Fe9  1  0.37425226  0.62950874  0.37409285  1
  Fe  Fe10  1  0.74801200  0.00059415  0.49515203  1
  Fe  Fe11  1  0.24718881  0.50276197  0.00321315  1
  Fe  Fe12  1  0.62385036  0.62595754  0.12535597  1
  Fe  Fe13  1  0.49906647  0.49990167  0.75106875  1
  Fe  Fe14  1  0.75374798  -0.00037546  0.00379733  1
  Fe  Fe15  1  0.00105917  0.75448476  0.25488665  1
  Fe  Fe16  1  0.62641223  0.12370342  0.87724478  1
  Fe  Fe17  1  0.50471051  0.25155987  0.49763860  1
  Fe  Fe18  1  0.12416027  0.37545113  0.87467895  1
  Fe  Fe19  1  0.87244488  0.37367188  0.62413389  1
  Fe  Fe20  1  0.37630056  0.12557759  0.62338562  1
  Fe  Fe21  1  0.50044463  0.75067149  0.75026153  1
  Fe  Fe22  1  0.12538654  0.37442865  0.12747479  1
  Fe  Fe23  1  0.37674160  0.37542085  0.37335164  1
  Fe  Fe24  1  0.50127443  0.24924019  0.75106737  1
  Fe  Fe25  1  0.62666695  0.87510839  0.62489953  1
  Fe  Fe26  1  0.24845072  -0.00279645  0.25199684  1
  Fe  Fe27  1  0.87856680  0.87813192  0.87369021  1
  Fe  Fe28  1  -0.00074112  0.49901594  0.49812338  1
  Fe  Fe29  1  0.37397526  0.12431788  0.87427285  1
  Fe  Fe30  1  0.87642859  0.37417162  0.12576480  1
  Fe  Fe31  1  0.25051460  0.49947054  0.74763718  1
  Fe  Fe32  1  0.49927063  0.75097964  0.50122942  1
  Fe  Fe33  1  0.12520686  0.12641468  0.62358728  1
  Fe  Fe34  1  0.37739433  0.12319156  0.37699611  1
  Fe  Fe35  1  0.49928589  -0.00089824  -0.00071195  1
  Fe  Fe36  1  -0.00135890  -0.00148869  0.49746418  1
  Fe  Fe37  1  0.50346192  0.00009288  0.25283193  1
  Fe  Fe38  1  0.00139273  0.50130758  0.00097934  1
  Fe  Fe39  1  0.75118224  0.49876177  0.75049103  1
  Fe  Fe40  1  0.74759934  0.49731543  0.49848650  1
  Fe  Fe41  1  0.24852411  0.24782834  0.00175576  1
  Fe  Fe42  1  0.25096085  -0.00083011  0.50025195  1
  Fe  Fe43  1  0.75119228  0.74919421  0.50005067  1
  Fe  Fe44  1  0.37575817  0.87571517  0.62556608  1
  Fe  Fe45  1  0.37577245  0.87317745  0.37588942  1
  Fe  Fe46  1  0.62662701  0.87625748  0.12570661  1
  Fe  Fe47  1  0.24611894  0.00239559  -0.00110842  1
  Fe  Fe48  1  0.87410445  0.62629963  0.37473642  1
  Fe  Fe49  1  0.62084528  0.37553916  0.12906064  1
  Fe  Fe50  1  0.50236007  0.49950563  0.49798725  1
  Fe  Fe51  1  0.12632762  0.62851508  0.37664067  1
  Fe  Fe52  1  0.87561083  0.37452905  0.87674211  1
  Fe  Fe53  1  0.00274203  0.24580096  0.00231191  1
  Fe  Fe54  1  0.12353082  0.87303300  0.62191807  1
  Fe  Fe55  1  0.24713944  0.00104655  0.74886786  1
  Fe  Fe56  1  0.75188230  0.74992334  -0.00125717  1
  Fe  Fe57  1  0.75054777  0.75301440  0.24953668  1
  Fe  Fe58  1  0.75029102  0.50042354  0.00284054  1
  Fe  Fe59  1  0.74958393  0.24950300  0.00377014  1
  Fe  Fe60  1  0.25002354  0.25019812  0.74960718  1
  Fe  Fe61  1  0.75073870  0.50056127  0.24851038  1
  Fe  Fe62  1  0.12348733  0.87517682  0.12362071  1
  Fe  Fe63  1  0.49858100  0.24948061  0.00323930  1
  Fe  Fe64  1  0.25187140  0.24983994  0.25071920  1
  Fe  Fe65  1  0.24749636  0.74901871  0.74955583  1
  Fe  Fe66  1  0.87676554  0.12283418  0.87518562  1
  Fe  Fe67  1  -0.00013712  0.24836333  0.25077969  1
  Fe  Fe68  1  0.00333405  0.74877798  -0.00420891  1
  Fe  Fe69  1  0.49944508  0.75131788  0.00103088  1
  Fe  Fe70  1  0.62537404  0.37503292  0.87551317  1
  Fe  Fe71  1  0.62538572  0.62551075  0.87564008  1
  Fe  Fe72  1  0.12455580  0.37462114  0.62282577  1
  Fe  Fe73  1  0.62493062  0.62458923  0.62646409  1
  Fe  Fe74  1  0.87227143  0.12513020  0.62323304  1
  Fe  Fe75  1  0.62669646  0.87563210  0.87458301  1
  Fe  Fe76  1  0.24930285  0.50142633  0.24972428  1
  Fe  Fe77  1  0.00045544  0.49992003  0.25175350  1
  Fe  Fe78  1  -0.00160825  0.24915421  0.74901286  1
  Fe  Fe79  1  0.37372571  0.62610578  0.87661691  1
  Fe  Fe80  1  0.62656540  0.12593163  0.62426234  1
  Fe  Fe81  1  0.12223426  0.62560680  0.62432346  1
  Fe  Fe82  1  0.50127745  0.00048912  0.74958667  1
  Fe  Fe83  1  0.37459637  0.12297505  0.12548315  1
  Fe  Fe84  1  0.25064539  0.50089689  0.49949265  1
  Fe  Fe85  1  0.87415833  0.87483620  0.62572661  1
  Fe  Fe86  1  0.37377105  0.87527503  0.12411301  1
  Fe  Fe87  1  0.37552302  0.62638409  0.12532036  1
  Fe  Fe88  1  0.62453875  0.62710025  0.37305487  1
  Fe  Fe89  1  -0.00064666  0.25011087  0.49735448  1
  Co  Co90  1  0.25218026  0.75020360  0.50251951  1
  Co  Co91  1  0.37448721  0.37625506  0.12533256  1
  Co  Co92  1  0.00194953  0.00331334  0.00308541  1
  Co  Co93  1  0.12591631  0.12398500  0.13078542  1
  Co  Co94  1  0.12515128  0.62176165  0.87120293  1
  Co  Co95  1  0.50072602  0.50082550  0.00121035  1
  Co  Co96  1  0.87415325  0.12646994  0.37411021  1
  Co  Co97  1  0.74905426  0.24705343  0.24581766  1
  Co  Co98  1  0.12523676  0.37473854  0.37421423  1
  Co  Co99  1  0.75214654  -0.00170791  0.24930589  1
  Co  Co100  1  0.24905954  0.75216217  0.24799458  1
  Co  Co101  1  0.62509401  0.37570303  0.62828164  1
  Co  Co102  1  0.74969335  0.00096823  0.75031850  1
  Co  Co103  1  0.75118868  0.24874323  0.75194851  1
  Co  Co104  1  0.62553423  0.37428262  0.36831162  1
  Co  Co105  1  0.62551223  0.87285651  0.37516566  1
  Co  Co106  1  0.12682907  0.87481387  0.37837169  1
  Co  Co107  1  0.37687097  0.62408279  0.62510087  1
  Co  Co108  1  0.12501106  0.87769876  0.87640041  1
  Co  Co109  1  -0.00135371  0.49686137  0.74845253  1
  Co  Co110  1  -0.00356365  -0.00370499  0.25014313  1
  Co  Co111  1  0.87608306  0.12511056  0.12697644  1
  Co  Co112  1  0.49994194  0.75206216  0.24767989  1
  Co  Co113  1  0.00067532  0.75220247  0.75078444  1
  Co  Co114  1  0.49719896  0.24630692  0.24915137  1
  Co  Co115  1  0.12048479  0.62698659  0.12882437  1
  Co  Co116  1  0.50166733  -0.00098023  0.49990131  1
  Co  Co117  1  0.62747536  0.12680389  0.37338134  1
  Co  Co118  1  0.74686728  0.25268892  0.49921741  1
  Co  Co119  1  -0.00297686  0.75034045  0.49816136  1
  Co  Co120  1  0.75140554  0.75035053  0.75095487  1
  Co  Co121  1  0.24722630  0.74788791  0.00121356  1
  Co  Co122  1  0.12359399  0.12472072  0.87196769  1
  Co  Co123  1  0.62434838  0.12176975  0.12433796  1
  Co  Co124  1  0.49775982  0.50299077  0.25129296  1
  Co  Co125  1  0.87178670  0.87582408  0.37595304  1
  Co  Co126  1  0.87784685  0.87120547  0.12273690  1
  Co  Co127  1  0.00150306  0.00037591  0.74591725  1
