# generated using pymatgen
data_Fe45Co19
_symmetry_space_group_name_H-M   'P 1'
_cell_length_a   11.41566716
_cell_length_b   11.41382628
_cell_length_c   11.41377979
_cell_angle_alpha   89.99964523
_cell_angle_beta   89.99826581
_cell_angle_gamma   90.00577583
_symmetry_Int_Tables_number   1
_chemical_formula_structural   Fe45Co19
_chemical_formula_sum   'Fe90 Co38'
_cell_volume   1487.17488749
_cell_formula_units_Z   2
loop_
 _symmetry_equiv_pos_site_id
 _symmetry_equiv_pos_as_xyz
  1  'x, y, z'
loop_
 _atom_site_type_symbol
 _atom_site_label
 _atom_site_symmetry_multiplicity
 _atom_site_fract_x
 _atom_site_fract_y
 _atom_site_fract_z
 _atom_site_occupancy
  Fe  Fe0  1  0.00081199  0.00137726  0.00070637  1
  Fe  Fe1  1  0.12303510  0.37805338  0.87320487  1
  Fe  Fe2  1  0.25127305  0.49935257  0.74947706  1
  Fe  Fe3  1  0.00208405  0.24881936  0.00067977  1
  Fe  Fe4  1  0.00277084  0.50120127  0.50320815  1
  Fe  Fe5  1  0.62447233  0.12831702  0.37763769  1
  Fe  Fe6  1  0.62136017  0.87688165  0.37508798  1
  Fe  Fe7  1  0.62623332  0.37125240  0.62428010  1
  Fe  Fe8  1  0.12539498  0.62615264  0.37613350  1
  Fe  Fe9  1  0.62325193  0.62293463  0.86882484  1
  Fe  Fe10  1  0.75088333  0.50187230  -0.00359560  1
  Fe  Fe11  1  0.37727897  0.62288861  0.87268812  1
  Fe  Fe12  1  0.74943392  0.74957358  -0.00522616  1
  Fe  Fe13  1  0.62364879  0.37594623  0.87220532  1
  Fe  Fe14  1  0.25307433  0.00071005  0.75087508  1
  Fe  Fe15  1  0.25355883  0.75100013  0.25289102  1
  Fe  Fe16  1  -0.00142756  0.50297232  0.74684184  1
  Fe  Fe17  1  0.12321261  0.62320502  0.87473619  1
  Fe  Fe18  1  0.37193939  0.37118164  0.62342673  1
  Fe  Fe19  1  0.62374629  0.87429450  0.12483517  1
  Fe  Fe20  1  0.37234403  0.37537140  0.12439979  1
  Fe  Fe21  1  0.87280004  0.87390869  0.12442614  1
  Fe  Fe22  1  0.62295004  0.12428401  0.87396221  1
  Fe  Fe23  1  0.87088171  0.63032479  0.62404553  1
  Fe  Fe24  1  0.62203393  0.62265216  0.37415759  1
  Fe  Fe25  1  0.74893664  0.50022793  0.25191975  1
  Fe  Fe26  1  0.87626738  0.87236608  0.37887308  1
  Fe  Fe27  1  0.87466946  0.62487634  0.12398813  1
  Fe  Fe28  1  0.24715542  0.49759296  0.50073743  1
  Fe  Fe29  1  0.00042485  0.75079069  0.25052612  1
  Fe  Fe30  1  0.74718686  0.24854549  -0.00139999  1
  Fe  Fe31  1  0.50002281  0.74890218  -0.00166027  1
  Fe  Fe32  1  0.87462100  0.12638781  0.12472907  1
  Fe  Fe33  1  0.87697433  0.37587387  0.87535966  1
  Fe  Fe34  1  0.12881708  0.37424680  0.12601705  1
  Fe  Fe35  1  0.12458504  0.12520207  0.37197476  1
  Fe  Fe36  1  0.25203929  0.75056757  0.75093543  1
  Fe  Fe37  1  0.74904859  0.00061823  0.00002102  1
  Fe  Fe38  1  0.62554048  0.62796541  0.62985208  1
  Fe  Fe39  1  0.12766041  0.12545001  0.62557588  1
  Fe  Fe40  1  0.62491740  0.37571114  0.12622120  1
  Fe  Fe41  1  -0.00145329  -0.00069921  0.24912002  1
  Fe  Fe42  1  0.74972085  -0.00006113  0.25141450  1
  Fe  Fe43  1  0.87736253  0.87704161  0.87332197  1
  Fe  Fe44  1  0.00214584  0.24911189  0.50083161  1
  Fe  Fe45  1  0.87709138  0.62584549  0.37722034  1
  Fe  Fe46  1  0.49825973  0.00264695  0.24806713  1
  Fe  Fe47  1  0.37448879  0.37560510  0.37474274  1
  Fe  Fe48  1  0.00272388  -0.00357057  0.50244727  1
  Fe  Fe49  1  0.87549506  0.37541199  0.37641875  1
  Fe  Fe50  1  0.37448141  0.12593697  0.37949864  1
  Fe  Fe51  1  0.49927668  0.00006750  0.74521959  1
  Fe  Fe52  1  0.37609600  0.37318029  0.87649292  1
  Fe  Fe53  1  0.74878010  -0.00266880  0.74896072  1
  Fe  Fe54  1  -0.00065149  0.75081670  0.74598968  1
  Fe  Fe55  1  0.24892822  -0.00209658  0.50034144  1
  Fe  Fe56  1  0.75016590  0.24950919  0.25222168  1
  Fe  Fe57  1  0.87655029  0.12587844  0.37578523  1
  Fe  Fe58  1  0.12731414  0.62446844  0.12372959  1
  Fe  Fe59  1  0.50104593  0.49774799  0.50156678  1
  Fe  Fe60  1  0.25121331  0.75100439  -0.00173492  1
  Fe  Fe61  1  0.74796917  -0.00040099  0.50132200  1
  Fe  Fe62  1  0.37432224  0.62609719  0.62441527  1
  Fe  Fe63  1  0.62460511  0.62502362  0.12561725  1
  Fe  Fe64  1  0.49939139  0.00171059  0.00213439  1
  Fe  Fe65  1  0.37765316  0.87698330  0.87557299  1
  Fe  Fe66  1  0.12648903  0.12267275  0.87735487  1
  Fe  Fe67  1  0.12494361  0.37283087  0.37271530  1
  Fe  Fe68  1  0.25301075  0.00020106  0.24822550  1
  Fe  Fe69  1  0.87390346  0.37503844  0.12400886  1
  Fe  Fe70  1  0.49960619  0.49927158  -0.00023304  1
  Fe  Fe71  1  0.25041668  0.24871597  0.75202808  1
  Fe  Fe72  1  0.49941910  0.75104523  0.50065556  1
  Fe  Fe73  1  -0.00006353  0.74962260  -0.00008158  1
  Fe  Fe74  1  0.12416775  0.87590737  0.87284755  1
  Fe  Fe75  1  0.74917600  0.75048475  0.25290826  1
  Fe  Fe76  1  0.49788550  0.24761532  0.74791261  1
  Fe  Fe77  1  0.49940411  0.25051243  0.24968321  1
  Fe  Fe78  1  0.50054096  0.00129837  0.50559316  1
  Fe  Fe79  1  0.37386627  0.62273621  0.12578460  1
  Fe  Fe80  1  0.37236090  0.12819902  0.11898863  1
  Fe  Fe81  1  0.87652237  0.37394978  0.62471570  1
  Fe  Fe82  1  0.74790788  0.49993606  0.50111935  1
  Fe  Fe83  1  0.24843373  0.75406433  0.49871771  1
  Fe  Fe84  1  0.87434324  0.12304015  0.62567951  1
  Fe  Fe85  1  0.75170536  0.24944996  0.75005037  1
  Fe  Fe86  1  0.00003872  0.24607161  0.75125602  1
  Fe  Fe87  1  0.49679040  0.74944535  0.25170977  1
  Fe  Fe88  1  0.00154565  0.49980890  0.24820697  1
  Fe  Fe89  1  0.12721280  0.87607153  0.12573546  1
  Co  Co90  1  0.49914464  0.49868623  0.25003294  1
  Co  Co91  1  0.24940108  0.50160241  0.25179705  1
  Co  Co92  1  0.74595969  0.74950927  0.49606431  1
  Co  Co93  1  0.37324599  0.87415712  0.62439774  1
  Co  Co94  1  0.37763276  0.12439438  0.87706634  1
  Co  Co95  1  0.25209526  0.24696610  0.25076435  1
  Co  Co96  1  0.50204908  0.25115598  0.00056450  1
  Co  Co97  1  0.75326341  0.24954981  0.50037196  1
  Co  Co98  1  0.25055983  0.50022710  -0.00288364  1
  Co  Co99  1  0.00481836  0.75208598  0.50287367  1
  Co  Co100  1  -0.00030131  0.25055923  0.24869588  1
  Co  Co101  1  0.87291832  0.12443533  0.87579984  1
  Co  Co102  1  0.12421601  0.37328908  0.62899812  1
  Co  Co103  1  0.62582469  0.12480385  0.12566515  1
  Co  Co104  1  0.62672279  0.87098870  0.62462617  1
  Co  Co105  1  0.75207712  0.49837552  0.74860745  1
  Co  Co106  1  0.12718523  0.87643718  0.62926085  1
  Co  Co107  1  0.49881607  0.75373605  0.74961696  1
  Co  Co108  1  0.24720105  0.25118575  -0.00314534  1
  Co  Co109  1  0.37133271  0.12682269  0.62306599  1
  Co  Co110  1  0.25039018  -0.00221660  -0.00054819  1
  Co  Co111  1  0.37458889  0.62258229  0.37888360  1
  Co  Co112  1  0.37751756  0.87788734  0.37659623  1
  Co  Co113  1  0.62672203  0.12831325  0.62532613  1
  Co  Co114  1  0.12932855  0.62570083  0.62565986  1
  Co  Co115  1  0.49763350  0.49668193  0.74610538  1
  Co  Co116  1  0.87316083  0.87384765  0.62277632  1
  Co  Co117  1  -0.00008040  0.00188917  0.74908500  1
  Co  Co118  1  0.62091994  0.87828903  0.87676933  1
  Co  Co119  1  0.62539787  0.37244790  0.37573782  1
  Co  Co120  1  0.74960165  0.75451457  0.75523515  1
  Co  Co121  1  0.37687757  0.87362132  0.12418960  1
  Co  Co122  1  0.12601367  0.12338245  0.12557438  1
  Co  Co123  1  0.49882691  0.25050167  0.50058840  1
  Co  Co124  1  0.24638657  0.25126931  0.49851652  1
  Co  Co125  1  0.87758237  0.62420414  0.87347880  1
  Co  Co126  1  0.00088901  0.49948843  0.00244415  1
  Co  Co127  1  0.12556375  0.87619542  0.37146153  1
