# generated using pymatgen
data_Fe45Co19
_symmetry_space_group_name_H-M   'P 1'
_cell_length_a   11.41439366
_cell_length_b   11.41451258
_cell_length_c   11.41388853
_cell_angle_alpha   90.00573123
_cell_angle_beta   89.99313060
_cell_angle_gamma   90.00767076
_symmetry_Int_Tables_number   1
_chemical_formula_structural   Fe45Co19
_chemical_formula_sum   'Fe90 Co38'
_cell_volume   1487.11253805
_cell_formula_units_Z   2
loop_
 _symmetry_equiv_pos_site_id
 _symmetry_equiv_pos_as_xyz
  1  'x, y, z'
loop_
 _atom_site_type_symbol
 _atom_site_label
 _atom_site_symmetry_multiplicity
 _atom_site_fract_x
 _atom_site_fract_y
 _atom_site_fract_z
 _atom_site_occupancy
  Fe  Fe0  1  0.87513231  0.87388766  0.12578083  1
  Fe  Fe1  1  0.74797210  0.25046544  0.25142600  1
  Fe  Fe2  1  0.12549336  0.87443991  0.87601614  1
  Fe  Fe3  1  0.62538631  0.12727585  0.12320213  1
  Fe  Fe4  1  -0.00085581  0.00305174  0.00177325  1
  Fe  Fe5  1  0.37383164  0.87361288  0.87586406  1
  Fe  Fe6  1  0.62120374  0.12632456  0.63027663  1
  Fe  Fe7  1  0.74724965  0.25122293  0.50433579  1
  Fe  Fe8  1  0.50084860  -0.00012294  -0.00115742  1
  Fe  Fe9  1  0.74783980  0.00150290  0.25093545  1
  Fe  Fe10  1  0.12616536  0.12458739  0.37324339  1
  Fe  Fe11  1  0.24870220  0.75105733  0.74906437  1
  Fe  Fe12  1  0.24981602  0.00260498  0.00178209  1
  Fe  Fe13  1  0.25155211  0.49911683  0.49968352  1
  Fe  Fe14  1  0.25236695  0.75211271  0.25147458  1
  Fe  Fe15  1  0.62641140  0.62123794  0.62326384  1
  Fe  Fe16  1  0.50220581  0.00137152  0.25187082  1
  Fe  Fe17  1  -0.00200648  0.50012328  0.50212722  1
  Fe  Fe18  1  0.62373875  0.37398674  0.37733586  1
  Fe  Fe19  1  0.37436917  0.62489160  0.62429369  1
  Fe  Fe20  1  0.49957291  0.25050443  -0.00254021  1
  Fe  Fe21  1  0.37460517  0.12606560  0.37336799  1
  Fe  Fe22  1  0.00217570  0.24757419  0.49945961  1
  Fe  Fe23  1  0.74762871  0.74914648  0.49930257  1
  Fe  Fe24  1  0.37771083  0.37439069  0.62529384  1
  Fe  Fe25  1  0.37678532  0.87570836  0.62285919  1
  Fe  Fe26  1  0.87531644  0.12841876  0.12636562  1
  Fe  Fe27  1  0.87506282  0.37315886  0.37702333  1
  Fe  Fe28  1  0.25206425  0.49546293  0.24951334  1
  Fe  Fe29  1  0.75088196  0.00207851  -0.00108435  1
  Fe  Fe30  1  0.12392389  0.12743131  0.87757618  1
  Fe  Fe31  1  0.62411337  0.62431235  0.12771954  1
  Fe  Fe32  1  0.12256679  0.37411567  0.87956255  1
  Fe  Fe33  1  0.74998792  0.75040767  0.74949441  1
  Fe  Fe34  1  0.00035477  0.00241142  0.25001938  1
  Fe  Fe35  1  0.25052863  0.24915817  0.74866395  1
  Fe  Fe36  1  0.37487235  0.62449237  0.12615225  1
  Fe  Fe37  1  0.24993877  0.49876761  0.74909195  1
  Fe  Fe38  1  0.87382355  0.12594079  0.37577622  1
  Fe  Fe39  1  0.25074997  0.74985426  0.49793415  1
  Fe  Fe40  1  0.74934783  0.49815389  0.25214848  1
  Fe  Fe41  1  0.87439282  0.87649504  0.37503526  1
  Fe  Fe42  1  0.37551689  0.12616274  0.12633453  1
  Fe  Fe43  1  0.37559128  0.37669460  0.87495720  1
  Fe  Fe44  1  -0.00154512  0.74948828  0.50001610  1
  Fe  Fe45  1  0.12570596  0.62350596  0.37373219  1
  Fe  Fe46  1  0.50114821  0.74905262  0.00047727  1
  Fe  Fe47  1  0.25068115  0.24832662  0.50255216  1
  Fe  Fe48  1  0.12501458  0.62452734  0.12642720  1
  Fe  Fe49  1  0.74922345  0.74954953  0.25122316  1
  Fe  Fe50  1  -0.00002486  0.74812933  -0.00074498  1
  Fe  Fe51  1  -0.00006677  0.49983985  0.74703547  1
  Fe  Fe52  1  0.50298730  -0.00016044  0.49911492  1
  Fe  Fe53  1  0.87541323  0.62543791  0.12667081  1
  Fe  Fe54  1  0.75304979  0.25047321  -0.00710390  1
  Fe  Fe55  1  0.50153757  0.74968571  0.74791550  1
  Fe  Fe56  1  0.49834948  0.50175142  0.49680900  1
  Fe  Fe57  1  0.37462242  0.87647735  0.12507880  1
  Fe  Fe58  1  0.12467116  0.62604405  0.62479668  1
  Fe  Fe59  1  0.62522700  0.37375288  0.12283314  1
  Fe  Fe60  1  0.62733309  0.62172148  0.87343743  1
  Fe  Fe61  1  0.49973717  0.50093766  -0.00106047  1
  Fe  Fe62  1  0.62561022  0.87602643  0.87470601  1
  Fe  Fe63  1  0.74829581  0.00151925  0.50128996  1
  Fe  Fe64  1  0.87564092  0.87615033  0.87439246  1
  Fe  Fe65  1  0.12388800  0.37331845  0.62422917  1
  Fe  Fe66  1  0.12520871  0.87562610  0.12595694  1
  Fe  Fe67  1  0.25012769  0.25246050  0.24722341  1
  Fe  Fe68  1  0.24969558  0.49880703  0.00184554  1
  Fe  Fe69  1  0.75013526  0.49192405  0.74447976  1
  Fe  Fe70  1  0.62546939  0.87453738  0.12623016  1
  Fe  Fe71  1  0.87549019  0.87471543  0.62565681  1
  Fe  Fe72  1  0.37717893  0.12407381  0.87210955  1
  Fe  Fe73  1  0.75328105  0.49805843  0.00084665  1
  Fe  Fe74  1  0.37301927  0.62638771  0.87453608  1
  Fe  Fe75  1  0.49806764  0.49655532  0.25219364  1
  Fe  Fe76  1  -0.00046025  0.49564397  0.24740551  1
  Fe  Fe77  1  0.25042276  0.00178265  0.74763485  1
  Fe  Fe78  1  0.12576198  0.37488602  0.37573687  1
  Fe  Fe79  1  0.74818725  0.00247606  0.75051612  1
  Fe  Fe80  1  0.87451667  0.62360803  0.37549195  1
  Fe  Fe81  1  0.49952938  0.24804092  0.49854900  1
  Fe  Fe82  1  0.00213999  0.00063134  0.74848181  1
  Fe  Fe83  1  0.12491949  0.62489813  0.87522669  1
  Fe  Fe84  1  0.87492051  0.62234082  0.87204312  1
  Fe  Fe85  1  0.74989744  0.74915956  -0.00037832  1
  Fe  Fe86  1  0.12378423  0.87600837  0.62294528  1
  Fe  Fe87  1  0.87687134  0.12902685  0.62876779  1
  Fe  Fe88  1  0.12385565  0.87733026  0.37514182  1
  Fe  Fe89  1  0.25060866  0.00245171  0.50052356  1
  Co  Co90  1  0.74579382  0.25409820  0.75107247  1
  Co  Co91  1  0.24914712  0.74969276  0.00210870  1
  Co  Co92  1  -0.00163450  0.00237212  0.49996299  1
  Co  Co93  1  0.87632680  0.12426892  0.87037299  1
  Co  Co94  1  0.12374166  0.37136396  0.12029548  1
  Co  Co95  1  0.37745189  0.37439640  0.12293277  1
  Co  Co96  1  0.37411409  0.62608915  0.37470322  1
  Co  Co97  1  0.87807599  0.37665533  0.87174391  1
  Co  Co98  1  0.62552524  0.87396384  0.37369372  1
  Co  Co99  1  0.12467238  0.12944154  0.12370650  1
  Co  Co100  1  0.37397046  0.37147268  0.37685054  1
  Co  Co101  1  0.00022324  0.75031540  0.25162937  1
  Co  Co102  1  0.00084423  0.25080898  0.25195349  1
  Co  Co103  1  0.62649811  0.87612615  0.62567195  1
  Co  Co104  1  0.50285665  0.74920959  0.50201756  1
  Co  Co105  1  0.00336672  0.25074698  0.75181246  1
  Co  Co106  1  0.87298221  0.62547695  0.62514762  1
  Co  Co107  1  0.50137825  0.25346268  0.75346117  1
  Co  Co108  1  0.37918446  0.12500334  0.62619299  1
  Co  Co109  1  0.25423697  0.24942343  -0.00075867  1
  Co  Co110  1  0.62419325  0.37796000  0.87675671  1
  Co  Co111  1  0.87877522  0.37007398  0.62425060  1
  Co  Co112  1  0.87279616  0.37192475  0.12650740  1
  Co  Co113  1  0.62586690  0.12621208  0.37578563  1
  Co  Co114  1  0.49725412  0.75139113  0.24951541  1
  Co  Co115  1  0.00031799  0.75004849  0.75013054  1
  Co  Co116  1  0.61809793  0.37552038  0.62226981  1
  Co  Co117  1  0.75082965  0.49685583  0.50054597  1
  Co  Co118  1  0.49878334  0.50160132  0.75073272  1
  Co  Co119  1  -0.00625581  0.24991664  -0.00047066  1
  Co  Co120  1  -0.00250710  0.50116325  0.00296192  1
  Co  Co121  1  0.49934681  -0.00379371  0.75098125  1
  Co  Co122  1  0.24997157  0.00007128  0.24982184  1
  Co  Co123  1  0.37710988  0.87603011  0.37765749  1
  Co  Co124  1  0.50133378  0.25053056  0.25009450  1
  Co  Co125  1  0.62333369  0.12353154  0.87375685  1
  Co  Co126  1  0.62391736  0.62508154  0.37367749  1
  Co  Co127  1  0.12401494  0.12484886  0.62484146  1
