# generated using pymatgen
data_Fe45Co19
_symmetry_space_group_name_H-M   'P 1'
_cell_length_a   11.41490781
_cell_length_b   11.41577797
_cell_length_c   11.41520468
_cell_angle_alpha   90.01064736
_cell_angle_beta   90.00195728
_cell_angle_gamma   89.99875175
_symmetry_Int_Tables_number   1
_chemical_formula_structural   Fe45Co19
_chemical_formula_sum   'Fe90 Co38'
_cell_volume   1487.51590101
_cell_formula_units_Z   2
loop_
 _symmetry_equiv_pos_site_id
 _symmetry_equiv_pos_as_xyz
  1  'x, y, z'
loop_
 _atom_site_type_symbol
 _atom_site_label
 _atom_site_symmetry_multiplicity
 _atom_site_fract_x
 _atom_site_fract_y
 _atom_site_fract_z
 _atom_site_occupancy
  Fe  Fe0  1  0.87505018  0.37582321  0.12577701  1
  Fe  Fe1  1  0.12693808  0.37654062  0.37286369  1
  Fe  Fe2  1  0.37438464  0.87456975  0.12133327  1
  Fe  Fe3  1  0.37554288  0.62424971  0.37662588  1
  Fe  Fe4  1  -0.00203976  0.00213886  0.00140882  1
  Fe  Fe5  1  0.49892118  0.00062141  0.49958220  1
  Fe  Fe6  1  -0.00115220  0.75286402  0.25195809  1
  Fe  Fe7  1  0.62574865  0.12522151  0.62853701  1
  Fe  Fe8  1  0.62556241  0.62323487  0.37427489  1
  Fe  Fe9  1  0.12337762  0.12386714  0.62538996  1
  Fe  Fe10  1  0.12361676  0.12365766  0.37289148  1
  Fe  Fe11  1  0.62742292  0.12410384  0.87173039  1
  Fe  Fe12  1  0.25045238  -0.00025323  0.75208099  1
  Fe  Fe13  1  -0.00039923  0.25080456  0.00050875  1
  Fe  Fe14  1  0.25019897  0.74755061  0.24718505  1
  Fe  Fe15  1  0.75085151  0.24992249  -0.00147408  1
  Fe  Fe16  1  0.74970460  0.74814303  0.24973588  1
  Fe  Fe17  1  -0.00000204  0.75093426  0.75180013  1
  Fe  Fe18  1  0.50031123  0.25153469  -0.00362735  1
  Fe  Fe19  1  0.75198546  0.25095917  0.25139405  1
  Fe  Fe20  1  0.37602652  0.37938106  0.87380401  1
  Fe  Fe21  1  0.62423389  0.12517621  0.37598218  1
  Fe  Fe22  1  -0.00041630  0.49956020  0.50156385  1
  Fe  Fe23  1  0.87406097  0.87520955  0.12275601  1
  Fe  Fe24  1  0.37213547  0.87236761  0.87877214  1
  Fe  Fe25  1  0.00223047  0.74828129  -0.00023160  1
  Fe  Fe26  1  0.62415988  0.62497186  0.12227807  1
  Fe  Fe27  1  -0.00055678  0.49804257  0.24985805  1
  Fe  Fe28  1  0.50103340  -0.00045798  -0.00157958  1
  Fe  Fe29  1  0.87401510  0.62532815  0.87435296  1
  Fe  Fe30  1  0.37537406  0.37635053  0.37484401  1
  Fe  Fe31  1  0.12404814  0.12500777  0.87466944  1
  Fe  Fe32  1  0.12534661  0.87454961  0.12399492  1
  Fe  Fe33  1  0.12637950  0.62462563  0.37297897  1
  Fe  Fe34  1  0.49871524  0.00072743  0.25091251  1
  Fe  Fe35  1  0.00192919  0.49862209  0.00026972  1
  Fe  Fe36  1  0.25055306  0.00058436  0.49945466  1
  Fe  Fe37  1  0.50125673  0.74861588  0.50143059  1
  Fe  Fe38  1  0.62565102  0.12511487  0.12323149  1
  Fe  Fe39  1  0.37390700  0.87329708  0.37586498  1
  Fe  Fe40  1  0.12233873  0.12660669  0.12678929  1
  Fe  Fe41  1  0.25064195  0.25005470  0.75160787  1
  Fe  Fe42  1  0.37561619  0.12567632  0.62667152  1
  Fe  Fe43  1  0.62560439  0.37755114  0.86948828  1
  Fe  Fe44  1  0.00072201  -0.00395090  0.49696369  1
  Fe  Fe45  1  0.00101005  0.75180060  0.49616936  1
  Fe  Fe46  1  0.12487494  0.87609915  0.87690394  1
  Fe  Fe47  1  0.25068238  0.00112670  0.24864798  1
  Fe  Fe48  1  0.49986420  0.24987957  0.50058388  1
  Fe  Fe49  1  0.25112056  0.25114699  0.24916841  1
  Fe  Fe50  1  0.62647115  0.87344458  0.87270070  1
  Fe  Fe51  1  0.87317006  0.87142496  0.62344230  1
  Fe  Fe52  1  0.62598825  0.87395423  0.37520659  1
  Fe  Fe53  1  0.12392695  0.37414951  0.62776182  1
  Fe  Fe54  1  0.49775998  -0.00100339  0.75090807  1
  Fe  Fe55  1  0.12628226  0.62750581  0.62571614  1
  Fe  Fe56  1  0.50012131  0.74949664  0.24809349  1
  Fe  Fe57  1  -0.00019712  0.50141420  0.74881773  1
  Fe  Fe58  1  0.62729321  0.62876505  0.63140920  1
  Fe  Fe59  1  0.24973364  0.24930983  0.50075421  1
  Fe  Fe60  1  0.87610282  0.62467402  0.12412820  1
  Fe  Fe61  1  0.49972270  0.49955607  0.24725399  1
  Fe  Fe62  1  0.62534712  0.87563405  0.12439975  1
  Fe  Fe63  1  -0.00358102  0.24726579  0.74945912  1
  Fe  Fe64  1  0.24566933  0.49808872  0.00208235  1
  Fe  Fe65  1  0.87570771  0.37541002  0.87238095  1
  Fe  Fe66  1  0.12730826  0.87358109  0.62532344  1
  Fe  Fe67  1  0.75303611  0.25147107  0.50134924  1
  Fe  Fe68  1  0.74886603  0.75017185  -0.00210652  1
  Fe  Fe69  1  0.62550752  0.37387688  0.62955784  1
  Fe  Fe70  1  -0.00444981  -0.00025560  0.75039201  1
  Fe  Fe71  1  0.62445793  0.37477287  0.12545246  1
  Fe  Fe72  1  0.37618344  0.37580020  0.62756929  1
  Fe  Fe73  1  0.24893741  0.25166411  -0.00170679  1
  Fe  Fe74  1  0.37629202  0.12588043  0.12145325  1
  Fe  Fe75  1  0.50077224  0.50156951  0.50470038  1
  Fe  Fe76  1  0.62662312  0.37789393  0.37541232  1
  Fe  Fe77  1  0.49950217  0.25015966  0.25099290  1
  Fe  Fe78  1  0.75179781  0.50140729  0.50539997  1
  Fe  Fe79  1  0.87695157  0.12322718  0.37384293  1
  Fe  Fe80  1  0.87303166  0.62358320  0.37583689  1
  Fe  Fe81  1  0.12758101  0.62348640  0.87460633  1
  Fe  Fe82  1  -0.00137502  0.25230350  0.49840171  1
  Fe  Fe83  1  0.75094051  0.00076764  0.24863022  1
  Fe  Fe84  1  0.62592018  0.87280643  0.62782315  1
  Fe  Fe85  1  0.37345485  0.87073099  0.62458701  1
  Fe  Fe86  1  0.24973914  0.50090901  0.50234590  1
  Fe  Fe87  1  0.74941711  -0.00057477  0.50171080  1
  Fe  Fe88  1  0.37638531  0.62407414  0.11908275  1
  Fe  Fe89  1  0.74897572  0.49965198  -0.00087259  1
  Co  Co90  1  -0.00091650  -0.00451265  0.24969196  1
  Co  Co91  1  0.75364796  0.75080527  0.75303602  1
  Co  Co92  1  0.37285002  0.62263305  0.88028835  1
  Co  Co93  1  0.37495280  0.12595449  0.37554523  1
  Co  Co94  1  0.24765804  0.00208008  0.00003873  1
  Co  Co95  1  0.24983617  0.50068759  0.74854368  1
  Co  Co96  1  0.50245461  0.75108760  -0.00205514  1
  Co  Co97  1  0.12176371  0.62363425  0.12714767  1
  Co  Co98  1  0.50387140  0.49851082  -0.00073857  1
  Co  Co99  1  0.75439095  -0.00142792  0.74985219  1
  Co  Co100  1  0.24845750  0.74862905  0.49906075  1
  Co  Co101  1  -0.00241214  0.25355090  0.25196339  1
  Co  Co102  1  0.49880435  0.50568954  0.74889959  1
  Co  Co103  1  0.87771224  0.62882608  0.62536145  1
  Co  Co104  1  0.87220557  0.37994654  0.37553237  1
  Co  Co105  1  0.37134605  0.62756214  0.62495176  1
  Co  Co106  1  0.74822221  0.74720794  0.49954045  1
  Co  Co107  1  0.87638131  0.12349320  0.62171073  1
  Co  Co108  1  0.12287728  0.37466272  0.87203640  1
  Co  Co109  1  0.49856905  0.24957770  0.75177372  1
  Co  Co110  1  0.62619556  0.62490184  0.87388424  1
  Co  Co111  1  0.74967102  -0.00017862  -0.00141734  1
  Co  Co112  1  0.87455712  0.12558370  0.12584677  1
  Co  Co113  1  0.37479249  0.12441182  0.87618612  1
  Co  Co114  1  0.24573191  0.74782481  0.00060788  1
  Co  Co115  1  0.25236176  0.50135665  0.24731635  1
  Co  Co116  1  0.37594563  0.37414432  0.12327768  1
  Co  Co117  1  0.49578937  0.74724686  0.75263960  1
  Co  Co118  1  0.86954119  0.87448675  0.37566488  1
  Co  Co119  1  0.87387496  0.12478318  0.87715998  1
  Co  Co120  1  0.13035531  0.87495957  0.37315761  1
  Co  Co121  1  0.12392295  0.37479409  0.12725428  1
  Co  Co122  1  0.25028894  0.74978026  0.75342347  1
  Co  Co123  1  0.87714966  0.37565385  0.62770692  1
  Co  Co124  1  0.75252595  0.50177063  0.74889296  1
  Co  Co125  1  0.74929581  0.50122885  0.24637488  1
  Co  Co126  1  0.87684733  0.87427749  0.87848719  1
  Co  Co127  1  0.75407097  0.24849158  0.74887854  1
