# generated using pymatgen
data_Fe45Co19
_symmetry_space_group_name_H-M   'P 1'
_cell_length_a   11.41488962
_cell_length_b   11.41547421
_cell_length_c   11.41549423
_cell_angle_alpha   90.01412688
_cell_angle_beta   90.00719536
_cell_angle_gamma   90.00407894
_symmetry_Int_Tables_number   1
_chemical_formula_structural   Fe45Co19
_chemical_formula_sum   'Fe90 Co38'
_cell_volume   1487.51164659
_cell_formula_units_Z   2
loop_
 _symmetry_equiv_pos_site_id
 _symmetry_equiv_pos_as_xyz
  1  'x, y, z'
loop_
 _atom_site_type_symbol
 _atom_site_label
 _atom_site_symmetry_multiplicity
 _atom_site_fract_x
 _atom_site_fract_y
 _atom_site_fract_z
 _atom_site_occupancy
  Fe  Fe0  1  0.74715133  0.25001785  0.25193699  1
  Fe  Fe1  1  0.87429240  0.37385486  0.37702389  1
  Fe  Fe2  1  0.74874703  0.00138158  0.49764201  1
  Fe  Fe3  1  0.87417143  0.37624833  0.12543878  1
  Fe  Fe4  1  0.24889335  0.00157382  0.00245200  1
  Fe  Fe5  1  0.00200648  -0.00512643  0.24959214  1
  Fe  Fe6  1  0.24885059  0.00284300  0.49839202  1
  Fe  Fe7  1  -0.00015009  0.50011209  0.49948370  1
  Fe  Fe8  1  0.87322853  0.62494972  0.62544009  1
  Fe  Fe9  1  0.00263696  0.24943031  0.00284193  1
  Fe  Fe10  1  0.74863371  0.75233994  0.49880263  1
  Fe  Fe11  1  0.12425821  0.62285933  0.12822040  1
  Fe  Fe12  1  0.12427960  0.12537365  0.87402275  1
  Fe  Fe13  1  0.49700833  0.00282377  0.75003110  1
  Fe  Fe14  1  0.50079312  0.24921907  0.49805920  1
  Fe  Fe15  1  0.87650562  0.12470819  0.37524100  1
  Fe  Fe16  1  0.62382754  0.62788165  0.12364361  1
  Fe  Fe17  1  0.37200625  0.12819127  0.62467117  1
  Fe  Fe18  1  0.00080678  0.74944082  0.74867660  1
  Fe  Fe19  1  0.74745931  0.49911271  0.49843914  1
  Fe  Fe20  1  0.62447887  0.37598356  0.87610986  1
  Fe  Fe21  1  0.37341476  0.87550583  0.87443373  1
  Fe  Fe22  1  0.61999362  0.62675099  0.37638168  1
  Fe  Fe23  1  0.74962328  0.24935920  0.00000101  1
  Fe  Fe24  1  0.37581401  0.62244855  0.87449115  1
  Fe  Fe25  1  0.49916604  0.74979337  0.75043862  1
  Fe  Fe26  1  0.87409183  0.12291704  0.12474129  1
  Fe  Fe27  1  0.25088175  0.25160058  0.75343722  1
  Fe  Fe28  1  0.00095838  0.74844325  0.00002584  1
  Fe  Fe29  1  0.37533964  0.62435386  0.62600433  1
  Fe  Fe30  1  0.49929215  0.49898081  0.24828654  1
  Fe  Fe31  1  0.74805156  0.75308033  0.25163448  1
  Fe  Fe32  1  0.50252224  0.24970891  0.24611434  1
  Fe  Fe33  1  0.74959993  0.74917608  -0.00261790  1
  Fe  Fe34  1  0.87596176  0.87438545  0.62292453  1
  Fe  Fe35  1  0.24727077  0.49708891  -0.00016407  1
  Fe  Fe36  1  0.24919086  0.74834089  -0.00184767  1
  Fe  Fe37  1  0.37159173  0.87574685  0.62808990  1
  Fe  Fe38  1  0.87457874  0.37396468  0.62214365  1
  Fe  Fe39  1  0.87613957  0.62536959  0.12621008  1
  Fe  Fe40  1  0.37539870  0.62655813  0.12340416  1
  Fe  Fe41  1  0.87572633  0.12712866  0.62190126  1
  Fe  Fe42  1  0.00100933  0.75289321  0.25149763  1
  Fe  Fe43  1  0.49776886  0.25099216  0.75127943  1
  Fe  Fe44  1  0.37431368  0.12914003  0.88055236  1
  Fe  Fe45  1  0.25037584  0.74915427  0.50063025  1
  Fe  Fe46  1  0.12498464  0.37879450  0.13016036  1
  Fe  Fe47  1  -0.00069334  0.00211748  0.74982530  1
  Fe  Fe48  1  0.12766669  0.87587828  0.62648917  1
  Fe  Fe49  1  0.49890405  0.00060442  0.50070984  1
  Fe  Fe50  1  0.12525402  0.62287341  0.37277560  1
  Fe  Fe51  1  0.49867769  0.49580570  0.74831667  1
  Fe  Fe52  1  0.12307797  0.62088060  0.87348589  1
  Fe  Fe53  1  0.62370553  0.87580565  0.87612888  1
  Fe  Fe54  1  0.12614534  0.37317858  0.62351547  1
  Fe  Fe55  1  0.37769130  0.62615685  0.37575002  1
  Fe  Fe56  1  0.62468461  0.62428907  0.62541218  1
  Fe  Fe57  1  0.62473558  0.87691632  0.62531123  1
  Fe  Fe58  1  0.75088585  0.50120607  -0.00054884  1
  Fe  Fe59  1  0.62652026  0.12510586  0.87521415  1
  Fe  Fe60  1  0.62456951  0.37337137  0.62214146  1
  Fe  Fe61  1  0.75262810  0.00166422  0.75137479  1
  Fe  Fe62  1  0.25241279  0.49951358  0.49914776  1
  Fe  Fe63  1  0.50133197  -0.00071861  0.24672757  1
  Fe  Fe64  1  0.00340724  0.00147600  0.49947755  1
  Fe  Fe65  1  0.25139781  0.49539455  0.75109481  1
  Fe  Fe66  1  0.12576339  0.62478353  0.62581800  1
  Fe  Fe67  1  0.25026095  0.75082866  0.24991902  1
  Fe  Fe68  1  0.50110772  0.49932682  0.00095926  1
  Fe  Fe69  1  0.74878449  0.50099173  0.25133315  1
  Fe  Fe70  1  0.74722622  -0.00294462  0.25165191  1
  Fe  Fe71  1  0.12572469  0.87654392  0.87454221  1
  Fe  Fe72  1  0.37605794  0.37513638  0.37551993  1
  Fe  Fe73  1  0.12916970  0.12437456  0.13132062  1
  Fe  Fe74  1  0.37532043  0.87322264  0.12337489  1
  Fe  Fe75  1  0.00161470  0.25258034  0.25311392  1
  Fe  Fe76  1  0.74961468  0.74995607  0.75228224  1
  Fe  Fe77  1  0.87621803  0.62802388  0.37584580  1
  Fe  Fe78  1  -0.00041140  0.24965088  0.74845147  1
  Fe  Fe79  1  0.24543645  0.24791554  0.49368770  1
  Fe  Fe80  1  0.50108940  0.00260193  0.00321311  1
  Fe  Fe81  1  0.87779191  0.87791686  0.87753486  1
  Fe  Fe82  1  0.62506302  0.12582313  0.62432019  1
  Fe  Fe83  1  0.37430430  0.37064256  0.12082778  1
  Fe  Fe84  1  0.87473019  0.87621729  0.12204715  1
  Fe  Fe85  1  0.75161796  0.25039851  0.74981588  1
  Fe  Fe86  1  0.37404177  0.12427758  0.36937298  1
  Fe  Fe87  1  0.87720892  0.62114269  0.87225331  1
  Fe  Fe88  1  0.87884340  0.37680549  0.87501966  1
  Fe  Fe89  1  0.37666791  0.87326177  0.37562731  1
  Co  Co90  1  0.25201533  0.00465433  0.75186046  1
  Co  Co91  1  0.49897641  0.49859131  0.50136941  1
  Co  Co92  1  0.50537474  0.24758967  0.00285427  1
  Co  Co93  1  0.12647244  0.12613745  0.62730578  1
  Co  Co94  1  0.62907741  0.12398766  0.12533682  1
  Co  Co95  1  0.62754249  0.37701085  0.12499969  1
  Co  Co96  1  0.37235215  0.37052885  0.62190460  1
  Co  Co97  1  -0.00519869  0.49992978  0.25156200  1
  Co  Co98  1  0.74863913  0.24842317  0.49814185  1
  Co  Co99  1  0.87647856  0.87528765  0.37704779  1
  Co  Co100  1  0.74911815  0.49802186  0.74963947  1
  Co  Co101  1  0.25145517  -0.00574489  0.24936871  1
  Co  Co102  1  0.62601200  0.87271263  0.12203488  1
  Co  Co103  1  0.62282853  0.62293714  0.87476962  1
  Co  Co104  1  0.49941128  0.75101528  0.24832013  1
  Co  Co105  1  -0.00040650  0.49974482  0.00374144  1
  Co  Co106  1  0.49847322  0.75016033  -0.00255419  1
  Co  Co107  1  0.74930361  0.00071963  -0.00155703  1
  Co  Co108  1  0.00459129  0.24931677  0.49647363  1
  Co  Co109  1  0.12518657  0.87282337  0.12248757  1
  Co  Co110  1  0.62347797  0.37508645  0.37443630  1
  Co  Co111  1  0.37633607  0.37300584  0.88041649  1
  Co  Co112  1  0.12632119  0.87386982  0.37792072  1
  Co  Co113  1  0.87624578  0.12655343  0.87710424  1
  Co  Co114  1  0.12074018  0.37616957  0.87325366  1
  Co  Co115  1  0.12555653  0.38113906  0.37293303  1
  Co  Co116  1  0.25631142  0.49982067  0.24887018  1
  Co  Co117  1  0.24327427  0.25118318  0.00078559  1
  Co  Co118  1  0.12537710  0.12177186  0.36848075  1
  Co  Co119  1  0.62335103  0.12465869  0.37450129  1
  Co  Co120  1  0.24970553  0.74770230  0.75186392  1
  Co  Co121  1  0.49846760  0.75156097  0.50489980  1
  Co  Co122  1  0.00174211  0.74854355  0.50104609  1
  Co  Co123  1  0.62149929  0.87421898  0.37701711  1
  Co  Co124  1  0.00356881  0.00380845  0.00193377  1
  Co  Co125  1  -0.00017850  0.49929099  0.74478565  1
  Co  Co126  1  0.37146302  0.12786959  0.12601715  1
  Co  Co127  1  0.24984218  0.25400618  0.25211032  1
