# generated using pymatgen
data_Fe45Co19
_symmetry_space_group_name_H-M   'P 1'
_cell_length_a   11.41548866
_cell_length_b   11.41408443
_cell_length_c   11.41624872
_cell_angle_alpha   89.99399916
_cell_angle_beta   89.99379286
_cell_angle_gamma   89.98676156
_symmetry_Int_Tables_number   1
_chemical_formula_structural   Fe45Co19
_chemical_formula_sum   'Fe90 Co38'
_cell_volume   1487.50691557
_cell_formula_units_Z   2
loop_
 _symmetry_equiv_pos_site_id
 _symmetry_equiv_pos_as_xyz
  1  'x, y, z'
loop_
 _atom_site_type_symbol
 _atom_site_label
 _atom_site_symmetry_multiplicity
 _atom_site_fract_x
 _atom_site_fract_y
 _atom_site_fract_z
 _atom_site_occupancy
  Fe  Fe0  1  0.37591686  0.62368374  0.62522528  1
  Fe  Fe1  1  0.25034121  0.74945288  0.49982449  1
  Fe  Fe2  1  -0.00085684  0.75248843  0.00283812  1
  Fe  Fe3  1  0.24894513  0.24939257  0.74922342  1
  Fe  Fe4  1  0.24965803  0.49959829  0.75100677  1
  Fe  Fe5  1  0.25075506  0.24846197  0.50135933  1
  Fe  Fe6  1  0.75136347  0.50068495  -0.00163514  1
  Fe  Fe7  1  0.37549009  0.87585483  0.62421449  1
  Fe  Fe8  1  -0.00101118  0.75221197  0.24739501  1
  Fe  Fe9  1  0.87593037  0.12214830  0.62295040  1
  Fe  Fe10  1  0.75169560  0.24829670  0.00057642  1
  Fe  Fe11  1  0.75058402  0.75028149  0.00061689  1
  Fe  Fe12  1  0.50048640  -0.00181922  -0.00174666  1
  Fe  Fe13  1  0.87216289  0.88168090  0.12593547  1
  Fe  Fe14  1  0.50358502  0.49862197  0.74969564  1
  Fe  Fe15  1  0.12592076  0.87676289  0.37366387  1
  Fe  Fe16  1  0.12306889  0.12489436  0.87619074  1
  Fe  Fe17  1  0.25031908  0.24852159  0.00075922  1
  Fe  Fe18  1  0.74983728  0.74787797  0.25186573  1
  Fe  Fe19  1  -0.00202273  0.74847866  0.74699750  1
  Fe  Fe20  1  0.62234635  0.62810255  0.87851569  1
  Fe  Fe21  1  0.62524313  0.37235609  0.37347470  1
  Fe  Fe22  1  0.12753962  0.88271188  0.12537225  1
  Fe  Fe23  1  -0.00241594  0.25124428  0.49895899  1
  Fe  Fe24  1  0.12418093  0.62455390  0.12484133  1
  Fe  Fe25  1  -0.00126679  0.49974554  0.25139020  1
  Fe  Fe26  1  0.62794446  0.37729325  0.12599081  1
  Fe  Fe27  1  0.25082854  0.24544296  0.24775350  1
  Fe  Fe28  1  -0.00281873  0.24814875  0.00259738  1
  Fe  Fe29  1  0.37631132  0.62324959  0.12258498  1
  Fe  Fe30  1  0.62629394  0.37291945  0.87532218  1
  Fe  Fe31  1  0.37776874  0.62539302  0.87654389  1
  Fe  Fe32  1  0.62719532  0.87626361  0.12468256  1
  Fe  Fe33  1  0.75158441  0.25024778  0.75041015  1
  Fe  Fe34  1  0.12532685  0.87653900  0.62515698  1
  Fe  Fe35  1  0.12390565  0.37365043  0.12755041  1
  Fe  Fe36  1  0.74792592  -0.00247864  0.74977078  1
  Fe  Fe37  1  0.75163905  0.50513225  0.25392532  1
  Fe  Fe38  1  0.25100235  0.74998023  0.25039758  1
  Fe  Fe39  1  0.50146105  0.25120787  0.74782073  1
  Fe  Fe40  1  0.50077777  0.25166068  0.00208550  1
  Fe  Fe41  1  0.50403294  0.75148065  0.74769096  1
  Fe  Fe42  1  0.49778498  0.00240972  0.49947991  1
  Fe  Fe43  1  0.24952426  0.00198834  0.74955303  1
  Fe  Fe44  1  -0.00334532  0.24472652  0.24966349  1
  Fe  Fe45  1  0.86694886  0.62442331  0.62282139  1
  Fe  Fe46  1  -0.00225554  0.75279512  0.50203816  1
  Fe  Fe47  1  0.62486471  0.12494414  0.62472596  1
  Fe  Fe48  1  0.24992883  0.49791954  -0.00139257  1
  Fe  Fe49  1  0.37779400  0.62619341  0.37545010  1
  Fe  Fe50  1  0.12446673  0.87458925  0.87538891  1
  Fe  Fe51  1  0.24939275  0.74815850  0.74900888  1
  Fe  Fe52  1  0.62207942  0.87399274  0.37498746  1
  Fe  Fe53  1  0.50235233  -0.00171253  0.74959554  1
  Fe  Fe54  1  0.12347567  0.12481923  0.37622446  1
  Fe  Fe55  1  0.12179068  0.62359240  0.87618417  1
  Fe  Fe56  1  0.37754213  0.37098990  0.37428526  1
  Fe  Fe57  1  0.37528180  0.87371211  0.87433681  1
  Fe  Fe58  1  0.86976026  0.37884809  0.62601262  1
  Fe  Fe59  1  0.00025408  -0.00011407  0.74873749  1
  Fe  Fe60  1  -0.00204032  0.49717881  0.49759643  1
  Fe  Fe61  1  0.62489829  0.12253363  0.12434012  1
  Fe  Fe62  1  0.75120048  0.24492557  0.24945534  1
  Fe  Fe63  1  0.49974310  0.74922767  0.24672327  1
  Fe  Fe64  1  0.12456240  0.37482541  0.62436077  1
  Fe  Fe65  1  0.37235894  0.87908912  0.12566781  1
  Fe  Fe66  1  0.25007413  0.50020609  0.25270060  1
  Fe  Fe67  1  0.62526568  0.12478691  0.87484609  1
  Fe  Fe68  1  0.25041742  0.75065035  0.00018275  1
  Fe  Fe69  1  0.12062127  0.37630708  0.87451900  1
  Fe  Fe70  1  0.37550069  0.37426168  0.12534155  1
  Fe  Fe71  1  0.74990107  -0.00217587  0.49921091  1
  Fe  Fe72  1  0.87430257  0.12349006  0.87600968  1
  Fe  Fe73  1  0.12456234  0.62304364  0.62307799  1
  Fe  Fe74  1  0.25260594  0.00257263  0.49837965  1
  Fe  Fe75  1  0.25005411  0.49861586  0.49694134  1
  Fe  Fe76  1  0.87767788  0.62308825  0.87563581  1
  Fe  Fe77  1  0.87569342  0.87757828  0.37411990  1
  Fe  Fe78  1  0.12238512  0.62626193  0.37490335  1
  Fe  Fe79  1  0.50154933  0.50001508  0.24909156  1
  Fe  Fe80  1  0.50522303  0.49845405  0.50176144  1
  Fe  Fe81  1  0.37675140  0.12688864  0.87457408  1
  Fe  Fe82  1  0.37590406  0.37357176  0.62549730  1
  Fe  Fe83  1  -0.00224158  0.25104296  0.74843580  1
  Fe  Fe84  1  0.49779407  0.00217870  0.25248190  1
  Fe  Fe85  1  0.62394962  0.12749982  0.37610401  1
  Fe  Fe86  1  0.87391885  0.87647390  0.87405397  1
  Fe  Fe87  1  0.74964214  0.25134506  0.49992832  1
  Fe  Fe88  1  0.50260389  0.74860200  0.50277345  1
  Fe  Fe89  1  0.87373242  0.37579513  0.12642469  1
  Co  Co90  1  0.37756618  0.12349579  0.12334483  1
  Co  Co91  1  0.00026647  -0.00194488  0.49988899  1
  Co  Co92  1  0.62592630  0.87485722  0.62238970  1
  Co  Co93  1  0.74720123  0.00237101  0.25379025  1
  Co  Co94  1  0.50272951  0.24992779  0.24622080  1
  Co  Co95  1  0.37800912  0.13132803  0.37469503  1
  Co  Co96  1  0.37661442  0.12556535  0.62732884  1
  Co  Co97  1  0.74810278  0.00098257  -0.00231328  1
  Co  Co98  1  0.50243427  0.25141578  0.50323454  1
  Co  Co99  1  0.87266645  0.11980909  0.12394900  1
  Co  Co100  1  0.74936765  0.75300253  0.49539888  1
  Co  Co101  1  0.50072874  0.49596806  0.00016916  1
  Co  Co102  1  0.63213086  0.62551219  0.62524007  1
  Co  Co103  1  0.12522200  0.37162273  0.37285439  1
  Co  Co104  1  0.87706269  0.37607743  0.87567856  1
  Co  Co105  1  0.12255216  0.12493674  0.62372914  1
  Co  Co106  1  0.74879180  0.75146927  0.75283491  1
  Co  Co107  1  0.62549875  0.62462173  0.12321784  1
  Co  Co108  1  0.00020989  0.49801903  0.00416035  1
  Co  Co109  1  0.49879096  0.75371806  0.00393722  1
  Co  Co110  1  0.87252124  0.87521767  0.62589695  1
  Co  Co111  1  0.87387682  0.12339242  0.37829288  1
  Co  Co112  1  0.37596669  0.87160448  0.37603187  1
  Co  Co113  1  0.62260295  0.62744107  0.37462774  1
  Co  Co114  1  0.25360174  0.00358589  0.25478770  1
  Co  Co115  1  0.62560890  0.87371046  0.87752247  1
  Co  Co116  1  0.37562846  0.37313866  0.87378667  1
  Co  Co117  1  0.74711317  0.49902504  0.49399698  1
  Co  Co118  1  0.25153765  0.00198225  -0.00358581  1
  Co  Co119  1  -0.00156716  0.50080355  0.74593169  1
  Co  Co120  1  0.87520620  0.62455050  0.12535024  1
  Co  Co121  1  0.87297079  0.37308100  0.37218515  1
  Co  Co122  1  -0.00153179  -0.00031699  -0.00106681  1
  Co  Co123  1  -0.00113210  0.00356229  0.25094034  1
  Co  Co124  1  0.74766106  0.50036376  0.75537294  1
  Co  Co125  1  0.12503308  0.12048957  0.12429865  1
  Co  Co126  1  0.87848073  0.62774360  0.37694452  1
  Co  Co127  1  0.62932068  0.37483896  0.62690281  1
