# generated using pymatgen
data_Fe45Co19
_symmetry_space_group_name_H-M   'P 1'
_cell_length_a   11.41481123
_cell_length_b   11.41678299
_cell_length_c   11.41586780
_cell_angle_alpha   90.00044590
_cell_angle_beta   89.98291369
_cell_angle_gamma   90.00219676
_symmetry_Int_Tables_number   1
_chemical_formula_structural   Fe45Co19
_chemical_formula_sum   'Fe90 Co38'
_cell_volume   1487.72064988
_cell_formula_units_Z   2
loop_
 _symmetry_equiv_pos_site_id
 _symmetry_equiv_pos_as_xyz
  1  'x, y, z'
loop_
 _atom_site_type_symbol
 _atom_site_label
 _atom_site_symmetry_multiplicity
 _atom_site_fract_x
 _atom_site_fract_y
 _atom_site_fract_z
 _atom_site_occupancy
  Fe  Fe0  1  0.87639796  0.62582696  0.12401995  1
  Fe  Fe1  1  0.37810455  0.37533192  0.62693409  1
  Fe  Fe2  1  0.75131504  0.49966885  0.74947848  1
  Fe  Fe3  1  0.75281072  0.25319860  0.50022469  1
  Fe  Fe4  1  0.87712960  0.87492210  0.12482939  1
  Fe  Fe5  1  0.87517900  0.62412698  0.37533113  1
  Fe  Fe6  1  0.12414536  0.87387452  0.37571296  1
  Fe  Fe7  1  0.49837272  0.50182170  -0.00031847  1
  Fe  Fe8  1  0.00238581  0.25014288  0.75078146  1
  Fe  Fe9  1  0.12444538  0.62386361  0.37460704  1
  Fe  Fe10  1  0.62472162  0.87652909  0.87407683  1
  Fe  Fe11  1  0.62653671  0.12568544  0.37610383  1
  Fe  Fe12  1  0.75091472  0.75221043  0.74563703  1
  Fe  Fe13  1  0.37709936  0.62396986  0.62591087  1
  Fe  Fe14  1  0.74758521  0.24897901  -0.00204953  1
  Fe  Fe15  1  0.24889867  0.75152203  -0.00029651  1
  Fe  Fe16  1  0.12652888  0.12790218  0.37534628  1
  Fe  Fe17  1  0.00296816  0.00334817  -0.00098052  1
  Fe  Fe18  1  0.24836492  0.25184903  0.50304485  1
  Fe  Fe19  1  0.50076043  0.24859962  0.24954137  1
  Fe  Fe20  1  0.00026216  0.50159305  -0.00550145  1
  Fe  Fe21  1  0.87459353  0.87434651  0.37727058  1
  Fe  Fe22  1  0.37392420  0.87646127  0.87474420  1
  Fe  Fe23  1  0.00095089  0.74848288  -0.00296219  1
  Fe  Fe24  1  0.87490175  0.12693451  0.62602510  1
  Fe  Fe25  1  0.62556648  0.37768545  0.37221250  1
  Fe  Fe26  1  0.62509812  0.37492119  0.12533764  1
  Fe  Fe27  1  0.12481106  0.37265466  0.11977046  1
  Fe  Fe28  1  0.37328329  0.87584500  0.37542369  1
  Fe  Fe29  1  0.75369921  0.49774276  0.50116677  1
  Fe  Fe30  1  0.62487435  0.62220899  0.37557819  1
  Fe  Fe31  1  0.37606372  0.37607695  0.37596685  1
  Fe  Fe32  1  0.49954344  0.74941615  0.25176788  1
  Fe  Fe33  1  0.74952120  -0.00340459  0.74569709  1
  Fe  Fe34  1  0.74638943  0.25125031  0.75242430  1
  Fe  Fe35  1  0.49993605  0.74944276  -0.00164071  1
  Fe  Fe36  1  0.49851241  0.00362433  0.00135591  1
  Fe  Fe37  1  0.62712427  0.62425697  0.87458510  1
  Fe  Fe38  1  0.37801676  0.87316000  0.62420562  1
  Fe  Fe39  1  0.62550930  0.12567235  0.62459464  1
  Fe  Fe40  1  0.00177765  0.00148401  0.75114784  1
  Fe  Fe41  1  0.12461366  0.87494837  0.12506087  1
  Fe  Fe42  1  0.62278288  0.37544947  0.62764227  1
  Fe  Fe43  1  -0.00152900  0.74760425  0.50080197  1
  Fe  Fe44  1  0.12160823  0.37429764  0.37686186  1
  Fe  Fe45  1  -0.00068468  0.49886167  0.24969527  1
  Fe  Fe46  1  0.62356851  0.62407257  0.12651717  1
  Fe  Fe47  1  -0.00080604  0.00374837  0.50054809  1
  Fe  Fe48  1  0.24975508  0.74975995  0.24998244  1
  Fe  Fe49  1  0.87536787  0.12906425  0.37333974  1
  Fe  Fe50  1  0.62447478  0.87595335  0.12579923  1
  Fe  Fe51  1  0.49972884  0.00106698  0.50037124  1
  Fe  Fe52  1  0.13109683  0.12872710  0.12541630  1
  Fe  Fe53  1  0.37393808  0.87694776  0.12554521  1
  Fe  Fe54  1  0.87285123  0.12674552  0.12619931  1
  Fe  Fe55  1  0.75097576  0.49958720  0.00068601  1
  Fe  Fe56  1  0.12204866  0.87536002  0.62535700  1
  Fe  Fe57  1  0.12201415  0.62179323  0.62642372  1
  Fe  Fe58  1  0.37183231  0.62431744  0.87495508  1
  Fe  Fe59  1  0.25055305  0.74840918  0.50124104  1
  Fe  Fe60  1  0.49991652  0.00196555  0.24965754  1
  Fe  Fe61  1  0.24688093  0.49625384  0.75247418  1
  Fe  Fe62  1  0.50088525  0.00022794  0.74828924  1
  Fe  Fe63  1  0.37577580  0.37257784  0.12369010  1
  Fe  Fe64  1  0.00178706  0.00141430  0.24957580  1
  Fe  Fe65  1  0.62759401  0.87511519  0.37983998  1
  Fe  Fe66  1  0.37554735  0.62172112  0.37411761  1
  Fe  Fe67  1  0.37203034  0.12645307  0.37377041  1
  Fe  Fe68  1  0.87626137  0.87511239  0.87511997  1
  Fe  Fe69  1  0.50186288  0.24575957  -0.00315693  1
  Fe  Fe70  1  0.37713516  0.37395279  0.87314521  1
  Fe  Fe71  1  0.75013814  -0.00038383  0.00064907  1
  Fe  Fe72  1  -0.00143464  0.74692457  0.75181094  1
  Fe  Fe73  1  0.74960855  0.75109647  0.00083240  1
  Fe  Fe74  1  0.75105105  0.74850853  0.24975801  1
  Fe  Fe75  1  0.87552181  0.37245246  0.12545043  1
  Fe  Fe76  1  0.12622871  0.62420885  0.12359748  1
  Fe  Fe77  1  0.24900406  -0.00034711  0.50233547  1
  Fe  Fe78  1  0.74993384  0.00092574  0.25072305  1
  Fe  Fe79  1  0.50030072  0.25151131  0.50098744  1
  Fe  Fe80  1  0.37271836  0.12719046  0.62701744  1
  Fe  Fe81  1  0.24953941  0.75222014  0.74948176  1
  Fe  Fe82  1  0.25064242  0.49730650  0.24729287  1
  Fe  Fe83  1  0.87280047  0.12461232  0.87407029  1
  Fe  Fe84  1  0.11859030  0.37717123  0.62428726  1
  Fe  Fe85  1  0.13034104  0.12763295  0.87305268  1
  Fe  Fe86  1  0.62169918  0.62665196  0.62424739  1
  Fe  Fe87  1  0.37110656  0.12544023  0.87044338  1
  Fe  Fe88  1  0.87561071  0.37394842  0.87461867  1
  Fe  Fe89  1  0.24992384  0.49956575  0.50121692  1
  Co  Co90  1  0.24779767  -0.00138813  0.25075470  1
  Co  Co91  1  0.62401554  0.37872791  0.87604253  1
  Co  Co92  1  0.75299985  0.50107933  0.24850667  1
  Co  Co93  1  0.49835899  0.74821414  0.49664506  1
  Co  Co94  1  0.50005941  0.50188848  0.75175669  1
  Co  Co95  1  0.25121747  0.49769418  -0.00050674  1
  Co  Co96  1  0.37354007  0.62666991  0.12438265  1
  Co  Co97  1  0.12342660  0.37126996  0.87896945  1
  Co  Co98  1  0.24910781  -0.00370788  0.74821923  1
  Co  Co99  1  0.12933653  0.62545953  0.87501516  1
  Co  Co100  1  0.00231626  0.25006327  0.24756225  1
  Co  Co101  1  0.12359216  0.87427629  0.87409735  1
  Co  Co102  1  0.49771055  0.49941141  0.24756495  1
  Co  Co103  1  -0.00155955  0.24919337  0.50143886  1
  Co  Co104  1  0.87862806  0.37473178  0.62911587  1
  Co  Co105  1  0.50015501  0.74939446  0.75314030  1
  Co  Co106  1  -0.00180661  0.24553241  -0.00100949  1
  Co  Co107  1  0.50055970  0.49900972  0.50144249  1
  Co  Co108  1  0.87815056  0.62145337  0.62605845  1
  Co  Co109  1  0.50329142  0.24867048  0.75223380  1
  Co  Co110  1  0.74856714  0.25059686  0.25009765  1
  Co  Co111  1  0.25369290  0.24987985  -0.00245930  1
  Co  Co112  1  0.37163734  0.12559625  0.12803860  1
  Co  Co113  1  0.87073310  0.62646110  0.87522631  1
  Co  Co114  1  -0.00073331  0.74955622  0.25038368  1
  Co  Co115  1  0.24729686  0.25527909  0.74683161  1
  Co  Co116  1  0.87656267  0.37301318  0.37213803  1
  Co  Co117  1  0.62647713  0.12500541  0.12476586  1
  Co  Co118  1  0.87940104  0.87632394  0.62373136  1
  Co  Co119  1  0.75219592  0.00201459  0.50207101  1
  Co  Co120  1  0.00068226  0.50121539  0.75709545  1
  Co  Co121  1  0.75184639  0.74749273  0.50330802  1
  Co  Co122  1  -0.00413559  0.49941897  0.49762828  1
  Co  Co123  1  0.12600458  0.12470216  0.62564791  1
  Co  Co124  1  0.24873199  0.00030218  -0.00141555  1
  Co  Co125  1  0.62152217  0.87354764  0.62152100  1
  Co  Co126  1  0.24946368  0.25462996  0.25164629  1
  Co  Co127  1  0.62694080  0.12018711  0.87436841  1
