# generated using pymatgen
data_Fe45Co19
_symmetry_space_group_name_H-M   'P 1'
_cell_length_a   11.41521370
_cell_length_b   11.41483573
_cell_length_c   11.41406096
_cell_angle_alpha   89.99736871
_cell_angle_beta   90.00052001
_cell_angle_gamma   90.00228634
_symmetry_Int_Tables_number   1
_chemical_formula_structural   Fe45Co19
_chemical_formula_sum   'Fe90 Co38'
_cell_volume   1487.28397720
_cell_formula_units_Z   2
loop_
 _symmetry_equiv_pos_site_id
 _symmetry_equiv_pos_as_xyz
  1  'x, y, z'
loop_
 _atom_site_type_symbol
 _atom_site_label
 _atom_site_symmetry_multiplicity
 _atom_site_fract_x
 _atom_site_fract_y
 _atom_site_fract_z
 _atom_site_occupancy
  Fe  Fe0  1  0.12467985  0.87186408  0.62476838  1
  Fe  Fe1  1  0.37372313  0.37582450  0.87548199  1
  Fe  Fe2  1  0.11807885  0.37366886  0.12945459  1
  Fe  Fe3  1  0.62714350  0.62267015  0.37464683  1
  Fe  Fe4  1  0.49968087  0.50264775  0.74882034  1
  Fe  Fe5  1  0.24939916  0.50106379  0.74795911  1
  Fe  Fe6  1  0.49931293  0.25171479  0.24939144  1
  Fe  Fe7  1  -0.00205491  0.25296119  0.49607560  1
  Fe  Fe8  1  0.75244864  0.25224509  -0.00388539  1
  Fe  Fe9  1  0.62583978  0.37530448  0.62751588  1
  Fe  Fe10  1  0.62894901  0.12222897  0.87154032  1
  Fe  Fe11  1  0.00094357  0.74913084  0.49661500  1
  Fe  Fe12  1  0.12641605  0.62168848  0.37375167  1
  Fe  Fe13  1  0.50318900  0.49770896  0.00473393  1
  Fe  Fe14  1  0.74971044  0.25022848  0.50178607  1
  Fe  Fe15  1  0.62987995  0.37920077  0.87296072  1
  Fe  Fe16  1  0.00169539  0.74895049  0.75349940  1
  Fe  Fe17  1  0.75003499  -0.00035330  0.24834614  1
  Fe  Fe18  1  0.87354407  0.12503938  0.62671640  1
  Fe  Fe19  1  0.87313174  0.12264838  0.37680514  1
  Fe  Fe20  1  0.50152712  0.25187739  -0.00127110  1
  Fe  Fe21  1  0.24872534  -0.00028493  0.74911962  1
  Fe  Fe22  1  0.24761791  0.25251212  0.00026696  1
  Fe  Fe23  1  0.00075722  0.50154994  0.74973409  1
  Fe  Fe24  1  0.49816370  0.74812249  0.25233740  1
  Fe  Fe25  1  0.24692763  0.49699754  0.00391260  1
  Fe  Fe26  1  0.74985756  0.74756357  0.75077524  1
  Fe  Fe27  1  -0.00223711  0.74884301  0.25346380  1
  Fe  Fe28  1  0.62306908  0.87267879  0.62961429  1
  Fe  Fe29  1  0.12269334  0.12723842  0.12594435  1
  Fe  Fe30  1  0.25032448  0.75028854  0.49517743  1
  Fe  Fe31  1  0.37694787  0.87493132  0.87396332  1
  Fe  Fe32  1  0.12340754  0.37437778  0.62526440  1
  Fe  Fe33  1  0.75051796  0.50128093  0.50397633  1
  Fe  Fe34  1  0.24847316  0.49880491  0.50191209  1
  Fe  Fe35  1  0.87649032  0.62701087  0.62259448  1
  Fe  Fe36  1  0.50066553  0.75081013  -0.00014578  1
  Fe  Fe37  1  0.50154348  0.24900292  0.75025667  1
  Fe  Fe38  1  0.87718558  0.12727010  0.12196246  1
  Fe  Fe39  1  0.37445668  0.12495303  0.87626802  1
  Fe  Fe40  1  0.75475209  0.25110108  0.24939027  1
  Fe  Fe41  1  0.12279931  0.87206897  0.12580224  1
  Fe  Fe42  1  0.24956550  0.75071145  0.00107638  1
  Fe  Fe43  1  0.12215224  0.12148596  0.87416938  1
  Fe  Fe44  1  0.50016780  0.49981408  0.49936447  1
  Fe  Fe45  1  0.62855655  0.37618071  0.37253311  1
  Fe  Fe46  1  0.62680084  0.62818357  0.12552581  1
  Fe  Fe47  1  0.62481241  0.87591751  0.37282679  1
  Fe  Fe48  1  0.37604442  0.12635402  0.62508500  1
  Fe  Fe49  1  -0.00420480  0.25065526  0.75412662  1
  Fe  Fe50  1  0.87448522  0.37633273  0.62627559  1
  Fe  Fe51  1  0.37600490  0.12357131  0.37342770  1
  Fe  Fe52  1  0.24957524  0.25175965  0.25032311  1
  Fe  Fe53  1  0.12051977  0.62647788  0.12595817  1
  Fe  Fe54  1  0.87240506  0.62408122  0.37800843  1
  Fe  Fe55  1  0.87765385  0.87894886  0.87470073  1
  Fe  Fe56  1  -0.00143251  0.00083157  0.25007721  1
  Fe  Fe57  1  0.62585401  0.12707102  0.12515268  1
  Fe  Fe58  1  0.62573811  0.12605279  0.37456557  1
  Fe  Fe59  1  0.25150634  0.25280062  0.49867181  1
  Fe  Fe60  1  0.24788647  -0.00149237  0.00048576  1
  Fe  Fe61  1  0.25025350  0.74906784  0.75189720  1
  Fe  Fe62  1  -0.00150844  0.25213056  -0.00623582  1
  Fe  Fe63  1  0.49993298  0.25226839  0.49997359  1
  Fe  Fe64  1  0.12362720  0.12762554  0.62395045  1
  Fe  Fe65  1  0.37539752  0.12533376  0.12423003  1
  Fe  Fe66  1  0.37364777  0.38001083  0.37104934  1
  Fe  Fe67  1  0.12447498  0.12539058  0.37548392  1
  Fe  Fe68  1  0.25001420  -0.00257193  0.25166497  1
  Fe  Fe69  1  0.37424151  0.62275158  0.12754618  1
  Fe  Fe70  1  0.24986755  0.24996909  0.75061205  1
  Fe  Fe71  1  0.87579150  0.87255556  0.12493795  1
  Fe  Fe72  1  0.50342280  -0.00130313  0.00036315  1
  Fe  Fe73  1  0.74873593  -0.00233961  0.50243391  1
  Fe  Fe74  1  0.24981562  -0.00134401  0.49853692  1
  Fe  Fe75  1  0.87417567  0.61996871  0.87958835  1
  Fe  Fe76  1  0.87598571  0.87166977  0.62375949  1
  Fe  Fe77  1  0.37619246  0.87389179  0.62565537  1
  Fe  Fe78  1  -0.00002195  -0.00096295  0.50074888  1
  Fe  Fe79  1  0.37720596  0.87533915  0.12763335  1
  Fe  Fe80  1  0.37471173  0.62261162  0.87817312  1
  Fe  Fe81  1  0.50082338  0.00106413  0.50050700  1
  Fe  Fe82  1  0.74865663  -0.00287231  0.00111589  1
  Fe  Fe83  1  0.75028049  0.75139247  -0.00142730  1
  Fe  Fe84  1  0.37477611  0.62554637  0.62307812  1
  Fe  Fe85  1  0.75231499  0.75049533  0.25154297  1
  Fe  Fe86  1  0.50084528  0.74761201  0.49802553  1
  Fe  Fe87  1  0.75433077  0.49929082  0.24339607  1
  Fe  Fe88  1  0.62566549  0.62416083  0.87571495  1
  Fe  Fe89  1  0.12606647  0.62429548  0.87695862  1
  Co  Co90  1  0.37824369  0.87555535  0.37433077  1
  Co  Co91  1  0.37570408  0.37464321  0.12468540  1
  Co  Co92  1  0.49828713  0.74519329  0.75074651  1
  Co  Co93  1  -0.00547928  0.50059324  0.25200210  1
  Co  Co94  1  0.00203576  0.49826130  -0.00033814  1
  Co  Co95  1  0.24659331  0.49969827  0.24549654  1
  Co  Co96  1  0.12472952  0.62700655  0.62391042  1
  Co  Co97  1  0.49931030  0.00244055  0.75053166  1
  Co  Co98  1  0.00135345  -0.00090185  0.00322527  1
  Co  Co99  1  0.74819180  0.49988672  0.00728431  1
  Co  Co100  1  0.62548184  0.87169510  0.12726301  1
  Co  Co101  1  0.12531286  0.37719856  0.37470391  1
  Co  Co102  1  0.87509219  0.11930140  0.87516047  1
  Co  Co103  1  0.87134974  0.37764932  0.37700671  1
  Co  Co104  1  0.87921430  0.37310781  0.12167369  1
  Co  Co105  1  0.62736350  0.37071663  0.12637093  1
  Co  Co106  1  0.50189554  0.00172896  0.24800770  1
  Co  Co107  1  0.12442768  0.87619525  0.87497836  1
  Co  Co108  1  0.87451080  0.87600725  0.37602226  1
  Co  Co109  1  0.62566816  0.12588999  0.62534740  1
  Co  Co110  1  0.87059834  0.38225741  0.87497309  1
  Co  Co111  1  -0.00375478  0.24993953  0.25605192  1
  Co  Co112  1  0.37524541  0.37529773  0.62716453  1
  Co  Co113  1  -0.00002988  0.75069704  -0.00367504  1
  Co  Co114  1  0.00099389  -0.00048718  0.74597826  1
  Co  Co115  1  0.25054204  0.75083033  0.25111159  1
  Co  Co116  1  0.12241022  0.87579232  0.37456520  1
  Co  Co117  1  0.74704620  0.75151442  0.50047777  1
  Co  Co118  1  0.75240841  0.24951809  0.75164365  1
  Co  Co119  1  0.12629138  0.37726075  0.87178618  1
  Co  Co120  1  0.50370767  0.49996684  0.24735245  1
  Co  Co121  1  0.62352041  0.87336214  0.87163477  1
  Co  Co122  1  0.75155953  -0.00239525  0.74744493  1
  Co  Co123  1  0.75076992  0.50544403  0.74578764  1
  Co  Co124  1  0.37334827  0.62075311  0.37360294  1
  Co  Co125  1  0.62402522  0.62623535  0.62400938  1
  Co  Co126  1  -0.00023789  0.49983880  0.49964678  1
  Co  Co127  1  0.87804225  0.62808657  0.12146339  1
