# generated using pymatgen
data_Fe45Co19
_symmetry_space_group_name_H-M   'P 1'
_cell_length_a   11.41630718
_cell_length_b   11.41611172
_cell_length_c   11.41637118
_cell_angle_alpha   90.00335457
_cell_angle_beta   89.99937853
_cell_angle_gamma   89.99966206
_symmetry_Int_Tables_number   1
_chemical_formula_structural   Fe45Co19
_chemical_formula_sum   'Fe90 Co38'
_cell_volume   1487.89380626
_cell_formula_units_Z   2
loop_
 _symmetry_equiv_pos_site_id
 _symmetry_equiv_pos_as_xyz
  1  'x, y, z'
loop_
 _atom_site_type_symbol
 _atom_site_label
 _atom_site_symmetry_multiplicity
 _atom_site_fract_x
 _atom_site_fract_y
 _atom_site_fract_z
 _atom_site_occupancy
  Fe  Fe0  1  0.49920280  0.00154894  0.50114160  1
  Fe  Fe1  1  0.74949073  -0.00002835  0.25056532  1
  Fe  Fe2  1  0.50088316  -0.00319334  -0.00208582  1
  Fe  Fe3  1  0.12525542  0.87691606  0.62601137  1
  Fe  Fe4  1  -0.00016030  0.00278350  0.49797895  1
  Fe  Fe5  1  0.12475015  0.37627367  0.12352460  1
  Fe  Fe6  1  0.12222311  0.12248298  0.12881709  1
  Fe  Fe7  1  0.37416540  0.12623473  0.62748306  1
  Fe  Fe8  1  -0.00274961  0.50014498  0.49992108  1
  Fe  Fe9  1  0.37151317  0.12438197  0.37505990  1
  Fe  Fe10  1  0.50102720  0.75012608  0.25016658  1
  Fe  Fe11  1  0.37612122  0.12555665  0.12259472  1
  Fe  Fe12  1  0.87294542  0.87523422  0.37677442  1
  Fe  Fe13  1  0.87732683  0.87676824  0.87350039  1
  Fe  Fe14  1  0.24906162  0.24971462  0.25012922  1
  Fe  Fe15  1  0.62539441  0.37510970  0.12384095  1
  Fe  Fe16  1  0.87374231  0.12500006  0.62570662  1
  Fe  Fe17  1  0.87793700  0.12564925  0.12921501  1
  Fe  Fe18  1  0.12645606  0.37469944  0.37715700  1
  Fe  Fe19  1  0.12883662  0.87939044  0.37383700  1
  Fe  Fe20  1  0.50280079  0.25115016  0.75279758  1
  Fe  Fe21  1  0.49991195  0.00001782  0.24868005  1
  Fe  Fe22  1  0.49839877  0.50120446  0.00203203  1
  Fe  Fe23  1  0.00102864  0.49850112  0.25040992  1
  Fe  Fe24  1  0.87713407  0.37789051  0.87320105  1
  Fe  Fe25  1  0.62795150  0.87214238  0.12392671  1
  Fe  Fe26  1  0.75117124  0.25071456  -0.00041285  1
  Fe  Fe27  1  0.62755376  0.62783973  0.12569145  1
  Fe  Fe28  1  0.87483570  0.87538979  0.62454150  1
  Fe  Fe29  1  0.37616469  0.12638081  0.87485723  1
  Fe  Fe30  1  0.12625974  0.62361535  0.62307781  1
  Fe  Fe31  1  0.24948607  0.49534925  0.74709863  1
  Fe  Fe32  1  0.62449316  0.62708518  0.87676036  1
  Fe  Fe33  1  0.12258820  0.62107153  0.87509674  1
  Fe  Fe34  1  0.37411470  0.37407891  0.12440261  1
  Fe  Fe35  1  0.50048523  0.25286712  -0.00192288  1
  Fe  Fe36  1  0.37798059  0.87208182  0.87325136  1
  Fe  Fe37  1  0.62605162  0.62347980  0.62327876  1
  Fe  Fe38  1  0.12752426  0.62294516  0.37416855  1
  Fe  Fe39  1  0.24972948  0.74927363  0.75037266  1
  Fe  Fe40  1  0.37527353  0.37404069  0.37435785  1
  Fe  Fe41  1  0.49920497  0.74880354  0.50069759  1
  Fe  Fe42  1  0.87343965  0.62407382  0.62399414  1
  Fe  Fe43  1  0.87435683  0.87358728  0.12520394  1
  Fe  Fe44  1  0.62293201  0.87595172  0.62655044  1
  Fe  Fe45  1  0.74662152  0.74955654  0.49777645  1
  Fe  Fe46  1  0.87449103  0.62634505  0.12765787  1
  Fe  Fe47  1  0.37662119  0.87526205  0.62876216  1
  Fe  Fe48  1  0.50018896  0.50025277  0.49852735  1
  Fe  Fe49  1  0.87108286  0.37023580  0.37407229  1
  Fe  Fe50  1  0.25091699  0.50311740  0.00326860  1
  Fe  Fe51  1  0.62556083  0.37658758  0.62359498  1
  Fe  Fe52  1  0.00115061  0.75150905  0.25181590  1
  Fe  Fe53  1  0.12640338  0.87421491  0.12523287  1
  Fe  Fe54  1  0.37556793  0.62555633  0.87489967  1
  Fe  Fe55  1  0.37359580  0.62427152  0.37322330  1
  Fe  Fe56  1  0.87459374  0.37453577  0.12721537  1
  Fe  Fe57  1  0.00005027  0.74810131  0.00046110  1
  Fe  Fe58  1  0.25002308  -0.00046142  -0.00138041  1
  Fe  Fe59  1  0.50155109  0.24950173  0.24945436  1
  Fe  Fe60  1  0.74635528  0.00141403  0.75160565  1
  Fe  Fe61  1  0.62739224  0.12665674  0.37550731  1
  Fe  Fe62  1  0.62419590  0.12495376  0.12130857  1
  Fe  Fe63  1  0.25311712  0.49626443  0.50227027  1
  Fe  Fe64  1  0.12230749  0.87724821  0.87388617  1
  Fe  Fe65  1  0.00193464  0.75044665  0.49949196  1
  Fe  Fe66  1  0.74946286  0.74956091  0.75115004  1
  Fe  Fe67  1  0.74676998  0.25044808  0.75077170  1
  Fe  Fe68  1  0.50020947  0.49972820  0.24948865  1
  Fe  Fe69  1  0.87349705  0.62694301  0.37496305  1
  Fe  Fe70  1  0.75082904  -0.00078702  -0.00173430  1
  Fe  Fe71  1  0.24847701  0.24946884  -0.00094321  1
  Fe  Fe72  1  0.37485449  0.87635316  0.37398832  1
  Fe  Fe73  1  0.87768503  0.62245358  0.87310391  1
  Fe  Fe74  1  0.50011025  0.24914194  0.50015077  1
  Fe  Fe75  1  0.74695482  0.49935814  0.25376214  1
  Fe  Fe76  1  0.49988564  0.50006534  0.75026418  1
  Fe  Fe77  1  0.25159799  0.75135826  0.50022674  1
  Fe  Fe78  1  0.12801780  0.12454117  0.62385515  1
  Fe  Fe79  1  0.37215363  0.87057771  0.12325572  1
  Fe  Fe80  1  0.75130500  0.50078855  -0.00120334  1
  Fe  Fe81  1  -0.00010053  0.24651561  0.49678093  1
  Fe  Fe82  1  0.00248023  0.25196850  0.74995699  1
  Fe  Fe83  1  -0.00007553  0.74892687  0.74745859  1
  Fe  Fe84  1  0.74870105  0.00219556  0.49990506  1
  Fe  Fe85  1  0.24825353  0.25520204  0.74993284  1
  Fe  Fe86  1  0.12338662  0.12311008  0.87418895  1
  Fe  Fe87  1  0.87436443  0.37696568  0.62565510  1
  Fe  Fe88  1  -0.00034893  0.25108026  0.00014277  1
  Fe  Fe89  1  0.87663125  0.12397345  0.87442497  1
  Co  Co90  1  0.37271764  0.62421631  0.62494518  1
  Co  Co91  1  0.37420575  0.37607791  0.87674069  1
  Co  Co92  1  0.62460939  0.12576485  0.87918769  1
  Co  Co93  1  0.74807503  0.50082311  0.75129401  1
  Co  Co94  1  0.62497405  0.37143972  0.37624651  1
  Co  Co95  1  0.62317967  0.62647324  0.37488467  1
  Co  Co96  1  -0.00010043  0.00164402  0.74629464  1
  Co  Co97  1  0.12174033  0.37438509  0.62049955  1
  Co  Co98  1  0.24757570  0.74825151  -0.00347274  1
  Co  Co99  1  0.37391964  0.62846058  0.12686416  1
  Co  Co100  1  -0.00028307  -0.00010328  0.00175379  1
  Co  Co101  1  0.25255394  -0.00087271  0.50314007  1
  Co  Co102  1  0.12388251  0.37856843  0.87856403  1
  Co  Co103  1  0.62329817  0.87240995  0.87396255  1
  Co  Co104  1  -0.00212232  -0.00288079  0.25292704  1
  Co  Co105  1  0.75054230  0.25031353  0.50356485  1
  Co  Co106  1  0.50082333  0.74588095  0.74768753  1
  Co  Co107  1  0.50061464  0.74935130  0.00193998  1
  Co  Co108  1  0.25417547  0.00071456  0.24571726  1
  Co  Co109  1  0.12901780  0.12160044  0.37366194  1
  Co  Co110  1  0.25138757  -0.00006156  0.75153413  1
  Co  Co111  1  -0.00221871  0.50047054  0.00412300  1
  Co  Co112  1  0.50189094  0.00293924  0.75194047  1
  Co  Co113  1  0.75282094  0.74935521  -0.00360147  1
  Co  Co114  1  0.74951223  0.75087933  0.25329701  1
  Co  Co115  1  0.37911695  0.37336574  0.62534409  1
  Co  Co116  1  0.00350204  0.25207878  0.25247613  1
  Co  Co117  1  0.74588051  0.24921070  0.24630652  1
  Co  Co118  1  0.87171131  0.12735560  0.37186021  1
  Co  Co119  1  0.62401860  0.12532000  0.62438717  1
  Co  Co120  1  0.25043264  0.49809086  0.24821169  1
  Co  Co121  1  0.12410065  0.62627879  0.12760436  1
  Co  Co122  1  0.62522165  0.37635165  0.87721684  1
  Co  Co123  1  0.25099539  0.25113901  0.50052450  1
  Co  Co124  1  0.75024245  0.49966667  0.49670544  1
  Co  Co125  1  0.00208556  0.49919594  0.74593481  1
  Co  Co126  1  0.62319736  0.87637965  0.37589829  1
  Co  Co127  1  0.24958435  0.74962706  0.25218360  1
