# generated using pymatgen
data_Fe45Co19
_symmetry_space_group_name_H-M   'P 1'
_cell_length_a   11.41581868
_cell_length_b   11.41467687
_cell_length_c   11.41485903
_cell_angle_alpha   89.99576496
_cell_angle_beta   89.99526008
_cell_angle_gamma   90.00456610
_symmetry_Int_Tables_number   1
_chemical_formula_structural   Fe45Co19
_chemical_formula_sum   'Fe90 Co38'
_cell_volume   1487.44608294
_cell_formula_units_Z   2
loop_
 _symmetry_equiv_pos_site_id
 _symmetry_equiv_pos_as_xyz
  1  'x, y, z'
loop_
 _atom_site_type_symbol
 _atom_site_label
 _atom_site_symmetry_multiplicity
 _atom_site_fract_x
 _atom_site_fract_y
 _atom_site_fract_z
 _atom_site_occupancy
  Fe  Fe0  1  0.50328091  0.25052499  0.00312569  1
  Fe  Fe1  1  0.24809414  0.74728395  0.49730825  1
  Fe  Fe2  1  0.75182192  0.00188354  0.25170567  1
  Fe  Fe3  1  0.87678849  0.62580122  0.13070860  1
  Fe  Fe4  1  -0.00067164  0.75060269  0.00255990  1
  Fe  Fe5  1  0.25111046  0.00027888  0.49781130  1
  Fe  Fe6  1  0.74964694  0.25128443  0.49943117  1
  Fe  Fe7  1  0.75070704  0.50278591  0.00033890  1
  Fe  Fe8  1  0.37588125  0.37468467  0.87614058  1
  Fe  Fe9  1  0.62612735  0.37713702  0.87779329  1
  Fe  Fe10  1  0.12219874  0.87514930  0.87379886  1
  Fe  Fe11  1  0.37819266  0.62836750  0.37023369  1
  Fe  Fe12  1  0.24812807  0.00097875  0.75105173  1
  Fe  Fe13  1  0.87978139  0.86861438  0.37523685  1
  Fe  Fe14  1  0.49962605  0.49959746  0.00468234  1
  Fe  Fe15  1  0.49994184  0.75153774  0.00507798  1
  Fe  Fe16  1  0.37599014  0.12422111  0.12707287  1
  Fe  Fe17  1  0.75232358  0.50327956  0.49251281  1
  Fe  Fe18  1  0.37371425  0.37847667  0.62292193  1
  Fe  Fe19  1  0.62454948  0.87191991  0.37595656  1
  Fe  Fe20  1  0.62554639  0.12498286  0.87633970  1
  Fe  Fe21  1  0.75439704  0.00319229  0.00071992  1
  Fe  Fe22  1  0.12039446  0.62440913  0.37107586  1
  Fe  Fe23  1  0.12714143  0.62110277  0.62601668  1
  Fe  Fe24  1  0.49981031  0.50195225  0.49575587  1
  Fe  Fe25  1  0.87725857  0.87713868  0.12720772  1
  Fe  Fe26  1  0.50126366  -0.00023239  0.25143350  1
  Fe  Fe27  1  0.37387349  0.87202102  0.37320606  1
  Fe  Fe28  1  0.12409741  0.62271349  0.12720651  1
  Fe  Fe29  1  0.75132554  0.74763239  0.00291304  1
  Fe  Fe30  1  0.62488591  0.62291602  0.13102111  1
  Fe  Fe31  1  0.62557635  0.12408114  0.62109163  1
  Fe  Fe32  1  0.87539748  0.87286128  0.87381434  1
  Fe  Fe33  1  0.24769430  0.00144089  -0.00129084  1
  Fe  Fe34  1  0.87948319  0.12416858  0.87395802  1
  Fe  Fe35  1  0.50197193  0.25101878  0.74801165  1
  Fe  Fe36  1  0.87376974  0.37956908  0.87303674  1
  Fe  Fe37  1  0.37024754  0.37277726  0.37202009  1
  Fe  Fe38  1  -0.00225211  -0.00195099  0.50023031  1
  Fe  Fe39  1  0.11995996  0.12303577  0.12549123  1
  Fe  Fe40  1  0.74877500  0.74392944  0.75120972  1
  Fe  Fe41  1  0.12505944  0.37680057  0.87620867  1
  Fe  Fe42  1  0.37488333  0.87323377  0.87500157  1
  Fe  Fe43  1  0.50219435  0.50213838  0.75015972  1
  Fe  Fe44  1  -0.00084979  0.25433443  0.49970050  1
  Fe  Fe45  1  0.12707664  0.37944523  0.62196224  1
  Fe  Fe46  1  0.87464542  0.62123391  0.62565801  1
  Fe  Fe47  1  0.87487372  0.12594165  0.62413931  1
  Fe  Fe48  1  0.62725045  0.87166330  0.62282687  1
  Fe  Fe49  1  0.12486466  0.87484629  0.62286051  1
  Fe  Fe50  1  0.12367042  0.62371337  0.87558550  1
  Fe  Fe51  1  0.37330366  0.62436423  0.62530827  1
  Fe  Fe52  1  0.50180446  -0.00057649  0.74897996  1
  Fe  Fe53  1  -0.00303654  0.49745758  0.49516358  1
  Fe  Fe54  1  0.37274613  0.37356558  0.12851536  1
  Fe  Fe55  1  0.50261936  0.74819382  0.74843724  1
  Fe  Fe56  1  0.75021458  0.25153897  0.74998034  1
  Fe  Fe57  1  0.62679309  0.87272923  0.87707121  1
  Fe  Fe58  1  0.12357945  0.12443031  0.62476651  1
  Fe  Fe59  1  0.86851436  0.37190910  0.12936418  1
  Fe  Fe60  1  0.25172649  0.50011998  0.00056357  1
  Fe  Fe61  1  0.49846360  -0.00205764  0.49962161  1
  Fe  Fe62  1  0.62812565  0.37714365  0.37107660  1
  Fe  Fe63  1  0.49870215  -0.00090134  -0.00034106  1
  Fe  Fe64  1  -0.00252504  0.49938441  0.00282298  1
  Fe  Fe65  1  0.24795290  0.24798951  0.00160390  1
  Fe  Fe66  1  0.12435601  0.87796222  0.12777338  1
  Fe  Fe67  1  0.37429875  0.12678655  0.87472692  1
  Fe  Fe68  1  0.62812290  0.37967266  0.62383088  1
  Fe  Fe69  1  0.24879224  0.00101893  0.25285810  1
  Fe  Fe70  1  0.75106559  0.74558863  0.49679582  1
  Fe  Fe71  1  0.12737288  0.37713383  0.12779797  1
  Fe  Fe72  1  0.00121830  0.25275614  0.25173221  1
  Fe  Fe73  1  0.37493818  0.62653476  0.87571051  1
  Fe  Fe74  1  0.25014345  0.24960573  0.49923280  1
  Fe  Fe75  1  0.50547692  0.24896543  0.24983646  1
  Fe  Fe76  1  0.37627183  0.12575461  0.62345480  1
  Fe  Fe77  1  -0.00035276  0.74861847  0.74739104  1
  Fe  Fe78  1  0.87478915  0.12834756  0.37465701  1
  Fe  Fe79  1  0.75094074  -0.00063582  0.74853415  1
  Fe  Fe80  1  0.00006827  0.25373172  0.74753943  1
  Fe  Fe81  1  0.24912446  0.25193590  0.74925326  1
  Fe  Fe82  1  0.50126509  0.25113480  0.49765818  1
  Fe  Fe83  1  0.12382786  0.12547080  0.37616281  1
  Fe  Fe84  1  0.37373129  0.62707185  0.12888864  1
  Fe  Fe85  1  0.62698692  0.87803238  0.12481724  1
  Fe  Fe86  1  0.75304261  -0.00227473  0.49904429  1
  Fe  Fe87  1  0.37339765  0.87260536  0.62517369  1
  Fe  Fe88  1  0.24881382  0.75165152  0.00199427  1
  Fe  Fe89  1  -0.00167316  0.25126049  0.00065184  1
  Co  Co90  1  0.25046993  0.50227711  0.25127958  1
  Co  Co91  1  0.49884213  0.74901968  0.50068515  1
  Co  Co92  1  0.37603404  0.12710452  0.37411244  1
  Co  Co93  1  0.75337457  0.50367592  0.25393395  1
  Co  Co94  1  0.00169986  0.49896832  0.74934876  1
  Co  Co95  1  -0.00120751  -0.00227872  0.74653212  1
  Co  Co96  1  0.88070336  0.62973009  0.37009625  1
  Co  Co97  1  0.24650851  0.75001466  0.25055915  1
  Co  Co98  1  0.12841167  0.37559371  0.37440885  1
  Co  Co99  1  0.74654482  0.50382149  0.75303429  1
  Co  Co100  1  0.62150920  0.62707747  0.37022501  1
  Co  Co101  1  0.49844500  0.49643757  0.25004166  1
  Co  Co102  1  0.00131071  0.74674230  0.50423130  1
  Co  Co103  1  -0.00247262  0.49475725  0.25089461  1
  Co  Co104  1  0.62503895  0.12193319  0.37924277  1
  Co  Co105  1  0.12145171  0.12659351  0.87395287  1
  Co  Co106  1  0.75199500  0.24772133  -0.00190107  1
  Co  Co107  1  0.87174206  0.37933983  0.62479780  1
  Co  Co108  1  0.87871015  0.62464641  0.87589939  1
  Co  Co109  1  0.37178661  0.87729783  0.12634216  1
  Co  Co110  1  0.63071982  0.37703388  0.12582316  1
  Co  Co111  1  0.25115747  0.49857095  0.75340543  1
  Co  Co112  1  0.62551028  0.12251021  0.12246015  1
  Co  Co113  1  0.24679402  0.24659920  0.24878069  1
  Co  Co114  1  0.25125518  0.50345755  0.49423725  1
  Co  Co115  1  0.87157817  0.37050884  0.37191684  1
  Co  Co116  1  0.12290491  0.87415203  0.37709708  1
  Co  Co117  1  -0.00095697  -0.00129953  -0.00056265  1
  Co  Co118  1  -0.00235593  -0.00040639  0.25485805  1
  Co  Co119  1  0.87795948  0.12643995  0.12734201  1
  Co  Co120  1  0.50148042  0.75454288  0.24641556  1
  Co  Co121  1  0.62223893  0.62584346  0.88081588  1
  Co  Co122  1  0.87279680  0.87070685  0.62472888  1
  Co  Co123  1  0.00297519  0.75209414  0.24654345  1
  Co  Co124  1  0.74950783  0.75196025  0.24991545  1
  Co  Co125  1  0.62624122  0.62311979  0.61979568  1
  Co  Co126  1  0.24826862  0.74944601  0.74993251  1
  Co  Co127  1  0.74450380  0.24370545  0.25028685  1
