# generated using pymatgen
data_Fe45Co19
_symmetry_space_group_name_H-M   'P 1'
_cell_length_a   11.41497052
_cell_length_b   11.41472613
_cell_length_c   11.41669093
_cell_angle_alpha   89.99691158
_cell_angle_beta   90.00388015
_cell_angle_gamma   89.98993158
_symmetry_Int_Tables_number   1
_chemical_formula_structural   Fe45Co19
_chemical_formula_sum   'Fe90 Co38'
_cell_volume   1487.58066927
_cell_formula_units_Z   2
loop_
 _symmetry_equiv_pos_site_id
 _symmetry_equiv_pos_as_xyz
  1  'x, y, z'
loop_
 _atom_site_type_symbol
 _atom_site_label
 _atom_site_symmetry_multiplicity
 _atom_site_fract_x
 _atom_site_fract_y
 _atom_site_fract_z
 _atom_site_occupancy
  Fe  Fe0  1  0.37211472  0.12564776  0.87525283  1
  Fe  Fe1  1  0.12637112  0.87775299  0.37314926  1
  Fe  Fe2  1  0.50156719  0.24624783  0.25086094  1
  Fe  Fe3  1  0.24988482  0.75253398  0.00428659  1
  Fe  Fe4  1  0.74926286  0.00327551  0.74885040  1
  Fe  Fe5  1  0.75229687  0.24572994  0.24794552  1
  Fe  Fe6  1  0.37519222  0.87655622  0.62555440  1
  Fe  Fe7  1  0.87497707  0.37392448  0.37299912  1
  Fe  Fe8  1  0.25031003  0.49868444  0.74981652  1
  Fe  Fe9  1  0.00324203  0.49914192  0.25144177  1
  Fe  Fe10  1  0.00183547  0.25264572  0.75267881  1
  Fe  Fe11  1  0.24505611  -0.00100920  0.00142705  1
  Fe  Fe12  1  0.50074703  0.49953326  0.24977522  1
  Fe  Fe13  1  0.00226555  0.74974590  0.25072482  1
  Fe  Fe14  1  0.49719068  0.75172160  0.00328354  1
  Fe  Fe15  1  0.87476495  0.37546245  0.62715083  1
  Fe  Fe16  1  0.49945781  0.00122354  -0.00055666  1
  Fe  Fe17  1  0.75129929  0.50069911  0.24908239  1
  Fe  Fe18  1  0.74864006  0.00413676  0.25101011  1
  Fe  Fe19  1  0.62650019  0.62534149  0.37553509  1
  Fe  Fe20  1  0.49951602  0.49754518  0.75117326  1
  Fe  Fe21  1  0.87782459  0.12472637  0.37692300  1
  Fe  Fe22  1  0.75265468  0.24777616  0.00217817  1
  Fe  Fe23  1  0.87931006  0.37151953  0.12641129  1
  Fe  Fe24  1  0.37611565  0.62417161  0.87806755  1
  Fe  Fe25  1  0.87734237  0.12649636  0.87559338  1
  Fe  Fe26  1  0.00069760  0.50000104  0.75154181  1
  Fe  Fe27  1  0.87599743  0.87387562  0.87040721  1
  Fe  Fe28  1  0.75278620  0.24926381  0.50370737  1
  Fe  Fe29  1  0.49817746  0.25255358  0.49959865  1
  Fe  Fe30  1  0.49952187  -0.00069999  0.49566899  1
  Fe  Fe31  1  0.75246824  0.75173852  0.49988588  1
  Fe  Fe32  1  0.62539716  0.37252711  0.12617364  1
  Fe  Fe33  1  0.12422770  0.87395130  0.62701006  1
  Fe  Fe34  1  0.00025283  0.49649425  0.49816461  1
  Fe  Fe35  1  0.49971037  0.74962349  0.74930571  1
  Fe  Fe36  1  0.87910044  0.88017768  0.12864096  1
  Fe  Fe37  1  0.74793503  0.24714541  0.74703184  1
  Fe  Fe38  1  0.62543174  0.87744713  0.62352631  1
  Fe  Fe39  1  0.00166341  0.75484384  -0.00065438  1
  Fe  Fe40  1  0.62793191  0.37314456  0.37548782  1
  Fe  Fe41  1  0.87561336  0.62611033  0.87712548  1
  Fe  Fe42  1  0.62522351  0.87560676  0.87526549  1
  Fe  Fe43  1  0.37418082  0.62280413  0.62269537  1
  Fe  Fe44  1  0.49882893  0.49629741  0.49790283  1
  Fe  Fe45  1  0.87907372  0.62482923  0.12455142  1
  Fe  Fe46  1  0.87624976  0.62564512  0.62326469  1
  Fe  Fe47  1  0.37218440  0.62364582  0.37407072  1
  Fe  Fe48  1  0.74985863  0.50146568  0.74996607  1
  Fe  Fe49  1  0.37094458  0.87918333  0.36942222  1
  Fe  Fe50  1  0.75208172  0.00153782  0.00001983  1
  Fe  Fe51  1  0.37172828  0.87635484  0.87527661  1
  Fe  Fe52  1  0.62462789  0.62268939  0.62167419  1
  Fe  Fe53  1  0.62417878  0.62470552  0.87874596  1
  Fe  Fe54  1  0.24649624  0.24983763  0.00070395  1
  Fe  Fe55  1  0.12558054  0.62413106  0.62122469  1
  Fe  Fe56  1  0.12482604  0.62561563  0.87767075  1
  Fe  Fe57  1  0.49927502  0.25002823  0.00008942  1
  Fe  Fe58  1  0.12293075  0.12673648  0.38259084  1
  Fe  Fe59  1  0.24925790  0.25076479  0.74784811  1
  Fe  Fe60  1  0.24550229  0.24712350  0.25035075  1
  Fe  Fe61  1  0.74880345  0.74777218  0.74910526  1
  Fe  Fe62  1  0.75108877  0.49831958  0.00205596  1
  Fe  Fe63  1  0.62304065  0.87896256  0.12736553  1
  Fe  Fe64  1  0.49847895  0.75118457  0.24949860  1
  Fe  Fe65  1  0.24524377  0.50038981  0.25002170  1
  Fe  Fe66  1  0.24817303  0.74782702  0.24579880  1
  Fe  Fe67  1  0.24874722  0.00198187  0.74729704  1
  Fe  Fe68  1  0.87620275  0.62575456  0.37474552  1
  Fe  Fe69  1  0.37172822  0.12471728  0.37562479  1
  Fe  Fe70  1  0.75154280  0.75210974  0.00238616  1
  Fe  Fe71  1  0.25070702  0.74782176  0.74981163  1
  Fe  Fe72  1  0.00010819  0.49435269  -0.00156290  1
  Fe  Fe73  1  0.50103385  0.24973322  0.74922820  1
  Fe  Fe74  1  0.25075586  0.75271972  0.49971761  1
  Fe  Fe75  1  0.62626090  0.37312541  0.87583735  1
  Fe  Fe76  1  0.00209707  0.00041284  0.75032866  1
  Fe  Fe77  1  0.62387017  0.62449865  0.12413708  1
  Fe  Fe78  1  0.37596335  0.12231602  0.12623894  1
  Fe  Fe79  1  -0.00117626  0.75423421  0.49945152  1
  Fe  Fe80  1  0.37530159  0.12568122  0.62246144  1
  Fe  Fe81  1  0.49797926  0.75163375  0.49798921  1
  Fe  Fe82  1  0.11590827  0.12507010  0.12176395  1
  Fe  Fe83  1  0.24972193  0.49323511  0.49738040  1
  Fe  Fe84  1  0.75064207  0.74953132  0.24890228  1
  Fe  Fe85  1  0.12210156  0.12856957  0.62043852  1
  Fe  Fe86  1  0.75445301  -0.00027450  0.50127774  1
  Fe  Fe87  1  0.37334895  0.37466013  0.12754167  1
  Fe  Fe88  1  0.50021072  0.00194321  0.75177677  1
  Fe  Fe89  1  0.25035772  0.49815855  0.00211847  1
  Co  Co90  1  0.87420080  0.87572867  0.37065458  1
  Co  Co91  1  0.37406089  0.88115543  0.12902917  1
  Co  Co92  1  0.24402589  0.00698231  0.24826719  1
  Co  Co93  1  0.00161860  0.74581313  0.74957902  1
  Co  Co94  1  -0.00200947  -0.00424397  0.50114815  1
  Co  Co95  1  0.00118139  -0.00344178  -0.00547125  1
  Co  Co96  1  0.87973987  0.12561226  0.62661856  1
  Co  Co97  1  0.62751555  0.87439954  0.37505428  1
  Co  Co98  1  0.12527399  0.12573586  0.87408620  1
  Co  Co99  1  0.12429601  0.37433383  0.62502670  1
  Co  Co100  1  0.12873199  0.37555145  0.87429055  1
  Co  Co101  1  0.62765062  0.12771882  0.37909389  1
  Co  Co102  1  0.00037556  0.25374755  -0.00479293  1
  Co  Co103  1  0.62239703  0.12305724  0.62163209  1
  Co  Co104  1  0.25244924  0.25386818  0.49991831  1
  Co  Co105  1  0.87493727  0.87434763  0.63031222  1
  Co  Co106  1  0.88115995  0.12308560  0.12246018  1
  Co  Co107  1  0.12557908  0.62631926  0.37812831  1
  Co  Co108  1  0.62486147  0.12416599  0.12332078  1
  Co  Co109  1  0.37358484  0.37382562  0.36931685  1
  Co  Co110  1  0.12745612  0.87327485  0.87123474  1
  Co  Co111  1  0.00210053  0.00434489  0.25505552  1
  Co  Co112  1  0.37495405  0.62205544  0.12573873  1
  Co  Co113  1  0.62542197  0.12618444  0.87665333  1
  Co  Co114  1  0.75285405  0.49918632  0.49841257  1
  Co  Co115  1  0.87132997  0.37319688  0.87289053  1
  Co  Co116  1  0.37308497  0.37231353  0.87553337  1
  Co  Co117  1  0.00076083  0.24717022  0.25196459  1
  Co  Co118  1  0.12212811  0.62391366  0.12200264  1
  Co  Co119  1  0.24898244  -0.00026382  0.50240600  1
  Co  Co120  1  0.49996440  0.49649839  0.00068959  1
  Co  Co121  1  0.12426905  0.37105939  0.37472136  1
  Co  Co122  1  0.37494534  0.37480161  0.62720060  1
  Co  Co123  1  0.12381495  0.37328093  0.12636013  1
  Co  Co124  1  0.62606745  0.37546065  0.62367175  1
  Co  Co125  1  -0.00361343  0.25376713  0.50028895  1
  Co  Co126  1  0.50314040  0.00372703  0.25377177  1
  Co  Co127  1  0.12233140  0.87739271  0.12842202  1
