# generated using pymatgen
data_Fe45Co19
_symmetry_space_group_name_H-M   'P 1'
_cell_length_a   11.41498458
_cell_length_b   11.41592462
_cell_length_c   11.41535427
_cell_angle_alpha   90.00456688
_cell_angle_beta   89.99339357
_cell_angle_gamma   90.00412037
_symmetry_Int_Tables_number   1
_chemical_formula_structural   Fe45Co19
_chemical_formula_sum   'Fe90 Co38'
_cell_volume   1487.56451716
_cell_formula_units_Z   2
loop_
 _symmetry_equiv_pos_site_id
 _symmetry_equiv_pos_as_xyz
  1  'x, y, z'
loop_
 _atom_site_type_symbol
 _atom_site_label
 _atom_site_symmetry_multiplicity
 _atom_site_fract_x
 _atom_site_fract_y
 _atom_site_fract_z
 _atom_site_occupancy
  Fe  Fe0  1  0.62420572  0.37368712  0.12468667  1
  Fe  Fe1  1  0.12582981  0.87499695  0.62336204  1
  Fe  Fe2  1  0.62387148  0.87441658  0.87645856  1
  Fe  Fe3  1  0.37199889  0.12428201  0.87388456  1
  Fe  Fe4  1  0.74912338  0.00216845  0.25195064  1
  Fe  Fe5  1  0.62560090  0.37541013  0.37352399  1
  Fe  Fe6  1  -0.00345238  0.50061283  0.74641332  1
  Fe  Fe7  1  0.49960719  0.25119602  0.24955037  1
  Fe  Fe8  1  0.74745891  0.25006136  0.75030607  1
  Fe  Fe9  1  0.25115217  0.25265558  0.50332039  1
  Fe  Fe10  1  0.12620307  0.62137750  0.37635146  1
  Fe  Fe11  1  0.87350594  0.37321139  0.37481705  1
  Fe  Fe12  1  0.74808840  0.75020549  0.49785354  1
  Fe  Fe13  1  0.12690304  0.12619365  0.12334402  1
  Fe  Fe14  1  0.87531603  0.87639997  0.37512022  1
  Fe  Fe15  1  0.62447671  0.12588719  0.12586295  1
  Fe  Fe16  1  0.74704466  0.24690007  0.49833869  1
  Fe  Fe17  1  0.12643523  0.37743271  0.87402196  1
  Fe  Fe18  1  0.12834612  0.12487780  0.87527921  1
  Fe  Fe19  1  0.24999093  0.25052880  0.24926998  1
  Fe  Fe20  1  0.37379593  0.12401692  0.12259131  1
  Fe  Fe21  1  0.62309025  0.37457601  0.62501656  1
  Fe  Fe22  1  0.87470071  0.12363728  0.87442635  1
  Fe  Fe23  1  0.87487693  0.12625653  0.12619198  1
  Fe  Fe24  1  0.00042445  0.24914242  0.50057342  1
  Fe  Fe25  1  0.37252660  0.37403458  0.87198079  1
  Fe  Fe26  1  0.62543792  0.12287966  0.87455709  1
  Fe  Fe27  1  0.62492197  0.62486446  0.87743779  1
  Fe  Fe28  1  -0.00073641  0.74726902  0.00009026  1
  Fe  Fe29  1  0.75078101  0.25008975  0.00057286  1
  Fe  Fe30  1  0.49843429  -0.00104708  0.24962967  1
  Fe  Fe31  1  0.25160869  0.49820778  0.50281089  1
  Fe  Fe32  1  0.50052452  0.00005200  0.75105245  1
  Fe  Fe33  1  0.50008763  0.24961782  0.50037280  1
  Fe  Fe34  1  0.12716234  0.87413061  0.87635479  1
  Fe  Fe35  1  0.87376950  0.12448725  0.62659075  1
  Fe  Fe36  1  0.62583856  0.37751381  0.87655667  1
  Fe  Fe37  1  -0.00482426  0.49912830  0.50264840  1
  Fe  Fe38  1  0.87573609  0.87454134  0.62265676  1
  Fe  Fe39  1  0.00096295  -0.00009344  0.00115242  1
  Fe  Fe40  1  0.37543332  0.12559703  0.62777065  1
  Fe  Fe41  1  0.49930480  0.00050157  0.49866299  1
  Fe  Fe42  1  0.25091673  0.74919739  0.75104173  1
  Fe  Fe43  1  0.50059898  0.50156619  0.49643123  1
  Fe  Fe44  1  0.74716056  0.00340199  0.49834660  1
  Fe  Fe45  1  0.37606880  0.62490889  0.62336161  1
  Fe  Fe46  1  -0.00013994  0.25101843  -0.00146650  1
  Fe  Fe47  1  0.37486080  0.62484384  0.87545381  1
  Fe  Fe48  1  0.49874843  0.25004630  -0.00227929  1
  Fe  Fe49  1  0.75492810  0.50312914  0.00376191  1
  Fe  Fe50  1  0.62307456  0.87483160  0.12576000  1
  Fe  Fe51  1  0.25234374  0.49935442  0.00328675  1
  Fe  Fe52  1  0.75243620  0.50153406  0.74675144  1
  Fe  Fe53  1  0.12679240  0.62580417  0.12446616  1
  Fe  Fe54  1  0.87582218  0.37725730  0.87579046  1
  Fe  Fe55  1  0.87383962  0.62549792  0.37528217  1
  Fe  Fe56  1  0.87410778  0.87342832  0.87728552  1
  Fe  Fe57  1  0.12770156  0.12337285  0.62420193  1
  Fe  Fe58  1  0.12892700  0.87857782  0.37527351  1
  Fe  Fe59  1  0.74767885  0.75078062  0.25096395  1
  Fe  Fe60  1  0.49990864  0.49984419  0.74988342  1
  Fe  Fe61  1  0.12529808  0.62263603  0.87548392  1
  Fe  Fe62  1  0.25002621  0.74915582  0.49768570  1
  Fe  Fe63  1  0.00245435  0.25091828  0.74936313  1
  Fe  Fe64  1  -0.00017293  0.24880716  0.25165499  1
  Fe  Fe65  1  0.50049032  0.74760384  0.49400124  1
  Fe  Fe66  1  0.62368623  0.87616099  0.62377621  1
  Fe  Fe67  1  0.50086286  0.74871356  0.75021482  1
  Fe  Fe68  1  0.12521407  0.37467805  0.37625908  1
  Fe  Fe69  1  0.74916388  -0.00108053  0.00061061  1
  Fe  Fe70  1  0.75069986  0.49890126  0.24740052  1
  Fe  Fe71  1  0.37321441  0.12516583  0.37491850  1
  Fe  Fe72  1  -0.00109322  0.74923966  0.74944870  1
  Fe  Fe73  1  0.12961772  0.87361826  0.12491211  1
  Fe  Fe74  1  0.12414316  0.37365017  0.12356561  1
  Fe  Fe75  1  0.00337811  0.75023465  0.25387534  1
  Fe  Fe76  1  0.87550279  0.87315390  0.12571395  1
  Fe  Fe77  1  0.62564055  0.62430155  0.62278815  1
  Fe  Fe78  1  0.62221012  0.62691953  0.12594631  1
  Fe  Fe79  1  0.74957163  0.74996435  0.75070307  1
  Fe  Fe80  1  0.00143003  0.00168516  0.49737306  1
  Fe  Fe81  1  0.00293921  0.00219280  0.25110746  1
  Fe  Fe82  1  -0.00104814  0.49957256  0.24757690  1
  Fe  Fe83  1  0.49637379  0.49888143  0.00323046  1
  Fe  Fe84  1  0.37434626  0.37822766  0.37230178  1
  Fe  Fe85  1  0.37509547  0.87367476  0.62606093  1
  Fe  Fe86  1  0.49504737  0.75293232  0.00266660  1
  Fe  Fe87  1  0.12402925  0.62499662  0.62376614  1
  Fe  Fe88  1  0.00034691  -0.00140826  0.75054312  1
  Fe  Fe89  1  0.37271439  0.87477303  0.37158874  1
  Co  Co90  1  0.37554243  0.87624953  0.87319675  1
  Co  Co91  1  0.75181799  0.49836927  0.50204702  1
  Co  Co92  1  0.74958815  0.25014813  0.25093836  1
  Co  Co93  1  0.87527866  0.62503318  0.87521467  1
  Co  Co94  1  0.87693057  0.63019845  0.12825717  1
  Co  Co95  1  0.24857841  0.00362860  0.24925980  1
  Co  Co96  1  0.74908544  0.74902768  0.00059098  1
  Co  Co97  1  0.00267874  0.75071236  0.49596002  1
  Co  Co98  1  0.62111426  0.12490339  0.37242236  1
  Co  Co99  1  0.62368789  0.87764106  0.37505262  1
  Co  Co100  1  0.24889119  -0.00213627  0.74959205  1
  Co  Co101  1  0.87492026  0.63029697  0.62219793  1
  Co  Co102  1  0.12851941  0.12720140  0.37732488  1
  Co  Co103  1  0.37146549  0.87470497  0.12889319  1
  Co  Co104  1  0.25092437  0.25175603  0.00031511  1
  Co  Co105  1  0.87620943  0.37180180  0.12499993  1
  Co  Co106  1  0.62845493  0.62232280  0.37409369  1
  Co  Co107  1  0.24868935  0.25169695  0.74636843  1
  Co  Co108  1  0.25337647  0.74921367  -0.00158266  1
  Co  Co109  1  0.37243954  0.62164868  0.37158938  1
  Co  Co110  1  0.25256304  -0.00032468  0.50062600  1
  Co  Co111  1  0.87370706  0.36961144  0.62519646  1
  Co  Co112  1  0.62320062  0.12391768  0.62701656  1
  Co  Co113  1  0.37629546  0.37397923  0.12736859  1
  Co  Co114  1  0.49952849  -0.00042419  0.00022103  1
  Co  Co115  1  0.50066510  0.74963384  0.25303377  1
  Co  Co116  1  0.50183011  0.50105253  0.24986052  1
  Co  Co117  1  0.24832561  0.74780195  0.25260762  1
  Co  Co118  1  0.37459742  0.62689279  0.12993894  1
  Co  Co119  1  0.75029599  -0.00288553  0.75060690  1
  Co  Co120  1  0.50122117  0.25059752  0.75301940  1
  Co  Co121  1  0.25032104  -0.00232618  -0.00050315  1
  Co  Co122  1  0.87568265  0.12523607  0.37410064  1
  Co  Co123  1  -0.00146884  0.50109436  0.00313054  1
  Co  Co124  1  0.25173351  0.50131171  0.74720343  1
  Co  Co125  1  0.24771658  0.49790040  0.24678484  1
  Co  Co126  1  0.37921612  0.37627961  0.62645542  1
  Co  Co127  1  0.12385416  0.37766174  0.62505402  1
