# generated using pymatgen
data_Fe45Co19
_symmetry_space_group_name_H-M   'P 1'
_cell_length_a   11.41412405
_cell_length_b   11.41506956
_cell_length_c   11.41344269
_cell_angle_alpha   90.00943575
_cell_angle_beta   89.99148803
_cell_angle_gamma   89.99947897
_symmetry_Int_Tables_number   1
_chemical_formula_structural   Fe45Co19
_chemical_formula_sum   'Fe90 Co38'
_cell_volume   1487.09187994
_cell_formula_units_Z   2
loop_
 _symmetry_equiv_pos_site_id
 _symmetry_equiv_pos_as_xyz
  1  'x, y, z'
loop_
 _atom_site_type_symbol
 _atom_site_label
 _atom_site_symmetry_multiplicity
 _atom_site_fract_x
 _atom_site_fract_y
 _atom_site_fract_z
 _atom_site_occupancy
  Fe  Fe0  1  0.37638932  0.37569104  0.87578120  1
  Fe  Fe1  1  0.25230929  0.50146687  0.49985563  1
  Fe  Fe2  1  0.74896278  0.74913925  -0.00641108  1
  Fe  Fe3  1  0.37520503  0.87326114  0.62621708  1
  Fe  Fe4  1  -0.00027564  0.50068711  0.00130454  1
  Fe  Fe5  1  0.12637010  0.12389593  0.62571110  1
  Fe  Fe6  1  -0.00276489  -0.00189043  0.25051107  1
  Fe  Fe7  1  0.12452456  0.37367413  0.62410473  1
  Fe  Fe8  1  0.62762923  0.12355937  0.12731815  1
  Fe  Fe9  1  0.12341668  0.62527410  0.87591928  1
  Fe  Fe10  1  -0.00189102  0.24751371  0.00156232  1
  Fe  Fe11  1  0.75208355  0.00136825  -0.00103077  1
  Fe  Fe12  1  0.87557560  0.62685211  0.37645472  1
  Fe  Fe13  1  0.87286049  0.62509695  0.12484952  1
  Fe  Fe14  1  0.75149859  0.50152349  0.74773574  1
  Fe  Fe15  1  0.50082332  0.74760172  0.50215320  1
  Fe  Fe16  1  0.25081219  0.49964356  0.00050927  1
  Fe  Fe17  1  0.74922554  0.50067694  -0.00039556  1
  Fe  Fe18  1  0.12558658  0.12533714  0.87365831  1
  Fe  Fe19  1  0.87318897  0.12413389  0.87358332  1
  Fe  Fe20  1  0.37672904  0.37728232  0.62350515  1
  Fe  Fe21  1  0.87493597  0.37549493  0.12567395  1
  Fe  Fe22  1  0.37592497  0.62485219  0.12527248  1
  Fe  Fe23  1  0.25140819  0.24995186  0.75055137  1
  Fe  Fe24  1  0.49948697  -0.00150698  0.25172793  1
  Fe  Fe25  1  0.87304999  0.12729851  0.62530782  1
  Fe  Fe26  1  0.25221034  0.74885168  -0.00114803  1
  Fe  Fe27  1  0.12318546  0.37459240  0.37659257  1
  Fe  Fe28  1  0.12185785  0.87464795  0.87483323  1
  Fe  Fe29  1  0.87518113  0.87700811  0.12121551  1
  Fe  Fe30  1  0.50306757  -0.00307757  0.74829205  1
  Fe  Fe31  1  0.62675882  0.62376113  0.62701910  1
  Fe  Fe32  1  -0.00137216  0.24973529  0.24933063  1
  Fe  Fe33  1  0.25361030  -0.00335456  0.25214618  1
  Fe  Fe34  1  0.12640662  0.12541316  0.37487861  1
  Fe  Fe35  1  0.50267264  0.50041663  0.25368537  1
  Fe  Fe36  1  0.49932774  0.75303687  0.24795592  1
  Fe  Fe37  1  -0.00154633  0.00029704  0.49947782  1
  Fe  Fe38  1  0.74731386  0.49582992  0.25689283  1
  Fe  Fe39  1  0.50066311  0.50357966  -0.00207674  1
  Fe  Fe40  1  0.50053074  0.00295712  0.49952833  1
  Fe  Fe41  1  0.24952189  0.50098766  0.75082989  1
  Fe  Fe42  1  0.25278320  0.25346766  0.24765908  1
  Fe  Fe43  1  0.37426018  0.12276283  0.62862565  1
  Fe  Fe44  1  0.37760217  0.62568439  0.63124498  1
  Fe  Fe45  1  0.50197593  0.25218174  0.74788932  1
  Fe  Fe46  1  0.25134337  0.24886860  0.50058417  1
  Fe  Fe47  1  -0.00345979  0.74844360  0.75090950  1
  Fe  Fe48  1  0.12519498  0.62563174  0.12591744  1
  Fe  Fe49  1  0.74979859  0.74729741  0.49958451  1
  Fe  Fe50  1  -0.00176220  0.00043929  0.74965065  1
  Fe  Fe51  1  -0.00464118  0.49838987  0.50223287  1
  Fe  Fe52  1  0.62419596  0.12309705  0.87258539  1
  Fe  Fe53  1  0.25269424  0.25053889  0.00118362  1
  Fe  Fe54  1  0.62583576  0.37691909  0.61818275  1
  Fe  Fe55  1  0.75021763  0.24922993  0.00212466  1
  Fe  Fe56  1  -0.00159227  0.75263942  0.25000671  1
  Fe  Fe57  1  0.75122728  0.75385029  0.25063714  1
  Fe  Fe58  1  0.74821325  0.00298353  0.49990488  1
  Fe  Fe59  1  0.74779549  0.24963261  0.74806493  1
  Fe  Fe60  1  0.12238190  0.62520903  0.62384302  1
  Fe  Fe61  1  0.62639543  0.62651364  0.12650053  1
  Fe  Fe62  1  0.12428844  0.37408664  0.87627445  1
  Fe  Fe63  1  0.38053830  0.37231600  0.37709846  1
  Fe  Fe64  1  0.12349471  0.62524621  0.37616934  1
  Fe  Fe65  1  0.62481115  0.87546069  0.12179445  1
  Fe  Fe66  1  0.62529203  0.13001153  0.37284149  1
  Fe  Fe67  1  0.62311340  0.37577989  0.12553422  1
  Fe  Fe68  1  0.50050382  0.24846276  0.00089317  1
  Fe  Fe69  1  0.12473705  0.87456510  0.37663780  1
  Fe  Fe70  1  0.25132455  0.00018524  -0.00427465  1
  Fe  Fe71  1  -0.00209744  0.49933262  0.74819893  1
  Fe  Fe72  1  0.37733713  0.87107463  0.87327127  1
  Fe  Fe73  1  0.25108941  0.75285291  0.25018590  1
  Fe  Fe74  1  0.25154822  -0.00073370  0.49980958  1
  Fe  Fe75  1  -0.00021664  0.25062640  0.74875137  1
  Fe  Fe76  1  0.87090114  0.87267209  0.62520104  1
  Fe  Fe77  1  0.62608233  0.37613351  0.87546719  1
  Fe  Fe78  1  0.12569278  0.12364862  0.12567572  1
  Fe  Fe79  1  0.87205947  0.12630539  0.37208008  1
  Fe  Fe80  1  0.37533173  0.62782782  0.37372859  1
  Fe  Fe81  1  0.87415123  0.37547548  0.87396798  1
  Fe  Fe82  1  0.12459019  0.87568222  0.12261639  1
  Fe  Fe83  1  0.37474438  0.12298033  0.12610098  1
  Fe  Fe84  1  0.62466984  0.87388480  0.37746514  1
  Fe  Fe85  1  0.25032681  0.49700635  0.24959641  1
  Fe  Fe86  1  0.49845650  0.00014830  -0.00076363  1
  Fe  Fe87  1  0.12478423  0.87538584  0.62615154  1
  Fe  Fe88  1  -0.00036832  0.49999602  0.25003478  1
  Fe  Fe89  1  0.24889064  0.74929564  0.50156839  1
  Co  Co90  1  0.62828543  0.87468038  0.62145147  1
  Co  Co91  1  0.61917908  0.36923247  0.38033871  1
  Co  Co92  1  0.37954641  0.37803437  0.12348404  1
  Co  Co93  1  0.12262632  0.37439834  0.12416124  1
  Co  Co94  1  0.62566960  0.12414527  0.62726301  1
  Co  Co95  1  0.49986938  0.24875624  0.24570830  1
  Co  Co96  1  0.37554792  0.87585730  0.12226562  1
  Co  Co97  1  0.37676542  0.87317408  0.37894889  1
  Co  Co98  1  0.62558779  0.87976477  0.87695009  1
  Co  Co99  1  0.37440057  0.12663161  0.37334067  1
  Co  Co100  1  0.24662100  0.74904724  0.74966679  1
  Co  Co101  1  0.62421873  0.62167004  0.87241865  1
  Co  Co102  1  0.74993002  0.50070200  0.49503245  1
  Co  Co103  1  0.87235689  0.37299702  0.62492993  1
  Co  Co104  1  0.49856503  0.24465672  0.50516902  1
  Co  Co105  1  0.75017803  0.24981864  0.49935632  1
  Co  Co106  1  0.74831194  -0.00378122  0.25088943  1
  Co  Co107  1  0.50776861  0.75307427  0.75089146  1
  Co  Co108  1  0.37875561  0.12620312  0.87180274  1
  Co  Co109  1  0.62561407  0.63034605  0.37319706  1
  Co  Co110  1  0.74836255  0.25536677  0.24886605  1
  Co  Co111  1  0.50203795  0.74727254  -0.00100812  1
  Co  Co112  1  0.74781335  0.75082521  0.75484307  1
  Co  Co113  1  -0.00158900  0.74863119  0.00064768  1
  Co  Co114  1  0.87452698  0.62229639  0.87497173  1
  Co  Co115  1  0.87647709  0.37245196  0.37669607  1
  Co  Co116  1  0.00007725  0.00326831  -0.00017702  1
  Co  Co117  1  0.50162150  0.49652296  0.74968767  1
  Co  Co118  1  0.87599717  0.87699464  0.87525451  1
  Co  Co119  1  0.87244796  0.12353576  0.12816370  1
  Co  Co120  1  0.87192085  0.87511471  0.37914785  1
  Co  Co121  1  0.50046699  0.50530942  0.49758127  1
  Co  Co122  1  0.87296483  0.62802552  0.62390078  1
  Co  Co123  1  0.74982536  -0.00132436  0.74955699  1
  Co  Co124  1  0.00031088  0.75237753  0.49997669  1
  Co  Co125  1  0.37743541  0.62600948  0.87086349  1
  Co  Co126  1  -0.00000228  0.24771106  0.50056334  1
  Co  Co127  1  0.25051532  -0.00184937  0.75290650  1
