# generated using pymatgen
data_Fe45Co19
_symmetry_space_group_name_H-M   'P 1'
_cell_length_a   11.41543033
_cell_length_b   11.41579883
_cell_length_c   11.41486148
_cell_angle_alpha   90.00234194
_cell_angle_beta   89.99657061
_cell_angle_gamma   89.99786264
_symmetry_Int_Tables_number   1
_chemical_formula_structural   Fe45Co19
_chemical_formula_sum   'Fe90 Co38'
_cell_volume   1487.54200811
_cell_formula_units_Z   2
loop_
 _symmetry_equiv_pos_site_id
 _symmetry_equiv_pos_as_xyz
  1  'x, y, z'
loop_
 _atom_site_type_symbol
 _atom_site_label
 _atom_site_symmetry_multiplicity
 _atom_site_fract_x
 _atom_site_fract_y
 _atom_site_fract_z
 _atom_site_occupancy
  Fe  Fe0  1  0.87582552  0.62553432  0.37646289  1
  Fe  Fe1  1  0.74773125  0.00187571  0.74867411  1
  Fe  Fe2  1  0.37876076  0.62628786  0.12454400  1
  Fe  Fe3  1  0.87591684  0.12404680  0.62390259  1
  Fe  Fe4  1  0.74806795  0.00000630  0.25118097  1
  Fe  Fe5  1  0.49987558  0.75493680  -0.00217602  1
  Fe  Fe6  1  0.87386002  0.12348888  0.12413459  1
  Fe  Fe7  1  0.50091811  -0.00455783  0.49861111  1
  Fe  Fe8  1  0.12786446  0.87641474  0.87406834  1
  Fe  Fe9  1  0.49863704  0.75561358  0.25352670  1
  Fe  Fe10  1  0.25235994  0.74812388  0.25607385  1
  Fe  Fe11  1  0.37626262  0.12228737  0.87441285  1
  Fe  Fe12  1  0.37760125  0.12243509  0.12830665  1
  Fe  Fe13  1  0.49900299  0.50215130  0.50187838  1
  Fe  Fe14  1  0.62541644  0.37683558  0.62764540  1
  Fe  Fe15  1  0.87378720  0.87319458  0.87654210  1
  Fe  Fe16  1  0.75067329  0.74829631  0.75212459  1
  Fe  Fe17  1  0.50062943  -0.00356872  0.00230132  1
  Fe  Fe18  1  0.50118175  0.49919386  0.24970937  1
  Fe  Fe19  1  0.25362827  0.24979459  0.00267645  1
  Fe  Fe20  1  0.87511725  0.12270798  0.87557735  1
  Fe  Fe21  1  0.74640416  0.24822613  -0.00061181  1
  Fe  Fe22  1  0.62643316  0.37695103  0.37521725  1
  Fe  Fe23  1  0.25407426  0.50478333  0.75249271  1
  Fe  Fe24  1  0.49971514  0.25064575  -0.00062957  1
  Fe  Fe25  1  0.25103562  -0.00011440  0.74639077  1
  Fe  Fe26  1  0.12908925  0.37334863  0.87409695  1
  Fe  Fe27  1  0.86971902  0.87154883  0.37834902  1
  Fe  Fe28  1  0.74768980  0.50384980  0.50099340  1
  Fe  Fe29  1  0.12842448  0.87530471  0.12930486  1
  Fe  Fe30  1  0.37487515  0.12568012  0.62033132  1
  Fe  Fe31  1  0.25265719  0.50210388  0.24863268  1
  Fe  Fe32  1  0.00120926  0.75062939  0.75108803  1
  Fe  Fe33  1  0.87354216  0.87427861  0.62238189  1
  Fe  Fe34  1  0.74893847  0.50491894  0.24588314  1
  Fe  Fe35  1  0.12421599  0.62660877  0.87777877  1
  Fe  Fe36  1  -0.00064224  0.24974933  0.24953470  1
  Fe  Fe37  1  0.87681057  0.62718037  0.11634903  1
  Fe  Fe38  1  0.12457224  0.62698344  0.12487678  1
  Fe  Fe39  1  -0.00130492  0.75117378  0.25039216  1
  Fe  Fe40  1  0.49453795  0.75086101  0.75096044  1
  Fe  Fe41  1  0.49902940  0.25082705  0.75052097  1
  Fe  Fe42  1  0.87263979  0.37718115  0.37517115  1
  Fe  Fe43  1  0.00084156  0.49970521  0.50115774  1
  Fe  Fe44  1  0.00061293  0.25038524  0.75043349  1
  Fe  Fe45  1  0.12563185  0.12345544  0.12772280  1
  Fe  Fe46  1  0.12657434  0.37428298  0.12676818  1
  Fe  Fe47  1  -0.00211035  0.50046982  0.24624097  1
  Fe  Fe48  1  0.12655959  0.37553928  0.37224509  1
  Fe  Fe49  1  0.87706768  0.62496518  0.62582479  1
  Fe  Fe50  1  0.62665770  0.87278513  0.62352433  1
  Fe  Fe51  1  0.74789632  0.24662913  0.74967835  1
  Fe  Fe52  1  0.62540972  0.37579632  0.12422535  1
  Fe  Fe53  1  0.25167148  -0.00137402  0.00127808  1
  Fe  Fe54  1  0.00161579  -0.00255603  0.00130847  1
  Fe  Fe55  1  0.50004198  0.25331517  0.50067665  1
  Fe  Fe56  1  0.00040213  0.50115170  0.75296849  1
  Fe  Fe57  1  0.12871316  0.37617944  0.62693857  1
  Fe  Fe58  1  0.87261896  0.87278741  0.12248617  1
  Fe  Fe59  1  0.62377157  0.62809781  0.37345436  1
  Fe  Fe60  1  0.74589218  -0.00157217  -0.00105078  1
  Fe  Fe61  1  0.25231385  0.75247421  -0.00121915  1
  Fe  Fe62  1  0.74925754  0.50318008  0.75473314  1
  Fe  Fe63  1  0.49830651  -0.00224128  0.74627081  1
  Fe  Fe64  1  0.12691657  0.12427416  0.87527651  1
  Fe  Fe65  1  0.25232933  0.50370880  0.49684434  1
  Fe  Fe66  1  0.87301854  0.37772363  0.87759375  1
  Fe  Fe67  1  0.36904422  0.86855794  0.61928097  1
  Fe  Fe68  1  0.25203198  0.49954980  0.00150246  1
  Fe  Fe69  1  0.00135723  -0.00220677  0.49841866  1
  Fe  Fe70  1  0.12978064  0.87003542  0.61984325  1
  Fe  Fe71  1  0.87520647  0.12516408  0.37631218  1
  Fe  Fe72  1  0.74820260  0.24908416  0.24966599  1
  Fe  Fe73  1  -0.00078387  -0.00151749  0.25206893  1
  Fe  Fe74  1  0.50205394  0.49823035  -0.00413915  1
  Fe  Fe75  1  0.62104671  0.62491503  0.62873420  1
  Fe  Fe76  1  0.62626324  0.87344120  0.12859943  1
  Fe  Fe77  1  0.87290231  0.37633085  0.62564736  1
  Fe  Fe78  1  0.12601615  0.12603213  0.62189725  1
  Fe  Fe79  1  0.12777096  0.62746709  0.62332566  1
  Fe  Fe80  1  0.25347572  0.00130514  0.25667251  1
  Fe  Fe81  1  0.74785824  0.24817043  0.50103225  1
  Fe  Fe82  1  0.00071954  0.25016318  0.00044394  1
  Fe  Fe83  1  0.87231151  0.37713636  0.12204493  1
  Fe  Fe84  1  0.00156060  0.25313254  0.49989349  1
  Fe  Fe85  1  0.37458464  0.37474550  0.37277093  1
  Fe  Fe86  1  0.37312313  0.37693027  0.62721666  1
  Fe  Fe87  1  0.50027709  0.24996400  0.24888272  1
  Fe  Fe88  1  0.00202541  -0.00200162  0.74859320  1
  Fe  Fe89  1  0.62184402  0.12257758  0.37532619  1
  Co  Co90  1  0.74828740  0.74506215  0.50333879  1
  Co  Co91  1  0.61988836  0.62778616  0.87178820  1
  Co  Co92  1  0.37721618  0.62588764  0.87854925  1
  Co  Co93  1  0.61712046  0.62812894  0.12623443  1
  Co  Co94  1  -0.00026021  0.74904282  0.49980921  1
  Co  Co95  1  0.25079445  0.25194427  0.49930149  1
  Co  Co96  1  0.12547404  0.87373870  0.37600778  1
  Co  Co97  1  0.62976273  0.87221451  0.37644194  1
  Co  Co98  1  0.74371303  0.50594953  -0.00005349  1
  Co  Co99  1  0.25091226  0.74881775  0.75444330  1
  Co  Co100  1  0.50118243  0.74859545  0.49968403  1
  Co  Co101  1  0.00488052  0.75571822  0.00013039  1
  Co  Co102  1  0.62350733  0.87635625  0.87098813  1
  Co  Co103  1  0.12028198  0.62196662  0.37269204  1
  Co  Co104  1  0.49995142  -0.00432238  0.25167130  1
  Co  Co105  1  0.37804394  0.37718935  0.12627067  1
  Co  Co106  1  0.75175644  0.74601691  0.24694321  1
  Co  Co107  1  0.37457731  0.87567229  0.37932952  1
  Co  Co108  1  0.00388913  0.49704723  -0.00049881  1
  Co  Co109  1  0.62584507  0.37376739  0.87285408  1
  Co  Co110  1  0.62112687  0.12237496  0.87451546  1
  Co  Co111  1  0.37239262  0.87421398  0.12791913  1
  Co  Co112  1  0.74365714  0.74803569  -0.00144476  1
  Co  Co113  1  0.25029771  0.74312268  0.49090442  1
  Co  Co114  1  0.37894331  0.12636507  0.37662070  1
  Co  Co115  1  0.37263998  0.37461336  0.87355980  1
  Co  Co116  1  0.37332136  0.62808421  0.62439881  1
  Co  Co117  1  0.87784558  0.62706081  0.88025966  1
  Co  Co118  1  0.25219410  0.24592459  0.74879497  1
  Co  Co119  1  0.37422897  0.87847106  0.87362516  1
  Co  Co120  1  0.12510528  0.12705491  0.37502703  1
  Co  Co121  1  0.38104428  0.62316705  0.37210348  1
  Co  Co122  1  0.74765677  0.00236874  0.50096503  1
  Co  Co123  1  0.62386683  0.12348796  0.12542718  1
  Co  Co124  1  0.62178469  0.12497875  0.62439669  1
  Co  Co125  1  0.24986587  0.00182079  0.49764790  1
  Co  Co126  1  0.49655656  0.49943401  0.75153972  1
  Co  Co127  1  0.25318056  0.24865309  0.24871745  1
