# generated using pymatgen
data_Fe45Co19
_symmetry_space_group_name_H-M   'P 1'
_cell_length_a   11.41565376
_cell_length_b   11.41304497
_cell_length_c   11.41612119
_cell_angle_alpha   90.00668810
_cell_angle_beta   89.99726329
_cell_angle_gamma   90.00276882
_symmetry_Int_Tables_number   1
_chemical_formula_structural   Fe45Co19
_chemical_formula_sum   'Fe90 Co38'
_cell_volume   1487.37638907
_cell_formula_units_Z   2
loop_
 _symmetry_equiv_pos_site_id
 _symmetry_equiv_pos_as_xyz
  1  'x, y, z'
loop_
 _atom_site_type_symbol
 _atom_site_label
 _atom_site_symmetry_multiplicity
 _atom_site_fract_x
 _atom_site_fract_y
 _atom_site_fract_z
 _atom_site_occupancy
  Fe  Fe0  1  0.12275848  0.37698694  0.12407647  1
  Fe  Fe1  1  0.12307154  0.62677185  0.62858181  1
  Fe  Fe2  1  0.12378114  0.37437840  0.62489962  1
  Fe  Fe3  1  0.87507380  0.62046022  0.86772594  1
  Fe  Fe4  1  0.49984683  0.74643988  0.49912818  1
  Fe  Fe5  1  0.62241054  0.37468062  0.12572243  1
  Fe  Fe6  1  0.12343096  0.12560242  0.12610229  1
  Fe  Fe7  1  0.50064141  0.49926701  -0.00292591  1
  Fe  Fe8  1  0.87792203  0.87491496  0.87700573  1
  Fe  Fe9  1  0.74956788  0.75092660  0.24816329  1
  Fe  Fe10  1  0.62379694  0.87422142  0.12273402  1
  Fe  Fe11  1  0.87481406  0.12708372  0.37634977  1
  Fe  Fe12  1  0.87539823  0.12648656  0.87303053  1
  Fe  Fe13  1  0.61875763  0.37708899  0.62054602  1
  Fe  Fe14  1  0.37353038  0.12573855  0.37509002  1
  Fe  Fe15  1  0.24587809  -0.00141849  0.00057409  1
  Fe  Fe16  1  -0.00123773  0.25166514  -0.00151200  1
  Fe  Fe17  1  0.50044323  0.49780819  0.25347677  1
  Fe  Fe18  1  0.12629351  0.63059555  0.87192212  1
  Fe  Fe19  1  0.36990883  0.62176359  0.37373179  1
  Fe  Fe20  1  0.37363037  0.62436157  0.87424953  1
  Fe  Fe21  1  0.24714166  0.00113160  0.50191487  1
  Fe  Fe22  1  0.00014090  0.50029863  -0.00485165  1
  Fe  Fe23  1  0.12565801  0.87166764  0.37742581  1
  Fe  Fe24  1  0.00230880  -0.00004433  0.50129207  1
  Fe  Fe25  1  0.37448362  0.87489150  0.37582184  1
  Fe  Fe26  1  0.49888989  0.74863784  0.74898697  1
  Fe  Fe27  1  0.75214815  0.75033834  0.74743680  1
  Fe  Fe28  1  0.25024382  0.49905423  0.00021868  1
  Fe  Fe29  1  0.74817340  0.00183923  0.49954518  1
  Fe  Fe30  1  0.37129199  0.12963058  0.87584164  1
  Fe  Fe31  1  -0.00153422  0.25228726  0.25083410  1
  Fe  Fe32  1  0.87410186  0.62192922  0.12612428  1
  Fe  Fe33  1  0.87581392  0.12471606  0.12438096  1
  Fe  Fe34  1  0.25033954  0.49629986  0.75023323  1
  Fe  Fe35  1  0.12710493  0.12960210  0.87318298  1
  Fe  Fe36  1  0.37416231  0.12431262  0.62660284  1
  Fe  Fe37  1  0.25227763  0.25410599  0.24727395  1
  Fe  Fe38  1  0.50007074  0.74814597  -0.00044971  1
  Fe  Fe39  1  0.25152993  0.74611134  0.50215869  1
  Fe  Fe40  1  0.62558815  0.37472318  0.87434601  1
  Fe  Fe41  1  0.87381110  0.87385202  0.37671222  1
  Fe  Fe42  1  0.37185963  0.87318868  0.87525552  1
  Fe  Fe43  1  0.62414460  0.87408927  0.62496122  1
  Fe  Fe44  1  0.24845693  0.74992691  0.24738355  1
  Fe  Fe45  1  0.00415270  -0.00445448  0.75002937  1
  Fe  Fe46  1  0.50152966  0.00131668  0.49896941  1
  Fe  Fe47  1  0.50171620  0.00061415  0.25229851  1
  Fe  Fe48  1  0.75026767  0.49928611  -0.00053173  1
  Fe  Fe49  1  0.75047850  0.49666744  0.25112716  1
  Fe  Fe50  1  0.87812066  0.87631109  0.12177373  1
  Fe  Fe51  1  -0.00190001  0.25048284  0.50017614  1
  Fe  Fe52  1  0.50165247  0.74803559  0.25158148  1
  Fe  Fe53  1  0.49988749  -0.00104221  0.75235431  1
  Fe  Fe54  1  0.62363987  0.12746002  0.12565034  1
  Fe  Fe55  1  -0.00005293  0.74828020  0.24964687  1
  Fe  Fe56  1  0.37344922  0.37783126  0.37955460  1
  Fe  Fe57  1  0.74912186  0.00090949  -0.00224773  1
  Fe  Fe58  1  0.49568126  0.25393283  0.74972883  1
  Fe  Fe59  1  0.75223940  0.25370609  0.25079669  1
  Fe  Fe60  1  0.62638983  0.62525823  0.87183371  1
  Fe  Fe61  1  0.37740917  0.12787142  0.12323142  1
  Fe  Fe62  1  0.00077974  -0.00078635  0.25119704  1
  Fe  Fe63  1  0.12634695  0.12730585  0.37517774  1
  Fe  Fe64  1  0.62525711  0.13077107  0.37595264  1
  Fe  Fe65  1  0.37767015  0.61896240  0.62569821  1
  Fe  Fe66  1  0.74935516  -0.00165567  0.75113281  1
  Fe  Fe67  1  0.62577436  0.12774351  0.87259498  1
  Fe  Fe68  1  0.75161605  0.25171802  0.00015837  1
  Fe  Fe69  1  0.62397859  0.12673109  0.62596286  1
  Fe  Fe70  1  0.24820756  -0.00155179  0.24834867  1
  Fe  Fe71  1  0.12623933  0.37642722  0.37578945  1
  Fe  Fe72  1  0.37608841  0.62192322  0.12623234  1
  Fe  Fe73  1  0.50179532  0.00091045  -0.00370300  1
  Fe  Fe74  1  0.37658096  0.87518465  0.12476290  1
  Fe  Fe75  1  0.75183620  0.25516668  0.74567790  1
  Fe  Fe76  1  0.75134404  0.74752067  -0.00049515  1
  Fe  Fe77  1  0.62886323  0.62482342  0.37496919  1
  Fe  Fe78  1  -0.00391109  0.74744228  0.50332768  1
  Fe  Fe79  1  -0.00007873  0.25454180  0.75122354  1
  Fe  Fe80  1  0.24553862  -0.00213536  0.74917744  1
  Fe  Fe81  1  0.37473911  0.87600419  0.62408281  1
  Fe  Fe82  1  0.12546507  0.62482676  0.12496073  1
  Fe  Fe83  1  -0.00004132  0.50117781  0.25328418  1
  Fe  Fe84  1  0.74910684  -0.00106199  0.25126923  1
  Fe  Fe85  1  0.25114310  0.25056573  0.50411434  1
  Fe  Fe86  1  0.75164864  0.49938829  0.50246655  1
  Fe  Fe87  1  0.00067443  0.50318823  0.49846622  1
  Fe  Fe88  1  0.75213568  0.74726679  0.50390889  1
  Fe  Fe89  1  0.87682849  0.12468407  0.62616110  1
  Co  Co90  1  0.49666354  0.24789535  0.50046326  1
  Co  Co91  1  0.50295198  0.25017564  -0.00250396  1
  Co  Co92  1  0.00593204  0.49643674  0.75383517  1
  Co  Co93  1  0.49713348  0.25283818  0.25287845  1
  Co  Co94  1  0.87982131  0.37939128  0.62590130  1
  Co  Co95  1  0.24739841  0.25091449  0.00529913  1
  Co  Co96  1  0.37180776  0.37198289  0.87822134  1
  Co  Co97  1  0.74553773  0.49607856  0.74568396  1
  Co  Co98  1  0.87709376  0.61843703  0.63098153  1
  Co  Co99  1  0.49928800  0.49821402  0.75417207  1
  Co  Co100  1  0.75269130  0.25210157  0.50454129  1
  Co  Co101  1  0.37773185  0.38071737  0.62153507  1
  Co  Co102  1  0.24489484  0.50191535  0.50303555  1
  Co  Co103  1  0.87257841  0.62460694  0.37385142  1
  Co  Co104  1  0.12910065  0.37197391  0.87673562  1
  Co  Co105  1  0.00320891  0.00307888  -0.00311948  1
  Co  Co106  1  0.12600190  0.86812086  0.87664346  1
  Co  Co107  1  0.25196227  0.74854653  0.00364236  1
  Co  Co108  1  0.62589889  0.37296282  0.37881745  1
  Co  Co109  1  -0.00258024  0.74386532  -0.00089479  1
  Co  Co110  1  0.62397299  0.62385584  0.62644308  1
  Co  Co111  1  0.87723593  0.37723486  0.12381051  1
  Co  Co112  1  0.62480307  0.62285217  0.12545973  1
  Co  Co113  1  0.12635779  0.62671193  0.37445678  1
  Co  Co114  1  0.37828678  0.37532653  0.12130551  1
  Co  Co115  1  0.87307139  0.87929463  0.62375504  1
  Co  Co116  1  0.62511755  0.87137778  0.87436775  1
  Co  Co117  1  0.12296537  0.12813216  0.62647008  1
  Co  Co118  1  0.12698486  0.87050510  0.62294978  1
  Co  Co119  1  0.25392652  0.74871954  0.74680699  1
  Co  Co120  1  0.62533953  0.87246273  0.37708853  1
  Co  Co121  1  0.12114707  0.87303919  0.12223507  1
  Co  Co122  1  0.25241840  0.25438079  0.74456923  1
  Co  Co123  1  -0.00363399  0.75382550  0.74738510  1
  Co  Co124  1  0.24956229  0.49754110  0.24827350  1
  Co  Co125  1  0.87296559  0.37747702  0.87358328  1
  Co  Co126  1  0.50149353  0.50464125  0.49525867  1
  Co  Co127  1  0.87617807  0.37625893  0.37688387  1
