# generated using pymatgen
data_Fe45Co19
_symmetry_space_group_name_H-M   'P 1'
_cell_length_a   11.41616091
_cell_length_b   11.41481699
_cell_length_c   11.41581688
_cell_angle_alpha   90.00287242
_cell_angle_beta   89.99352022
_cell_angle_gamma   89.99913118
_symmetry_Int_Tables_number   1
_chemical_formula_structural   Fe45Co19
_chemical_formula_sum   'Fe90 Co38'
_cell_volume   1487.63375759
_cell_formula_units_Z   2
loop_
 _symmetry_equiv_pos_site_id
 _symmetry_equiv_pos_as_xyz
  1  'x, y, z'
loop_
 _atom_site_type_symbol
 _atom_site_label
 _atom_site_symmetry_multiplicity
 _atom_site_fract_x
 _atom_site_fract_y
 _atom_site_fract_z
 _atom_site_occupancy
  Fe  Fe0  1  0.37385393  0.37383831  0.87519994  1
  Fe  Fe1  1  0.24995900  0.49801662  0.74747334  1
  Fe  Fe2  1  0.12613394  0.12308199  0.37552556  1
  Fe  Fe3  1  0.50049081  0.50033316  0.24902048  1
  Fe  Fe4  1  -0.00290310  0.00108303  0.49959106  1
  Fe  Fe5  1  0.12363321  0.87681274  0.87568309  1
  Fe  Fe6  1  0.75297342  -0.00121103  0.00068006  1
  Fe  Fe7  1  0.62504435  0.62271211  0.87634945  1
  Fe  Fe8  1  0.37524935  0.12608510  0.37447614  1
  Fe  Fe9  1  0.75075361  0.00413310  0.24699250  1
  Fe  Fe10  1  0.49809383  0.49763965  0.50303448  1
  Fe  Fe11  1  0.37457442  0.62939161  0.87165383  1
  Fe  Fe12  1  0.12631812  0.12435606  0.12377838  1
  Fe  Fe13  1  -0.00386116  -0.00121406  0.00343194  1
  Fe  Fe14  1  -0.00145145  0.75195580  0.00134525  1
  Fe  Fe15  1  0.50441251  0.24921076  0.50147466  1
  Fe  Fe16  1  0.00467654  0.24983012  -0.00466863  1
  Fe  Fe17  1  0.25123813  0.75285329  0.00017537  1
  Fe  Fe18  1  0.75128967  0.49822662  0.75348950  1
  Fe  Fe19  1  0.62669985  0.62129142  0.37548704  1
  Fe  Fe20  1  0.37431280  0.62632689  0.37467288  1
  Fe  Fe21  1  0.87748173  0.37274287  0.63062217  1
  Fe  Fe22  1  0.74491185  0.24760522  0.75252197  1
  Fe  Fe23  1  0.74920852  0.75363669  0.49869968  1
  Fe  Fe24  1  0.87514181  0.12597102  0.87624917  1
  Fe  Fe25  1  0.37775500  0.87308405  0.36973953  1
  Fe  Fe26  1  -0.00342395  0.49942289  -0.00122113  1
  Fe  Fe27  1  0.12654113  0.62306531  0.87685781  1
  Fe  Fe28  1  0.87467395  0.37287433  0.37321154  1
  Fe  Fe29  1  0.87420453  0.87454419  0.62693102  1
  Fe  Fe30  1  0.25234718  -0.00146156  0.75055107  1
  Fe  Fe31  1  0.24999593  0.75124052  0.49947585  1
  Fe  Fe32  1  0.62253556  0.88158058  0.37344531  1
  Fe  Fe33  1  0.62265146  0.87967592  0.87279397  1
  Fe  Fe34  1  0.50120128  0.24982776  -0.00114313  1
  Fe  Fe35  1  0.12359215  0.87690225  0.37388247  1
  Fe  Fe36  1  0.87348891  0.62565787  0.37291924  1
  Fe  Fe37  1  0.74955439  0.75302227  -0.00092749  1
  Fe  Fe38  1  0.12955134  0.37494291  0.12041157  1
  Fe  Fe39  1  0.75257900  0.49662554  0.49989050  1
  Fe  Fe40  1  -0.00371037  0.50013578  0.50247031  1
  Fe  Fe41  1  0.50597813  0.24784830  0.75018877  1
  Fe  Fe42  1  0.62780884  0.62293439  0.62411998  1
  Fe  Fe43  1  0.24840334  0.25245628  0.50097770  1
  Fe  Fe44  1  0.50394060  0.24741827  0.25045926  1
  Fe  Fe45  1  0.37744391  0.87078982  0.63014231  1
  Fe  Fe46  1  0.37398719  0.12751890  0.12539329  1
  Fe  Fe47  1  0.12563497  0.37678039  0.37762971  1
  Fe  Fe48  1  0.00184396  0.75085420  0.24799352  1
  Fe  Fe49  1  0.87496879  0.12623634  0.37305829  1
  Fe  Fe50  1  0.37502897  0.12618116  0.87432483  1
  Fe  Fe51  1  0.00342979  0.24974729  0.24904157  1
  Fe  Fe52  1  0.00100180  0.74741200  0.74893582  1
  Fe  Fe53  1  0.49931140  0.49956172  0.74899874  1
  Fe  Fe54  1  0.25403048  -0.00205729  0.50130795  1
  Fe  Fe55  1  0.62461816  0.88307242  0.62649035  1
  Fe  Fe56  1  0.74667572  0.24997917  0.50045880  1
  Fe  Fe57  1  0.12643601  0.62487503  0.12391927  1
  Fe  Fe58  1  0.12367734  0.87616847  0.62472421  1
  Fe  Fe59  1  0.37575196  0.37385659  0.37532132  1
  Fe  Fe60  1  0.74767936  0.75213365  0.75072995  1
  Fe  Fe61  1  0.62518721  0.37711947  0.12302147  1
  Fe  Fe62  1  0.87390595  0.62706330  0.87491671  1
  Fe  Fe63  1  0.87129297  0.62708980  0.12632665  1
  Fe  Fe64  1  -0.00298545  0.00172233  0.75009410  1
  Fe  Fe65  1  0.00037830  0.24858922  0.50131584  1
  Fe  Fe66  1  0.37496873  0.12819648  0.62598366  1
  Fe  Fe67  1  0.12568579  0.62293666  0.37636170  1
  Fe  Fe68  1  0.25052892  -0.00090978  0.24834868  1
  Fe  Fe69  1  -0.00114962  0.49783597  0.24758871  1
  Fe  Fe70  1  0.87360220  0.37184132  0.12288902  1
  Fe  Fe71  1  0.49680118  0.50155943  0.00029515  1
  Fe  Fe72  1  0.87649335  0.87637038  0.37025139  1
  Fe  Fe73  1  0.49601910  -0.00109039  0.00062458  1
  Fe  Fe74  1  0.87300762  0.12613180  0.62605150  1
  Fe  Fe75  1  0.25029278  0.49927629  0.24941356  1
  Fe  Fe76  1  0.12575470  0.62310818  0.62238762  1
  Fe  Fe77  1  0.50022990  0.75082169  -0.00102069  1
  Fe  Fe78  1  0.74680983  0.25160931  -0.00370783  1
  Fe  Fe79  1  0.37456547  0.63000346  0.12775121  1
  Fe  Fe80  1  0.37468210  0.62863020  0.62610150  1
  Fe  Fe81  1  0.25431676  -0.00274061  0.00020172  1
  Fe  Fe82  1  0.50319066  0.75164794  0.50049880  1
  Fe  Fe83  1  0.24372792  0.25105229  0.75293214  1
  Fe  Fe84  1  -0.00238272  0.74954515  0.50097312  1
  Fe  Fe85  1  0.62827355  0.62388370  0.12487201  1
  Fe  Fe86  1  0.62339924  0.87633740  0.12716586  1
  Fe  Fe87  1  0.12548398  0.12353290  0.62469080  1
  Fe  Fe88  1  0.74544890  0.24892404  0.25012448  1
  Fe  Fe89  1  0.37248549  0.37202473  0.12415422  1
  Co  Co90  1  0.12474645  0.87655545  0.12369478  1
  Co  Co91  1  0.74664111  0.75098416  0.25238099  1
  Co  Co92  1  0.87049703  0.62607238  0.62562553  1
  Co  Co93  1  0.75262249  0.00208668  0.75313744  1
  Co  Co94  1  0.25310554  0.49817510  0.50226556  1
  Co  Co95  1  0.24790665  0.25034315  0.25119480  1
  Co  Co96  1  0.37615172  0.37034393  0.62711566  1
  Co  Co97  1  0.75534263  -0.00122136  0.49797801  1
  Co  Co98  1  0.62591035  0.37687822  0.62608608  1
  Co  Co99  1  0.62205484  0.37844113  0.87657316  1
  Co  Co100  1  0.62460883  0.12065104  0.37938936  1
  Co  Co101  1  0.24448585  0.75042165  0.75025021  1
  Co  Co102  1  0.62378258  0.37707971  0.37519108  1
  Co  Co103  1  0.87714585  0.87333533  0.87350964  1
  Co  Co104  1  0.12076694  0.37529398  0.62493760  1
  Co  Co105  1  0.49317088  -0.00038343  0.50205770  1
  Co  Co106  1  0.12525245  0.11686755  0.87638576  1
  Co  Co107  1  -0.00078351  0.00330379  0.24717269  1
  Co  Co108  1  0.49663438  0.00383563  0.74985095  1
  Co  Co109  1  0.49960979  0.00526295  0.24744073  1
  Co  Co110  1  0.62637078  0.11823369  0.62229327  1
  Co  Co111  1  0.12613063  0.38052339  0.87643491  1
  Co  Co112  1  0.87657580  0.37241418  0.87235896  1
  Co  Co113  1  0.87359473  0.87270492  0.12834205  1
  Co  Co114  1  0.75299782  0.49915005  -0.00147622  1
  Co  Co115  1  0.50693542  0.74886360  0.74932169  1
  Co  Co116  1  0.24604523  0.75020882  0.25023276  1
  Co  Co117  1  0.50536651  0.74734574  0.25141502  1
  Co  Co118  1  0.87500686  0.13030969  0.12282900  1
  Co  Co119  1  -0.00046031  0.50347122  0.75104364  1
  Co  Co120  1  0.62424032  0.11992010  0.87809656  1
  Co  Co121  1  0.25495012  0.50274803  0.00044358  1
  Co  Co122  1  0.37775754  0.87120881  0.12928855  1
  Co  Co123  1  0.24790532  0.24711926  -0.00404761  1
  Co  Co124  1  0.37655348  0.87096373  0.87113011  1
  Co  Co125  1  0.00470331  0.24666852  0.75358388  1
  Co  Co126  1  0.75144676  0.49747039  0.24892604  1
  Co  Co127  1  0.62478810  0.12461933  0.12047505  1
