# generated using pymatgen
data_Fe45Co19
_symmetry_space_group_name_H-M   'P 1'
_cell_length_a   11.41553644
_cell_length_b   11.41598424
_cell_length_c   11.41511723
_cell_angle_alpha   90.01037713
_cell_angle_beta   90.00399227
_cell_angle_gamma   90.00182630
_symmetry_Int_Tables_number   1
_chemical_formula_structural   Fe45Co19
_chemical_formula_sum   'Fe90 Co38'
_cell_volume   1487.61330182
_cell_formula_units_Z   2
loop_
 _symmetry_equiv_pos_site_id
 _symmetry_equiv_pos_as_xyz
  1  'x, y, z'
loop_
 _atom_site_type_symbol
 _atom_site_label
 _atom_site_symmetry_multiplicity
 _atom_site_fract_x
 _atom_site_fract_y
 _atom_site_fract_z
 _atom_site_occupancy
  Fe  Fe0  1  0.62590083  0.87315403  0.87421206  1
  Fe  Fe1  1  0.74966479  0.00374138  0.00072938  1
  Fe  Fe2  1  0.75143459  0.24595423  0.24795326  1
  Fe  Fe3  1  0.50193516  0.49819904  0.25084759  1
  Fe  Fe4  1  0.12612131  0.87267096  0.12462755  1
  Fe  Fe5  1  0.12290791  0.62888473  0.87983535  1
  Fe  Fe6  1  0.37444110  0.87511082  0.87271348  1
  Fe  Fe7  1  0.74859926  0.00385298  0.24972720  1
  Fe  Fe8  1  0.12140315  0.37357563  0.62402123  1
  Fe  Fe9  1  -0.00320109  0.75110633  0.75009150  1
  Fe  Fe10  1  0.49680871  0.75059332  0.00194078  1
  Fe  Fe11  1  0.24613201  0.50225565  0.24645205  1
  Fe  Fe12  1  0.62650220  0.12751594  0.87490236  1
  Fe  Fe13  1  0.87328704  0.37376016  0.87214352  1
  Fe  Fe14  1  0.62852464  0.37528155  0.37568165  1
  Fe  Fe15  1  0.75096598  0.74774608  -0.00230981  1
  Fe  Fe16  1  0.75426920  0.24771343  0.50222971  1
  Fe  Fe17  1  -0.00127255  -0.00100006  0.74862596  1
  Fe  Fe18  1  0.74936455  0.74827677  0.25077110  1
  Fe  Fe19  1  0.24880356  0.25036555  0.00020872  1
  Fe  Fe20  1  0.00024782  0.24980776  -0.00138700  1
  Fe  Fe21  1  0.62777975  0.37492061  0.87263009  1
  Fe  Fe22  1  0.12432090  0.37645194  0.37442552  1
  Fe  Fe23  1  0.50058240  0.00069591  -0.00114356  1
  Fe  Fe24  1  0.37275537  0.37666701  0.12477971  1
  Fe  Fe25  1  -0.00292300  0.49866776  0.50035197  1
  Fe  Fe26  1  0.49899782  0.25346364  0.50126531  1
  Fe  Fe27  1  0.50115171  0.74830401  0.74872837  1
  Fe  Fe28  1  0.50052156  0.25082260  0.74788799  1
  Fe  Fe29  1  0.24813946  0.24991701  0.74773907  1
  Fe  Fe30  1  0.12200338  0.62708608  0.62215121  1
  Fe  Fe31  1  0.87342135  0.62489702  0.37579649  1
  Fe  Fe32  1  0.50045351  0.50039438  0.74772038  1
  Fe  Fe33  1  0.87274766  0.87673680  0.12705026  1
  Fe  Fe34  1  0.49903553  0.74905248  0.24850495  1
  Fe  Fe35  1  0.62922472  0.37793395  0.62524110  1
  Fe  Fe36  1  0.62625192  0.87493350  0.37532303  1
  Fe  Fe37  1  0.50126715  0.74909420  0.50083028  1
  Fe  Fe38  1  0.37504494  0.62253486  0.37671076  1
  Fe  Fe39  1  0.25063802  0.24877268  0.25241987  1
  Fe  Fe40  1  0.12701662  0.87464230  0.62474319  1
  Fe  Fe41  1  0.62918742  0.87457446  0.62621168  1
  Fe  Fe42  1  0.25105131  -0.00061047  0.25371251  1
  Fe  Fe43  1  -0.00133583  0.75300541  0.25141333  1
  Fe  Fe44  1  0.00036278  0.24786284  0.25173137  1
  Fe  Fe45  1  0.37403007  0.37802633  0.37817239  1
  Fe  Fe46  1  0.87347246  0.37598078  0.37277096  1
  Fe  Fe47  1  0.00002934  -0.00132861  0.00081264  1
  Fe  Fe48  1  0.00143999  0.50169209  0.24801686  1
  Fe  Fe49  1  0.49776768  -0.00236652  0.49954373  1
  Fe  Fe50  1  0.87384247  0.87527396  0.87465098  1
  Fe  Fe51  1  0.12285658  0.12034132  0.37883017  1
  Fe  Fe52  1  0.00259931  0.49825331  0.00308090  1
  Fe  Fe53  1  0.50096274  0.25027642  0.00172731  1
  Fe  Fe54  1  0.50088696  0.49835847  -0.00019685  1
  Fe  Fe55  1  0.12440840  0.12312524  0.87421739  1
  Fe  Fe56  1  0.87665004  0.62567354  0.12392177  1
  Fe  Fe57  1  0.87540252  0.37280696  0.12568932  1
  Fe  Fe58  1  0.86722618  0.87532383  0.62419375  1
  Fe  Fe59  1  0.75044329  0.50139540  -0.00189004  1
  Fe  Fe60  1  0.87343573  0.12757207  0.87275150  1
  Fe  Fe61  1  0.62650742  0.12272116  0.62496871  1
  Fe  Fe62  1  0.12447454  0.62722187  0.37613821  1
  Fe  Fe63  1  0.37358955  0.37549315  0.87365379  1
  Fe  Fe64  1  0.24971942  0.00008577  0.74797690  1
  Fe  Fe65  1  0.24965562  0.74916301  0.75128445  1
  Fe  Fe66  1  0.25347828  0.74923712  0.24712666  1
  Fe  Fe67  1  0.24975895  -0.00221223  -0.00096050  1
  Fe  Fe68  1  0.62776477  0.62138697  0.37652025  1
  Fe  Fe69  1  0.63155686  0.62483560  0.62467855  1
  Fe  Fe70  1  0.37378836  0.62252792  0.62298234  1
  Fe  Fe71  1  0.49894382  -0.00008586  0.25246548  1
  Fe  Fe72  1  0.24721724  0.50078296  0.74830728  1
  Fe  Fe73  1  0.12038064  0.12437570  0.62107079  1
  Fe  Fe74  1  0.12538732  0.37540858  0.87479930  1
  Fe  Fe75  1  0.25197996  0.75185566  0.50030410  1
  Fe  Fe76  1  0.37511111  0.12516774  0.62344804  1
  Fe  Fe77  1  0.37676640  0.12464895  0.12682524  1
  Fe  Fe78  1  0.62804960  0.37333972  0.12638039  1
  Fe  Fe79  1  0.62536151  0.87617069  0.12482682  1
  Fe  Fe80  1  0.62139604  0.12804343  0.37440485  1
  Fe  Fe81  1  0.62444178  0.62437125  0.12375049  1
  Fe  Fe82  1  0.37406570  0.62267027  0.87731553  1
  Fe  Fe83  1  -0.00389731  0.75565784  0.49749371  1
  Fe  Fe84  1  0.12330360  0.12573308  0.12584410  1
  Fe  Fe85  1  0.50082039  -0.00013041  0.75050943  1
  Fe  Fe86  1  0.87957573  0.11910887  0.37677499  1
  Fe  Fe87  1  -0.00184767  0.50233438  0.74792039  1
  Fe  Fe88  1  0.37486401  0.12668572  0.87381047  1
  Fe  Fe89  1  0.24914142  0.25084518  0.50009880  1
  Co  Co90  1  0.12252818  0.63093107  0.12213866  1
  Co  Co91  1  0.87902045  0.12457227  0.12528001  1
  Co  Co92  1  0.50289425  0.50029164  0.50103119  1
  Co  Co93  1  0.74848797  0.24839291  0.74615031  1
  Co  Co94  1  0.87659656  0.37181805  0.62956649  1
  Co  Co95  1  0.49844095  0.25484856  0.25005070  1
  Co  Co96  1  0.37613047  0.87188301  0.37578146  1
  Co  Co97  1  -0.00245265  0.75521543  0.00041075  1
  Co  Co98  1  0.75192540  0.74572079  0.75560466  1
  Co  Co99  1  0.24567140  0.49990522  0.50162269  1
  Co  Co100  1  0.74887920  0.00308701  0.49778447  1
  Co  Co101  1  0.74961982  0.24838635  0.00198918  1
  Co  Co102  1  0.12508943  0.87403567  0.87386522  1
  Co  Co103  1  0.75343848  0.50454262  0.75153108  1
  Co  Co104  1  0.12337340  0.37026310  0.12721951  1
  Co  Co105  1  0.24523307  0.49961276  0.00236729  1
  Co  Co106  1  0.37641130  0.87935521  0.12620564  1
  Co  Co107  1  0.75529329  0.49803561  0.50205944  1
  Co  Co108  1  0.37626079  0.87406975  0.62672260  1
  Co  Co109  1  0.00230358  0.24873938  0.75218208  1
  Co  Co110  1  0.75052935  0.50171309  0.24794735  1
  Co  Co111  1  0.12832186  0.87393184  0.37515752  1
  Co  Co112  1  0.74969492  0.00175096  0.75185157  1
  Co  Co113  1  -0.00115632  -0.00781647  0.50138262  1
  Co  Co114  1  0.87845812  0.12514082  0.62458725  1
  Co  Co115  1  0.37664488  0.62041429  0.12368117  1
  Co  Co116  1  0.74961364  0.75073752  0.49573757  1
  Co  Co117  1  0.37692636  0.12641775  0.37669680  1
  Co  Co118  1  0.25412040  0.75178008  0.00079560  1
  Co  Co119  1  0.62175517  0.62496528  0.87586307  1
  Co  Co120  1  0.62115075  0.12528142  0.12678334  1
  Co  Co121  1  0.87366975  0.62868002  0.62204310  1
  Co  Co122  1  0.88076530  0.62374741  0.87789094  1
  Co  Co123  1  -0.00226539  0.25293567  0.49664164  1
  Co  Co124  1  0.25235250  -0.00203709  0.50037803  1
  Co  Co125  1  0.37344937  0.37678806  0.62477112  1
  Co  Co126  1  0.87107693  0.87840837  0.37197091  1
  Co  Co127  1  0.00240163  -0.00378134  0.24900212  1
