# generated using pymatgen
data_Fe45Co19
_symmetry_space_group_name_H-M   'P 1'
_cell_length_a   11.41475896
_cell_length_b   11.41565745
_cell_length_c   11.41537739
_cell_angle_alpha   89.99867400
_cell_angle_beta   89.99679937
_cell_angle_gamma   90.00480438
_symmetry_Int_Tables_number   1
_chemical_formula_structural   Fe45Co19
_chemical_formula_sum   'Fe90 Co38'
_cell_volume   1487.50332326
_cell_formula_units_Z   2
loop_
 _symmetry_equiv_pos_site_id
 _symmetry_equiv_pos_as_xyz
  1  'x, y, z'
loop_
 _atom_site_type_symbol
 _atom_site_label
 _atom_site_symmetry_multiplicity
 _atom_site_fract_x
 _atom_site_fract_y
 _atom_site_fract_z
 _atom_site_occupancy
  Fe  Fe0  1  0.75066418  0.24946162  0.00780310  1
  Fe  Fe1  1  0.49919153  -0.00210208  0.25346158  1
  Fe  Fe2  1  0.74881379  0.74676152  0.00061548  1
  Fe  Fe3  1  0.75217137  0.49624272  0.25327028  1
  Fe  Fe4  1  0.12786230  0.12701196  0.37296361  1
  Fe  Fe5  1  0.37473741  0.37376654  0.87346313  1
  Fe  Fe6  1  0.62472856  0.12301099  0.37281952  1
  Fe  Fe7  1  0.37568539  0.62554403  0.87241215  1
  Fe  Fe8  1  0.87420455  0.62342873  0.12787897  1
  Fe  Fe9  1  0.62976423  0.62342117  0.62279083  1
  Fe  Fe10  1  0.37395788  0.87258149  0.12775810  1
  Fe  Fe11  1  0.87421897  0.12437464  0.87417191  1
  Fe  Fe12  1  0.87519563  0.88371363  0.62387581  1
  Fe  Fe13  1  0.12663960  0.12682807  0.87500673  1
  Fe  Fe14  1  0.62717931  0.62732336  0.37645902  1
  Fe  Fe15  1  0.37732132  0.37248531  0.62252807  1
  Fe  Fe16  1  0.62514032  0.62039370  0.12850575  1
  Fe  Fe17  1  0.37551562  0.87322196  0.87393622  1
  Fe  Fe18  1  0.37517604  0.12692226  0.87367604  1
  Fe  Fe19  1  0.25029339  0.49840235  -0.00088942  1
  Fe  Fe20  1  0.37953808  0.12866755  0.62205076  1
  Fe  Fe21  1  0.25113997  0.00168813  0.00096379  1
  Fe  Fe22  1  0.62443917  0.87743276  0.12568873  1
  Fe  Fe23  1  0.12670501  0.87522234  0.87506172  1
  Fe  Fe24  1  0.50203617  0.50000955  0.49804134  1
  Fe  Fe25  1  0.00072726  0.00118223  -0.00022854  1
  Fe  Fe26  1  -0.00061062  0.49809088  0.25187754  1
  Fe  Fe27  1  0.37609968  0.37602577  0.12617235  1
  Fe  Fe28  1  -0.00258504  0.24797250  0.50265396  1
  Fe  Fe29  1  0.50053676  0.25013526  0.00188124  1
  Fe  Fe30  1  0.87318937  0.87784628  0.87529762  1
  Fe  Fe31  1  0.37646895  0.87460356  0.62301649  1
  Fe  Fe32  1  0.12610831  0.87267646  0.37636423  1
  Fe  Fe33  1  -0.00138665  0.25176733  0.00201518  1
  Fe  Fe34  1  0.25322921  0.00243420  0.49608320  1
  Fe  Fe35  1  0.49782674  0.00099268  0.00034100  1
  Fe  Fe36  1  0.50280844  0.74954309  0.74702755  1
  Fe  Fe37  1  0.37465428  0.62757424  0.37502912  1
  Fe  Fe38  1  0.37451824  0.62420001  0.62464339  1
  Fe  Fe39  1  0.62548803  0.87773295  0.61825564  1
  Fe  Fe40  1  -0.00531296  0.74822691  0.50200928  1
  Fe  Fe41  1  0.12348069  0.37403191  0.37931903  1
  Fe  Fe42  1  0.62450020  0.12543825  0.87653359  1
  Fe  Fe43  1  0.00102693  -0.00058490  0.25075215  1
  Fe  Fe44  1  0.74984235  0.75337927  0.74775960  1
  Fe  Fe45  1  -0.00115927  0.75173605  0.74748108  1
  Fe  Fe46  1  0.50267912  0.25329210  0.25091629  1
  Fe  Fe47  1  0.75032216  0.24756410  0.74795849  1
  Fe  Fe48  1  0.24956344  0.74771665  0.00145424  1
  Fe  Fe49  1  -0.00205921  0.49727124  0.74797529  1
  Fe  Fe50  1  -0.00249998  0.25015192  0.74763323  1
  Fe  Fe51  1  0.37614804  0.86947441  0.37523834  1
  Fe  Fe52  1  0.24761382  0.74879753  0.74653578  1
  Fe  Fe53  1  0.62753522  0.37354394  0.87801765  1
  Fe  Fe54  1  0.12766363  0.12631235  0.12687756  1
  Fe  Fe55  1  0.62694090  0.37525947  0.62266024  1
  Fe  Fe56  1  0.12425421  0.62243549  0.12552550  1
  Fe  Fe57  1  0.37367388  0.37148279  0.37842903  1
  Fe  Fe58  1  -0.00064631  0.74890841  -0.00044759  1
  Fe  Fe59  1  0.62449804  0.87557070  0.87624324  1
  Fe  Fe60  1  0.75161056  0.24779215  0.50024893  1
  Fe  Fe61  1  0.12305837  0.87778768  0.62165947  1
  Fe  Fe62  1  0.87365564  0.12658203  0.37070089  1
  Fe  Fe63  1  0.50192703  0.49825994  0.75007689  1
  Fe  Fe64  1  0.87315410  0.62543511  0.87257030  1
  Fe  Fe65  1  0.00024019  0.74962315  0.25082284  1
  Fe  Fe66  1  0.74829636  0.75315617  0.25168212  1
  Fe  Fe67  1  0.50184387  0.00092500  0.74934637  1
  Fe  Fe68  1  0.62869514  0.37472603  0.37443108  1
  Fe  Fe69  1  0.12602837  0.37432184  0.87381419  1
  Fe  Fe70  1  0.12404525  0.62633773  0.37881409  1
  Fe  Fe71  1  0.75054472  0.49729460  0.75223506  1
  Fe  Fe72  1  0.24891371  0.49947751  0.50258883  1
  Fe  Fe73  1  0.25084446  0.00109970  0.74806135  1
  Fe  Fe74  1  0.00036022  0.25361855  0.24752992  1
  Fe  Fe75  1  0.87276331  0.87751498  0.37522922  1
  Fe  Fe76  1  0.50275002  0.50093416  -0.00178423  1
  Fe  Fe77  1  0.24950972  0.25166695  0.74604920  1
  Fe  Fe78  1  -0.00367847  0.49815071  -0.00101035  1
  Fe  Fe79  1  -0.00719465  0.50077928  0.50133841  1
  Fe  Fe80  1  0.12502773  0.62334576  0.87189602  1
  Fe  Fe81  1  0.37637039  0.62388809  0.12864967  1
  Fe  Fe82  1  0.75039291  0.00286185  0.00321239  1
  Fe  Fe83  1  0.12650200  0.87501474  0.12594807  1
  Fe  Fe84  1  0.50213602  0.74728711  0.00158031  1
  Fe  Fe85  1  0.12273055  0.12265305  0.62389330  1
  Fe  Fe86  1  0.87517235  0.87598049  0.12506420  1
  Fe  Fe87  1  0.24880649  0.49801083  0.25212464  1
  Fe  Fe88  1  0.37360074  0.12700354  0.12966935  1
  Fe  Fe89  1  0.62256006  0.12458777  0.62269987  1
  Co  Co90  1  0.74783483  0.24986184  0.24609856  1
  Co  Co91  1  0.87350883  0.62590223  0.37216221  1
  Co  Co92  1  0.49891309  0.49827578  0.25598448  1
  Co  Co93  1  0.25078397  0.49755164  0.74726969  1
  Co  Co94  1  0.75020554  -0.00049879  0.24946982  1
  Co  Co95  1  0.87334767  0.37743333  0.12644553  1
  Co  Co96  1  0.24710035  0.74721783  0.24973240  1
  Co  Co97  1  0.50480824  0.25137148  0.49618794  1
  Co  Co98  1  0.87538612  0.37026506  0.37512909  1
  Co  Co99  1  0.87835058  0.12397325  0.12800418  1
  Co  Co100  1  0.75480559  0.75064137  0.50038546  1
  Co  Co101  1  0.62553220  0.87540525  0.37914669  1
  Co  Co102  1  0.62558298  0.62585887  0.87171886  1
  Co  Co103  1  0.87656086  0.12071733  0.62632043  1
  Co  Co104  1  0.87221470  0.37459837  0.62368263  1
  Co  Co105  1  -0.00034986  0.00314434  0.49419475  1
  Co  Co106  1  0.24838053  0.25537414  0.25021895  1
  Co  Co107  1  0.00151454  0.00033143  0.75412217  1
  Co  Co108  1  0.24984354  0.74957032  0.50218125  1
  Co  Co109  1  0.37537815  0.13082175  0.37331512  1
  Co  Co110  1  0.62465183  0.37901824  0.12547430  1
  Co  Co111  1  0.87099622  0.62262210  0.62785880  1
  Co  Co112  1  0.25098089  0.25125391  0.00112661  1
  Co  Co113  1  0.12272779  0.62368725  0.62390738  1
  Co  Co114  1  0.50151649  0.74666326  0.50064646  1
  Co  Co115  1  0.24725531  0.24817545  0.50236867  1
  Co  Co116  1  0.12440159  0.37632723  0.12368273  1
  Co  Co117  1  0.49660240  0.00119181  0.49677159  1
  Co  Co118  1  0.75085696  0.00419241  0.49831515  1
  Co  Co119  1  0.50239504  0.25179297  0.75113194  1
  Co  Co120  1  0.74607323  0.00181842  0.74949181  1
  Co  Co121  1  0.50370503  0.74995791  0.25028731  1
  Co  Co122  1  0.75070569  0.50195641  -0.00087913  1
  Co  Co123  1  0.12211479  0.37572434  0.62267587  1
  Co  Co124  1  0.75274383  0.49934141  0.49603571  1
  Co  Co125  1  0.87226702  0.37225943  0.87538006  1
  Co  Co126  1  0.62090856  0.12286663  0.12763553  1
  Co  Co127  1  0.25127007  -0.00138279  0.25356143  1
