# generated using pymatgen
data_Fe45Co19
_symmetry_space_group_name_H-M   'P 1'
_cell_length_a   11.41559857
_cell_length_b   11.41447006
_cell_length_c   11.41614830
_cell_angle_alpha   90.01303887
_cell_angle_beta   90.00020045
_cell_angle_gamma   89.99680177
_symmetry_Int_Tables_number   1
_chemical_formula_structural   Fe45Co19
_chemical_formula_sum   'Fe90 Co38'
_cell_volume   1487.55842391
_cell_formula_units_Z   2
loop_
 _symmetry_equiv_pos_site_id
 _symmetry_equiv_pos_as_xyz
  1  'x, y, z'
loop_
 _atom_site_type_symbol
 _atom_site_label
 _atom_site_symmetry_multiplicity
 _atom_site_fract_x
 _atom_site_fract_y
 _atom_site_fract_z
 _atom_site_occupancy
  Fe  Fe0  1  0.62539553  0.87653238  0.12310205  1
  Fe  Fe1  1  0.50281586  0.49852883  0.25126147  1
  Fe  Fe2  1  0.37720670  0.37330087  0.12355110  1
  Fe  Fe3  1  0.12306303  0.12348579  0.12419181  1
  Fe  Fe4  1  0.74745643  0.49734734  0.50154930  1
  Fe  Fe5  1  0.62393907  0.62544611  0.62632585  1
  Fe  Fe6  1  0.24894549  0.50030806  0.74781725  1
  Fe  Fe7  1  0.37294486  0.12625180  0.87306705  1
  Fe  Fe8  1  0.74657777  0.24748018  0.24807298  1
  Fe  Fe9  1  0.37511252  0.87229431  0.87523996  1
  Fe  Fe10  1  0.62841734  0.37379481  0.87170306  1
  Fe  Fe11  1  0.24828406  0.74965595  0.49761515  1
  Fe  Fe12  1  0.62550822  0.62425711  0.12499152  1
  Fe  Fe13  1  0.37624115  0.87338040  0.62601021  1
  Fe  Fe14  1  0.00042250  0.25015541  0.75058983  1
  Fe  Fe15  1  0.00107010  0.24797339  0.49728587  1
  Fe  Fe16  1  0.87673698  0.12616740  0.62400548  1
  Fe  Fe17  1  0.50000577  -0.00124313  0.75117809  1
  Fe  Fe18  1  0.25543244  0.24881475  0.50380121  1
  Fe  Fe19  1  0.49805771  0.00087710  0.24778792  1
  Fe  Fe20  1  0.87208998  0.37382045  0.37656357  1
  Fe  Fe21  1  0.12830006  0.12168310  0.37507962  1
  Fe  Fe22  1  0.74693166  0.25073871  0.50372253  1
  Fe  Fe23  1  0.24850414  0.74894352  0.25168477  1
  Fe  Fe24  1  0.50122005  0.75153334  0.49871833  1
  Fe  Fe25  1  -0.00398014  -0.00117863  0.25072603  1
  Fe  Fe26  1  0.50222164  0.75087460  0.25157587  1
  Fe  Fe27  1  0.49683125  0.00129927  0.00046783  1
  Fe  Fe28  1  0.87349833  0.62486310  0.37573092  1
  Fe  Fe29  1  0.12267512  0.62570232  0.62333728  1
  Fe  Fe30  1  0.00014408  0.24757307  -0.00141754  1
  Fe  Fe31  1  0.37690675  0.62600440  0.12480256  1
  Fe  Fe32  1  0.25474062  0.00108090  0.24597777  1
  Fe  Fe33  1  0.25011288  0.50045669  0.00184383  1
  Fe  Fe34  1  0.75376789  0.49716505  0.74589505  1
  Fe  Fe35  1  0.50244161  0.49702997  0.49882590  1
  Fe  Fe36  1  0.37393077  0.87638068  0.37460339  1
  Fe  Fe37  1  0.61842021  0.12868812  0.62607774  1
  Fe  Fe38  1  0.12933051  0.37768339  0.37666969  1
  Fe  Fe39  1  0.00101871  0.75503679  0.49539055  1
  Fe  Fe40  1  0.62875423  0.87736749  0.87648783  1
  Fe  Fe41  1  0.74933944  0.75232461  0.25077349  1
  Fe  Fe42  1  -0.00232213  0.75175093  -0.00086110  1
  Fe  Fe43  1  0.12390820  0.87639009  0.62331105  1
  Fe  Fe44  1  0.12341062  0.37531157  0.12491468  1
  Fe  Fe45  1  -0.00034278  0.49945653  0.49909747  1
  Fe  Fe46  1  0.25074193  0.00021895  0.75035742  1
  Fe  Fe47  1  0.62779899  0.87930337  0.37639745  1
  Fe  Fe48  1  0.12367660  0.37510703  0.62410422  1
  Fe  Fe49  1  0.75050732  0.50011997  0.00078864  1
  Fe  Fe50  1  0.37685093  0.62634725  0.62604486  1
  Fe  Fe51  1  0.12325988  0.37719720  0.87384907  1
  Fe  Fe52  1  0.12421913  0.87618488  0.12497594  1
  Fe  Fe53  1  0.50337108  0.24841310  -0.00339490  1
  Fe  Fe54  1  0.24894355  0.75009463  0.75074986  1
  Fe  Fe55  1  0.12299876  0.87821802  0.87681843  1
  Fe  Fe56  1  0.25016842  0.24970234  0.24884460  1
  Fe  Fe57  1  0.50314768  0.74735082  -0.00451848  1
  Fe  Fe58  1  0.25004830  0.74955334  -0.00050569  1
  Fe  Fe59  1  0.87143482  0.12206775  0.37657692  1
  Fe  Fe60  1  0.74795576  0.49844531  0.25090394  1
  Fe  Fe61  1  0.37310891  0.37595555  0.37477232  1
  Fe  Fe62  1  0.37417433  0.62268392  0.37508757  1
  Fe  Fe63  1  0.00021381  0.75357765  0.25526484  1
  Fe  Fe64  1  0.75030222  0.75139065  0.75054026  1
  Fe  Fe65  1  0.75133895  0.00208742  0.74688997  1
  Fe  Fe66  1  0.87457250  0.62689666  0.12575794  1
  Fe  Fe67  1  0.62309531  0.12357469  0.37699383  1
  Fe  Fe68  1  -0.00222090  -0.00033806  0.75056008  1
  Fe  Fe69  1  0.00112414  0.25010893  0.25356419  1
  Fe  Fe70  1  0.87466920  0.62462236  0.87508186  1
  Fe  Fe71  1  0.74922112  0.24644086  0.00008566  1
  Fe  Fe72  1  0.62401583  0.87406897  0.62522317  1
  Fe  Fe73  1  0.12568547  0.12438037  0.62606999  1
  Fe  Fe74  1  0.50007946  0.50129762  0.75230895  1
  Fe  Fe75  1  0.37255011  0.37476243  0.87337121  1
  Fe  Fe76  1  0.50163099  0.24889510  0.24952402  1
  Fe  Fe77  1  -0.00051261  0.49824647  0.25032034  1
  Fe  Fe78  1  0.12281709  0.62439177  0.12594347  1
  Fe  Fe79  1  0.50182810  0.50122706  -0.00308517  1
  Fe  Fe80  1  0.87687073  0.62637092  0.62326109  1
  Fe  Fe81  1  -0.00091720  0.75156620  0.75113040  1
  Fe  Fe82  1  0.24699641  0.24904880  -0.00170611  1
  Fe  Fe83  1  0.74986369  0.75172694  0.50055073  1
  Fe  Fe84  1  0.87415768  0.37196606  0.12552914  1
  Fe  Fe85  1  0.12342601  0.62256180  0.87561053  1
  Fe  Fe86  1  0.25163129  0.00059391  0.00137051  1
  Fe  Fe87  1  0.25422143  0.00192804  0.50191486  1
  Fe  Fe88  1  0.75614027  0.00271889  0.00358566  1
  Fe  Fe89  1  0.87564758  0.37365715  0.87398332  1
  Co  Co90  1  0.62700316  0.12259609  0.87445371  1
  Co  Co91  1  0.62599180  0.37136507  0.37512625  1
  Co  Co92  1  0.74861004  0.74851272  -0.00064229  1
  Co  Co93  1  0.62480498  0.37484598  0.12340653  1
  Co  Co94  1  0.87462068  0.87145579  0.12523954  1
  Co  Co95  1  0.25010004  0.49998102  0.24573451  1
  Co  Co96  1  -0.00180669  0.49987198  0.74859422  1
  Co  Co97  1  0.62334250  0.12281448  0.12312901  1
  Co  Co98  1  0.62982384  0.62284767  0.87164068  1
  Co  Co99  1  0.87529584  0.12553600  0.87301328  1
  Co  Co100  1  0.87823864  0.12883487  0.12751525  1
  Co  Co101  1  0.37614533  0.12529620  0.37428195  1
  Co  Co102  1  0.37627314  0.86998172  0.12402679  1
  Co  Co103  1  -0.00460569  0.00001794  0.00109111  1
  Co  Co104  1  0.62644740  0.62583831  0.37589173  1
  Co  Co105  1  0.49858244  -0.00116668  0.50056627  1
  Co  Co106  1  0.37843323  0.12471130  0.62918080  1
  Co  Co107  1  0.12441357  0.12226077  0.87495890  1
  Co  Co108  1  0.37562581  0.12982812  0.12264379  1
  Co  Co109  1  0.49625273  0.25219044  0.49943537  1
  Co  Co110  1  0.50222895  0.75093018  0.75324339  1
  Co  Co111  1  -0.00248756  0.49966329  0.00179108  1
  Co  Co112  1  0.75111348  0.24880280  0.74758988  1
  Co  Co113  1  0.74731364  0.00246427  0.50596629  1
  Co  Co114  1  0.37826154  0.37624771  0.62800220  1
  Co  Co115  1  0.75033862  0.00137588  0.24613087  1
  Co  Co116  1  0.12517345  0.62097459  0.37476326  1
  Co  Co117  1  -0.00035199  0.00045643  0.49976509  1
  Co  Co118  1  0.25100542  0.50055035  0.50422221  1
  Co  Co119  1  0.87615965  0.87504931  0.62416499  1
  Co  Co120  1  0.62179453  0.37320562  0.62829173  1
  Co  Co121  1  0.87296295  0.87571615  0.87435800  1
  Co  Co122  1  0.37269498  0.62587861  0.87374449  1
  Co  Co123  1  0.49895554  0.24973526  0.75450074  1
  Co  Co124  1  0.87005366  0.87964444  0.37822630  1
  Co  Co125  1  0.24864753  0.25062205  0.74826895  1
  Co  Co126  1  0.87789848  0.37226560  0.62228270  1
  Co  Co127  1  0.12830213  0.88127563  0.37475724  1
