# generated using pymatgen
data_Fe45Co19
_symmetry_space_group_name_H-M   'P 1'
_cell_length_a   11.41490930
_cell_length_b   11.41536385
_cell_length_c   11.41443847
_cell_angle_alpha   89.99875328
_cell_angle_beta   90.00676520
_cell_angle_gamma   89.99607480
_symmetry_Int_Tables_number   1
_chemical_formula_structural   Fe45Co19
_chemical_formula_sum   'Fe90 Co38'
_cell_volume   1487.36230496
_cell_formula_units_Z   2
loop_
 _symmetry_equiv_pos_site_id
 _symmetry_equiv_pos_as_xyz
  1  'x, y, z'
loop_
 _atom_site_type_symbol
 _atom_site_label
 _atom_site_symmetry_multiplicity
 _atom_site_fract_x
 _atom_site_fract_y
 _atom_site_fract_z
 _atom_site_occupancy
  Fe  Fe0  1  0.50340335  0.24856349  0.50105987  1
  Fe  Fe1  1  -0.00093398  0.24868096  0.50070614  1
  Fe  Fe2  1  0.62608199  0.62559072  0.37341659  1
  Fe  Fe3  1  0.12482167  0.87544093  0.62438217  1
  Fe  Fe4  1  0.74931012  0.25142892  0.25078249  1
  Fe  Fe5  1  0.25291992  0.74866563  0.00326327  1
  Fe  Fe6  1  0.87648108  0.87331133  0.87913111  1
  Fe  Fe7  1  0.87675398  0.87366972  0.37330269  1
  Fe  Fe8  1  0.74993343  -0.00266232  0.75092247  1
  Fe  Fe9  1  0.12365899  0.37548429  0.37568760  1
  Fe  Fe10  1  0.50208010  0.49799107  0.74781700  1
  Fe  Fe11  1  0.12454726  0.87440869  0.87763196  1
  Fe  Fe12  1  0.24917007  0.00085983  0.00069464  1
  Fe  Fe13  1  0.25162744  0.49958010  0.49907520  1
  Fe  Fe14  1  0.87593251  0.87345604  0.62492398  1
  Fe  Fe15  1  0.62372505  0.87253571  0.62449409  1
  Fe  Fe16  1  0.87483024  0.12402061  0.37357223  1
  Fe  Fe17  1  0.12363277  0.12507783  0.12514761  1
  Fe  Fe18  1  0.00353059  0.50275959  -0.00391605  1
  Fe  Fe19  1  -0.00115917  0.00159171  0.75369614  1
  Fe  Fe20  1  0.37589009  0.37691163  0.87541801  1
  Fe  Fe21  1  0.87153013  0.12448833  0.62497888  1
  Fe  Fe22  1  0.50018621  -0.00108601  0.49996502  1
  Fe  Fe23  1  0.87313413  0.62615990  0.87336662  1
  Fe  Fe24  1  0.87215609  0.37509631  0.87543545  1
  Fe  Fe25  1  0.25151727  0.75107603  0.74915703  1
  Fe  Fe26  1  0.62287782  0.12562961  0.87322622  1
  Fe  Fe27  1  0.87405635  0.62484120  0.12562369  1
  Fe  Fe28  1  0.12508564  0.12342400  0.37439761  1
  Fe  Fe29  1  0.37471516  0.87438874  0.37448252  1
  Fe  Fe30  1  0.00055583  0.75027704  0.75150535  1
  Fe  Fe31  1  0.25065080  0.25248497  0.25062912  1
  Fe  Fe32  1  0.37216499  0.62501306  0.37067565  1
  Fe  Fe33  1  0.25375627  0.00092533  0.74938010  1
  Fe  Fe34  1  0.12449062  0.62556614  0.62552933  1
  Fe  Fe35  1  0.74860267  0.75009188  0.00098421  1
  Fe  Fe36  1  0.74863779  0.50185101  0.00114449  1
  Fe  Fe37  1  0.25011233  -0.00274815  0.24934955  1
  Fe  Fe38  1  -0.00129833  0.24814811  0.75165171  1
  Fe  Fe39  1  0.75136723  0.75168685  0.24778056  1
  Fe  Fe40  1  0.75039292  0.00026375  0.00071948  1
  Fe  Fe41  1  0.25443566  0.24867186  0.75150877  1
  Fe  Fe42  1  0.50135032  0.50338020  0.00155771  1
  Fe  Fe43  1  0.50043944  0.49847436  0.25141649  1
  Fe  Fe44  1  0.49693668  0.75135683  0.24556948  1
  Fe  Fe45  1  0.87475901  0.12220184  0.12694736  1
  Fe  Fe46  1  0.74700425  0.50130853  0.74571617  1
  Fe  Fe47  1  0.37337452  0.62368440  0.87593907  1
  Fe  Fe48  1  0.12401059  0.37536629  0.12299714  1
  Fe  Fe49  1  0.74853723  0.24911670  0.00052981  1
  Fe  Fe50  1  0.62407140  0.87452102  0.12580036  1
  Fe  Fe51  1  0.24919266  0.25027357  0.49878806  1
  Fe  Fe52  1  0.25132011  0.25026772  -0.00134471  1
  Fe  Fe53  1  0.12619009  0.62815737  0.37370990  1
  Fe  Fe54  1  0.49650867  0.00157662  0.74745918  1
  Fe  Fe55  1  0.87222804  0.37532577  0.62264093  1
  Fe  Fe56  1  0.25126181  -0.00100632  0.50022366  1
  Fe  Fe57  1  0.00308827  0.49994854  0.75270710  1
  Fe  Fe58  1  -0.00071892  0.50161868  0.50103135  1
  Fe  Fe59  1  0.62529451  0.62618560  0.87416098  1
  Fe  Fe60  1  0.37682081  0.12624525  0.37279484  1
  Fe  Fe61  1  0.62673816  0.37722422  0.12459590  1
  Fe  Fe62  1  0.12628981  0.12425877  0.62617462  1
  Fe  Fe63  1  0.75172522  0.74689462  0.50395337  1
  Fe  Fe64  1  0.37357628  0.37828111  0.12613296  1
  Fe  Fe65  1  0.24955690  0.75118653  0.50063079  1
  Fe  Fe66  1  0.37723213  0.37453161  0.62252837  1
  Fe  Fe67  1  0.87257582  0.37685566  0.37733308  1
  Fe  Fe68  1  0.87488842  0.62471551  0.37423754  1
  Fe  Fe69  1  0.11937945  0.87435670  0.12463650  1
  Fe  Fe70  1  0.74438142  0.25209445  0.74795828  1
  Fe  Fe71  1  -0.00040242  0.24666423  -0.00451615  1
  Fe  Fe72  1  0.12578469  0.37432254  0.62687270  1
  Fe  Fe73  1  0.37563010  0.62479240  0.62594794  1
  Fe  Fe74  1  0.00058390  0.50066433  0.24991861  1
  Fe  Fe75  1  0.62384700  0.12330402  0.37174563  1
  Fe  Fe76  1  0.74787593  -0.00131522  0.49765150  1
  Fe  Fe77  1  0.49901160  0.75089356  0.75195684  1
  Fe  Fe78  1  0.62772013  0.37850412  0.37946670  1
  Fe  Fe79  1  0.50033115  -0.00008231  0.00103575  1
  Fe  Fe80  1  0.12894793  0.62444137  0.12731240  1
  Fe  Fe81  1  0.87631910  0.37621253  0.12363017  1
  Fe  Fe82  1  0.50054881  0.25123684  -0.00003532  1
  Fe  Fe83  1  0.37533672  0.87547174  0.87794630  1
  Fe  Fe84  1  0.49878953  0.74844205  0.49929734  1
  Fe  Fe85  1  0.37785381  0.12460618  0.12752039  1
  Fe  Fe86  1  0.62306936  0.12414262  0.12893766  1
  Fe  Fe87  1  -0.00044660  0.24996140  0.25107606  1
  Fe  Fe88  1  0.62291845  0.87401619  0.87543807  1
  Fe  Fe89  1  0.00068548  -0.00081119  0.49879233  1
  Co  Co90  1  0.12937018  0.62815150  0.87358513  1
  Co  Co91  1  0.50001827  -0.00434079  0.25123828  1
  Co  Co92  1  0.50174412  0.25514943  0.24982771  1
  Co  Co93  1  0.24877576  0.49560545  0.25341242  1
  Co  Co94  1  0.86974792  0.12663466  0.87340278  1
  Co  Co95  1  0.62575642  0.37675907  0.87730984  1
  Co  Co96  1  0.87961140  0.62551211  0.62911146  1
  Co  Co97  1  0.00005899  0.74471136  0.00057947  1
  Co  Co98  1  0.37215786  0.62015375  0.12740155  1
  Co  Co99  1  0.62601503  0.12165105  0.62642191  1
  Co  Co100  1  0.24720763  0.49991942  -0.00215617  1
  Co  Co101  1  0.37672940  0.37300051  0.37695795  1
  Co  Co102  1  0.12662024  0.37183795  0.87409582  1
  Co  Co103  1  0.62123792  0.62816033  0.62588728  1
  Co  Co104  1  0.62471786  0.86993744  0.37560756  1
  Co  Co105  1  0.74857873  0.24636738  0.49824325  1
  Co  Co106  1  0.37701185  0.87741754  0.12251160  1
  Co  Co107  1  0.49918815  0.74716585  0.00180854  1
  Co  Co108  1  -0.00059911  0.75008579  0.49995095  1
  Co  Co109  1  0.74846994  -0.00264632  0.25067495  1
  Co  Co110  1  0.37547223  0.12781145  0.62181456  1
  Co  Co111  1  0.75104904  0.50728506  0.50409656  1
  Co  Co112  1  0.12496754  0.87314774  0.37485888  1
  Co  Co113  1  0.75008714  0.49856081  0.24933380  1
  Co  Co114  1  0.37622621  0.87272686  0.62334497  1
  Co  Co115  1  0.00070269  -0.00081358  0.25094050  1
  Co  Co116  1  0.62529764  0.62535546  0.12762135  1
  Co  Co117  1  0.37689574  0.12415176  0.87791860  1
  Co  Co118  1  0.87713250  0.87634378  0.12335971  1
  Co  Co119  1  0.62472665  0.37738350  0.61862700  1
  Co  Co120  1  0.50144317  0.25168325  0.74974815  1
  Co  Co121  1  0.25134167  0.75489284  0.24679034  1
  Co  Co122  1  -0.00082193  0.74897297  0.24906083  1
  Co  Co123  1  0.25018678  0.49945785  0.74857326  1
  Co  Co124  1  0.12806511  0.12475216  0.87324591  1
  Co  Co125  1  0.49810726  0.50401253  0.49831691  1
  Co  Co126  1  -0.00101647  0.00429896  -0.00254350  1
  Co  Co127  1  0.74993561  0.75125713  0.74949805  1
