# generated using pymatgen
data_Fe45Co19
_symmetry_space_group_name_H-M   'P 1'
_cell_length_a   11.41595315
_cell_length_b   11.41474002
_cell_length_c   11.41413748
_cell_angle_alpha   90.00592662
_cell_angle_beta   89.99138111
_cell_angle_gamma   90.00308710
_symmetry_Int_Tables_number   1
_chemical_formula_structural   Fe45Co19
_chemical_formula_sum   'Fe90 Co38'
_cell_volume   1487.37779538
_cell_formula_units_Z   2
loop_
 _symmetry_equiv_pos_site_id
 _symmetry_equiv_pos_as_xyz
  1  'x, y, z'
loop_
 _atom_site_type_symbol
 _atom_site_label
 _atom_site_symmetry_multiplicity
 _atom_site_fract_x
 _atom_site_fract_y
 _atom_site_fract_z
 _atom_site_occupancy
  Fe  Fe0  1  0.25016129  0.74875408  0.25024246  1
  Fe  Fe1  1  0.12717350  0.87747554  0.37582014  1
  Fe  Fe2  1  0.49933850  0.75342900  0.75250651  1
  Fe  Fe3  1  0.25011879  0.49984499  0.25026357  1
  Fe  Fe4  1  0.50079117  0.49859226  0.50039512  1
  Fe  Fe5  1  0.62237028  0.12410587  0.62705443  1
  Fe  Fe6  1  0.00196646  0.49998296  0.00211009  1
  Fe  Fe7  1  0.50024523  -0.00182181  0.25013916  1
  Fe  Fe8  1  0.75196874  0.24839719  0.24765955  1
  Fe  Fe9  1  0.24971628  0.50008521  0.50092660  1
  Fe  Fe10  1  0.25117384  0.00251122  0.24955679  1
  Fe  Fe11  1  0.25008382  0.49988324  0.74840292  1
  Fe  Fe12  1  0.74988003  0.50059291  0.50104623  1
  Fe  Fe13  1  0.87463534  0.11933127  0.87413165  1
  Fe  Fe14  1  0.74925132  0.75369331  0.75265423  1
  Fe  Fe15  1  0.49857057  0.24925525  0.49945628  1
  Fe  Fe16  1  0.62389655  0.87170005  0.12160108  1
  Fe  Fe17  1  0.12158535  0.62673736  0.62501491  1
  Fe  Fe18  1  0.62669094  0.37421439  0.37578872  1
  Fe  Fe19  1  0.25236633  0.25019748  0.00177246  1
  Fe  Fe20  1  0.24739415  0.00364106  0.75069922  1
  Fe  Fe21  1  0.87390470  0.87727742  0.37494143  1
  Fe  Fe22  1  0.74926650  0.00066185  0.24536507  1
  Fe  Fe23  1  0.00480005  -0.00286614  -0.00456146  1
  Fe  Fe24  1  0.75072049  0.24826298  0.75164978  1
  Fe  Fe25  1  0.00001944  0.00143877  0.25017603  1
  Fe  Fe26  1  0.49774801  0.00021776  0.49728227  1
  Fe  Fe27  1  0.37767005  0.62565161  0.37456216  1
  Fe  Fe28  1  0.12577170  0.12448226  0.12311998  1
  Fe  Fe29  1  0.37733218  0.62514080  0.12576577  1
  Fe  Fe30  1  0.00014972  0.49773660  0.74889478  1
  Fe  Fe31  1  0.87472128  0.37511278  0.37543360  1
  Fe  Fe32  1  0.74864149  0.75101431  0.49820240  1
  Fe  Fe33  1  0.87680772  0.12401583  0.62686259  1
  Fe  Fe34  1  0.49995951  0.49750497  0.25052008  1
  Fe  Fe35  1  0.00190188  0.75009900  0.24979704  1
  Fe  Fe36  1  0.12165038  0.62369688  0.37662606  1
  Fe  Fe37  1  -0.00156897  0.25001004  -0.00118867  1
  Fe  Fe38  1  0.37505042  0.62342117  0.87360245  1
  Fe  Fe39  1  0.12639990  0.37174092  0.87269464  1
  Fe  Fe40  1  0.24993413  0.74988049  0.50004496  1
  Fe  Fe41  1  0.74840617  0.50135664  0.00094049  1
  Fe  Fe42  1  0.62126264  0.62788888  0.12488250  1
  Fe  Fe43  1  0.49955148  -0.00056972  -0.00001649  1
  Fe  Fe44  1  0.49707268  0.25063465  0.24940606  1
  Fe  Fe45  1  0.62613405  0.12450228  0.37346938  1
  Fe  Fe46  1  0.24922381  0.49897371  0.00036200  1
  Fe  Fe47  1  0.87520734  0.12393730  0.12167287  1
  Fe  Fe48  1  0.49986874  0.49700607  -0.00248476  1
  Fe  Fe49  1  0.37182764  0.12443235  0.87593258  1
  Fe  Fe50  1  0.12619937  0.87471770  0.62589037  1
  Fe  Fe51  1  0.12468977  0.37163827  0.62629406  1
  Fe  Fe52  1  0.87277621  0.37633106  0.87683424  1
  Fe  Fe53  1  0.87730615  0.62467123  0.37677182  1
  Fe  Fe54  1  0.87669241  0.62659731  0.87658159  1
  Fe  Fe55  1  0.62647814  0.37151131  0.12179292  1
  Fe  Fe56  1  0.12647795  0.87474987  0.12346925  1
  Fe  Fe57  1  0.87698127  0.62707389  0.62425105  1
  Fe  Fe58  1  0.62701443  0.12149679  0.87549124  1
  Fe  Fe59  1  0.25331744  0.24561392  0.50000969  1
  Fe  Fe60  1  0.87639428  0.87681100  0.62573255  1
  Fe  Fe61  1  0.87360647  0.37369585  0.62512378  1
  Fe  Fe62  1  0.87807425  0.62613624  0.12413467  1
  Fe  Fe63  1  0.87545572  0.87269965  0.12085395  1
  Fe  Fe64  1  0.37490847  0.87464508  0.12571985  1
  Fe  Fe65  1  0.12488283  0.37370230  0.37493554  1
  Fe  Fe66  1  -0.00181300  0.24861409  0.49811834  1
  Fe  Fe67  1  0.49892753  0.25026576  -0.00154295  1
  Fe  Fe68  1  0.62310250  0.87712956  0.62581400  1
  Fe  Fe69  1  0.75066275  0.50015549  0.24843856  1
  Fe  Fe70  1  0.37131904  0.87621962  0.87381984  1
  Fe  Fe71  1  0.12280773  0.12731991  0.62842487  1
  Fe  Fe72  1  0.74967255  0.00266811  0.50172078  1
  Fe  Fe73  1  0.74901380  0.50150763  0.75039227  1
  Fe  Fe74  1  0.37549453  0.37458041  0.62731103  1
  Fe  Fe75  1  0.25066376  0.74917050  0.00112607  1
  Fe  Fe76  1  0.12435437  0.37497878  0.12676572  1
  Fe  Fe77  1  0.62532619  0.37430989  0.62817023  1
  Fe  Fe78  1  0.50156391  0.75337829  0.49524636  1
  Fe  Fe79  1  0.49798495  0.25001391  0.75293624  1
  Fe  Fe80  1  0.00199053  0.00154178  0.49879822  1
  Fe  Fe81  1  0.74730993  0.74920023  0.25089061  1
  Fe  Fe82  1  0.37794055  0.62600928  0.62526508  1
  Fe  Fe83  1  -0.00212478  0.24851347  0.24954748  1
  Fe  Fe84  1  0.12540908  0.62729437  0.87422194  1
  Fe  Fe85  1  -0.00071478  0.75455679  0.75327259  1
  Fe  Fe86  1  0.62273565  0.62629178  0.87468697  1
  Fe  Fe87  1  0.37352758  0.87809496  0.62486049  1
  Fe  Fe88  1  0.62356005  0.62654680  0.62572886  1
  Fe  Fe89  1  0.25337506  0.24857185  0.24857722  1
  Co  Co90  1  0.62322159  0.12767312  0.12501425  1
  Co  Co91  1  0.37264457  0.37566137  0.87385889  1
  Co  Co92  1  0.00262474  0.75164473  -0.00087711  1
  Co  Co93  1  0.37765641  0.12230305  0.62701043  1
  Co  Co94  1  0.50002469  0.49931840  0.75071607  1
  Co  Co95  1  0.74892977  0.24787926  0.50157815  1
  Co  Co96  1  0.37032547  0.87671883  0.37559273  1
  Co  Co97  1  0.00068424  0.75354444  0.49891270  1
  Co  Co98  1  0.62771691  0.87701206  0.87738839  1
  Co  Co99  1  0.49907430  -0.00116994  0.75396826  1
  Co  Co100  1  0.25358897  0.24815905  0.74903935  1
  Co  Co101  1  0.37576348  0.12313195  0.12448302  1
  Co  Co102  1  0.37528835  0.37669789  0.12394251  1
  Co  Co103  1  0.25220544  0.74820506  0.74814297  1
  Co  Co104  1  0.24836444  0.00436948  0.50207670  1
  Co  Co105  1  0.00392529  -0.00213058  0.75285999  1
  Co  Co106  1  0.49693923  0.75187203  -0.00322643  1
  Co  Co107  1  0.24878119  -0.00009411  -0.00047940  1
  Co  Co108  1  -0.00417353  0.25065587  0.75251261  1
  Co  Co109  1  0.50139328  0.75322160  0.25407641  1
  Co  Co110  1  -0.00016801  0.49966137  0.24910679  1
  Co  Co111  1  0.12601062  0.12584008  0.37266997  1
  Co  Co112  1  0.87437316  0.37501685  0.12266964  1
  Co  Co113  1  0.74925044  0.74800596  -0.00098804  1
  Co  Co114  1  0.75123800  0.24705186  -0.00195047  1
  Co  Co115  1  0.62434636  0.62264692  0.37527607  1
  Co  Co116  1  0.62923911  0.87925955  0.37509832  1
  Co  Co117  1  0.12547276  0.62487217  0.12461034  1
  Co  Co118  1  0.74908106  -0.00157003  0.74761549  1
  Co  Co119  1  0.87151872  0.87776825  0.87768795  1
  Co  Co120  1  0.12628099  0.12950143  0.87510140  1
  Co  Co121  1  0.12972110  0.87162361  0.87403077  1
  Co  Co122  1  0.87261390  0.12285251  0.37469781  1
  Co  Co123  1  0.74753537  0.00051697  0.00399204  1
  Co  Co124  1  -0.00026086  0.49696824  0.50180886  1
  Co  Co125  1  0.37371942  0.37505752  0.37627963  1
  Co  Co126  1  0.37555839  0.12316929  0.37335059  1
  Co  Co127  1  0.62733235  0.37479384  0.87467730  1
