# generated using pymatgen
data_Fe45Co19
_symmetry_space_group_name_H-M   'P 1'
_cell_length_a   11.41446666
_cell_length_b   11.41506189
_cell_length_c   11.41544855
_cell_angle_alpha   89.99830869
_cell_angle_beta   90.00062790
_cell_angle_gamma   89.99757711
_symmetry_Int_Tables_number   1
_chemical_formula_structural   Fe45Co19
_chemical_formula_sum   'Fe90 Co38'
_cell_volume   1487.39690893
_cell_formula_units_Z   2
loop_
 _symmetry_equiv_pos_site_id
 _symmetry_equiv_pos_as_xyz
  1  'x, y, z'
loop_
 _atom_site_type_symbol
 _atom_site_label
 _atom_site_symmetry_multiplicity
 _atom_site_fract_x
 _atom_site_fract_y
 _atom_site_fract_z
 _atom_site_occupancy
  Fe  Fe0  1  0.12687005  0.12408702  0.62314110  1
  Fe  Fe1  1  0.50026919  -0.00083372  -0.00013317  1
  Fe  Fe2  1  -0.00120773  0.24969089  0.00241625  1
  Fe  Fe3  1  0.00103971  0.49833439  0.74909986  1
  Fe  Fe4  1  0.12208384  0.12450414  0.12880273  1
  Fe  Fe5  1  0.00035789  0.50016370  -0.00046797  1
  Fe  Fe6  1  0.74693045  0.50633313  0.49665003  1
  Fe  Fe7  1  0.24997036  0.75043569  0.50090617  1
  Fe  Fe8  1  0.87164381  0.37309676  0.12584440  1
  Fe  Fe9  1  0.00256333  -0.00065296  0.75052387  1
  Fe  Fe10  1  0.49468864  0.74917498  0.00285102  1
  Fe  Fe11  1  0.87574303  0.62640654  0.87561874  1
  Fe  Fe12  1  0.49799607  0.50217197  -0.00053588  1
  Fe  Fe13  1  0.50047095  0.00128571  0.50102187  1
  Fe  Fe14  1  -0.00099087  -0.00037934  0.49769616  1
  Fe  Fe15  1  0.87523634  0.62337801  0.12560547  1
  Fe  Fe16  1  0.49932727  0.24808341  0.50298119  1
  Fe  Fe17  1  0.62261809  0.37487978  0.37675594  1
  Fe  Fe18  1  0.62654115  0.37472487  0.62368361  1
  Fe  Fe19  1  0.37427158  0.87627644  0.62504918  1
  Fe  Fe20  1  0.87214892  0.87075367  0.37597661  1
  Fe  Fe21  1  0.62814102  0.12431234  0.12214847  1
  Fe  Fe22  1  0.74865485  0.75066777  0.74865287  1
  Fe  Fe23  1  0.37419098  0.62496953  0.62776648  1
  Fe  Fe24  1  0.00055365  0.49872474  0.50040649  1
  Fe  Fe25  1  0.37517502  0.12424293  0.12384509  1
  Fe  Fe26  1  0.62471263  0.37415833  0.87588101  1
  Fe  Fe27  1  0.62698689  0.37547335  0.12337614  1
  Fe  Fe28  1  0.50046276  0.00281373  0.75019603  1
  Fe  Fe29  1  0.75064231  0.50134126  0.25352270  1
  Fe  Fe30  1  0.87741288  0.12761602  0.36885706  1
  Fe  Fe31  1  0.87276190  0.37535369  0.62183049  1
  Fe  Fe32  1  0.74940564  0.00000807  0.24920924  1
  Fe  Fe33  1  0.24750601  -0.00129084  0.75061166  1
  Fe  Fe34  1  0.74882912  0.24851103  0.75185313  1
  Fe  Fe35  1  0.12803946  0.37717152  0.12418283  1
  Fe  Fe36  1  0.49547906  0.75232415  0.24572916  1
  Fe  Fe37  1  0.00088442  0.25066184  0.49968045  1
  Fe  Fe38  1  0.25081105  0.24939011  0.25116356  1
  Fe  Fe39  1  0.25301407  0.49953677  0.25425973  1
  Fe  Fe40  1  0.37304806  0.87340190  0.87515711  1
  Fe  Fe41  1  0.49855950  0.49721113  0.74894157  1
  Fe  Fe42  1  0.62392639  0.87410910  0.87712075  1
  Fe  Fe43  1  0.00295706  0.74970373  0.00210416  1
  Fe  Fe44  1  0.12858104  0.62405697  0.12725627  1
  Fe  Fe45  1  -0.00161121  0.49692639  0.25198513  1
  Fe  Fe46  1  0.74851752  0.74923544  0.00155182  1
  Fe  Fe47  1  0.87436546  0.87536398  0.62383409  1
  Fe  Fe48  1  0.74849318  0.24632787  0.49675535  1
  Fe  Fe49  1  0.87438258  0.62582987  0.62411498  1
  Fe  Fe50  1  0.37456115  0.37526995  0.12557273  1
  Fe  Fe51  1  0.37842467  0.62443479  0.37654446  1
  Fe  Fe52  1  0.87497938  0.37594421  0.87649391  1
  Fe  Fe53  1  0.87344642  0.12427855  0.62463360  1
  Fe  Fe54  1  0.12417412  0.12358691  0.37331833  1
  Fe  Fe55  1  0.37538306  0.37269243  0.87580716  1
  Fe  Fe56  1  0.13150945  0.87392728  0.12657619  1
  Fe  Fe57  1  0.50060848  0.24902357  -0.00102466  1
  Fe  Fe58  1  0.00100622  0.75129565  0.50135910  1
  Fe  Fe59  1  0.12762028  0.37470184  0.37776730  1
  Fe  Fe60  1  0.87543063  0.12398725  0.87697673  1
  Fe  Fe61  1  0.24840112  0.00250080  -0.00165877  1
  Fe  Fe62  1  0.00025841  0.00057132  0.00190808  1
  Fe  Fe63  1  0.25332730  0.50289057  -0.00305299  1
  Fe  Fe64  1  0.62219834  0.62599667  0.87351956  1
  Fe  Fe65  1  0.25123007  0.24925186  0.74925699  1
  Fe  Fe66  1  -0.00033119  0.75194191  0.24892596  1
  Fe  Fe67  1  0.12484414  0.37336452  0.87488735  1
  Fe  Fe68  1  0.50108230  0.24921840  0.24905062  1
  Fe  Fe69  1  0.62549421  0.87199780  0.37268090  1
  Fe  Fe70  1  0.62385150  0.62537960  0.12686470  1
  Fe  Fe71  1  0.49889942  0.49802125  0.25146657  1
  Fe  Fe72  1  0.50388534  0.74852366  0.50383598  1
  Fe  Fe73  1  0.62703164  0.87730685  0.62450958  1
  Fe  Fe74  1  0.12335022  0.62579587  0.37387969  1
  Fe  Fe75  1  0.37470869  0.87583315  0.37482749  1
  Fe  Fe76  1  0.49922569  -0.00036597  0.24792382  1
  Fe  Fe77  1  0.74916044  0.00174518  0.49721515  1
  Fe  Fe78  1  0.37599891  0.12531799  0.37636002  1
  Fe  Fe79  1  0.12871556  0.62718745  0.87361824  1
  Fe  Fe80  1  0.24978969  0.24796701  0.00028173  1
  Fe  Fe81  1  0.87718676  0.87401150  0.87542791  1
  Fe  Fe82  1  0.87277385  0.87556853  0.12400388  1
  Fe  Fe83  1  0.74867087  0.00092425  0.75268038  1
  Fe  Fe84  1  0.37149836  0.37605498  0.62072669  1
  Fe  Fe85  1  0.12803704  0.62311737  0.62609458  1
  Fe  Fe86  1  0.00315772  0.75159305  0.74829039  1
  Fe  Fe87  1  0.12803097  0.87567868  0.37340700  1
  Fe  Fe88  1  -0.00039234  0.25054905  0.74783925  1
  Fe  Fe89  1  0.75047270  0.50060622  0.75196229  1
  Co  Co90  1  0.74949329  0.50187859  -0.00069196  1
  Co  Co91  1  0.12543647  0.87295778  0.87852905  1
  Co  Co92  1  0.75232434  0.74884191  0.24791491  1
  Co  Co93  1  0.36995762  0.87862565  0.12431482  1
  Co  Co94  1  0.00271847  0.25627092  0.25003519  1
  Co  Co95  1  0.75117826  0.24907017  -0.00185626  1
  Co  Co96  1  0.62103371  0.62922689  0.36988970  1
  Co  Co97  1  0.25064661  -0.00088185  0.49839630  1
  Co  Co98  1  0.75116987  -0.00054161  -0.00060842  1
  Co  Co99  1  0.62123702  0.12322977  0.37466775  1
  Co  Co100  1  0.62386800  0.62299637  0.62983150  1
  Co  Co101  1  0.25379511  0.74810559  0.25196778  1
  Co  Co102  1  0.24790239  0.75473430  0.74731694  1
  Co  Co103  1  0.12691836  0.37428633  0.62448329  1
  Co  Co104  1  0.50129379  0.50206373  0.50130753  1
  Co  Co105  1  0.87310782  0.37453270  0.37779418  1
  Co  Co106  1  0.87763181  0.62776127  0.37601027  1
  Co  Co107  1  0.25049662  0.50245447  0.49758049  1
  Co  Co108  1  0.87527849  0.12730536  0.12911237  1
  Co  Co109  1  0.25434356  0.74612193  0.00145290  1
  Co  Co110  1  0.25068203  0.49673671  0.75140112  1
  Co  Co111  1  0.25004152  0.24793335  0.49808392  1
  Co  Co112  1  0.25238576  0.00304049  0.25162077  1
  Co  Co113  1  0.74553509  0.74680571  0.50221275  1
  Co  Co114  1  0.37553906  0.12475580  0.87431642  1
  Co  Co115  1  0.62308847  0.12588450  0.87562153  1
  Co  Co116  1  -0.00111466  -0.00520304  0.24971601  1
  Co  Co117  1  0.62542897  0.12449500  0.62592419  1
  Co  Co118  1  0.37554247  0.62791324  0.86829204  1
  Co  Co119  1  0.12344754  0.87829075  0.62196830  1
  Co  Co120  1  0.50121074  0.75314271  0.74762590  1
  Co  Co121  1  0.74582842  0.25009398  0.25252744  1
  Co  Co122  1  0.37735428  0.37302370  0.37669986  1
  Co  Co123  1  0.49858280  0.25096589  0.74694167  1
  Co  Co124  1  0.37306059  0.12297477  0.62531459  1
  Co  Co125  1  0.37414073  0.62066243  0.12787683  1
  Co  Co126  1  0.62466943  0.87452137  0.12550623  1
  Co  Co127  1  0.12358813  0.12716259  0.87466320  1
