# generated using pymatgen
data_Fe45Co19
_symmetry_space_group_name_H-M   'P 1'
_cell_length_a   11.41540405
_cell_length_b   11.41440909
_cell_length_c   11.41494345
_cell_angle_alpha   89.99700592
_cell_angle_beta   90.00419482
_cell_angle_gamma   90.00698166
_symmetry_Int_Tables_number   1
_chemical_formula_structural   Fe45Co19
_chemical_formula_sum   'Fe90 Co38'
_cell_volume   1487.36816080
_cell_formula_units_Z   2
loop_
 _symmetry_equiv_pos_site_id
 _symmetry_equiv_pos_as_xyz
  1  'x, y, z'
loop_
 _atom_site_type_symbol
 _atom_site_label
 _atom_site_symmetry_multiplicity
 _atom_site_fract_x
 _atom_site_fract_y
 _atom_site_fract_z
 _atom_site_occupancy
  Fe  Fe0  1  0.50708930  0.49899946  0.25350880  1
  Fe  Fe1  1  0.37291363  0.62713058  0.37405207  1
  Fe  Fe2  1  0.87309390  0.37768691  0.87508091  1
  Fe  Fe3  1  0.37574293  0.87401633  0.37635794  1
  Fe  Fe4  1  0.62273243  0.87521070  0.38025565  1
  Fe  Fe5  1  0.37468002  0.62527882  0.87226980  1
  Fe  Fe6  1  0.62813937  0.37811153  0.87759204  1
  Fe  Fe7  1  -0.00225979  0.24960824  0.75103338  1
  Fe  Fe8  1  0.62730635  0.12270581  0.62233077  1
  Fe  Fe9  1  0.12508494  0.12621247  0.87620461  1
  Fe  Fe10  1  0.62552369  0.12421485  0.37552471  1
  Fe  Fe11  1  0.87573595  0.87381589  0.12582734  1
  Fe  Fe12  1  0.37716540  0.62551819  0.12750752  1
  Fe  Fe13  1  0.75113308  0.00099956  0.00072926  1
  Fe  Fe14  1  0.74958562  0.25058131  0.74866414  1
  Fe  Fe15  1  0.12379087  0.62440897  0.87448929  1
  Fe  Fe16  1  0.12622308  0.62651236  0.37570448  1
  Fe  Fe17  1  0.24927332  0.75037376  0.74758152  1
  Fe  Fe18  1  0.12178645  0.62850422  0.62401526  1
  Fe  Fe19  1  -0.00288768  0.00274361  -0.00039403  1
  Fe  Fe20  1  0.12565389  0.12632643  0.62472665  1
  Fe  Fe21  1  0.12486575  0.37317234  0.62332594  1
  Fe  Fe22  1  0.75215322  0.25087602  0.00200700  1
  Fe  Fe23  1  -0.00351491  0.25006716  0.49837975  1
  Fe  Fe24  1  0.12453091  0.37401921  0.12364933  1
  Fe  Fe25  1  0.87226601  0.11912228  0.62739056  1
  Fe  Fe26  1  0.00102132  0.74936227  0.25117285  1
  Fe  Fe27  1  0.87511345  0.12730002  0.12766897  1
  Fe  Fe28  1  0.25176739  0.50063332  0.00086052  1
  Fe  Fe29  1  0.49942205  0.50326345  0.49897441  1
  Fe  Fe30  1  0.50172397  0.75025237  0.25152861  1
  Fe  Fe31  1  -0.00136539  -0.00130131  0.49955486  1
  Fe  Fe32  1  0.87191141  0.61998184  0.36904507  1
  Fe  Fe33  1  0.49892556  0.24737968  0.49900337  1
  Fe  Fe34  1  0.87248488  0.62075777  0.87122089  1
  Fe  Fe35  1  0.25022739  -0.00095648  0.50101104  1
  Fe  Fe36  1  0.37623318  0.12523784  0.37010624  1
  Fe  Fe37  1  0.24842285  -0.00175399  0.74777202  1
  Fe  Fe38  1  0.87693265  0.62422640  0.62604499  1
  Fe  Fe39  1  0.62666262  0.12478856  0.87669849  1
  Fe  Fe40  1  0.12314105  0.62607198  0.12509423  1
  Fe  Fe41  1  0.37518104  0.37371866  0.37333460  1
  Fe  Fe42  1  0.37434976  0.12587994  0.62779545  1
  Fe  Fe43  1  0.12363195  0.87492167  0.87439724  1
  Fe  Fe44  1  0.12270599  0.12634011  0.12594560  1
  Fe  Fe45  1  0.24850317  0.49935724  0.74885676  1
  Fe  Fe46  1  0.25208025  0.24975070  0.49792117  1
  Fe  Fe47  1  0.25397945  0.25020921  -0.00038666  1
  Fe  Fe48  1  0.12235087  0.87472680  0.12415092  1
  Fe  Fe49  1  0.87270383  0.12541598  0.37252030  1
  Fe  Fe50  1  0.37581224  0.87545428  0.87580661  1
  Fe  Fe51  1  0.37776547  0.87382877  0.62210728  1
  Fe  Fe52  1  -0.00338248  0.74772838  -0.00173797  1
  Fe  Fe53  1  0.37770438  0.12568263  0.12862527  1
  Fe  Fe54  1  0.87564029  0.87630101  0.37272775  1
  Fe  Fe55  1  0.37905345  0.37561566  0.12626054  1
  Fe  Fe56  1  0.87512937  0.87785709  0.87138572  1
  Fe  Fe57  1  0.62469868  0.37339988  0.62094855  1
  Fe  Fe58  1  0.37591079  0.37554141  0.62584882  1
  Fe  Fe59  1  0.25254231  0.25222610  0.75379941  1
  Fe  Fe60  1  -0.00407033  0.50046719  0.00252826  1
  Fe  Fe61  1  -0.00011121  0.49905443  0.49721631  1
  Fe  Fe62  1  0.49842117  0.24867941  -0.00161186  1
  Fe  Fe63  1  0.75013152  0.75219053  0.74724494  1
  Fe  Fe64  1  0.50327338  0.50007731  0.75011078  1
  Fe  Fe65  1  0.50083439  0.00038340  0.00205004  1
  Fe  Fe66  1  0.37639183  0.87371829  0.12540743  1
  Fe  Fe67  1  0.62465190  0.87224493  0.87721889  1
  Fe  Fe68  1  0.12548057  0.87278743  0.37726522  1
  Fe  Fe69  1  0.12369899  0.37562306  0.87677926  1
  Fe  Fe70  1  0.75372111  0.75252803  0.50158160  1
  Fe  Fe71  1  0.12508494  0.12544204  0.37460330  1
  Fe  Fe72  1  0.74746766  -0.00096097  0.24884272  1
  Fe  Fe73  1  0.75173585  0.74510043  0.00035385  1
  Fe  Fe74  1  0.62496668  0.87244410  0.12264163  1
  Fe  Fe75  1  0.25139057  0.74909398  0.00127912  1
  Fe  Fe76  1  0.24807107  0.49872452  0.24971974  1
  Fe  Fe77  1  0.50188197  0.74969523  0.74863683  1
  Fe  Fe78  1  0.74974822  0.49947125  0.50066119  1
  Fe  Fe79  1  0.74449572  0.25590994  0.24987406  1
  Fe  Fe80  1  0.50260253  -0.00015724  0.74909786  1
  Fe  Fe81  1  0.25067246  0.00096497  0.00137191  1
  Fe  Fe82  1  0.25089727  0.50132247  0.50164457  1
  Fe  Fe83  1  0.74796831  0.75053488  0.24992739  1
  Fe  Fe84  1  0.50075782  0.25048718  0.75213427  1
  Fe  Fe85  1  0.24866915  -0.00149549  0.24980167  1
  Fe  Fe86  1  0.50289441  0.50560280  -0.00235149  1
  Fe  Fe87  1  0.00124181  0.25482102  0.25308037  1
  Fe  Fe88  1  0.87484995  0.37567924  0.62370466  1
  Fe  Fe89  1  0.62548222  0.62665628  0.62358916  1
  Co  Co90  1  0.62119473  0.37578524  0.11892915  1
  Co  Co91  1  0.62811894  0.62565278  0.87279312  1
  Co  Co92  1  0.62387163  0.87538092  0.62011469  1
  Co  Co93  1  0.62997238  0.62611120  0.37629598  1
  Co  Co94  1  0.50293397  -0.00238239  0.24933695  1
  Co  Co95  1  0.74801253  0.49794689  0.74590121  1
  Co  Co96  1  0.87251556  0.12456021  0.87374054  1
  Co  Co97  1  0.74481271  -0.00204049  0.75180514  1
  Co  Co98  1  0.00412792  0.49749133  0.25108174  1
  Co  Co99  1  0.75272736  0.24799235  0.50076705  1
  Co  Co100  1  0.62467303  0.62740637  0.12674643  1
  Co  Co101  1  0.24911490  0.75125541  0.24804858  1
  Co  Co102  1  0.49852755  0.74713658  -0.00040475  1
  Co  Co103  1  0.37655214  0.37858729  0.87516549  1
  Co  Co104  1  0.62623134  0.12527964  0.12459135  1
  Co  Co105  1  0.87098614  0.37799113  0.37393368  1
  Co  Co106  1  0.49811774  0.00359378  0.49968765  1
  Co  Co107  1  -0.00592169  0.74992678  0.49720168  1
  Co  Co108  1  0.87483086  0.62432863  0.13226968  1
  Co  Co109  1  0.75212193  -0.00260664  0.49772591  1
  Co  Co110  1  -0.00279082  0.25058769  -0.00108352  1
  Co  Co111  1  0.87717347  0.87943993  0.62878208  1
  Co  Co112  1  0.12758705  0.37477113  0.37825332  1
  Co  Co113  1  0.37597462  0.62387655  0.62765285  1
  Co  Co114  1  0.24863274  0.25100961  0.24889071  1
  Co  Co115  1  0.75161601  0.50419486  0.00506552  1
  Co  Co116  1  0.62625528  0.37421664  0.38207831  1
  Co  Co117  1  0.87551650  0.37558494  0.12804378  1
  Co  Co118  1  0.50564336  0.25250419  0.25081595  1
  Co  Co119  1  -0.00010387  -0.00080807  0.25039513  1
  Co  Co120  1  0.37532633  0.12144835  0.87395815  1
  Co  Co121  1  0.12000021  0.87151657  0.62353419  1
  Co  Co122  1  0.49904379  0.74536565  0.49922112  1
  Co  Co123  1  -0.00242533  0.74895003  0.75178984  1
  Co  Co124  1  0.00089448  0.49824794  0.74879746  1
  Co  Co125  1  0.00344204  0.00266996  0.75116516  1
  Co  Co126  1  0.25213174  0.74946048  0.50295113  1
  Co  Co127  1  0.74246587  0.49505968  0.24567525  1
