# generated using pymatgen
data_Fe45Co19
_symmetry_space_group_name_H-M   'P 1'
_cell_length_a   11.41386808
_cell_length_b   11.41540923
_cell_length_c   11.41597132
_cell_angle_alpha   90.00189696
_cell_angle_beta   89.99638237
_cell_angle_gamma   90.00429547
_symmetry_Int_Tables_number   1
_chemical_formula_structural   Fe45Co19
_chemical_formula_sum   'Fe90 Co38'
_cell_volume   1487.43227531
_cell_formula_units_Z   2
loop_
 _symmetry_equiv_pos_site_id
 _symmetry_equiv_pos_as_xyz
  1  'x, y, z'
loop_
 _atom_site_type_symbol
 _atom_site_label
 _atom_site_symmetry_multiplicity
 _atom_site_fract_x
 _atom_site_fract_y
 _atom_site_fract_z
 _atom_site_occupancy
  Fe  Fe0  1  0.37586402  0.12394818  0.87347211  1
  Fe  Fe1  1  0.87498947  0.37192746  0.37400045  1
  Fe  Fe2  1  0.25080512  0.24680983  0.00061969  1
  Fe  Fe3  1  0.50113678  -0.00059010  0.74964523  1
  Fe  Fe4  1  -0.00674588  -0.00028649  -0.00106212  1
  Fe  Fe5  1  0.25406912  -0.00290823  -0.00086250  1
  Fe  Fe6  1  0.87479607  0.62599739  0.62569313  1
  Fe  Fe7  1  0.25138244  0.75021301  0.49753382  1
  Fe  Fe8  1  -0.00088522  0.75194935  0.25176604  1
  Fe  Fe9  1  0.24857123  0.50247773  0.00078724  1
  Fe  Fe10  1  0.00077470  0.24941892  0.75234393  1
  Fe  Fe11  1  0.75096583  0.49932691  0.49943352  1
  Fe  Fe12  1  0.25017049  0.24834087  0.24925849  1
  Fe  Fe13  1  0.50230156  0.50093687  0.75072032  1
  Fe  Fe14  1  0.24831106  0.49997755  0.75143968  1
  Fe  Fe15  1  0.12659130  0.62391398  0.37335077  1
  Fe  Fe16  1  0.50224154  0.24917063  0.74835372  1
  Fe  Fe17  1  0.74989378  0.25124808  0.74957824  1
  Fe  Fe18  1  0.49589377  0.49772397  0.49929906  1
  Fe  Fe19  1  0.12687357  0.37494976  0.37396974  1
  Fe  Fe20  1  0.25253747  0.00093351  0.49840962  1
  Fe  Fe21  1  0.49717838  0.75168781  0.49794425  1
  Fe  Fe22  1  0.12560721  0.37348552  0.62400344  1
  Fe  Fe23  1  0.75194608  0.00211205  0.49835242  1
  Fe  Fe24  1  0.49895576  0.24771513  0.00182403  1
  Fe  Fe25  1  0.75104137  -0.00181904  0.75046845  1
  Fe  Fe26  1  0.12339820  0.87616458  0.12314291  1
  Fe  Fe27  1  0.75246671  0.24846312  -0.00031388  1
  Fe  Fe28  1  0.49975233  0.75037042  0.00083292  1
  Fe  Fe29  1  0.50260937  0.75102200  0.74906364  1
  Fe  Fe30  1  0.62660206  0.87665817  0.62270852  1
  Fe  Fe31  1  0.00067244  0.50172646  0.49901534  1
  Fe  Fe32  1  0.25144411  0.75504676  0.25175059  1
  Fe  Fe33  1  0.12323206  0.12297762  0.12375621  1
  Fe  Fe34  1  0.61951010  0.12771408  0.37923969  1
  Fe  Fe35  1  0.74944757  0.75179709  0.24953249  1
  Fe  Fe36  1  0.00239011  0.75477625  0.74889459  1
  Fe  Fe37  1  0.12591487  0.62721755  0.12577658  1
  Fe  Fe38  1  0.24622577  0.75466398  0.75220645  1
  Fe  Fe39  1  0.62662616  0.12281587  0.87648039  1
  Fe  Fe40  1  0.37497347  0.62738357  0.12863165  1
  Fe  Fe41  1  0.62216170  0.37216942  0.37621892  1
  Fe  Fe42  1  0.74847175  0.75059415  0.74864064  1
  Fe  Fe43  1  0.12440018  0.12091600  0.87552034  1
  Fe  Fe44  1  0.87590134  0.37450791  0.62342073  1
  Fe  Fe45  1  -0.00120721  -0.00088359  0.25225157  1
  Fe  Fe46  1  0.37687380  0.12457951  0.62513074  1
  Fe  Fe47  1  0.12120229  0.87575325  0.37986212  1
  Fe  Fe48  1  0.62546458  0.37436305  0.62354549  1
  Fe  Fe49  1  0.12518246  0.12317248  0.62436478  1
  Fe  Fe50  1  0.25337235  0.49820662  0.49924999  1
  Fe  Fe51  1  0.12480222  0.37495296  0.87790970  1
  Fe  Fe52  1  0.87590656  0.12774396  0.12842955  1
  Fe  Fe53  1  0.87363333  0.12546679  0.62547931  1
  Fe  Fe54  1  -0.00018707  0.49801817  0.24758509  1
  Fe  Fe55  1  0.00071056  0.50050145  0.75062383  1
  Fe  Fe56  1  0.37495079  0.62711280  0.87364992  1
  Fe  Fe57  1  0.00046705  0.75003170  -0.00227250  1
  Fe  Fe58  1  0.62468802  0.62344412  0.62327281  1
  Fe  Fe59  1  0.75154526  0.74911329  0.49965565  1
  Fe  Fe60  1  0.50224834  0.50311322  -0.00002664  1
  Fe  Fe61  1  0.75004422  -0.00099702  0.25056168  1
  Fe  Fe62  1  0.37614072  0.11894866  0.13045155  1
  Fe  Fe63  1  0.12282180  0.37266801  0.12314374  1
  Fe  Fe64  1  0.50000292  0.50049495  0.25000862  1
  Fe  Fe65  1  -0.00160379  -0.00414017  0.74830338  1
  Fe  Fe66  1  0.75037361  0.49899848  0.24856068  1
  Fe  Fe67  1  0.37514447  0.37455863  0.87487132  1
  Fe  Fe68  1  0.12485252  0.12496123  0.37521894  1
  Fe  Fe69  1  0.25127281  0.75341136  -0.00118806  1
  Fe  Fe70  1  0.37520716  0.37529008  0.12569691  1
  Fe  Fe71  1  0.87430686  0.62526964  0.12522861  1
  Fe  Fe72  1  0.37349196  0.87580107  0.62568386  1
  Fe  Fe73  1  0.62635002  0.37601836  0.87668531  1
  Fe  Fe74  1  0.87324793  0.62454417  0.87459893  1
  Fe  Fe75  1  0.24885202  0.24845148  0.75084771  1
  Fe  Fe76  1  0.25552403  0.25083762  0.49899243  1
  Fe  Fe77  1  0.37421115  0.62531855  0.62628201  1
  Fe  Fe78  1  0.62476878  0.12233082  0.12253803  1
  Fe  Fe79  1  0.87486189  0.62636189  0.37418635  1
  Fe  Fe80  1  0.62585837  0.37533501  0.12371775  1
  Fe  Fe81  1  0.74791020  0.74882062  0.00209678  1
  Fe  Fe82  1  0.74767358  0.24956328  0.25094037  1
  Fe  Fe83  1  0.62502115  0.87445239  0.37606679  1
  Fe  Fe84  1  0.87505012  0.37773586  0.87851641  1
  Fe  Fe85  1  -0.00131420  0.24757798  0.49813800  1
  Fe  Fe86  1  0.12619065  0.62607518  0.62480996  1
  Fe  Fe87  1  0.62280180  0.87678609  0.12384691  1
  Fe  Fe88  1  0.62329043  0.62578236  0.37433301  1
  Fe  Fe89  1  0.62549246  0.87688559  0.87832544  1
  Co  Co90  1  0.49689995  0.00033469  -0.00107802  1
  Co  Co91  1  0.12495762  0.62589226  0.87458601  1
  Co  Co92  1  0.87537052  0.87429606  0.37665363  1
  Co  Co93  1  -0.00333397  0.00307563  0.49979467  1
  Co  Co94  1  0.00009607  0.74707671  0.50105399  1
  Co  Co95  1  0.00126124  0.50238563  0.00238507  1
  Co  Co96  1  0.37402368  0.37566218  0.63029274  1
  Co  Co97  1  0.37566952  0.37272841  0.36981778  1
  Co  Co98  1  0.25051946  -0.00098446  0.74983733  1
  Co  Co99  1  0.00269839  0.25023134  0.25143249  1
  Co  Co100  1  0.75444766  0.00085058  0.00212599  1
  Co  Co101  1  0.49584655  0.25260395  0.50314162  1
  Co  Co102  1  0.62361197  0.62625044  0.12923536  1
  Co  Co103  1  0.49966613  -0.00214750  0.50188570  1
  Co  Co104  1  0.12437472  0.87969940  0.87748209  1
  Co  Co105  1  0.87425032  0.87447392  0.62091095  1
  Co  Co106  1  0.24865166  0.49879910  0.24734746  1
  Co  Co107  1  0.75074745  0.24925314  0.50046669  1
  Co  Co108  1  0.37679941  0.87712602  0.12873476  1
  Co  Co109  1  0.87508823  0.37189465  0.12414732  1
  Co  Co110  1  0.87393798  0.12437876  0.87207685  1
  Co  Co111  1  0.37429258  0.62344681  0.37212081  1
  Co  Co112  1  0.49893508  0.75226931  0.25245335  1
  Co  Co113  1  0.12592702  0.87741574  0.62019416  1
  Co  Co114  1  0.87241501  0.87201340  0.87614038  1
  Co  Co115  1  0.37651461  0.87974046  0.37323389  1
  Co  Co116  1  0.24502929  -0.00242868  0.25221825  1
  Co  Co117  1  0.37716426  0.87438490  0.87272719  1
  Co  Co118  1  0.62680985  0.62576595  0.87368517  1
  Co  Co119  1  0.50518443  -0.00106260  0.25169074  1
  Co  Co120  1  0.37862865  0.12442026  0.37228703  1
  Co  Co121  1  0.62646380  0.12457576  0.62360566  1
  Co  Co122  1  0.74985887  0.49931602  0.74850327  1
  Co  Co123  1  0.74849777  0.50249654  0.00243073  1
  Co  Co124  1  0.87423918  0.12617007  0.37216432  1
  Co  Co125  1  0.87554524  0.87347865  0.12593702  1
  Co  Co126  1  -0.00076685  0.24712678  -0.00236968  1
  Co  Co127  1  0.50071036  0.24851210  0.24561094  1
