# generated using pymatgen
data_Fe45Co19
_symmetry_space_group_name_H-M   'P 1'
_cell_length_a   11.41297291
_cell_length_b   11.41505030
_cell_length_c   11.41344111
_cell_angle_alpha   90.00056782
_cell_angle_beta   90.01448345
_cell_angle_gamma   89.99808622
_symmetry_Int_Tables_number   1
_chemical_formula_structural   Fe45Co19
_chemical_formula_sum   'Fe90 Co38'
_cell_volume   1486.93917624
_cell_formula_units_Z   2
loop_
 _symmetry_equiv_pos_site_id
 _symmetry_equiv_pos_as_xyz
  1  'x, y, z'
loop_
 _atom_site_type_symbol
 _atom_site_label
 _atom_site_symmetry_multiplicity
 _atom_site_fract_x
 _atom_site_fract_y
 _atom_site_fract_z
 _atom_site_occupancy
  Fe  Fe0  1  0.24911134  0.25115024  0.75156725  1
  Fe  Fe1  1  0.24960772  -0.00254854  0.25120003  1
  Fe  Fe2  1  0.12907780  0.87420361  0.87302056  1
  Fe  Fe3  1  0.49852430  0.24906459  -0.00336625  1
  Fe  Fe4  1  0.49751772  0.75253279  -0.00406028  1
  Fe  Fe5  1  0.12408143  0.12342382  0.37670990  1
  Fe  Fe6  1  0.74940730  0.50042145  0.50461213  1
  Fe  Fe7  1  0.62118748  0.37464722  0.87090330  1
  Fe  Fe8  1  0.24907074  0.49974466  -0.00071908  1
  Fe  Fe9  1  0.12332583  0.37488308  0.12322448  1
  Fe  Fe10  1  0.50213359  0.00005419  0.50064628  1
  Fe  Fe11  1  0.75265546  0.74838815  -0.00132360  1
  Fe  Fe12  1  0.25236425  0.25163932  0.49916510  1
  Fe  Fe13  1  0.37709317  0.37528182  0.12644413  1
  Fe  Fe14  1  0.37298391  0.62332949  0.62475962  1
  Fe  Fe15  1  0.00192185  0.50161237  0.50362600  1
  Fe  Fe16  1  0.50013649  0.50011689  -0.00178550  1
  Fe  Fe17  1  0.12388014  0.37609021  0.37805690  1
  Fe  Fe18  1  -0.00247508  0.74805630  0.25264636  1
  Fe  Fe19  1  0.75005266  0.00174390  0.50395527  1
  Fe  Fe20  1  -0.00086167  0.74952854  -0.00332276  1
  Fe  Fe21  1  0.49865222  0.75059008  0.50167457  1
  Fe  Fe22  1  0.12445682  0.12625379  0.12457724  1
  Fe  Fe23  1  0.75168854  -0.00122077  0.24745235  1
  Fe  Fe24  1  0.62567386  0.62464112  0.12197110  1
  Fe  Fe25  1  0.75184578  0.74901596  0.25127149  1
  Fe  Fe26  1  0.37958786  0.37616476  0.37368455  1
  Fe  Fe27  1  0.87919170  0.37177137  0.62747491  1
  Fe  Fe28  1  0.87742521  0.87625493  0.37741249  1
  Fe  Fe29  1  0.37654919  0.37573432  0.62734584  1
  Fe  Fe30  1  0.87584037  0.37561305  0.12543092  1
  Fe  Fe31  1  0.37527305  0.12555836  0.12483504  1
  Fe  Fe32  1  0.12528661  0.62683691  0.87072493  1
  Fe  Fe33  1  0.74797618  0.50018955  0.24888498  1
  Fe  Fe34  1  0.25056796  -0.00212194  0.00143678  1
  Fe  Fe35  1  0.37184875  0.62372807  0.87369226  1
  Fe  Fe36  1  0.74766024  0.24957220  0.50027000  1
  Fe  Fe37  1  0.87418240  0.12387591  0.37527573  1
  Fe  Fe38  1  0.37578550  0.12246330  0.62610338  1
  Fe  Fe39  1  0.74729099  0.25090588  0.25277351  1
  Fe  Fe40  1  0.87458867  0.62304114  0.12394406  1
  Fe  Fe41  1  0.50123596  0.74941428  0.25003808  1
  Fe  Fe42  1  0.12517944  0.12470643  0.87656535  1
  Fe  Fe43  1  -0.00188595  0.00043880  0.24779638  1
  Fe  Fe44  1  0.75100307  0.00263140  -0.00084235  1
  Fe  Fe45  1  0.75145777  0.75096477  0.75068417  1
  Fe  Fe46  1  0.12377348  0.12965784  0.62283281  1
  Fe  Fe47  1  0.12338164  0.87308373  0.12504272  1
  Fe  Fe48  1  0.50152781  0.50121152  0.50174133  1
  Fe  Fe49  1  -0.00231136  0.00087989  0.00084801  1
  Fe  Fe50  1  0.62624127  0.62341916  0.37729921  1
  Fe  Fe51  1  -0.00012469  0.25044393  0.25186320  1
  Fe  Fe52  1  0.87323319  0.87733986  0.87504596  1
  Fe  Fe53  1  0.24953853  0.25126158  0.25097244  1
  Fe  Fe54  1  0.50025772  0.00007038  0.24870797  1
  Fe  Fe55  1  0.87469557  0.12795226  0.62947865  1
  Fe  Fe56  1  0.37478302  0.87411649  0.12318669  1
  Fe  Fe57  1  0.24469111  0.49702300  0.74718170  1
  Fe  Fe58  1  0.00109519  0.00034546  0.74924786  1
  Fe  Fe59  1  0.62548217  0.87592848  0.37573488  1
  Fe  Fe60  1  -0.00297266  0.24760338  -0.00216276  1
  Fe  Fe61  1  0.12585510  0.62428216  0.37753590  1
  Fe  Fe62  1  0.25041079  0.49930706  0.25054909  1
  Fe  Fe63  1  -0.00044435  0.50207846  -0.00213730  1
  Fe  Fe64  1  0.37582236  0.12348568  0.37473612  1
  Fe  Fe65  1  0.37392094  0.12173028  0.87439731  1
  Fe  Fe66  1  0.25075035  0.75350553  0.50116077  1
  Fe  Fe67  1  0.74968059  0.49975209  0.74906571  1
  Fe  Fe68  1  0.25179169  0.25215945  -0.00174223  1
  Fe  Fe69  1  0.87801668  0.37692694  0.87194884  1
  Fe  Fe70  1  0.75158556  0.25111000  -0.00395803  1
  Fe  Fe71  1  0.87678659  0.87409412  0.62495123  1
  Fe  Fe72  1  0.50422722  -0.00126933  0.75386091  1
  Fe  Fe73  1  0.87882881  0.62676188  0.62822921  1
  Fe  Fe74  1  0.24893078  -0.00326802  0.50044653  1
  Fe  Fe75  1  0.49843258  0.75026938  0.75152494  1
  Fe  Fe76  1  0.24969295  0.75218864  0.25164034  1
  Fe  Fe77  1  0.75255183  0.74850400  0.50000421  1
  Fe  Fe78  1  0.87467881  0.37865164  0.37609733  1
  Fe  Fe79  1  0.62215145  0.37343701  0.62806633  1
  Fe  Fe80  1  0.62602114  0.87463126  0.12181743  1
  Fe  Fe81  1  0.37474863  0.62496504  0.37632890  1
  Fe  Fe82  1  0.62729478  0.62469317  0.87386937  1
  Fe  Fe83  1  0.50308103  0.24757485  0.49924527  1
  Fe  Fe84  1  0.62227778  0.37469029  0.12566454  1
  Fe  Fe85  1  0.62533236  0.12590844  0.12321987  1
  Fe  Fe86  1  0.37427437  0.62518710  0.12412447  1
  Fe  Fe87  1  0.12327625  0.87123624  0.62510258  1
  Fe  Fe88  1  0.12423533  0.62563405  0.12520701  1
  Fe  Fe89  1  0.62480640  0.87312284  0.62575875  1
  Co  Co90  1  0.37010967  0.87728421  0.87232682  1
  Co  Co91  1  0.87386343  0.62050930  0.37638391  1
  Co  Co92  1  0.50214809  0.24704042  0.25154558  1
  Co  Co93  1  0.12437454  0.62935449  0.62585958  1
  Co  Co94  1  0.00396148  0.24943100  0.75316762  1
  Co  Co95  1  0.24597988  0.00239333  0.74685106  1
  Co  Co96  1  -0.00309038  0.24904809  0.49689244  1
  Co  Co97  1  0.00113848  0.50014969  0.25019632  1
  Co  Co98  1  0.00386175  0.49870633  0.74779417  1
  Co  Co99  1  -0.00090676  0.74761247  0.49806950  1
  Co  Co100  1  0.49629662  0.24678937  0.75103907  1
  Co  Co101  1  0.74823453  -0.00246232  0.74838274  1
  Co  Co102  1  0.75008866  0.25273227  0.75105569  1
  Co  Co103  1  0.62575327  0.12648688  0.62911081  1
  Co  Co104  1  0.74897797  0.49663439  -0.00159292  1
  Co  Co105  1  0.37526405  0.37792061  0.87211549  1
  Co  Co106  1  0.50089365  0.50345949  0.24918519  1
  Co  Co107  1  0.37679704  0.87879883  0.62839363  1
  Co  Co108  1  0.87361627  0.62240642  0.87283929  1
  Co  Co109  1  0.12094859  0.87614895  0.37582410  1
  Co  Co110  1  0.62584629  0.62765420  0.62631904  1
  Co  Co111  1  0.62731003  0.12713417  0.87358795  1
  Co  Co112  1  0.62395408  0.37877636  0.37654819  1
  Co  Co113  1  0.87531105  0.87229484  0.12283139  1
  Co  Co114  1  0.50031943  -0.00097112  -0.00311265  1
  Co  Co115  1  0.24974242  0.49792957  0.50128439  1
  Co  Co116  1  0.24982932  0.75011585  -0.00026666  1
  Co  Co117  1  0.12307969  0.37015021  0.62211906  1
  Co  Co118  1  0.50062088  0.50445964  0.74971102  1
  Co  Co119  1  0.62868589  0.87279868  0.87656532  1
  Co  Co120  1  0.87329865  0.12837105  0.12589511  1
  Co  Co121  1  0.25355954  0.74990308  0.74652014  1
  Co  Co122  1  -0.00202217  0.75252032  0.75353641  1
  Co  Co123  1  -0.00057447  0.00178361  0.50423198  1
  Co  Co124  1  0.87377330  0.12351111  0.87044164  1
  Co  Co125  1  0.12350172  0.37448636  0.87793200  1
  Co  Co126  1  0.37722566  0.87540303  0.37536015  1
  Co  Co127  1  0.62675838  0.12115984  0.37488174  1
