# generated using pymatgen
data_Fe45Co19
_symmetry_space_group_name_H-M   'P 1'
_cell_length_a   11.41567973
_cell_length_b   11.41484948
_cell_length_c   11.41674301
_cell_angle_alpha   89.99436171
_cell_angle_beta   89.99396815
_cell_angle_gamma   90.00443477
_symmetry_Int_Tables_number   1
_chemical_formula_structural   Fe45Co19
_chemical_formula_sum   'Fe90 Co38'
_cell_volume   1487.69596293
_cell_formula_units_Z   2
loop_
 _symmetry_equiv_pos_site_id
 _symmetry_equiv_pos_as_xyz
  1  'x, y, z'
loop_
 _atom_site_type_symbol
 _atom_site_label
 _atom_site_symmetry_multiplicity
 _atom_site_fract_x
 _atom_site_fract_y
 _atom_site_fract_z
 _atom_site_occupancy
  Fe  Fe0  1  0.12463974  0.12560196  0.12490826  1
  Fe  Fe1  1  -0.00167025  0.24937862  0.25068832  1
  Fe  Fe2  1  0.37852514  0.37668436  0.37535808  1
  Fe  Fe3  1  0.37451229  0.87477208  0.87546750  1
  Fe  Fe4  1  0.87523680  0.12417308  0.37484945  1
  Fe  Fe5  1  0.75196263  0.75324427  0.75102634  1
  Fe  Fe6  1  0.12403641  0.12231521  0.62456303  1
  Fe  Fe7  1  0.37622311  0.37556354  0.87350581  1
  Fe  Fe8  1  0.75057874  0.75327331  0.49706229  1
  Fe  Fe9  1  0.87682577  0.63074605  0.62557745  1
  Fe  Fe10  1  0.12481644  0.62619970  0.37704917  1
  Fe  Fe11  1  0.25185024  -0.00157918  0.74719354  1
  Fe  Fe12  1  0.37562290  0.87361873  0.37535113  1
  Fe  Fe13  1  0.87346346  0.37535747  0.37600416  1
  Fe  Fe14  1  0.24683075  0.75244573  0.50128385  1
  Fe  Fe15  1  0.62497890  0.37693502  0.37312058  1
  Fe  Fe16  1  0.50248449  0.50125109  0.74738882  1
  Fe  Fe17  1  -0.00096608  0.24841915  0.50207109  1
  Fe  Fe18  1  0.50152192  0.24924647  -0.00016547  1
  Fe  Fe19  1  0.62416155  0.62780303  0.12472142  1
  Fe  Fe20  1  0.37961933  0.12661470  0.62351180  1
  Fe  Fe21  1  0.12339981  0.37556668  0.12595225  1
  Fe  Fe22  1  0.50087921  0.74890748  0.25166340  1
  Fe  Fe23  1  0.12025005  0.87383770  0.12808907  1
  Fe  Fe24  1  0.50090604  -0.00144597  0.74859670  1
  Fe  Fe25  1  -0.00101434  -0.00573429  0.75147205  1
  Fe  Fe26  1  0.12552330  0.12352946  0.87423651  1
  Fe  Fe27  1  0.75118306  0.50146684  0.24860386  1
  Fe  Fe28  1  0.25113591  0.25026256  0.74697835  1
  Fe  Fe29  1  0.74953542  -0.00184753  0.00070933  1
  Fe  Fe30  1  0.50231012  0.50113570  0.00031948  1
  Fe  Fe31  1  0.37712444  0.37560495  0.12637080  1
  Fe  Fe32  1  0.62492954  0.87390719  0.87868431  1
  Fe  Fe33  1  0.24911543  0.74933632  0.25033275  1
  Fe  Fe34  1  0.62714964  0.12626437  0.12647544  1
  Fe  Fe35  1  0.75060305  0.49918384  0.00117620  1
  Fe  Fe36  1  0.37633579  0.12491728  0.37593523  1
  Fe  Fe37  1  0.75046345  0.50135378  0.74728409  1
  Fe  Fe38  1  0.74761093  0.24717798  0.50146675  1
  Fe  Fe39  1  0.24911391  0.49988560  -0.00115773  1
  Fe  Fe40  1  0.24779221  0.49975194  0.74771652  1
  Fe  Fe41  1  0.24994223  -0.00255969  0.00248629  1
  Fe  Fe42  1  0.25086640  0.24998244  0.25126010  1
  Fe  Fe43  1  0.50397139  0.50388249  0.50103311  1
  Fe  Fe44  1  0.75356996  0.75151999  0.00082457  1
  Fe  Fe45  1  0.87374613  0.37609781  0.87472644  1
  Fe  Fe46  1  -0.00307602  0.24806725  0.74752055  1
  Fe  Fe47  1  0.62718834  0.37305714  0.87198442  1
  Fe  Fe48  1  0.87416379  0.62657643  0.37675440  1
  Fe  Fe49  1  0.62670171  0.87803341  0.62113107  1
  Fe  Fe50  1  0.37516731  0.12401707  0.87535312  1
  Fe  Fe51  1  0.12133119  0.62743400  0.87616852  1
  Fe  Fe52  1  0.62163251  0.12249758  0.37725399  1
  Fe  Fe53  1  0.25151457  -0.00347889  0.50189997  1
  Fe  Fe54  1  0.37577379  0.62571433  0.87401704  1
  Fe  Fe55  1  0.49986954  -0.00260825  0.24893348  1
  Fe  Fe56  1  0.25023200  0.25052197  -0.00054219  1
  Fe  Fe57  1  -0.00132651  0.50094004  0.25068143  1
  Fe  Fe58  1  0.87228755  0.12253252  0.87378408  1
  Fe  Fe59  1  0.62735323  0.62627115  0.87522655  1
  Fe  Fe60  1  0.50221404  0.74881136  0.49911150  1
  Fe  Fe61  1  0.12317086  0.37430351  0.37610712  1
  Fe  Fe62  1  0.74756276  0.50254969  0.50225424  1
  Fe  Fe63  1  0.74976614  -0.00301312  0.25296390  1
  Fe  Fe64  1  0.12336454  0.37297096  0.87266048  1
  Fe  Fe65  1  0.87022769  0.11796488  0.62583717  1
  Fe  Fe66  1  0.62658892  0.37179530  0.12821505  1
  Fe  Fe67  1  0.37656188  0.62579587  0.12435036  1
  Fe  Fe68  1  0.24818961  0.49948394  0.50197515  1
  Fe  Fe69  1  0.25042737  0.75167197  0.00078062  1
  Fe  Fe70  1  0.37433771  0.62621430  0.62452819  1
  Fe  Fe71  1  0.25095325  0.50197833  0.25095943  1
  Fe  Fe72  1  0.50081440  -0.00173655  0.00140319  1
  Fe  Fe73  1  0.87237271  0.12521468  0.12647365  1
  Fe  Fe74  1  0.24723745  0.75160514  0.74806767  1
  Fe  Fe75  1  0.62656291  0.12725207  0.87112896  1
  Fe  Fe76  1  0.25014217  0.25187329  0.50204209  1
  Fe  Fe77  1  -0.00310877  0.25072209  0.00016990  1
  Fe  Fe78  1  0.75101043  0.75170902  0.24981510  1
  Fe  Fe79  1  -0.00013419  0.50279934  0.74933664  1
  Fe  Fe80  1  0.87476508  0.37563968  0.62353201  1
  Fe  Fe81  1  0.12172651  0.62514208  0.12204883  1
  Fe  Fe82  1  -0.00165625  -0.00514642  0.49761078  1
  Fe  Fe83  1  0.87855750  0.62525088  0.12167390  1
  Fe  Fe84  1  0.12593025  0.12368078  0.37663159  1
  Fe  Fe85  1  0.24965869  -0.00127516  0.24958561  1
  Fe  Fe86  1  0.50207919  0.75072008  0.75000258  1
  Fe  Fe87  1  0.37515679  0.12478239  0.12497188  1
  Fe  Fe88  1  -0.00099787  -0.00267582  0.00014005  1
  Fe  Fe89  1  0.00079510  0.50231792  0.50096075  1
  Co  Co90  1  0.50045165  0.50382095  0.24974290  1
  Co  Co91  1  0.87422083  0.62427396  0.87493694  1
  Co  Co92  1  0.62573884  0.12204896  0.62548088  1
  Co  Co93  1  0.50290013  0.25097569  0.49982575  1
  Co  Co94  1  0.75106770  0.24974805  -0.00204646  1
  Co  Co95  1  0.87325517  0.37373517  0.12708174  1
  Co  Co96  1  -0.00066654  0.49771947  -0.00105009  1
  Co  Co97  1  0.12293506  0.62659703  0.62525342  1
  Co  Co98  1  -0.00016993  0.74552493  0.25165287  1
  Co  Co99  1  0.49909517  0.25043060  0.74882034  1
  Co  Co100  1  0.62520805  0.87319939  0.12459933  1
  Co  Co101  1  0.12841087  0.87643783  0.87513748  1
  Co  Co102  1  0.37687277  0.87301064  0.12610596  1
  Co  Co103  1  0.12228483  0.87627729  0.62545037  1
  Co  Co104  1  0.87235922  0.87529368  0.62381672  1
  Co  Co105  1  0.75151668  -0.00104990  0.49485446  1
  Co  Co106  1  0.74662986  -0.00349929  0.75165373  1
  Co  Co107  1  0.12213545  0.37440247  0.62545040  1
  Co  Co108  1  0.49972941  0.24807480  0.25066574  1
  Co  Co109  1  0.75280127  0.24951152  0.74643280  1
  Co  Co110  1  0.87241518  0.87660894  0.87546432  1
  Co  Co111  1  0.62785264  0.62923955  0.62617852  1
  Co  Co112  1  0.87815235  0.87311614  0.37115929  1
  Co  Co113  1  0.62569951  0.37325936  0.62565646  1
  Co  Co114  1  -0.00244669  0.75399268  -0.00348502  1
  Co  Co115  1  0.00002085  0.00409288  0.25125014  1
  Co  Co116  1  0.00153422  0.75303931  0.49949230  1
  Co  Co117  1  0.75005937  0.24805873  0.25474817  1
  Co  Co118  1  0.62784667  0.62547043  0.37273804  1
  Co  Co119  1  0.37712478  0.87123322  0.62506765  1
  Co  Co120  1  0.87697337  0.87649176  0.12885915  1
  Co  Co121  1  0.37683192  0.37823704  0.62338903  1
  Co  Co122  1  0.49845342  0.74932844  -0.00173991  1
  Co  Co123  1  0.37422833  0.62604704  0.37789826  1
  Co  Co124  1  0.62301049  0.87484573  0.37548099  1
  Co  Co125  1  0.12413018  0.87602226  0.37237283  1
  Co  Co126  1  0.49762325  -0.00158292  0.50157837  1
  Co  Co127  1  -0.00107356  0.75393864  0.75274883  1
