# generated using pymatgen
data_Fe45Co19
_symmetry_space_group_name_H-M   'P 1'
_cell_length_a   11.41475920
_cell_length_b   11.41536006
_cell_length_c   11.41378607
_cell_angle_alpha   90.00364186
_cell_angle_beta   89.98464553
_cell_angle_gamma   89.99737229
_symmetry_Int_Tables_number   1
_chemical_formula_structural   Fe45Co19
_chemical_formula_sum   'Fe90 Co38'
_cell_volume   1487.25719910
_cell_formula_units_Z   2
loop_
 _symmetry_equiv_pos_site_id
 _symmetry_equiv_pos_as_xyz
  1  'x, y, z'
loop_
 _atom_site_type_symbol
 _atom_site_label
 _atom_site_symmetry_multiplicity
 _atom_site_fract_x
 _atom_site_fract_y
 _atom_site_fract_z
 _atom_site_occupancy
  Fe  Fe0  1  0.49989347  0.49871197  0.74851303  1
  Fe  Fe1  1  0.00012641  0.25306126  0.49909966  1
  Fe  Fe2  1  0.87561866  0.12474723  0.12474629  1
  Fe  Fe3  1  0.87485120  0.12415601  0.37552029  1
  Fe  Fe4  1  0.74811118  0.00163648  0.50316592  1
  Fe  Fe5  1  0.87322587  0.87339247  0.12557815  1
  Fe  Fe6  1  0.12497202  0.12558196  0.12584253  1
  Fe  Fe7  1  0.62061768  0.62825272  0.12511593  1
  Fe  Fe8  1  0.00608739  0.49632528  0.74920938  1
  Fe  Fe9  1  0.00079724  0.50050844  0.00233660  1
  Fe  Fe10  1  0.00109885  -0.00144548  -0.00035399  1
  Fe  Fe11  1  0.50208154  -0.00009751  0.74739007  1
  Fe  Fe12  1  0.62597715  0.87221314  0.37627979  1
  Fe  Fe13  1  0.12327468  0.12530275  0.37364993  1
  Fe  Fe14  1  0.24878108  0.00256232  0.50113785  1
  Fe  Fe15  1  0.12790873  0.87332874  0.87471326  1
  Fe  Fe16  1  0.12294782  0.12785404  0.87273397  1
  Fe  Fe17  1  0.37233163  0.37695340  0.87522150  1
  Fe  Fe18  1  0.75155552  0.25138869  0.25004778  1
  Fe  Fe19  1  0.74980351  0.74758983  0.50226664  1
  Fe  Fe20  1  0.87834210  0.62548836  0.37554560  1
  Fe  Fe21  1  0.24791997  0.74750628  0.49914404  1
  Fe  Fe22  1  0.37602360  0.12447276  0.87606551  1
  Fe  Fe23  1  0.24930776  0.00178740  0.74954459  1
  Fe  Fe24  1  0.87731678  0.62424714  0.62631342  1
  Fe  Fe25  1  0.50023147  0.74894424  0.74783477  1
  Fe  Fe26  1  0.12319582  0.37499050  0.12818893  1
  Fe  Fe27  1  0.87764284  0.12273073  0.87290097  1
  Fe  Fe28  1  0.25178642  -0.00149685  -0.00034209  1
  Fe  Fe29  1  0.62909227  0.37317730  0.11946025  1
  Fe  Fe30  1  0.25105571  0.25184142  0.25301088  1
  Fe  Fe31  1  0.62264887  0.12793937  0.87682693  1
  Fe  Fe32  1  0.87619202  0.62599789  0.12545619  1
  Fe  Fe33  1  -0.00036919  -0.00157734  0.24950677  1
  Fe  Fe34  1  0.00156997  0.74991722  0.74922711  1
  Fe  Fe35  1  0.37473534  0.61970283  0.37416220  1
  Fe  Fe36  1  0.62549393  0.62228226  0.37616465  1
  Fe  Fe37  1  0.12673345  0.87328831  0.62519720  1
  Fe  Fe38  1  0.50177153  0.00075559  0.50041878  1
  Fe  Fe39  1  0.24361467  0.49845100  0.49922538  1
  Fe  Fe40  1  0.62616314  0.12860326  0.37745405  1
  Fe  Fe41  1  0.74866333  0.50066042  0.75089352  1
  Fe  Fe42  1  0.87442719  0.87324453  0.37514743  1
  Fe  Fe43  1  0.50038324  0.74555407  0.50110075  1
  Fe  Fe44  1  0.75151074  0.49924710  0.49914765  1
  Fe  Fe45  1  0.37093900  0.62262526  0.62563361  1
  Fe  Fe46  1  0.24942847  0.25083315  0.49577531  1
  Fe  Fe47  1  0.74807639  -0.00040316  0.24915696  1
  Fe  Fe48  1  0.50174770  0.49874392  -0.00184118  1
  Fe  Fe49  1  0.74892596  0.00078229  0.00026498  1
  Fe  Fe50  1  0.25713692  0.75005020  0.00323574  1
  Fe  Fe51  1  0.50162014  0.49741427  0.25115621  1
  Fe  Fe52  1  -0.00182476  0.25142097  -0.00019325  1
  Fe  Fe53  1  0.75073334  0.50051928  0.24777886  1
  Fe  Fe54  1  0.11984657  0.62418603  0.37298952  1
  Fe  Fe55  1  0.37394223  0.62423877  0.87356140  1
  Fe  Fe56  1  0.87369446  0.87417725  0.62634302  1
  Fe  Fe57  1  0.49875060  0.25458021  0.49679368  1
  Fe  Fe58  1  0.12718832  0.87192383  0.12633977  1
  Fe  Fe59  1  0.37592549  0.12464161  0.12604870  1
  Fe  Fe60  1  0.12619385  0.62537846  0.87596298  1
  Fe  Fe61  1  0.87151224  0.37941038  0.88003361  1
  Fe  Fe62  1  0.62615332  0.37542197  0.62257483  1
  Fe  Fe63  1  0.00055205  -0.00120173  0.50187510  1
  Fe  Fe64  1  0.37437792  0.87396441  0.62481821  1
  Fe  Fe65  1  0.74659955  0.00159165  0.74744751  1
  Fe  Fe66  1  0.62321880  0.12816278  0.12277172  1
  Fe  Fe67  1  0.62545001  0.87259749  0.87412882  1
  Fe  Fe68  1  0.50114639  -0.00012069  0.25213655  1
  Fe  Fe69  1  0.37628682  0.12690691  0.62364463  1
  Fe  Fe70  1  0.74974759  0.25055921  0.75163142  1
  Fe  Fe71  1  -0.00131981  0.74990157  -0.00050910  1
  Fe  Fe72  1  0.62270477  0.86993872  0.12565854  1
  Fe  Fe73  1  0.25129936  -0.00016027  0.25070403  1
  Fe  Fe74  1  0.24952748  0.50138904  0.00275083  1
  Fe  Fe75  1  0.49837779  -0.00337171  0.00039236  1
  Fe  Fe76  1  0.49884956  0.25321721  0.25198915  1
  Fe  Fe77  1  0.37431373  0.37740687  0.12630040  1
  Fe  Fe78  1  0.37078852  0.37654338  0.62329339  1
  Fe  Fe79  1  0.12216606  0.13014303  0.62925116  1
  Fe  Fe80  1  0.25109486  0.25020876  -0.00009575  1
  Fe  Fe81  1  0.87885080  0.37703887  0.37185645  1
  Fe  Fe82  1  0.87509229  0.37548426  0.62490939  1
  Fe  Fe83  1  0.49936868  0.25363299  0.75146148  1
  Fe  Fe84  1  0.37360865  0.87477703  0.37538467  1
  Fe  Fe85  1  0.62518823  0.62488001  0.87301568  1
  Fe  Fe86  1  0.75073976  0.74638687  -0.00255465  1
  Fe  Fe87  1  0.87366190  0.87487537  0.87299762  1
  Fe  Fe88  1  0.12473168  0.87246793  0.37338324  1
  Fe  Fe89  1  0.87671822  0.12662718  0.62687474  1
  Co  Co90  1  0.49658234  0.75054395  -0.00348605  1
  Co  Co91  1  0.75361635  0.24617352  -0.00240285  1
  Co  Co92  1  0.25322593  0.24996616  0.75257456  1
  Co  Co93  1  0.62375360  0.13099825  0.62255999  1
  Co  Co94  1  0.24720412  0.50310570  0.24834881  1
  Co  Co95  1  0.24681720  0.49928826  0.75052587  1
  Co  Co96  1  -0.00153945  0.50261393  0.24541253  1
  Co  Co97  1  0.38008728  0.62226789  0.12568755  1
  Co  Co98  1  0.37587294  0.12410214  0.37480735  1
  Co  Co99  1  0.12445517  0.62780248  0.12337419  1
  Co  Co100  1  0.37461164  0.87550578  0.87030080  1
  Co  Co101  1  0.00243890  -0.00358647  0.74927869  1
  Co  Co102  1  0.00040240  0.75085818  0.50223424  1
  Co  Co103  1  0.00209110  0.49784467  0.50310165  1
  Co  Co104  1  0.75348494  0.25261341  0.49898507  1
  Co  Co105  1  0.75022520  0.74813947  0.74978706  1
  Co  Co106  1  0.62838029  0.37547083  0.87747914  1
  Co  Co107  1  0.49632056  0.25305822  -0.00080249  1
  Co  Co108  1  0.62674793  0.37664571  0.37663446  1
  Co  Co109  1  0.87298598  0.37559394  0.12274301  1
  Co  Co110  1  -0.00341931  0.25739629  0.75303259  1
  Co  Co111  1  0.74969489  0.74784272  0.25054972  1
  Co  Co112  1  0.12485390  0.62475480  0.62612023  1
  Co  Co113  1  0.62469009  0.87197874  0.62397135  1
  Co  Co114  1  0.12724833  0.37441630  0.87760343  1
  Co  Co115  1  0.24936745  0.74873567  0.74933037  1
  Co  Co116  1  0.12127095  0.37676503  0.37104260  1
  Co  Co117  1  -0.00073878  0.75069840  0.24908861  1
  Co  Co118  1  0.87808307  0.62180380  0.87186216  1
  Co  Co119  1  0.25210481  0.74512682  0.24935004  1
  Co  Co120  1  0.37301308  0.38040719  0.37523724  1
  Co  Co121  1  0.50053523  0.50025600  0.50216561  1
  Co  Co122  1  0.49729344  0.74823156  0.25538297  1
  Co  Co123  1  -0.00202297  0.24827891  0.24894154  1
  Co  Co124  1  0.62742327  0.62235892  0.62494770  1
  Co  Co125  1  0.74841806  0.50710729  0.00227566  1
  Co  Co126  1  0.12834109  0.37012049  0.62546840  1
  Co  Co127  1  0.37743244  0.87514370  0.12954380  1
