# generated using pymatgen
data_Fe45Co19
_symmetry_space_group_name_H-M   'P 1'
_cell_length_a   11.41707051
_cell_length_b   11.41586949
_cell_length_c   11.41581326
_cell_angle_alpha   90.01216344
_cell_angle_beta   90.00171461
_cell_angle_gamma   89.99693325
_symmetry_Int_Tables_number   1
_chemical_formula_structural   Fe45Co19
_chemical_formula_sum   'Fe90 Co38'
_cell_volume   1487.88896731
_cell_formula_units_Z   2
loop_
 _symmetry_equiv_pos_site_id
 _symmetry_equiv_pos_as_xyz
  1  'x, y, z'
loop_
 _atom_site_type_symbol
 _atom_site_label
 _atom_site_symmetry_multiplicity
 _atom_site_fract_x
 _atom_site_fract_y
 _atom_site_fract_z
 _atom_site_occupancy
  Fe  Fe0  1  0.75040763  0.49977461  0.75080235  1
  Fe  Fe1  1  0.62500999  0.12484417  0.13072586  1
  Fe  Fe2  1  0.12426572  0.62496152  0.12300221  1
  Fe  Fe3  1  0.12571279  0.87657969  0.87461993  1
  Fe  Fe4  1  0.75167506  0.74925534  0.50183961  1
  Fe  Fe5  1  0.12689702  0.62278202  0.62477885  1
  Fe  Fe6  1  0.87537651  0.62186787  0.12058408  1
  Fe  Fe7  1  0.50311285  0.50348834  0.00086523  1
  Fe  Fe8  1  0.49662937  0.24799943  0.00536577  1
  Fe  Fe9  1  0.75216528  0.75007988  0.25012444  1
  Fe  Fe10  1  0.00195607  0.49651051  0.50069783  1
  Fe  Fe11  1  0.00095063  0.74801457  -0.00264715  1
  Fe  Fe12  1  0.37513473  0.62083536  0.12709324  1
  Fe  Fe13  1  0.25376786  0.49834319  0.74668081  1
  Fe  Fe14  1  -0.00262789  0.00576315  0.75193212  1
  Fe  Fe15  1  0.12424666  0.87373641  0.12350674  1
  Fe  Fe16  1  0.75108824  0.49762879  0.24716174  1
  Fe  Fe17  1  0.49668487  0.74984601  0.75170920  1
  Fe  Fe18  1  -0.00103420  0.00243770  0.50056704  1
  Fe  Fe19  1  0.37111754  0.37876274  0.36957856  1
  Fe  Fe20  1  0.12617609  0.12555296  0.12656167  1
  Fe  Fe21  1  0.24905586  0.25415847  0.49943579  1
  Fe  Fe22  1  0.74801192  0.74624169  -0.00162029  1
  Fe  Fe23  1  0.12779128  0.62320593  0.87444456  1
  Fe  Fe24  1  0.62563425  0.12590585  0.87627477  1
  Fe  Fe25  1  0.50143881  0.24993664  0.75005183  1
  Fe  Fe26  1  0.49568692  0.50131261  0.49887880  1
  Fe  Fe27  1  0.75196080  0.00299680  0.74923997  1
  Fe  Fe28  1  0.49873448  0.00161878  -0.00018642  1
  Fe  Fe29  1  0.49801829  0.49938348  0.74863102  1
  Fe  Fe30  1  0.25190860  0.74834562  -0.00222778  1
  Fe  Fe31  1  0.49837206  0.25002474  0.49447545  1
  Fe  Fe32  1  0.37446644  0.87724619  0.12538234  1
  Fe  Fe33  1  0.12712638  0.37395847  0.87487724  1
  Fe  Fe34  1  0.49998030  0.75030801  0.25101743  1
  Fe  Fe35  1  0.25426644  0.24961817  0.00450741  1
  Fe  Fe36  1  0.75181129  0.24979014  0.49716506  1
  Fe  Fe37  1  0.62338871  0.37389983  0.62253705  1
  Fe  Fe38  1  0.62547374  0.12737233  0.62340043  1
  Fe  Fe39  1  0.75255662  0.00044826  0.49943870  1
  Fe  Fe40  1  0.25166033  0.00247575  -0.00035411  1
  Fe  Fe41  1  0.00096265  0.24908823  -0.00202357  1
  Fe  Fe42  1  0.25031319  0.74830768  0.50067051  1
  Fe  Fe43  1  0.25119640  0.25097466  0.75002460  1
  Fe  Fe44  1  0.62456979  0.87378315  0.12555463  1
  Fe  Fe45  1  -0.00161039  0.49921086  0.75173306  1
  Fe  Fe46  1  0.62408220  0.37518699  0.87637312  1
  Fe  Fe47  1  0.12424806  0.87580772  0.62692026  1
  Fe  Fe48  1  -0.00314901  0.25408408  0.25144084  1
  Fe  Fe49  1  0.87687602  0.87261229  0.12443368  1
  Fe  Fe50  1  -0.00100614  0.00272952  -0.00129586  1
  Fe  Fe51  1  0.75014815  -0.00010576  0.00200796  1
  Fe  Fe52  1  0.62290781  0.62461307  0.62583622  1
  Fe  Fe53  1  0.87592482  0.62216282  0.37583095  1
  Fe  Fe54  1  0.12376803  0.12884187  0.62632553  1
  Fe  Fe55  1  0.25171548  0.00150733  0.75145460  1
  Fe  Fe56  1  0.37551059  0.12798654  0.62406526  1
  Fe  Fe57  1  0.62762119  0.12431904  0.36935948  1
  Fe  Fe58  1  0.62290640  0.37534572  0.12750470  1
  Fe  Fe59  1  0.62587774  0.87492556  0.62442740  1
  Fe  Fe60  1  0.87349968  0.37543803  0.87924059  1
  Fe  Fe61  1  0.87374075  0.12659721  0.12759237  1
  Fe  Fe62  1  0.87673025  0.87476338  0.37487168  1
  Fe  Fe63  1  -0.00127744  0.74918379  0.50234736  1
  Fe  Fe64  1  0.74818479  0.25151528  0.00281066  1
  Fe  Fe65  1  0.50022030  0.00016476  0.49730337  1
  Fe  Fe66  1  0.37600111  0.37580755  0.87816439  1
  Fe  Fe67  1  0.00019362  0.49929134  0.24839699  1
  Fe  Fe68  1  0.00088745  -0.00151002  0.24950427  1
  Fe  Fe69  1  0.12474819  0.37489284  0.12530526  1
  Fe  Fe70  1  0.49974479  0.74698405  -0.00111635  1
  Fe  Fe71  1  0.62586003  0.37569425  0.37420155  1
  Fe  Fe72  1  0.49904927  0.00129956  0.75055992  1
  Fe  Fe73  1  0.37174560  0.12386795  0.36885096  1
  Fe  Fe74  1  0.62486791  0.87415817  0.87500582  1
  Fe  Fe75  1  0.24827184  0.00058058  0.49922619  1
  Fe  Fe76  1  0.87492513  0.87469147  0.87505786  1
  Fe  Fe77  1  0.12295176  0.87280169  0.37466202  1
  Fe  Fe78  1  0.62525434  0.62515462  0.37329258  1
  Fe  Fe79  1  0.75325990  0.74698007  0.74905571  1
  Fe  Fe80  1  0.49953591  0.74936155  0.49832084  1
  Fe  Fe81  1  0.24823433  0.74895881  0.24961992  1
  Fe  Fe82  1  0.74964578  0.50045890  0.50190027  1
  Fe  Fe83  1  0.12615647  0.62238587  0.37650043  1
  Fe  Fe84  1  -0.00144434  0.74780812  0.74991155  1
  Fe  Fe85  1  0.37352439  0.87503200  0.37405444  1
  Fe  Fe86  1  0.37376542  0.87448794  0.62511868  1
  Fe  Fe87  1  -0.00049653  0.25190390  0.49775575  1
  Fe  Fe88  1  0.12571984  0.12803067  0.37213511  1
  Fe  Fe89  1  0.87563937  0.37250925  0.62582038  1
  Co  Co90  1  0.00452602  0.49917564  -0.00124459  1
  Co  Co91  1  0.87512290  0.12982567  0.62443511  1
  Co  Co92  1  0.50311274  0.49983999  0.25149722  1
  Co  Co93  1  0.50198255  -0.00340248  0.25198099  1
  Co  Co94  1  0.24974189  0.75005131  0.75135463  1
  Co  Co95  1  0.25231385  0.49786979  0.50300871  1
  Co  Co96  1  0.37410130  0.62211466  0.87579480  1
  Co  Co97  1  0.37672708  0.38154828  0.12667825  1
  Co  Co98  1  0.24502444  0.50168974  0.24751663  1
  Co  Co99  1  -0.00003801  0.74674001  0.24940499  1
  Co  Co100  1  0.87512616  0.12479837  0.37116307  1
  Co  Co101  1  0.87462983  0.62244460  0.87901681  1
  Co  Co102  1  0.37777034  0.37121894  0.62376405  1
  Co  Co103  1  -0.00150156  0.24871103  0.75479373  1
  Co  Co104  1  0.75123935  -0.00431060  0.24898062  1
  Co  Co105  1  0.12726568  0.37601721  0.37326848  1
  Co  Co106  1  0.87076910  0.12784165  0.87859055  1
  Co  Co107  1  0.87644317  0.87617725  0.62562052  1
  Co  Co108  1  0.25185879  0.25247876  0.24555008  1
  Co  Co109  1  0.62727590  0.87336129  0.37625700  1
  Co  Co110  1  0.12860122  0.12619515  0.87618545  1
  Co  Co111  1  0.74420662  0.50083687  0.00037696  1
  Co  Co112  1  0.62563171  0.62615077  0.12892056  1
  Co  Co113  1  0.24528525  -0.00358015  0.25074341  1
  Co  Co114  1  0.37462293  0.62725362  0.62468851  1
  Co  Co115  1  0.37500019  0.12023719  0.13116994  1
  Co  Co116  1  0.37329255  0.62374687  0.37221652  1
  Co  Co117  1  0.24836968  0.49893354  0.00132514  1
  Co  Co118  1  0.74791242  0.25231385  0.75102539  1
  Co  Co119  1  0.62416623  0.62541602  0.87143404  1
  Co  Co120  1  0.75181870  0.25517397  0.24973811  1
  Co  Co121  1  0.12301980  0.37376223  0.62720853  1
  Co  Co122  1  0.37500850  0.87533486  0.87620541  1
  Co  Co123  1  0.87627195  0.37670674  0.11980943  1
  Co  Co124  1  0.87454759  0.37804463  0.37651237  1
  Co  Co125  1  0.87660597  0.62209131  0.62342902  1
  Co  Co126  1  0.37575646  0.12750545  0.87432017  1
  Co  Co127  1  0.49833150  0.25169897  0.25022608  1
