# generated using pymatgen
data_Fe45Co19
_symmetry_space_group_name_H-M   'P 1'
_cell_length_a   11.41519904
_cell_length_b   11.41474942
_cell_length_c   11.41543823
_cell_angle_alpha   90.00113207
_cell_angle_beta   89.99790290
_cell_angle_gamma   89.99949583
_symmetry_Int_Tables_number   1
_chemical_formula_structural   Fe45Co19
_chemical_formula_sum   'Fe90 Co38'
_cell_volume   1487.45028211
_cell_formula_units_Z   2
loop_
 _symmetry_equiv_pos_site_id
 _symmetry_equiv_pos_as_xyz
  1  'x, y, z'
loop_
 _atom_site_type_symbol
 _atom_site_label
 _atom_site_symmetry_multiplicity
 _atom_site_fract_x
 _atom_site_fract_y
 _atom_site_fract_z
 _atom_site_occupancy
  Fe  Fe0  1  0.12472254  0.62198528  0.12605453  1
  Fe  Fe1  1  0.50011617  -0.00237586  0.24781709  1
  Fe  Fe2  1  0.37469533  0.62419922  0.62354195  1
  Fe  Fe3  1  0.12600154  0.12511244  0.62672966  1
  Fe  Fe4  1  0.25063428  0.75138438  0.75075273  1
  Fe  Fe5  1  0.25081494  0.49923163  0.75252653  1
  Fe  Fe6  1  0.87479121  0.12766006  0.87505767  1
  Fe  Fe7  1  0.63014249  0.62565707  0.13056613  1
  Fe  Fe8  1  0.87601886  0.12864871  0.37601600  1
  Fe  Fe9  1  0.87555435  0.62289685  0.62451394  1
  Fe  Fe10  1  0.62239513  0.86998960  0.37352225  1
  Fe  Fe11  1  0.25117556  0.74980927  0.24967257  1
  Fe  Fe12  1  -0.00077159  0.25212978  0.50517283  1
  Fe  Fe13  1  0.49245799  -0.00094287  0.74986841  1
  Fe  Fe14  1  0.62332927  0.12611273  0.37302170  1
  Fe  Fe15  1  0.74996944  -0.00163447  0.25091319  1
  Fe  Fe16  1  -0.00323089  0.49623564  0.25132361  1
  Fe  Fe17  1  -0.00106943  0.00255000  0.00165812  1
  Fe  Fe18  1  0.25134105  0.00117657  0.25153528  1
  Fe  Fe19  1  0.49990925  0.25309530  0.74790247  1
  Fe  Fe20  1  -0.00368402  0.50023973  -0.00231076  1
  Fe  Fe21  1  0.12291895  0.87509677  0.37610798  1
  Fe  Fe22  1  0.62368345  0.87652124  0.62589874  1
  Fe  Fe23  1  0.37463637  0.37790867  0.12585443  1
  Fe  Fe24  1  0.24777199  0.74902549  0.50039815  1
  Fe  Fe25  1  0.75060757  0.75049158  0.74972461  1
  Fe  Fe26  1  0.12480139  0.87725545  0.62363761  1
  Fe  Fe27  1  0.50110259  0.24923158  0.00162074  1
  Fe  Fe28  1  0.12363427  0.62425931  0.37373856  1
  Fe  Fe29  1  0.37121364  0.62031236  0.12512196  1
  Fe  Fe30  1  0.75199642  0.00013570  0.74993755  1
  Fe  Fe31  1  -0.00030929  0.00329831  0.24852841  1
  Fe  Fe32  1  0.87441320  0.62663941  0.12550843  1
  Fe  Fe33  1  0.62663185  0.37540386  0.37458453  1
  Fe  Fe34  1  -0.00520029  0.49452942  0.75092138  1
  Fe  Fe35  1  -0.00031587  0.75223211  0.24969599  1
  Fe  Fe36  1  0.00002156  0.24649680  0.00254980  1
  Fe  Fe37  1  0.62723518  0.62254691  0.62580500  1
  Fe  Fe38  1  0.87360112  0.87522364  0.12301903  1
  Fe  Fe39  1  0.37388002  0.37606978  0.62359018  1
  Fe  Fe40  1  0.62445785  0.12408084  0.12698107  1
  Fe  Fe41  1  0.87798004  0.87660648  0.37827168  1
  Fe  Fe42  1  0.25523350  0.00320974  -0.00205759  1
  Fe  Fe43  1  0.50037405  0.50231294  0.25192015  1
  Fe  Fe44  1  0.12294044  0.12767664  0.37353389  1
  Fe  Fe45  1  0.74961675  0.75079673  0.49979262  1
  Fe  Fe46  1  0.87659123  0.87709123  0.62192937  1
  Fe  Fe47  1  -0.00026349  0.75190379  0.74800138  1
  Fe  Fe48  1  0.37757543  0.37732180  0.87687696  1
  Fe  Fe49  1  0.25096216  0.00205698  0.49987297  1
  Fe  Fe50  1  0.49963874  0.00122098  0.50206662  1
  Fe  Fe51  1  0.62813012  0.37719852  0.62527700  1
  Fe  Fe52  1  0.62813901  0.37672571  0.12437376  1
  Fe  Fe53  1  0.62179404  0.87577950  0.87590140  1
  Fe  Fe54  1  0.49868833  0.74985227  0.74784177  1
  Fe  Fe55  1  0.74744288  0.00165041  -0.00077478  1
  Fe  Fe56  1  0.25208396  0.25042717  0.00203502  1
  Fe  Fe57  1  0.24932822  0.25056260  0.24819265  1
  Fe  Fe58  1  0.12498526  0.37641437  0.12431066  1
  Fe  Fe59  1  0.50277728  0.24939774  0.50151117  1
  Fe  Fe60  1  0.75092211  0.24995269  0.74801750  1
  Fe  Fe61  1  0.75188438  0.49840227  0.49637349  1
  Fe  Fe62  1  0.50129298  0.50270662  0.49788444  1
  Fe  Fe63  1  0.37679960  0.87517629  0.12214260  1
  Fe  Fe64  1  0.24782724  0.49900887  0.49754121  1
  Fe  Fe65  1  0.25031788  0.25069359  0.74968726  1
  Fe  Fe66  1  0.87201194  0.37209024  0.12203666  1
  Fe  Fe67  1  0.74972886  0.74857385  -0.00184547  1
  Fe  Fe68  1  0.37717603  0.62281300  0.87641499  1
  Fe  Fe69  1  0.74793891  0.00294657  0.50028329  1
  Fe  Fe70  1  0.37723782  0.87104541  0.37757888  1
  Fe  Fe71  1  0.24742150  0.74746038  -0.00080871  1
  Fe  Fe72  1  0.12636769  0.12531351  0.87445438  1
  Fe  Fe73  1  0.12123009  0.62433497  0.87422066  1
  Fe  Fe74  1  0.24971066  0.25057887  0.50026777  1
  Fe  Fe75  1  0.87485862  0.62459787  0.37471216  1
  Fe  Fe76  1  0.50189751  0.74751862  0.00247310  1
  Fe  Fe77  1  0.62497289  0.62169890  0.87291356  1
  Fe  Fe78  1  0.12190696  0.37358890  0.37383859  1
  Fe  Fe79  1  0.12542095  0.87633254  0.87582401  1
  Fe  Fe80  1  0.87641348  0.87304860  0.87680762  1
  Fe  Fe81  1  0.37746076  0.12767220  0.37320070  1
  Fe  Fe82  1  0.12293393  0.37322110  0.87496366  1
  Fe  Fe83  1  0.12262025  0.62123663  0.62542117  1
  Fe  Fe84  1  0.74988975  0.25080920  0.25064101  1
  Fe  Fe85  1  0.62769852  0.37869064  0.87626376  1
  Fe  Fe86  1  0.62227766  0.12437230  0.87168724  1
  Fe  Fe87  1  -0.00061415  0.00174724  0.74934146  1
  Fe  Fe88  1  0.12597174  0.87741617  0.12401314  1
  Fe  Fe89  1  0.37582931  0.37466865  0.37411655  1
  Co  Co90  1  0.37481469  0.12763949  0.62453114  1
  Co  Co91  1  0.25288767  -0.00067775  0.74991792  1
  Co  Co92  1  0.12651639  0.37677081  0.62661949  1
  Co  Co93  1  0.00171302  0.00351001  0.50002540  1
  Co  Co94  1  0.87033701  0.12520183  0.12579404  1
  Co  Co95  1  0.75439793  0.75462249  0.25236111  1
  Co  Co96  1  0.62838795  0.62744874  0.37152668  1
  Co  Co97  1  0.24866935  0.49785905  0.25388212  1
  Co  Co98  1  0.37587467  0.12898014  0.87328540  1
  Co  Co99  1  -0.00010754  0.49728626  0.49870247  1
  Co  Co100  1  0.37400099  0.87317749  0.62176811  1
  Co  Co101  1  0.24742837  0.49894949  -0.00395451  1
  Co  Co102  1  0.75222957  0.50399869  -0.00160916  1
  Co  Co103  1  0.00222103  0.74986707  0.00218341  1
  Co  Co104  1  0.87733887  0.62875745  0.87357941  1
  Co  Co105  1  0.87231430  0.36977045  0.87864266  1
  Co  Co106  1  0.87452735  0.12522321  0.62412714  1
  Co  Co107  1  0.74505604  0.24633616  -0.00062905  1
  Co  Co108  1  0.50313199  0.74660786  0.50211396  1
  Co  Co109  1  0.37645792  0.12617765  0.12816075  1
  Co  Co110  1  0.74616326  0.24717029  0.50124977  1
  Co  Co111  1  0.49652222  0.74678755  0.24730663  1
  Co  Co112  1  0.50349701  0.50109865  0.00340979  1
  Co  Co113  1  -0.00106112  0.25073143  0.74818536  1
  Co  Co114  1  0.00050625  0.74796351  0.50024160  1
  Co  Co115  1  0.50180816  0.25346365  0.24857325  1
  Co  Co116  1  0.37601796  0.87174000  0.87863948  1
  Co  Co117  1  0.75414169  0.49980774  0.75399879  1
  Co  Co118  1  0.62322815  0.12296586  0.62882290  1
  Co  Co119  1  0.12865078  0.12291304  0.12448074  1
  Co  Co120  1  0.37348672  0.62606512  0.37660080  1
  Co  Co121  1  0.00025224  0.24907727  0.24490867  1
  Co  Co122  1  0.62590364  0.87382699  0.12452371  1
  Co  Co123  1  0.50036363  0.00375018  0.00038161  1
  Co  Co124  1  0.75292367  0.49636130  0.25092662  1
  Co  Co125  1  0.87544075  0.36899222  0.37649077  1
  Co  Co126  1  0.87101577  0.37498779  0.62372194  1
  Co  Co127  1  0.49942240  0.49894827  0.74808560  1
