# generated using pymatgen
data_Fe45Co19
_symmetry_space_group_name_H-M   'P 1'
_cell_length_a   11.41560460
_cell_length_b   11.41472227
_cell_length_c   11.41599997
_cell_angle_alpha   89.99368417
_cell_angle_beta   89.99534654
_cell_angle_gamma   90.00800358
_symmetry_Int_Tables_number   1
_chemical_formula_structural   Fe45Co19
_chemical_formula_sum   'Fe90 Co38'
_cell_volume   1487.57276355
_cell_formula_units_Z   2
loop_
 _symmetry_equiv_pos_site_id
 _symmetry_equiv_pos_as_xyz
  1  'x, y, z'
loop_
 _atom_site_type_symbol
 _atom_site_label
 _atom_site_symmetry_multiplicity
 _atom_site_fract_x
 _atom_site_fract_y
 _atom_site_fract_z
 _atom_site_occupancy
  Fe  Fe0  1  0.37680981  0.87514376  0.87616539  1
  Fe  Fe1  1  -0.00139598  0.50034025  -0.00186663  1
  Fe  Fe2  1  0.25142249  0.00083162  0.49851224  1
  Fe  Fe3  1  0.87480839  0.38025360  0.87043864  1
  Fe  Fe4  1  0.37624598  0.12670727  0.37402150  1
  Fe  Fe5  1  0.12509770  0.87431892  0.87431596  1
  Fe  Fe6  1  0.87554802  0.62343360  0.62957588  1
  Fe  Fe7  1  0.37719775  0.12369732  0.87538799  1
  Fe  Fe8  1  0.25285902  -0.00163215  0.74880983  1
  Fe  Fe9  1  0.62632392  0.62363401  0.37912359  1
  Fe  Fe10  1  0.37405259  0.86964142  0.62041910  1
  Fe  Fe11  1  0.74787888  -0.00078611  0.50142985  1
  Fe  Fe12  1  0.12427053  0.62655620  0.87288073  1
  Fe  Fe13  1  0.12206016  0.37324937  0.37647268  1
  Fe  Fe14  1  0.00088328  0.00144450  0.24955242  1
  Fe  Fe15  1  0.62794294  0.62261599  0.87319831  1
  Fe  Fe16  1  0.50061619  -0.00044319  0.74598917  1
  Fe  Fe17  1  0.75224093  0.25407213  0.25092901  1
  Fe  Fe18  1  0.00106082  -0.00025132  0.50033885  1
  Fe  Fe19  1  0.75056547  0.25406387  -0.00254921  1
  Fe  Fe20  1  0.62390246  0.12526017  0.87558219  1
  Fe  Fe21  1  0.12809036  0.87130616  0.62406208  1
  Fe  Fe22  1  0.62383956  0.87398507  0.87380263  1
  Fe  Fe23  1  0.87516484  0.12758127  0.12382560  1
  Fe  Fe24  1  0.49675696  0.74478613  0.74925755  1
  Fe  Fe25  1  0.12298822  0.13015373  0.12505263  1
  Fe  Fe26  1  0.62729109  0.37508404  0.12461582  1
  Fe  Fe27  1  0.74986065  0.74820907  0.25348443  1
  Fe  Fe28  1  0.50291086  0.00100270  0.24927528  1
  Fe  Fe29  1  0.37334453  0.87330419  0.12990448  1
  Fe  Fe30  1  0.87302307  0.87380510  0.12551362  1
  Fe  Fe31  1  0.12188310  0.37258547  0.12441668  1
  Fe  Fe32  1  0.62434618  0.87326463  0.37781486  1
  Fe  Fe33  1  0.12512126  0.12614074  0.62473305  1
  Fe  Fe34  1  0.25257630  0.50271517  0.75026023  1
  Fe  Fe35  1  0.62429300  0.12717527  0.37544304  1
  Fe  Fe36  1  0.00086219  0.25088489  0.74980993  1
  Fe  Fe37  1  0.25090407  0.74844477  -0.00040580  1
  Fe  Fe38  1  0.74736644  -0.00169433  0.74723798  1
  Fe  Fe39  1  0.74624472  -0.00236619  0.00254299  1
  Fe  Fe40  1  0.74783827  0.00010800  0.24855836  1
  Fe  Fe41  1  0.87042554  0.62257863  0.12373840  1
  Fe  Fe42  1  0.87520863  0.62084811  0.37617592  1
  Fe  Fe43  1  0.25147122  0.25168370  -0.00043499  1
  Fe  Fe44  1  0.50080194  0.25063664  0.00072440  1
  Fe  Fe45  1  0.50352977  0.49933187  0.25004745  1
  Fe  Fe46  1  0.87420856  0.87683612  0.37586564  1
  Fe  Fe47  1  0.50277689  0.50076254  -0.00032516  1
  Fe  Fe48  1  0.62607258  0.37672111  0.37799255  1
  Fe  Fe49  1  0.37572605  0.12766114  0.12791194  1
  Fe  Fe50  1  0.24994506  0.49951173  -0.00103022  1
  Fe  Fe51  1  0.62426131  0.86921549  0.62119157  1
  Fe  Fe52  1  0.75368483  0.75048969  0.74980258  1
  Fe  Fe53  1  0.62317965  0.12794413  0.62315150  1
  Fe  Fe54  1  0.49798799  0.74804341  0.25453919  1
  Fe  Fe55  1  0.12581845  0.12463371  0.87431244  1
  Fe  Fe56  1  0.50308179  -0.00077935  0.00435416  1
  Fe  Fe57  1  0.87497940  0.12572163  0.37684021  1
  Fe  Fe58  1  -0.00151930  0.74784680  0.25038987  1
  Fe  Fe59  1  0.37473499  0.62323514  0.12571004  1
  Fe  Fe60  1  0.87333122  0.12369490  0.87409608  1
  Fe  Fe61  1  0.00096733  0.00046386  0.00064899  1
  Fe  Fe62  1  0.24929924  0.50133087  0.49924712  1
  Fe  Fe63  1  0.37997206  0.37780753  0.87120862  1
  Fe  Fe64  1  -0.00049758  0.49798375  0.50400716  1
  Fe  Fe65  1  0.37576168  0.37637303  0.37594749  1
  Fe  Fe66  1  0.37562296  0.37621694  0.12662127  1
  Fe  Fe67  1  0.12586368  0.37516376  0.87384495  1
  Fe  Fe68  1  0.87486031  0.87594343  0.87552863  1
  Fe  Fe69  1  0.75006674  0.49880038  0.50609474  1
  Fe  Fe70  1  0.49996058  0.50237557  0.50718290  1
  Fe  Fe71  1  0.12713313  0.37338079  0.62493476  1
  Fe  Fe72  1  0.24987564  0.00045228  0.00197954  1
  Fe  Fe73  1  0.62760915  0.62595760  0.12559216  1
  Fe  Fe74  1  -0.00168909  0.75041914  0.50073628  1
  Fe  Fe75  1  -0.00280138  0.49734860  0.24972422  1
  Fe  Fe76  1  0.74696325  0.25348158  0.74980803  1
  Fe  Fe77  1  0.12785386  0.62902618  0.62553037  1
  Fe  Fe78  1  0.12518049  0.12882942  0.37497974  1
  Fe  Fe79  1  0.75133362  0.25306004  0.50218689  1
  Fe  Fe80  1  0.12766830  0.87376116  0.37255380  1
  Fe  Fe81  1  -0.00302567  0.74754988  -0.00129195  1
  Fe  Fe82  1  0.12521496  0.62426513  0.12644453  1
  Fe  Fe83  1  0.24747232  0.50016842  0.25163083  1
  Fe  Fe84  1  0.50146417  0.74921049  0.00038003  1
  Fe  Fe85  1  0.87535251  0.12524956  0.62536532  1
  Fe  Fe86  1  0.12738736  0.87235106  0.12819337  1
  Fe  Fe87  1  -0.00009393  -0.00232846  0.74850735  1
  Fe  Fe88  1  0.25334730  0.24936340  0.74956363  1
  Fe  Fe89  1  0.37723336  0.12735593  0.62230013  1
  Co  Co90  1  0.25258068  0.75009063  0.75412051  1
  Co  Co91  1  0.50197861  0.25357147  0.25144065  1
  Co  Co92  1  0.49907931  0.25191878  0.49799772  1
  Co  Co93  1  0.87422380  0.87721202  0.62300559  1
  Co  Co94  1  0.37719516  0.61735771  0.37439323  1
  Co  Co95  1  0.74894287  0.49939401  0.25093160  1
  Co  Co96  1  -0.00197086  0.25207709  -0.00465893  1
  Co  Co97  1  0.25163618  0.74294511  0.25514869  1
  Co  Co98  1  0.75001952  0.75000081  -0.00220628  1
  Co  Co99  1  -0.00206991  0.75169337  0.74966132  1
  Co  Co100  1  0.50076378  -0.00006855  0.50046552  1
  Co  Co101  1  0.25005402  0.25324051  0.25092419  1
  Co  Co102  1  0.37535915  0.37543492  0.62648621  1
  Co  Co103  1  0.87499839  0.37646095  0.12347805  1
  Co  Co104  1  -0.00353986  0.25153660  0.25270526  1
  Co  Co105  1  0.00452451  0.49974216  0.74837454  1
  Co  Co106  1  0.62015276  0.37662281  0.87277807  1
  Co  Co107  1  0.75526506  0.74872585  0.49891450  1
  Co  Co108  1  0.36965594  0.62703232  0.62314245  1
  Co  Co109  1  0.62709903  0.12967088  0.12531297  1
  Co  Co110  1  0.25138287  0.74634455  0.49051426  1
  Co  Co111  1  0.49573297  0.74702981  0.49640336  1
  Co  Co112  1  0.49973645  0.24735986  0.74949604  1
  Co  Co113  1  0.37575504  0.62269482  0.87787621  1
  Co  Co114  1  0.62762927  0.63115607  0.62304288  1
  Co  Co115  1  0.62491796  0.87066885  0.12786680  1
  Co  Co116  1  0.74441287  0.49725039  0.74510625  1
  Co  Co117  1  0.11867268  0.62237440  0.37517211  1
  Co  Co118  1  0.87320642  0.62064742  0.87128053  1
  Co  Co119  1  0.25175372  0.25021950  0.49948183  1
  Co  Co120  1  0.74877068  0.49839022  -0.00156017  1
  Co  Co121  1  -0.00131864  0.25042357  0.50130842  1
  Co  Co122  1  0.37339814  0.87895508  0.37306068  1
  Co  Co123  1  0.24834532  0.00433057  0.24917748  1
  Co  Co124  1  0.61982249  0.37260568  0.62644982  1
  Co  Co125  1  0.50061395  0.50605473  0.74445544  1
  Co  Co126  1  0.87647176  0.37443609  0.62759804  1
  Co  Co127  1  0.87458793  0.37779337  0.37841680  1
