# generated using pymatgen
data_Fe45Co19
_symmetry_space_group_name_H-M   'P 1'
_cell_length_a   11.41686052
_cell_length_b   11.41604350
_cell_length_c   11.41575263
_cell_angle_alpha   89.99498831
_cell_angle_beta   90.00060621
_cell_angle_gamma   89.99417071
_symmetry_Int_Tables_number   1
_chemical_formula_structural   Fe45Co19
_chemical_formula_sum   'Fe90 Co38'
_cell_volume   1487.87640203
_cell_formula_units_Z   2
loop_
 _symmetry_equiv_pos_site_id
 _symmetry_equiv_pos_as_xyz
  1  'x, y, z'
loop_
 _atom_site_type_symbol
 _atom_site_label
 _atom_site_symmetry_multiplicity
 _atom_site_fract_x
 _atom_site_fract_y
 _atom_site_fract_z
 _atom_site_occupancy
  Fe  Fe0  1  0.12451666  0.12834330  0.12645187  1
  Fe  Fe1  1  0.49965148  0.75500263  0.24940631  1
  Fe  Fe2  1  0.12655918  0.12476147  0.62961499  1
  Fe  Fe3  1  0.49575988  0.49881551  0.74813094  1
  Fe  Fe4  1  0.12451522  0.87590440  0.37696141  1
  Fe  Fe5  1  -0.00002436  0.00026609  0.24826431  1
  Fe  Fe6  1  0.37350682  0.87282252  0.62485649  1
  Fe  Fe7  1  0.62399077  0.37764918  0.37692520  1
  Fe  Fe8  1  0.74747576  0.75155290  0.25065605  1
  Fe  Fe9  1  0.62571973  0.12358094  0.12457851  1
  Fe  Fe10  1  0.62463245  0.62272549  0.62388766  1
  Fe  Fe11  1  0.87220298  0.62421246  0.87377132  1
  Fe  Fe12  1  -0.00074459  -0.00256739  0.74934716  1
  Fe  Fe13  1  0.62555781  0.37549786  0.12324429  1
  Fe  Fe14  1  0.74864863  0.24914161  0.50041749  1
  Fe  Fe15  1  0.25045680  0.74815066  0.49789435  1
  Fe  Fe16  1  0.12475140  0.12618592  0.37323288  1
  Fe  Fe17  1  0.87509388  0.37590485  0.37756918  1
  Fe  Fe18  1  0.25405605  0.50200984  0.50205451  1
  Fe  Fe19  1  0.12587546  0.37487242  0.37517057  1
  Fe  Fe20  1  0.25204642  0.50257594  0.00064209  1
  Fe  Fe21  1  0.00172324  0.25053026  0.49977657  1
  Fe  Fe22  1  0.87462133  0.12680423  0.62777338  1
  Fe  Fe23  1  0.87367299  0.87339769  0.12499083  1
  Fe  Fe24  1  0.50254521  0.24867108  -0.00278947  1
  Fe  Fe25  1  0.50029133  0.25256740  0.75230279  1
  Fe  Fe26  1  0.00345812  0.25219555  0.75601510  1
  Fe  Fe27  1  0.62663648  0.12180536  0.62875196  1
  Fe  Fe28  1  0.87433086  0.87247339  0.87402797  1
  Fe  Fe29  1  0.87595551  0.37191884  0.12216766  1
  Fe  Fe30  1  -0.00221475  0.50112066  0.74799700  1
  Fe  Fe31  1  0.87530161  0.62683424  0.12528702  1
  Fe  Fe32  1  0.37332356  0.12643896  0.12545411  1
  Fe  Fe33  1  0.62673177  0.87700490  0.62444949  1
  Fe  Fe34  1  0.50027054  0.24855963  0.49995982  1
  Fe  Fe35  1  0.75074890  0.75096964  0.49782354  1
  Fe  Fe36  1  0.74815515  0.25184669  0.75498921  1
  Fe  Fe37  1  0.74999940  0.25000114  0.25119744  1
  Fe  Fe38  1  0.49793170  0.74803373  0.49945634  1
  Fe  Fe39  1  0.00042791  0.49866990  0.24887767  1
  Fe  Fe40  1  0.75002580  0.50064383  0.24863347  1
  Fe  Fe41  1  0.62229935  0.62350559  0.37468614  1
  Fe  Fe42  1  0.12729932  0.37513770  0.62652053  1
  Fe  Fe43  1  0.75080942  0.00161631  -0.00287085  1
  Fe  Fe44  1  -0.00108513  0.50026806  0.00073635  1
  Fe  Fe45  1  0.25076866  0.24837912  0.49938093  1
  Fe  Fe46  1  0.74683508  0.74800830  0.00023792  1
  Fe  Fe47  1  0.12400110  0.87682432  0.87352950  1
  Fe  Fe48  1  0.62619947  0.87815997  0.87376163  1
  Fe  Fe49  1  0.49771436  -0.00277340  0.24895900  1
  Fe  Fe50  1  0.49796777  0.00096779  0.50163540  1
  Fe  Fe51  1  0.74948917  -0.00209014  0.25134737  1
  Fe  Fe52  1  0.00002412  0.00063340  0.00075846  1
  Fe  Fe53  1  0.12811348  0.87223391  0.12433154  1
  Fe  Fe54  1  0.25073014  0.50076338  0.24793238  1
  Fe  Fe55  1  0.49903820  0.24965551  0.25030780  1
  Fe  Fe56  1  0.37404110  0.12490735  0.87172234  1
  Fe  Fe57  1  0.12388966  0.37271850  0.12455974  1
  Fe  Fe58  1  0.37389062  0.37151602  0.12241957  1
  Fe  Fe59  1  0.87585776  0.62730311  0.62364600  1
  Fe  Fe60  1  0.62489934  0.12197940  0.37598848  1
  Fe  Fe61  1  0.00274709  0.74988553  0.25024856  1
  Fe  Fe62  1  0.87633326  0.12808911  0.12278422  1
  Fe  Fe63  1  0.12369195  0.62299301  0.37585603  1
  Fe  Fe64  1  0.37334361  0.12706861  0.62902760  1
  Fe  Fe65  1  0.25050905  -0.00040511  -0.00125958  1
  Fe  Fe66  1  0.24835421  0.75082433  0.75222356  1
  Fe  Fe67  1  0.87528803  0.87118803  0.62631950  1
  Fe  Fe68  1  0.49784273  0.49923060  0.24782198  1
  Fe  Fe69  1  0.25264098  -0.00092833  0.25056812  1
  Fe  Fe70  1  0.37519668  0.87289371  0.87537325  1
  Fe  Fe71  1  0.37209017  0.63176575  0.12565357  1
  Fe  Fe72  1  0.87556296  0.12386215  0.37586172  1
  Fe  Fe73  1  0.62433428  0.37758713  0.62358881  1
  Fe  Fe74  1  0.37550510  0.37505398  0.37712677  1
  Fe  Fe75  1  0.49795841  0.50251350  0.00218961  1
  Fe  Fe76  1  0.49870113  -0.00026214  0.00007051  1
  Fe  Fe77  1  0.87490122  0.37404223  0.62506745  1
  Fe  Fe78  1  0.24605046  0.24962835  -0.00513103  1
  Fe  Fe79  1  0.50250518  0.75046964  0.75014616  1
  Fe  Fe80  1  0.00240298  0.74885911  -0.00129860  1
  Fe  Fe81  1  0.12580017  0.62224243  0.87442974  1
  Fe  Fe82  1  0.87750628  0.62446631  0.37651897  1
  Fe  Fe83  1  0.12466995  0.62671511  0.62488144  1
  Fe  Fe84  1  0.50222470  0.75047139  0.00080176  1
  Fe  Fe85  1  0.25570877  0.49899049  0.74967195  1
  Fe  Fe86  1  0.25035756  0.00095949  0.50188671  1
  Fe  Fe87  1  0.74792188  0.25031457  -0.00573861  1
  Fe  Fe88  1  0.62577896  0.62019265  0.87423418  1
  Fe  Fe89  1  -0.00093903  -0.00148827  0.50237660  1
  Co  Co90  1  0.37458292  0.87535841  0.37738366  1
  Co  Co91  1  0.75296245  -0.00111832  0.75063987  1
  Co  Co92  1  0.37156586  0.87158418  0.12320117  1
  Co  Co93  1  0.37482120  0.37104339  0.62327733  1
  Co  Co94  1  0.00052940  0.49843883  0.50247775  1
  Co  Co95  1  0.62330309  0.12099234  0.87165668  1
  Co  Co96  1  0.12571184  0.87257884  0.62441006  1
  Co  Co97  1  0.87785005  0.12515856  0.87431545  1
  Co  Co98  1  0.24742978  0.75034993  0.25348675  1
  Co  Co99  1  0.12565483  0.62576684  0.12409850  1
  Co  Co100  1  -0.00120909  0.25097762  0.25202847  1
  Co  Co101  1  0.49628403  0.50165481  0.50177512  1
  Co  Co102  1  0.00039485  0.75137099  0.49927582  1
  Co  Co103  1  0.75066475  0.50127971  0.50042732  1
  Co  Co104  1  0.87675519  0.87495554  0.37271096  1
  Co  Co105  1  0.75058835  0.50108240  0.00338812  1
  Co  Co106  1  0.37478955  0.62865446  0.62776578  1
  Co  Co107  1  0.12507234  0.11972817  0.87146266  1
  Co  Co108  1  0.24887075  0.25235406  0.75411625  1
  Co  Co109  1  0.12573503  0.38193605  0.87413771  1
  Co  Co110  1  0.25153325  -0.00408071  0.74928869  1
  Co  Co111  1  0.00197649  0.74886107  0.75180648  1
  Co  Co112  1  0.62383112  0.38181876  0.87595354  1
  Co  Co113  1  0.62324601  0.87647998  0.37815402  1
  Co  Co114  1  0.37646620  0.62725401  0.87459821  1
  Co  Co115  1  0.74691020  0.74892561  0.74951053  1
  Co  Co116  1  0.25216847  0.25120857  0.25136804  1
  Co  Co117  1  0.37599426  0.12421282  0.37461465  1
  Co  Co118  1  0.24657610  0.74973649  -0.00446411  1
  Co  Co119  1  0.49710846  -0.00277856  0.74903584  1
  Co  Co120  1  0.62358578  0.62529180  0.12679212  1
  Co  Co121  1  0.62648770  0.87748410  0.12312105  1
  Co  Co122  1  0.00407238  0.25016299  -0.00528006  1
  Co  Co123  1  0.75316190  -0.00113694  0.50170499  1
  Co  Co124  1  0.75168899  0.49984757  0.74645398  1
  Co  Co125  1  0.37651049  0.62498195  0.37130009  1
  Co  Co126  1  0.87453459  0.37789740  0.87535861  1
  Co  Co127  1  0.37583361  0.37485299  0.87753727  1
