# generated using pymatgen
data_Fe45Co19
_symmetry_space_group_name_H-M   'P 1'
_cell_length_a   11.41478867
_cell_length_b   11.41492516
_cell_length_c   11.41615830
_cell_angle_alpha   89.99769920
_cell_angle_beta   90.00000661
_cell_angle_gamma   89.99876553
_symmetry_Int_Tables_number   1
_chemical_formula_structural   Fe45Co19
_chemical_formula_sum   'Fe90 Co38'
_cell_volume   1487.51353318
_cell_formula_units_Z   2
loop_
 _symmetry_equiv_pos_site_id
 _symmetry_equiv_pos_as_xyz
  1  'x, y, z'
loop_
 _atom_site_type_symbol
 _atom_site_label
 _atom_site_symmetry_multiplicity
 _atom_site_fract_x
 _atom_site_fract_y
 _atom_site_fract_z
 _atom_site_occupancy
  Fe  Fe0  1  0.49843206  0.00026123  0.50241375  1
  Fe  Fe1  1  0.87536542  0.12521074  0.37338981  1
  Fe  Fe2  1  0.12833498  0.63116094  0.12721219  1
  Fe  Fe3  1  0.37022127  0.61904949  0.87757416  1
  Fe  Fe4  1  0.74908858  -0.00093669  0.24855005  1
  Fe  Fe5  1  0.12627803  0.12457560  0.37211285  1
  Fe  Fe6  1  0.00374619  0.50131792  0.00281867  1
  Fe  Fe7  1  0.74867477  0.49793708  0.49934696  1
  Fe  Fe8  1  0.37421614  0.87299813  0.12397415  1
  Fe  Fe9  1  0.49955734  0.74892971  0.24860828  1
  Fe  Fe10  1  0.49643121  0.49824648  0.75019531  1
  Fe  Fe11  1  0.00336582  -0.00316396  0.24735818  1
  Fe  Fe12  1  0.62796748  0.62362437  0.87655135  1
  Fe  Fe13  1  0.75128530  0.75090205  0.75269241  1
  Fe  Fe14  1  0.62635333  0.62540621  0.62642112  1
  Fe  Fe15  1  0.12493537  0.37540799  0.62458177  1
  Fe  Fe16  1  0.62238370  0.37489813  0.87520077  1
  Fe  Fe17  1  0.87594132  0.87730861  0.87653617  1
  Fe  Fe18  1  0.25049925  0.49632214  0.24681215  1
  Fe  Fe19  1  0.00000860  0.00257237  0.50161874  1
  Fe  Fe20  1  0.49852201  0.25108558  0.25174365  1
  Fe  Fe21  1  0.12784183  0.12651570  0.62631923  1
  Fe  Fe22  1  0.75083638  0.25419501  0.25028712  1
  Fe  Fe23  1  0.38097290  0.37879574  0.37708396  1
  Fe  Fe24  1  -0.00096765  0.74782874  0.75174090  1
  Fe  Fe25  1  0.87650431  0.37675681  0.87808457  1
  Fe  Fe26  1  0.37325436  0.12486601  0.87451318  1
  Fe  Fe27  1  0.37490124  0.62412016  0.37305580  1
  Fe  Fe28  1  0.37294126  0.62441938  0.12422107  1
  Fe  Fe29  1  0.49983262  0.74840318  -0.00020550  1
  Fe  Fe30  1  0.24635366  0.00138312  0.00261873  1
  Fe  Fe31  1  0.87396665  0.12424788  0.87552033  1
  Fe  Fe32  1  0.75181727  0.49455374  0.24949500  1
  Fe  Fe33  1  0.62144817  0.37598439  0.12500253  1
  Fe  Fe34  1  0.12071485  0.37830371  0.37334279  1
  Fe  Fe35  1  0.00021615  0.24845006  0.50034793  1
  Fe  Fe36  1  0.25244672  0.25111979  0.49706226  1
  Fe  Fe37  1  0.12687989  0.62692079  0.62573898  1
  Fe  Fe38  1  0.37588162  0.87699787  0.87627027  1
  Fe  Fe39  1  0.62311075  0.87676894  0.87767202  1
  Fe  Fe40  1  0.49905766  0.74917352  0.75191743  1
  Fe  Fe41  1  0.87625010  0.87517941  0.12253481  1
  Fe  Fe42  1  0.87175617  0.87695513  0.62359208  1
  Fe  Fe43  1  0.25045906  -0.00133373  0.74863668  1
  Fe  Fe44  1  0.25484851  0.25463237  0.74837081  1
  Fe  Fe45  1  0.24610253  -0.00700976  0.24992282  1
  Fe  Fe46  1  0.62392637  0.12380917  0.87591515  1
  Fe  Fe47  1  0.62754675  0.87452224  0.62382317  1
  Fe  Fe48  1  0.75001274  0.25057524  0.75017643  1
  Fe  Fe49  1  -0.00067852  0.74730464  -0.00183408  1
  Fe  Fe50  1  0.75067555  0.49755689  0.75126029  1
  Fe  Fe51  1  0.00441766  0.24626088  -0.00099993  1
  Fe  Fe52  1  0.49894109  0.00125761  0.74839578  1
  Fe  Fe53  1  0.00012220  0.00243466  0.74963975  1
  Fe  Fe54  1  0.74942931  0.25186800  0.00084665  1
  Fe  Fe55  1  0.61910390  0.37328629  0.62272123  1
  Fe  Fe56  1  0.87656714  0.12569878  0.12437414  1
  Fe  Fe57  1  0.62764706  0.62461856  0.12335924  1
  Fe  Fe58  1  0.62461623  0.87459663  0.37519428  1
  Fe  Fe59  1  0.12338889  0.62573423  0.37128573  1
  Fe  Fe60  1  -0.00176739  0.74778549  0.49982980  1
  Fe  Fe61  1  0.25153025  0.75268650  0.49565511  1
  Fe  Fe62  1  0.37346370  0.62660348  0.62549128  1
  Fe  Fe63  1  0.62597267  0.62374512  0.37330420  1
  Fe  Fe64  1  0.62412757  0.12569605  0.12469347  1
  Fe  Fe65  1  0.75133452  0.75169524  0.24995765  1
  Fe  Fe66  1  -0.00091826  0.25215293  0.25045839  1
  Fe  Fe67  1  0.87288308  0.62371415  0.62565321  1
  Fe  Fe68  1  0.62560983  0.12608992  0.62607843  1
  Fe  Fe69  1  0.24891195  0.25186377  0.00246172  1
  Fe  Fe70  1  0.50090662  -0.00136792  0.24628323  1
  Fe  Fe71  1  0.62499688  0.12466710  0.37348270  1
  Fe  Fe72  1  0.87636782  0.62096496  0.37465168  1
  Fe  Fe73  1  0.49988010  0.74894578  0.49985659  1
  Fe  Fe74  1  0.87514928  0.87562711  0.37697807  1
  Fe  Fe75  1  0.12588225  0.87305559  0.62403734  1
  Fe  Fe76  1  0.37366779  0.12182976  0.37298747  1
  Fe  Fe77  1  0.12798009  0.37796355  0.87454461  1
  Fe  Fe78  1  0.25132476  -0.00321683  0.49947197  1
  Fe  Fe79  1  0.75042290  0.25021879  0.49769178  1
  Fe  Fe80  1  0.24983141  0.49980226  0.50113464  1
  Fe  Fe81  1  -0.00008852  0.24867354  0.75083234  1
  Fe  Fe82  1  0.87156285  0.62405026  0.12212648  1
  Fe  Fe83  1  0.37130193  0.12684513  0.12821962  1
  Fe  Fe84  1  0.49756628  0.24981858  -0.00136576  1
  Fe  Fe85  1  0.00144700  0.50234761  0.74997480  1
  Fe  Fe86  1  0.24943174  0.74990746  0.75429209  1
  Fe  Fe87  1  0.74832432  -0.00083218  0.00135592  1
  Fe  Fe88  1  0.87700244  0.37499042  0.62335523  1
  Fe  Fe89  1  0.12355608  0.87560433  0.87749953  1
  Co  Co90  1  0.38049335  0.87605773  0.37403240  1
  Co  Co91  1  0.37225290  0.37802973  0.87860882  1
  Co  Co92  1  0.74939459  0.75255944  -0.00179029  1
  Co  Co93  1  0.25164235  0.75412118  0.25358563  1
  Co  Co94  1  0.24623703  0.49693079  0.00680792  1
  Co  Co95  1  0.49792321  0.24471407  0.49719997  1
  Co  Co96  1  0.25162281  0.75062976  -0.00416797  1
  Co  Co97  1  0.87775458  0.37315205  0.12100839  1
  Co  Co98  1  0.62391712  0.87301665  0.12417104  1
  Co  Co99  1  0.37314092  0.12579955  0.62549897  1
  Co  Co100  1  0.74996908  0.00347295  0.49805802  1
  Co  Co101  1  0.50094815  0.50594813  0.50108443  1
  Co  Co102  1  0.49710073  0.24963806  0.75245464  1
  Co  Co103  1  0.49732385  0.00182576  0.00303946  1
  Co  Co104  1  0.75056263  0.74743359  0.49866456  1
  Co  Co105  1  0.87878169  0.37654511  0.37662512  1
  Co  Co106  1  0.25163032  0.49848429  0.74562667  1
  Co  Co107  1  0.50033807  0.50206333  0.24820044  1
  Co  Co108  1  0.12710448  0.12837189  0.13139782  1
  Co  Co109  1  0.12272646  0.37050132  0.12752489  1
  Co  Co110  1  0.87353368  0.12587310  0.62654119  1
  Co  Co111  1  0.00211825  0.50262562  0.50262234  1
  Co  Co112  1  0.12068420  0.87250586  0.37692323  1
  Co  Co113  1  0.00486076  0.00424644  0.00110337  1
  Co  Co114  1  -0.00071213  0.50166650  0.24436460  1
  Co  Co115  1  0.37905977  0.37526418  0.12409421  1
  Co  Co116  1  0.62101501  0.37580696  0.37625019  1
  Co  Co117  1  0.37439173  0.87145413  0.62668111  1
  Co  Co118  1  0.74922023  0.00015299  0.75205332  1
  Co  Co119  1  0.37943619  0.37507821  0.62033168  1
  Co  Co120  1  0.50112627  0.50133197  -0.00063313  1
  Co  Co121  1  0.12486759  0.86904987  0.12158982  1
  Co  Co122  1  -0.00321258  0.75010937  0.24951912  1
  Co  Co123  1  0.12765076  0.62176720  0.87521109  1
  Co  Co124  1  0.87315022  0.62196596  0.87676250  1
  Co  Co125  1  0.25262358  0.25654909  0.25396595  1
  Co  Co126  1  0.74788025  0.49620638  0.00001167  1
  Co  Co127  1  0.12902844  0.12625697  0.87096706  1
