# generated using pymatgen
data_Fe45Co19
_symmetry_space_group_name_H-M   'P 1'
_cell_length_a   11.41509789
_cell_length_b   11.41517486
_cell_length_c   11.41596175
_cell_angle_alpha   89.98952011
_cell_angle_beta   89.99886604
_cell_angle_gamma   90.01003591
_symmetry_Int_Tables_number   1
_chemical_formula_structural   Fe45Co19
_chemical_formula_sum   'Fe90 Co38'
_cell_volume   1487.56071175
_cell_formula_units_Z   2
loop_
 _symmetry_equiv_pos_site_id
 _symmetry_equiv_pos_as_xyz
  1  'x, y, z'
loop_
 _atom_site_type_symbol
 _atom_site_label
 _atom_site_symmetry_multiplicity
 _atom_site_fract_x
 _atom_site_fract_y
 _atom_site_fract_z
 _atom_site_occupancy
  Fe  Fe0  1  0.62544931  0.62247170  0.37465438  1
  Fe  Fe1  1  0.00265389  -0.00077979  0.00017184  1
  Fe  Fe2  1  0.24697625  0.74163538  0.00515208  1
  Fe  Fe3  1  0.62540408  0.62525278  0.87158814  1
  Fe  Fe4  1  0.87508105  0.87678931  0.37860678  1
  Fe  Fe5  1  0.12545484  0.86973166  0.12946255  1
  Fe  Fe6  1  0.87719509  0.12655102  0.37311451  1
  Fe  Fe7  1  0.75081688  0.25284447  0.75287057  1
  Fe  Fe8  1  0.49852164  0.75051880  0.25015716  1
  Fe  Fe9  1  0.25002343  0.74676667  0.50006668  1
  Fe  Fe10  1  0.62449455  0.87538418  0.62552246  1
  Fe  Fe11  1  0.87752304  0.62064841  0.62683571  1
  Fe  Fe12  1  0.62351846  0.12661150  0.62672140  1
  Fe  Fe13  1  0.87426420  0.12249621  0.12521500  1
  Fe  Fe14  1  0.12744640  0.12672411  0.63127281  1
  Fe  Fe15  1  0.37308423  0.87347798  0.87803050  1
  Fe  Fe16  1  0.87363548  0.37787254  0.87874121  1
  Fe  Fe17  1  0.50140809  0.74974363  -0.00001162  1
  Fe  Fe18  1  0.87573453  0.62334972  0.37653998  1
  Fe  Fe19  1  0.12145153  0.62828018  0.36986653  1
  Fe  Fe20  1  0.88021674  0.62684492  0.87047755  1
  Fe  Fe21  1  0.49934631  0.74891926  0.50142774  1
  Fe  Fe22  1  0.24464838  0.49638830  0.75340269  1
  Fe  Fe23  1  0.75406466  0.25295774  0.24644147  1
  Fe  Fe24  1  -0.00077195  0.75093970  0.50294457  1
  Fe  Fe25  1  0.50319488  -0.00233163  0.00028528  1
  Fe  Fe26  1  0.75028733  0.24869713  0.50168069  1
  Fe  Fe27  1  0.75287931  0.74933474  0.25101299  1
  Fe  Fe28  1  0.24911686  0.00321063  0.50013253  1
  Fe  Fe29  1  0.49707127  0.25391503  0.75080398  1
  Fe  Fe30  1  0.49990730  0.49775641  0.74975932  1
  Fe  Fe31  1  0.00266594  0.00310637  0.50088597  1
  Fe  Fe32  1  0.87703743  0.62313404  0.12615341  1
  Fe  Fe33  1  0.49632948  0.25319276  0.49816655  1
  Fe  Fe34  1  0.63077832  0.37715751  0.12076165  1
  Fe  Fe35  1  0.74919264  0.49913185  0.50151985  1
  Fe  Fe36  1  0.37242132  0.12432127  0.62945774  1
  Fe  Fe37  1  0.75090022  -0.00227851  0.75253726  1
  Fe  Fe38  1  0.00054887  -0.00110138  0.25117965  1
  Fe  Fe39  1  0.37226551  0.62333643  0.87582435  1
  Fe  Fe40  1  0.62565245  0.87503593  0.37349580  1
  Fe  Fe41  1  0.50246173  0.25019170  -0.00044215  1
  Fe  Fe42  1  0.62517065  0.62390784  0.62649693  1
  Fe  Fe43  1  0.36808494  0.37754764  0.61967341  1
  Fe  Fe44  1  0.75076349  0.74919909  0.50123264  1
  Fe  Fe45  1  0.37423275  0.62091950  0.62350467  1
  Fe  Fe46  1  0.62782105  0.12373984  0.12537635  1
  Fe  Fe47  1  0.37351203  0.87335100  0.12444471  1
  Fe  Fe48  1  0.00419944  0.50601638  -0.00312363  1
  Fe  Fe49  1  0.74848096  0.00368240  0.49918321  1
  Fe  Fe50  1  0.12396203  0.37570458  0.12233466  1
  Fe  Fe51  1  0.25033386  0.50191785  0.24761547  1
  Fe  Fe52  1  0.49959171  0.00209917  0.49914919  1
  Fe  Fe53  1  0.62424298  0.12584332  0.87469329  1
  Fe  Fe54  1  0.25116738  0.75257467  0.74681440  1
  Fe  Fe55  1  0.13005024  0.37093640  0.37596940  1
  Fe  Fe56  1  0.00171029  -0.00536510  0.74900713  1
  Fe  Fe57  1  0.49640286  0.75061206  0.74871909  1
  Fe  Fe58  1  0.37325522  0.12401117  0.87497792  1
  Fe  Fe59  1  0.37237414  0.87504146  0.37575506  1
  Fe  Fe60  1  0.62490989  0.62506504  0.12650152  1
  Fe  Fe61  1  0.50194507  0.49539615  0.25245605  1
  Fe  Fe62  1  0.37776127  0.62073588  0.37573796  1
  Fe  Fe63  1  0.49773332  -0.00249400  0.75108526  1
  Fe  Fe64  1  -0.00186963  0.24846866  0.00083925  1
  Fe  Fe65  1  0.87290307  0.87653620  0.12280313  1
  Fe  Fe66  1  0.12215049  0.62429527  0.62906996  1
  Fe  Fe67  1  0.75011148  0.75094210  -0.00197368  1
  Fe  Fe68  1  0.00348028  0.24858344  0.50020857  1
  Fe  Fe69  1  0.87368934  0.37358556  0.37750421  1
  Fe  Fe70  1  -0.00248482  0.49511340  0.25156521  1
  Fe  Fe71  1  0.00263919  0.49720942  0.50124570  1
  Fe  Fe72  1  0.49813985  0.25485673  0.24986470  1
  Fe  Fe73  1  0.12421025  0.12688949  0.12898305  1
  Fe  Fe74  1  0.24590220  0.00068629  -0.00064132  1
  Fe  Fe75  1  0.12658459  0.87311930  0.37393212  1
  Fe  Fe76  1  0.49925625  -0.00100960  0.24846339  1
  Fe  Fe77  1  0.00172777  0.25659902  0.75085630  1
  Fe  Fe78  1  0.37265780  0.37693141  0.87958837  1
  Fe  Fe79  1  0.37208417  0.12664470  0.37010443  1
  Fe  Fe80  1  0.75389592  0.75286594  0.74941516  1
  Fe  Fe81  1  0.12308024  0.86937625  0.87570414  1
  Fe  Fe82  1  0.37322251  0.37779128  0.12150720  1
  Fe  Fe83  1  0.24821422  0.24749975  -0.00104469  1
  Fe  Fe84  1  0.87728627  0.12273069  0.87523787  1
  Fe  Fe85  1  0.62620645  0.37476062  0.62534073  1
  Fe  Fe86  1  0.87622160  0.12604239  0.62735289  1
  Fe  Fe87  1  0.37386805  0.12450052  0.12435287  1
  Fe  Fe88  1  0.50245519  0.50145286  -0.00205592  1
  Fe  Fe89  1  0.62429536  0.12864258  0.37193163  1
  Co  Co90  1  -0.00655559  0.75328573  0.25096441  1
  Co  Co91  1  0.25076454  0.25420335  0.75382527  1
  Co  Co92  1  0.00105088  0.74750248  0.00309024  1
  Co  Co93  1  0.12296724  0.12616786  0.87168709  1
  Co  Co94  1  0.75069727  0.50680527  -0.00301617  1
  Co  Co95  1  0.38069840  0.62179496  0.12515424  1
  Co  Co96  1  0.11901334  0.62544572  0.13288096  1
  Co  Co97  1  0.74811486  -0.00144183  -0.00399959  1
  Co  Co98  1  0.12609673  0.12600283  0.36965196  1
  Co  Co99  1  -0.00161833  0.25305734  0.24880080  1
  Co  Co100  1  -0.00289299  0.75518951  0.74369143  1
  Co  Co101  1  0.12746329  0.87540719  0.62139002  1
  Co  Co102  1  0.24332657  0.50687660  0.49757160  1
  Co  Co103  1  0.37497891  0.87670530  0.62229461  1
  Co  Co104  1  0.50342489  0.49691719  0.50015388  1
  Co  Co105  1  0.24885052  -0.00400206  0.75343821  1
  Co  Co106  1  0.12872915  0.37317166  0.62115310  1
  Co  Co107  1  0.24942001  -0.00064128  0.24770050  1
  Co  Co108  1  0.25459659  0.74520804  0.24980705  1
  Co  Co109  1  0.36892623  0.37794757  0.37801604  1
  Co  Co110  1  0.25035963  0.24302629  0.50018206  1
  Co  Co111  1  0.62648298  0.37595053  0.87718360  1
  Co  Co112  1  0.62298155  0.87302067  0.87264182  1
  Co  Co113  1  0.87532136  0.37483391  0.62295383  1
  Co  Co114  1  0.62959453  0.37334241  0.37548398  1
  Co  Co115  1  0.75102338  0.49851117  0.75033285  1
  Co  Co116  1  0.75250480  0.50002059  0.25019837  1
  Co  Co117  1  0.24476008  0.50711750  0.00186979  1
  Co  Co118  1  0.87560934  0.37950572  0.11886744  1
  Co  Co119  1  0.88006358  0.87463415  0.87829698  1
  Co  Co120  1  0.75167738  0.24684120  -0.00106525  1
  Co  Co121  1  0.75130847  0.00071224  0.25258257  1
  Co  Co122  1  0.00317057  0.49367434  0.75071699  1
  Co  Co123  1  0.25122358  0.25236505  0.24647263  1
  Co  Co124  1  0.12513506  0.37355983  0.88205804  1
  Co  Co125  1  0.87299922  0.87871666  0.62095221  1
  Co  Co126  1  0.62680935  0.87429392  0.12743279  1
  Co  Co127  1  0.12293696  0.63048315  0.86833614  1
