# generated using pymatgen
data_Fe45Co19
_symmetry_space_group_name_H-M   'P 1'
_cell_length_a   11.41503587
_cell_length_b   11.41610159
_cell_length_c   11.41500822
_cell_angle_alpha   90.00404085
_cell_angle_beta   90.00319412
_cell_angle_gamma   90.00221570
_symmetry_Int_Tables_number   1
_chemical_formula_structural   Fe45Co19
_chemical_formula_sum   'Fe90 Co38'
_cell_volume   1487.54917613
_cell_formula_units_Z   2
loop_
 _symmetry_equiv_pos_site_id
 _symmetry_equiv_pos_as_xyz
  1  'x, y, z'
loop_
 _atom_site_type_symbol
 _atom_site_label
 _atom_site_symmetry_multiplicity
 _atom_site_fract_x
 _atom_site_fract_y
 _atom_site_fract_z
 _atom_site_occupancy
  Fe  Fe0  1  0.49827465  0.49899328  0.24875348  1
  Fe  Fe1  1  0.74897010  0.49855165  0.75016874  1
  Fe  Fe2  1  0.37686295  0.87543959  0.37570650  1
  Fe  Fe3  1  0.12839786  0.62277226  0.62635621  1
  Fe  Fe4  1  0.11821333  0.87204353  0.87428146  1
  Fe  Fe5  1  0.87705701  0.87505181  0.11965151  1
  Fe  Fe6  1  0.12436027  0.12579091  0.87203715  1
  Fe  Fe7  1  0.75339502  0.75221919  0.75218399  1
  Fe  Fe8  1  -0.00227987  0.50066107  0.49828258  1
  Fe  Fe9  1  0.49947334  0.74853006  0.75384692  1
  Fe  Fe10  1  0.62225205  0.37685556  0.87407215  1
  Fe  Fe11  1  0.24895610  0.75035085  -0.00081388  1
  Fe  Fe12  1  0.62482953  0.87562196  0.37511658  1
  Fe  Fe13  1  0.87297408  0.12557583  0.12170044  1
  Fe  Fe14  1  0.37614491  0.62465177  0.12114793  1
  Fe  Fe15  1  0.62428935  0.12346800  0.62831060  1
  Fe  Fe16  1  0.12198808  0.87355897  0.12325573  1
  Fe  Fe17  1  0.75042859  0.75150895  0.24805966  1
  Fe  Fe18  1  0.00101879  0.74683523  0.50139450  1
  Fe  Fe19  1  0.62579014  0.62410310  0.12395194  1
  Fe  Fe20  1  0.49932160  0.25152406  0.50035623  1
  Fe  Fe21  1  0.74708284  0.25211113  0.00005359  1
  Fe  Fe22  1  0.74910570  0.49934944  -0.00088365  1
  Fe  Fe23  1  0.50305813  0.25030474  0.00036741  1
  Fe  Fe24  1  -0.00226852  0.00007764  0.24886540  1
  Fe  Fe25  1  0.74758740  0.25265165  0.50188165  1
  Fe  Fe26  1  0.12560007  0.12487744  0.37449201  1
  Fe  Fe27  1  0.49873408  0.00042825  0.75404623  1
  Fe  Fe28  1  0.87658170  0.37457962  0.87613986  1
  Fe  Fe29  1  0.75038663  0.74793030  -0.00256464  1
  Fe  Fe30  1  0.75437623  0.49698047  0.24900374  1
  Fe  Fe31  1  0.74790682  0.74850156  0.50175194  1
  Fe  Fe32  1  0.62679241  0.62195252  0.37490667  1
  Fe  Fe33  1  0.50163491  0.75035293  0.24789978  1
  Fe  Fe34  1  0.74920090  0.25071057  0.24730887  1
  Fe  Fe35  1  0.12719735  0.37577761  0.62661714  1
  Fe  Fe36  1  -0.00168733  0.74782040  0.25038575  1
  Fe  Fe37  1  0.62517986  0.87609256  0.12116825  1
  Fe  Fe38  1  0.24966426  0.75019504  0.50079274  1
  Fe  Fe39  1  0.25090998  -0.00120151  0.24967902  1
  Fe  Fe40  1  0.25072085  0.00077846  0.50244844  1
  Fe  Fe41  1  0.37636698  0.62377155  0.87820596  1
  Fe  Fe42  1  0.24993626  0.75083489  0.25050434  1
  Fe  Fe43  1  -0.00756416  0.00265275  0.74901710  1
  Fe  Fe44  1  0.49619085  0.25176740  0.75171861  1
  Fe  Fe45  1  0.50145297  -0.00113389  -0.00491347  1
  Fe  Fe46  1  -0.00135670  0.00274132  0.50245430  1
  Fe  Fe47  1  0.87364213  0.62417968  0.62562722  1
  Fe  Fe48  1  0.62085667  0.37869991  0.62552931  1
  Fe  Fe49  1  0.12414318  0.37706002  0.12308513  1
  Fe  Fe50  1  0.62570120  0.87706765  0.62987667  1
  Fe  Fe51  1  0.37692239  0.87473206  0.62618226  1
  Fe  Fe52  1  0.12518316  0.62474381  0.12633621  1
  Fe  Fe53  1  0.12642775  0.37616469  0.37525128  1
  Fe  Fe54  1  0.74860248  0.00039965  0.50190154  1
  Fe  Fe55  1  -0.00150178  0.25146244  0.24931805  1
  Fe  Fe56  1  0.12206245  0.87598784  0.62728212  1
  Fe  Fe57  1  0.37516651  0.62616914  0.37485001  1
  Fe  Fe58  1  0.87564698  0.37551148  0.62482346  1
  Fe  Fe59  1  0.50108579  0.74894133  0.50122262  1
  Fe  Fe60  1  -0.00370853  0.50043016  0.25260436  1
  Fe  Fe61  1  0.24725885  -0.00058141  -0.00230404  1
  Fe  Fe62  1  0.25494953  0.49936944  0.49946041  1
  Fe  Fe63  1  0.74947877  0.00074128  0.25004528  1
  Fe  Fe64  1  0.50204197  0.24881138  0.24789247  1
  Fe  Fe65  1  0.62218361  0.62199405  0.62779026  1
  Fe  Fe66  1  0.37406043  0.37559477  0.11984629  1
  Fe  Fe67  1  0.25039344  0.75066781  0.75059812  1
  Fe  Fe68  1  0.62500075  0.37703837  0.37473546  1
  Fe  Fe69  1  0.50242199  0.00144438  0.25022361  1
  Fe  Fe70  1  0.25172237  0.49888318  0.24932027  1
  Fe  Fe71  1  0.87278079  0.12800239  0.37648377  1
  Fe  Fe72  1  0.00174220  0.24999185  0.50197231  1
  Fe  Fe73  1  0.00135064  0.50411189  -0.00331391  1
  Fe  Fe74  1  0.12600514  0.12396992  0.12639356  1
  Fe  Fe75  1  0.00119688  0.50125351  0.75212046  1
  Fe  Fe76  1  0.37529459  0.12393601  0.12088057  1
  Fe  Fe77  1  0.37674602  0.87501731  0.12278707  1
  Fe  Fe78  1  0.25313526  0.25137183  0.75176244  1
  Fe  Fe79  1  0.37708717  0.12460804  0.37625119  1
  Fe  Fe80  1  0.25217510  0.00022014  0.75123730  1
  Fe  Fe81  1  0.75040777  0.25025378  0.75008930  1
  Fe  Fe82  1  0.87448006  0.87296636  0.37743249  1
  Fe  Fe83  1  -0.00096394  0.24987850  0.74847766  1
  Fe  Fe84  1  0.25344040  0.49719190  0.75438485  1
  Fe  Fe85  1  0.00281811  0.24853096  -0.00015894  1
  Fe  Fe86  1  0.25117150  0.24909457  0.50248924  1
  Fe  Fe87  1  0.25087185  0.25050807  0.24792936  1
  Fe  Fe88  1  0.75006134  0.00125937  -0.00747533  1
  Fe  Fe89  1  0.12399919  0.87537604  0.37531916  1
  Co  Co90  1  0.87478962  0.87374323  0.62325101  1
  Co  Co91  1  0.37511700  0.37566550  0.62600759  1
  Co  Co92  1  0.49660984  0.49940347  0.75238524  1
  Co  Co93  1  0.87265525  0.62391690  0.87274264  1
  Co  Co94  1  0.87146820  0.12785147  0.62348306  1
  Co  Co95  1  -0.00194153  0.74662352  0.74742646  1
  Co  Co96  1  0.37496169  0.62592450  0.62727979  1
  Co  Co97  1  0.24591841  0.50092090  -0.00222776  1
  Co  Co98  1  0.37456496  0.87361506  0.87555753  1
  Co  Co99  1  -0.00048703  0.74317800  -0.00047689  1
  Co  Co100  1  0.62508948  0.37689169  0.12667995  1
  Co  Co101  1  0.49749374  0.50047159  0.49965881  1
  Co  Co102  1  0.87455957  0.13016251  0.87664418  1
  Co  Co103  1  0.87141320  0.62659288  0.37535928  1
  Co  Co104  1  0.50186423  0.75003691  -0.00139153  1
  Co  Co105  1  0.88026671  0.87250100  0.87756770  1
  Co  Co106  1  0.62579021  0.62402882  0.87383315  1
  Co  Co107  1  0.00199155  0.00430268  -0.00077330  1
  Co  Co108  1  0.24579070  0.24884661  -0.00044059  1
  Co  Co109  1  0.62555337  0.12643678  0.37611337  1
  Co  Co110  1  0.87346736  0.37272242  0.37701485  1
  Co  Co111  1  0.50210996  -0.00153609  0.50131625  1
  Co  Co112  1  0.75017554  0.49941633  0.50284213  1
  Co  Co113  1  0.37481163  0.12624510  0.87783235  1
  Co  Co114  1  0.87752189  0.37518674  0.12042047  1
  Co  Co115  1  0.37509480  0.37284829  0.37335368  1
  Co  Co116  1  0.12718128  0.62817985  0.87180255  1
  Co  Co117  1  0.37697796  0.12425038  0.62593569  1
  Co  Co118  1  0.87333656  0.62373880  0.12494670  1
  Co  Co119  1  0.75502813  0.00018561  0.75305466  1
  Co  Co120  1  0.12679422  0.62325831  0.37465873  1
  Co  Co121  1  0.62576449  0.12221433  0.12199287  1
  Co  Co122  1  0.62676225  0.87386874  0.87321847  1
  Co  Co123  1  0.62448664  0.12682698  0.87231365  1
  Co  Co124  1  0.37572415  0.37520717  0.88207362  1
  Co  Co125  1  0.12632466  0.12513886  0.62832204  1
  Co  Co126  1  0.50408523  0.50004976  -0.00001331  1
  Co  Co127  1  0.12383360  0.37301635  0.87450656  1
