# generated using pymatgen
data_Fe45Co19
_symmetry_space_group_name_H-M   'P 1'
_cell_length_a   11.41537530
_cell_length_b   11.41478615
_cell_length_c   11.41481912
_cell_angle_alpha   89.99906154
_cell_angle_beta   89.99220012
_cell_angle_gamma   89.99060805
_symmetry_Int_Tables_number   1
_chemical_formula_structural   Fe45Co19
_chemical_formula_sum   'Fe90 Co38'
_cell_volume   1487.39733025
_cell_formula_units_Z   2
loop_
 _symmetry_equiv_pos_site_id
 _symmetry_equiv_pos_as_xyz
  1  'x, y, z'
loop_
 _atom_site_type_symbol
 _atom_site_label
 _atom_site_symmetry_multiplicity
 _atom_site_fract_x
 _atom_site_fract_y
 _atom_site_fract_z
 _atom_site_occupancy
  Fe  Fe0  1  0.75201783  0.75011155  0.74931333  1
  Fe  Fe1  1  0.24953780  0.75088190  0.00119916  1
  Fe  Fe2  1  0.12362530  0.62702893  0.87435493  1
  Fe  Fe3  1  0.25037535  0.24863607  0.75036138  1
  Fe  Fe4  1  0.49810435  0.25308481  0.75310236  1
  Fe  Fe5  1  0.87520529  0.12369781  0.87662539  1
  Fe  Fe6  1  0.12529101  0.12634982  0.37301860  1
  Fe  Fe7  1  0.12603257  0.87590792  0.12602336  1
  Fe  Fe8  1  0.25261137  0.75292302  0.75066828  1
  Fe  Fe9  1  0.24969387  0.24857820  0.50144457  1
  Fe  Fe10  1  0.75076280  0.50124978  0.50020055  1
  Fe  Fe11  1  0.87091276  0.87588913  0.12331421  1
  Fe  Fe12  1  0.12892546  0.87358719  0.37088376  1
  Fe  Fe13  1  0.37524349  0.12199666  0.62530161  1
  Fe  Fe14  1  0.37762233  0.87565785  0.12095539  1
  Fe  Fe15  1  0.87052609  0.87795737  0.37757948  1
  Fe  Fe16  1  0.12478121  0.62503573  0.62547644  1
  Fe  Fe17  1  0.37338003  0.37277935  0.37510261  1
  Fe  Fe18  1  0.49887520  0.49893170  0.25103243  1
  Fe  Fe19  1  0.50008244  0.75166255  0.25086526  1
  Fe  Fe20  1  0.62537247  0.12537443  0.37318105  1
  Fe  Fe21  1  0.87536843  0.12169053  0.62573453  1
  Fe  Fe22  1  0.37307251  0.37498282  0.12270665  1
  Fe  Fe23  1  0.75251715  0.50004757  0.24846241  1
  Fe  Fe24  1  0.37651386  0.12352230  0.87859481  1
  Fe  Fe25  1  0.74743851  0.24772388  0.00050399  1
  Fe  Fe26  1  0.25107584  0.24736693  0.24641764  1
  Fe  Fe27  1  0.87496254  0.87572106  0.87509337  1
  Fe  Fe28  1  0.62208700  0.62308510  0.62682206  1
  Fe  Fe29  1  0.49832026  0.24881164  0.24936937  1
  Fe  Fe30  1  0.24783779  0.24552510  0.00287061  1
  Fe  Fe31  1  0.87972363  0.62388252  0.37274214  1
  Fe  Fe32  1  0.87358175  0.62353421  0.87756428  1
  Fe  Fe33  1  0.62357767  0.12272225  0.62976639  1
  Fe  Fe34  1  0.49880643  0.50059827  0.49855113  1
  Fe  Fe35  1  0.00097412  0.24869893  0.75090830  1
  Fe  Fe36  1  0.62597581  0.87795831  0.62715848  1
  Fe  Fe37  1  0.12374238  0.12260343  0.87514853  1
  Fe  Fe38  1  0.50049530  -0.00092394  0.49751513  1
  Fe  Fe39  1  0.75012121  0.74909008  0.25125291  1
  Fe  Fe40  1  0.12603331  0.37536020  0.87747893  1
  Fe  Fe41  1  0.50261426  0.25303637  -0.00193521  1
  Fe  Fe42  1  0.25236050  0.50084231  0.75081899  1
  Fe  Fe43  1  0.62625125  0.37362963  0.12657429  1
  Fe  Fe44  1  -0.00040498  0.75165647  0.00187958  1
  Fe  Fe45  1  0.12050803  0.62795301  0.13031972  1
  Fe  Fe46  1  0.74467766  0.00018229  -0.00206259  1
  Fe  Fe47  1  0.87253344  0.37657405  0.87673837  1
  Fe  Fe48  1  0.62477919  0.62482718  0.12649689  1
  Fe  Fe49  1  -0.00112578  0.75168363  0.75051432  1
  Fe  Fe50  1  0.24548037  0.49914245  0.25151557  1
  Fe  Fe51  1  0.37704728  0.62434726  0.12457263  1
  Fe  Fe52  1  0.25223834  -0.00319895  0.75391353  1
  Fe  Fe53  1  0.62554918  0.62283286  0.87293800  1
  Fe  Fe54  1  0.87585492  0.37561231  0.62417001  1
  Fe  Fe55  1  0.62499300  0.37754780  0.62781243  1
  Fe  Fe56  1  0.00180096  0.75211606  0.49759223  1
  Fe  Fe57  1  0.12471908  0.37571449  0.62524046  1
  Fe  Fe58  1  0.74743498  0.74924568  0.49874860  1
  Fe  Fe59  1  0.74651810  0.74959061  0.00039807  1
  Fe  Fe60  1  0.62671375  0.37543289  0.37390274  1
  Fe  Fe61  1  0.50079621  0.24963261  0.50004523  1
  Fe  Fe62  1  0.74927141  0.24744564  0.49944192  1
  Fe  Fe63  1  0.75083076  0.24888333  0.75019616  1
  Fe  Fe64  1  0.50137359  0.49756554  -0.00280163  1
  Fe  Fe65  1  -0.00093103  0.24904324  0.24608387  1
  Fe  Fe66  1  0.87410987  0.87811370  0.62425087  1
  Fe  Fe67  1  0.25053668  0.00049805  0.49790969  1
  Fe  Fe68  1  0.37608455  0.62638220  0.87621922  1
  Fe  Fe69  1  0.00132543  -0.00069102  0.00057303  1
  Fe  Fe70  1  0.50633192  -0.00211338  -0.00224638  1
  Fe  Fe71  1  0.24991255  0.75021526  0.50055502  1
  Fe  Fe72  1  0.12461405  0.87696278  0.62754143  1
  Fe  Fe73  1  0.50080038  0.75239045  0.49809883  1
  Fe  Fe74  1  -0.00267416  -0.00089405  0.24983698  1
  Fe  Fe75  1  0.24641118  0.50096947  0.49653098  1
  Fe  Fe76  1  0.37479088  0.37685734  0.62508991  1
  Fe  Fe77  1  0.49604184  0.75243447  0.74917836  1
  Fe  Fe78  1  0.25470997  0.00280286  0.24664300  1
  Fe  Fe79  1  0.87716199  0.37357150  0.37585592  1
  Fe  Fe80  1  0.24809177  0.50274898  0.00156159  1
  Fe  Fe81  1  0.87760006  0.62512231  0.62289687  1
  Fe  Fe82  1  0.37344394  0.62755868  0.37479019  1
  Fe  Fe83  1  0.87497997  0.37253071  0.12333080  1
  Fe  Fe84  1  0.75057880  0.00484112  0.24927560  1
  Fe  Fe85  1  0.00170609  0.00093658  0.49892217  1
  Fe  Fe86  1  0.49860957  0.00001807  0.25073594  1
  Fe  Fe87  1  -0.00031294  0.50014723  0.00296980  1
  Fe  Fe88  1  -0.00164223  0.49999986  0.75034989  1
  Fe  Fe89  1  0.00167957  0.24701671  0.50264481  1
  Co  Co90  1  0.62390387  0.12607629  0.12611015  1
  Co  Co91  1  0.12270373  0.62993914  0.37058337  1
  Co  Co92  1  0.62487072  0.62338144  0.37362652  1
  Co  Co93  1  0.12167964  0.12248247  0.12568401  1
  Co  Co94  1  0.37516315  0.12671982  0.37668188  1
  Co  Co95  1  0.62404030  0.12637822  0.87232544  1
  Co  Co96  1  0.37512863  0.87787327  0.62246540  1
  Co  Co97  1  0.37617491  0.87441473  0.88100372  1
  Co  Co98  1  0.75254900  0.50186519  0.74693120  1
  Co  Co99  1  -0.00040984  0.00011122  0.75060183  1
  Co  Co100  1  0.24789862  -0.00059529  0.00009764  1
  Co  Co101  1  0.87663898  0.62730392  0.12651040  1
  Co  Co102  1  0.12639379  0.37298520  0.12189431  1
  Co  Co103  1  0.50365491  0.74922860  0.00094705  1
  Co  Co104  1  0.00304229  0.50053713  0.49857401  1
  Co  Co105  1  0.37347096  0.87336922  0.37451220  1
  Co  Co106  1  0.37511238  0.62420605  0.62373019  1
  Co  Co107  1  0.75110609  -0.00013874  0.75253101  1
  Co  Co108  1  0.12339546  0.36893678  0.37523158  1
  Co  Co109  1  0.12351754  0.87371808  0.87535226  1
  Co  Co110  1  0.25396424  0.75049549  0.24525528  1
  Co  Co111  1  0.00206406  0.49581138  0.24819512  1
  Co  Co112  1  -0.00440646  0.75711318  0.25046428  1
  Co  Co113  1  0.62757700  0.87738507  0.37338624  1
  Co  Co114  1  0.62612236  0.87481019  0.12868915  1
  Co  Co115  1  0.74771336  0.00434350  0.50116428  1
  Co  Co116  1  0.62485628  0.87173371  0.87047357  1
  Co  Co117  1  0.75166774  0.24787778  0.25036206  1
  Co  Co118  1  0.12708595  0.12212640  0.62664014  1
  Co  Co119  1  0.00101369  0.24903572  -0.00103957  1
  Co  Co120  1  0.87665229  0.12605745  0.37546668  1
  Co  Co121  1  0.49663781  0.49675585  0.75407400  1
  Co  Co122  1  0.49736683  -0.00165183  0.75321874  1
  Co  Co123  1  0.74899592  0.50121692  0.00438381  1
  Co  Co124  1  0.87478108  0.12396237  0.12176289  1
  Co  Co125  1  0.63080805  0.37723365  0.87278882  1
  Co  Co126  1  0.36928614  0.37382375  0.87849495  1
  Co  Co127  1  0.37979783  0.12399506  0.11953092  1
