# generated using pymatgen
data_Fe45Co19
_symmetry_space_group_name_H-M   'P 1'
_cell_length_a   11.41470816
_cell_length_b   11.41449857
_cell_length_c   11.41579150
_cell_angle_alpha   90.00412603
_cell_angle_beta   90.00862739
_cell_angle_gamma   90.00213686
_symmetry_Int_Tables_number   1
_chemical_formula_structural   Fe45Co19
_chemical_formula_sum   'Fe90 Co38'
_cell_volume   1487.39964020
_cell_formula_units_Z   2
loop_
 _symmetry_equiv_pos_site_id
 _symmetry_equiv_pos_as_xyz
  1  'x, y, z'
loop_
 _atom_site_type_symbol
 _atom_site_label
 _atom_site_symmetry_multiplicity
 _atom_site_fract_x
 _atom_site_fract_y
 _atom_site_fract_z
 _atom_site_occupancy
  Fe  Fe0  1  0.87865643  0.37823982  0.62753408  1
  Fe  Fe1  1  0.87329369  0.87025546  0.62340047  1
  Fe  Fe2  1  0.24940452  0.25081350  0.24819559  1
  Fe  Fe3  1  0.25106532  -0.00047304  0.74947689  1
  Fe  Fe4  1  0.87480693  0.12361446  0.87417641  1
  Fe  Fe5  1  0.37585299  0.38207645  0.37320551  1
  Fe  Fe6  1  0.62503108  0.12717494  0.62433161  1
  Fe  Fe7  1  0.00218442  0.00107174  0.00017822  1
  Fe  Fe8  1  0.37388229  0.12650212  0.87563082  1
  Fe  Fe9  1  0.24826327  0.25321568  0.75124981  1
  Fe  Fe10  1  0.49467647  0.74859735  -0.00198896  1
  Fe  Fe11  1  0.62405587  0.37776248  0.37303251  1
  Fe  Fe12  1  0.87536620  0.87282077  0.87521206  1
  Fe  Fe13  1  0.49926681  0.25027143  0.75149327  1
  Fe  Fe14  1  0.75216697  0.50189073  0.00414498  1
  Fe  Fe15  1  0.49853699  0.25128758  0.49955478  1
  Fe  Fe16  1  0.87510553  0.87212266  0.12455961  1
  Fe  Fe17  1  0.88060795  0.37553562  0.12453082  1
  Fe  Fe18  1  0.62168062  0.87470020  0.37576876  1
  Fe  Fe19  1  0.62427845  0.37757784  0.87428590  1
  Fe  Fe20  1  0.74867481  0.74811997  0.24936080  1
  Fe  Fe21  1  0.74799450  -0.00087147  -0.00096025  1
  Fe  Fe22  1  0.75052760  0.25277929  0.75216497  1
  Fe  Fe23  1  0.00021318  0.74627035  -0.00003369  1
  Fe  Fe24  1  0.25176321  0.75068682  0.25345104  1
  Fe  Fe25  1  0.88079359  0.38025939  0.87574093  1
  Fe  Fe26  1  0.62320539  0.37685113  0.62666456  1
  Fe  Fe27  1  0.87704029  0.37857964  0.37275067  1
  Fe  Fe28  1  0.12403702  0.87810659  0.37654501  1
  Fe  Fe29  1  0.00118566  -0.00119757  0.74821047  1
  Fe  Fe30  1  0.87709845  0.12151392  0.37576498  1
  Fe  Fe31  1  0.25079768  0.25344399  0.49972443  1
  Fe  Fe32  1  0.75161216  0.25155747  0.25045238  1
  Fe  Fe33  1  0.62295138  0.87251368  0.87496449  1
  Fe  Fe34  1  0.37485471  0.87592829  0.12604111  1
  Fe  Fe35  1  0.49758882  0.49944612  0.00086695  1
  Fe  Fe36  1  0.49976945  0.00129918  0.24920682  1
  Fe  Fe37  1  0.49470512  0.74436865  0.75325255  1
  Fe  Fe38  1  0.24958537  -0.00104569  -0.00072505  1
  Fe  Fe39  1  0.87549145  0.12587965  0.62615653  1
  Fe  Fe40  1  0.62439032  0.37673098  0.12701638  1
  Fe  Fe41  1  0.50003567  0.25054952  -0.00000195  1
  Fe  Fe42  1  0.62366336  0.87077023  0.12366901  1
  Fe  Fe43  1  0.25172931  -0.00089974  0.50129587  1
  Fe  Fe44  1  0.87629618  0.87494672  0.37575528  1
  Fe  Fe45  1  0.49811740  0.25111420  0.24952495  1
  Fe  Fe46  1  0.49931923  0.00251754  0.74843215  1
  Fe  Fe47  1  0.37122358  0.62408240  0.12481091  1
  Fe  Fe48  1  0.49569299  0.74600456  0.25186131  1
  Fe  Fe49  1  0.24688397  0.49479715  0.00542856  1
  Fe  Fe50  1  0.49970375  0.00149986  -0.00038556  1
  Fe  Fe51  1  0.74972968  0.49955398  0.50100671  1
  Fe  Fe52  1  0.74968966  -0.00126077  0.24912117  1
  Fe  Fe53  1  0.12659894  0.87210396  0.62507434  1
  Fe  Fe54  1  0.00006082  0.74610584  0.74953026  1
  Fe  Fe55  1  0.00211149  0.24526735  0.25137295  1
  Fe  Fe56  1  0.37513665  0.12396494  0.37571992  1
  Fe  Fe57  1  0.62280351  0.87069566  0.62374189  1
  Fe  Fe58  1  0.00267258  0.74913933  0.25063481  1
  Fe  Fe59  1  0.00300347  0.25062781  0.75374582  1
  Fe  Fe60  1  0.49502215  0.74491171  0.49635084  1
  Fe  Fe61  1  0.62643820  0.62424253  0.87605825  1
  Fe  Fe62  1  0.00078443  0.25015620  0.49912118  1
  Fe  Fe63  1  0.12512564  0.37600696  0.37379732  1
  Fe  Fe64  1  0.75200257  0.25260853  0.49901926  1
  Fe  Fe65  1  0.62500474  0.12653923  0.12537307  1
  Fe  Fe66  1  0.24855409  0.00185899  0.24945210  1
  Fe  Fe67  1  0.74785815  -0.00234063  0.75003941  1
  Fe  Fe68  1  0.12503600  0.87332675  0.87464422  1
  Fe  Fe69  1  0.24650080  0.25188857  0.00067549  1
  Fe  Fe70  1  0.12600013  0.12683265  0.62362952  1
  Fe  Fe71  1  0.37653714  0.87231245  0.62398824  1
  Fe  Fe72  1  0.74900634  -0.00127719  0.50044217  1
  Fe  Fe73  1  0.13047304  0.62642714  0.62320406  1
  Fe  Fe74  1  0.12547179  0.87281684  0.12420791  1
  Fe  Fe75  1  0.75114055  0.25130230  -0.00108194  1
  Fe  Fe76  1  0.37742596  0.37820817  0.62634211  1
  Fe  Fe77  1  0.62491885  0.62086230  0.37192966  1
  Fe  Fe78  1  0.00122607  0.74864380  0.50010282  1
  Fe  Fe79  1  0.12963901  0.62402265  0.87807097  1
  Fe  Fe80  1  0.62449257  0.12562937  0.37564651  1
  Fe  Fe81  1  0.00305523  0.50142514  0.50281409  1
  Fe  Fe82  1  0.87660292  0.12498217  0.12414175  1
  Fe  Fe83  1  0.13069210  0.62315725  0.37636561  1
  Fe  Fe84  1  0.87450918  0.62375354  0.37487816  1
  Fe  Fe85  1  0.25415099  0.74981477  0.75348597  1
  Fe  Fe86  1  0.62662625  0.62519213  0.62679774  1
  Fe  Fe87  1  0.87369137  0.62338267  0.87298336  1
  Fe  Fe88  1  0.24962096  0.49707070  0.74922664  1
  Fe  Fe89  1  0.00457773  0.50416469  0.24574878  1
  Co  Co90  1  0.12481480  0.12569440  0.12450380  1
  Co  Co91  1  0.37070819  0.62385632  0.62254161  1
  Co  Co92  1  0.00107094  -0.00056661  0.24772759  1
  Co  Co93  1  0.11794558  0.37083825  0.12490026  1
  Co  Co94  1  0.12246969  0.37352868  0.62565949  1
  Co  Co95  1  0.50123605  0.50269378  0.50140214  1
  Co  Co96  1  0.74973374  0.49920792  0.74927753  1
  Co  Co97  1  0.87256449  0.62552995  0.62381918  1
  Co  Co98  1  0.37420799  0.37449589  0.87562168  1
  Co  Co99  1  0.37659531  0.87878543  0.87353227  1
  Co  Co100  1  0.62253848  0.62633685  0.12350357  1
  Co  Co101  1  0.74824099  0.74821964  0.49623868  1
  Co  Co102  1  0.49916503  0.00092537  0.50183559  1
  Co  Co103  1  0.75027436  0.75055339  0.75213375  1
  Co  Co104  1  0.00181817  0.50712192  0.00402000  1
  Co  Co105  1  0.12691867  0.12282154  0.87341488  1
  Co  Co106  1  0.75048023  0.49989534  0.24642154  1
  Co  Co107  1  0.37650939  0.87827846  0.37482422  1
  Co  Co108  1  0.75074878  0.74850507  -0.00089569  1
  Co  Co109  1  0.13106458  0.63092274  0.12336122  1
  Co  Co110  1  0.12583342  0.12408050  0.37789856  1
  Co  Co111  1  0.00422074  0.50535365  0.74802826  1
  Co  Co112  1  0.37441669  0.12565048  0.12375831  1
  Co  Co113  1  0.00024810  -0.00137934  0.50347359  1
  Co  Co114  1  0.62474887  0.12626391  0.87440063  1
  Co  Co115  1  0.36876106  0.61736174  0.37513975  1
  Co  Co116  1  0.00140392  0.24657862  -0.00411388  1
  Co  Co117  1  0.25370702  0.75462455  -0.00214386  1
  Co  Co118  1  0.87455778  0.62797092  0.12831922  1
  Co  Co119  1  0.24849815  0.49502932  0.50284702  1
  Co  Co120  1  0.25282950  0.75343602  0.49610347  1
  Co  Co121  1  0.37324807  0.12748128  0.62505296  1
  Co  Co122  1  0.49784908  0.50367633  0.75186073  1
  Co  Co123  1  0.49802604  0.50185047  0.24728609  1
  Co  Co124  1  0.12121791  0.37900489  0.87739225  1
  Co  Co125  1  0.36906997  0.61904106  0.87879710  1
  Co  Co126  1  0.24666091  0.49662701  0.24443149  1
  Co  Co127  1  0.37647714  0.37392319  0.12524212  1
