# generated using pymatgen
data_Fe45Co19
_symmetry_space_group_name_H-M   'P 1'
_cell_length_a   11.41677789
_cell_length_b   11.41584017
_cell_length_c   11.41607840
_cell_angle_alpha   89.99897957
_cell_angle_beta   89.99857112
_cell_angle_gamma   89.99935580
_symmetry_Int_Tables_number   1
_chemical_formula_structural   Fe45Co19
_chemical_formula_sum   'Fe90 Co38'
_cell_volume   1487.88160356
_cell_formula_units_Z   2
loop_
 _symmetry_equiv_pos_site_id
 _symmetry_equiv_pos_as_xyz
  1  'x, y, z'
loop_
 _atom_site_type_symbol
 _atom_site_label
 _atom_site_symmetry_multiplicity
 _atom_site_fract_x
 _atom_site_fract_y
 _atom_site_fract_z
 _atom_site_occupancy
  Fe  Fe0  1  0.87592885  0.37316880  0.87370894  1
  Fe  Fe1  1  0.62163474  0.37002834  0.37614627  1
  Fe  Fe2  1  0.00015705  0.75096632  0.24748331  1
  Fe  Fe3  1  0.74914109  0.75051812  0.00082815  1
  Fe  Fe4  1  0.00219801  0.25075044  0.74580145  1
  Fe  Fe5  1  0.24984916  0.49992843  0.00018702  1
  Fe  Fe6  1  0.37472476  0.87605570  0.62429734  1
  Fe  Fe7  1  0.74903241  0.49876821  0.49965765  1
  Fe  Fe8  1  0.87920696  0.12195509  0.62338473  1
  Fe  Fe9  1  0.00188702  0.49756845  -0.00042371  1
  Fe  Fe10  1  0.12705361  0.37162671  0.87449641  1
  Fe  Fe11  1  0.12108534  0.88180349  0.62925648  1
  Fe  Fe12  1  0.62622202  0.12411053  0.12744322  1
  Fe  Fe13  1  0.87514695  0.62378118  0.12496194  1
  Fe  Fe14  1  0.25146418  0.49952353  0.49733926  1
  Fe  Fe15  1  0.87439777  0.12407170  0.12659348  1
  Fe  Fe16  1  0.62538775  0.87498013  0.87512284  1
  Fe  Fe17  1  0.62808350  0.87254665  0.37509115  1
  Fe  Fe18  1  0.49794644  0.49502048  0.75106236  1
  Fe  Fe19  1  0.87707682  0.62275260  0.62616290  1
  Fe  Fe20  1  0.87723763  0.37335167  0.37474337  1
  Fe  Fe21  1  0.74998860  0.49562365  0.74889992  1
  Fe  Fe22  1  0.87602949  0.87431440  0.87411989  1
  Fe  Fe23  1  0.24841453  -0.00032001  0.50078300  1
  Fe  Fe24  1  0.12511252  0.62281052  0.12745070  1
  Fe  Fe25  1  0.74958938  0.25128716  0.74673823  1
  Fe  Fe26  1  0.37460916  0.62444217  0.62368415  1
  Fe  Fe27  1  0.12641030  0.87384447  0.37408716  1
  Fe  Fe28  1  0.62563824  0.62753887  0.37420991  1
  Fe  Fe29  1  0.49984155  0.00339123  0.25445402  1
  Fe  Fe30  1  0.49869261  0.25439848  0.74699894  1
  Fe  Fe31  1  0.74956388  0.49651902  -0.00075514  1
  Fe  Fe32  1  0.00281172  0.24981052  0.50132630  1
  Fe  Fe33  1  0.50080647  0.00298876  0.49745872  1
  Fe  Fe34  1  0.24877579  0.24953734  0.50248217  1
  Fe  Fe35  1  0.62557584  0.87617075  0.62453683  1
  Fe  Fe36  1  0.37499113  0.62331829  0.12493513  1
  Fe  Fe37  1  0.12840296  0.87911430  0.12045276  1
  Fe  Fe38  1  0.74962609  0.25038550  0.50234840  1
  Fe  Fe39  1  0.12607381  0.12548979  0.37389461  1
  Fe  Fe40  1  0.75013109  0.00012376  0.49901653  1
  Fe  Fe41  1  0.37398432  0.62948273  0.37632504  1
  Fe  Fe42  1  0.49933157  0.75260477  0.24812293  1
  Fe  Fe43  1  0.62546812  0.62346283  0.87475906  1
  Fe  Fe44  1  0.37245391  0.87875920  0.12076399  1
  Fe  Fe45  1  0.49907811  0.00156241  -0.00392725  1
  Fe  Fe46  1  0.50052475  0.75008713  0.50073443  1
  Fe  Fe47  1  -0.00069719  0.00018410  0.25209193  1
  Fe  Fe48  1  0.49686268  -0.00081115  0.75262374  1
  Fe  Fe49  1  0.24901931  0.75306312  0.74950233  1
  Fe  Fe50  1  0.00053019  0.75272690  0.50412299  1
  Fe  Fe51  1  0.00125371  0.49775906  0.50015079  1
  Fe  Fe52  1  0.87611910  0.37509589  0.12781799  1
  Fe  Fe53  1  0.25037851  0.49686671  0.74982387  1
  Fe  Fe54  1  0.37540550  0.36955046  0.37427239  1
  Fe  Fe55  1  0.12581576  0.37339669  0.37097062  1
  Fe  Fe56  1  0.12373274  0.62598663  0.87322018  1
  Fe  Fe57  1  0.00237378  0.75011851  -0.00018106  1
  Fe  Fe58  1  0.75126990  0.00185931  0.75213254  1
  Fe  Fe59  1  0.62405097  0.12443096  0.62497618  1
  Fe  Fe60  1  0.62678048  0.87837420  0.12512973  1
  Fe  Fe61  1  0.87387970  0.12649750  0.37414816  1
  Fe  Fe62  1  0.62330841  0.12861247  0.87403409  1
  Fe  Fe63  1  0.62297220  0.62210544  0.62441419  1
  Fe  Fe64  1  0.25083328  0.24496504  0.00496300  1
  Fe  Fe65  1  0.75030361  0.49809922  0.25163202  1
  Fe  Fe66  1  0.75112434  0.75078247  0.74700619  1
  Fe  Fe67  1  0.00236899  0.25006645  0.00370282  1
  Fe  Fe68  1  0.24983225  0.24856443  0.74580195  1
  Fe  Fe69  1  0.87550075  0.12917517  0.87593010  1
  Fe  Fe70  1  0.49901066  0.25328248  0.00338251  1
  Fe  Fe71  1  0.37316106  0.87447380  0.37628620  1
  Fe  Fe72  1  0.62492548  0.62265831  0.12541459  1
  Fe  Fe73  1  0.37414190  0.62556644  0.87473237  1
  Fe  Fe74  1  0.74823183  0.25097384  0.00230351  1
  Fe  Fe75  1  0.87531451  0.62779838  0.37468146  1
  Fe  Fe76  1  0.12752771  0.37512952  0.13077080  1
  Fe  Fe77  1  0.87679581  0.62404844  0.87388090  1
  Fe  Fe78  1  0.25044767  0.74956804  0.24756554  1
  Fe  Fe79  1  0.49944484  0.75010576  0.00001938  1
  Fe  Fe80  1  0.49874400  0.49554250  -0.00175119  1
  Fe  Fe81  1  0.49892847  0.75129769  0.75086547  1
  Fe  Fe82  1  0.87339026  0.87781808  0.12387941  1
  Fe  Fe83  1  0.49767973  0.49809411  0.25173348  1
  Fe  Fe84  1  0.12464243  0.62246438  0.62564958  1
  Fe  Fe85  1  0.12425419  0.62703197  0.37490477  1
  Fe  Fe86  1  0.37378175  0.12340187  0.62505090  1
  Fe  Fe87  1  0.00201762  0.00279172  -0.00404912  1
  Fe  Fe88  1  0.25133730  0.00401228  0.24928998  1
  Fe  Fe89  1  0.87223613  0.87148065  0.37592819  1
  Co  Co90  1  0.37212231  0.87298863  0.87880567  1
  Co  Co91  1  0.00012099  0.24813109  0.24980567  1
  Co  Co92  1  0.00053887  0.75066155  0.74869357  1
  Co  Co93  1  0.49869980  0.24508925  0.50149715  1
  Co  Co94  1  0.25251032  0.24476871  0.24652320  1
  Co  Co95  1  0.25212796  0.50214315  0.25405812  1
  Co  Co96  1  0.74982522  0.74997494  0.24579672  1
  Co  Co97  1  0.75056154  0.25152025  0.24886102  1
  Co  Co98  1  0.49742626  0.50114248  0.49697303  1
  Co  Co99  1  0.62626171  0.37323067  0.87431321  1
  Co  Co100  1  0.74988161  0.00239052  -0.00379127  1
  Co  Co101  1  0.49719759  0.24625464  0.24866014  1
  Co  Co102  1  0.37506281  0.37578349  0.62170812  1
  Co  Co103  1  0.12721157  0.87447803  0.87658684  1
  Co  Co104  1  0.12481895  0.12962489  0.87335245  1
  Co  Co105  1  0.87670174  0.37532828  0.62402928  1
  Co  Co106  1  0.75033574  0.00045397  0.25266420  1
  Co  Co107  1  -0.00056899  0.00348777  0.75656773  1
  Co  Co108  1  0.62260744  0.37575200  0.62135941  1
  Co  Co109  1  0.00017471  -0.00048832  0.49412032  1
  Co  Co110  1  0.62731311  0.12879261  0.37489188  1
  Co  Co111  1  0.24708271  0.75210684  0.50379461  1
  Co  Co112  1  0.25025035  0.00765214  -0.00672986  1
  Co  Co113  1  0.37784838  0.13100498  0.87385892  1
  Co  Co114  1  0.12260782  0.12186068  0.12678902  1
  Co  Co115  1  0.25243778  0.00167104  0.75491197  1
  Co  Co116  1  0.37796833  0.12112069  0.12355380  1
  Co  Co117  1  0.37123037  0.12578366  0.37837621  1
  Co  Co118  1  0.12584854  0.37690934  0.62384945  1
  Co  Co119  1  0.62353198  0.37560726  0.12793012  1
  Co  Co120  1  0.37218920  0.37638049  0.12697288  1
  Co  Co121  1  0.00158941  0.49593155  0.75144910  1
  Co  Co122  1  0.12339643  0.12034298  0.62465846  1
  Co  Co123  1  0.24962034  0.74592588  0.00083051  1
  Co  Co124  1  0.87744534  0.88018533  0.62570768  1
  Co  Co125  1  0.75021692  0.74887403  0.50483708  1
  Co  Co126  1  -0.00075974  0.50037137  0.25091246  1
  Co  Co127  1  0.37074425  0.37172874  0.87675065  1
