# generated using pymatgen
data_Fe45Co19
_symmetry_space_group_name_H-M   'P 1'
_cell_length_a   11.41427817
_cell_length_b   11.41594757
_cell_length_c   11.41581038
_cell_angle_alpha   90.00688517
_cell_angle_beta   89.99478705
_cell_angle_gamma   90.00439259
_symmetry_Int_Tables_number   1
_chemical_formula_structural   Fe45Co19
_chemical_formula_sum   'Fe90 Co38'
_cell_volume   1487.53488048
_cell_formula_units_Z   2
loop_
 _symmetry_equiv_pos_site_id
 _symmetry_equiv_pos_as_xyz
  1  'x, y, z'
loop_
 _atom_site_type_symbol
 _atom_site_label
 _atom_site_symmetry_multiplicity
 _atom_site_fract_x
 _atom_site_fract_y
 _atom_site_fract_z
 _atom_site_occupancy
  Fe  Fe0  1  0.00134190  -0.00350145  0.00123361  1
  Fe  Fe1  1  0.12421607  0.87368331  0.62656043  1
  Fe  Fe2  1  0.12274764  0.62432018  0.62206334  1
  Fe  Fe3  1  -0.00088778  0.49988918  0.74900102  1
  Fe  Fe4  1  0.37087555  0.62648391  0.12426391  1
  Fe  Fe5  1  0.49788533  0.75017545  0.25292570  1
  Fe  Fe6  1  0.24763568  0.50072719  0.00239284  1
  Fe  Fe7  1  0.24754297  0.25183173  0.50059728  1
  Fe  Fe8  1  0.50042568  -0.00229579  0.00216554  1
  Fe  Fe9  1  0.12229630  0.12438691  0.87180244  1
  Fe  Fe10  1  0.74888125  0.00080855  0.74939880  1
  Fe  Fe11  1  0.74915510  0.74772063  0.75044408  1
  Fe  Fe12  1  0.36975464  0.87988934  0.37482831  1
  Fe  Fe13  1  0.50194223  0.24967968  0.75426960  1
  Fe  Fe14  1  0.87426300  0.87409545  0.62414916  1
  Fe  Fe15  1  0.37668405  0.12418491  0.87780400  1
  Fe  Fe16  1  0.87677113  0.87413206  0.87374316  1
  Fe  Fe17  1  0.87687124  0.62548502  0.87767325  1
  Fe  Fe18  1  0.37359519  0.12369411  0.37646446  1
  Fe  Fe19  1  0.25099914  -0.00018369  0.74971460  1
  Fe  Fe20  1  0.62249423  0.62237881  0.37548298  1
  Fe  Fe21  1  0.24966951  0.75115539  0.49851303  1
  Fe  Fe22  1  0.25027820  0.50076539  0.74919725  1
  Fe  Fe23  1  0.87651591  0.12589205  0.62505878  1
  Fe  Fe24  1  0.50006201  0.50209641  0.74815029  1
  Fe  Fe25  1  0.62588603  0.87633343  0.37427445  1
  Fe  Fe26  1  0.75071466  0.75039944  0.49610061  1
  Fe  Fe27  1  0.37379388  0.37554011  0.37319340  1
  Fe  Fe28  1  0.62439350  0.12605110  0.37283160  1
  Fe  Fe29  1  0.74872088  0.25124608  -0.00180008  1
  Fe  Fe30  1  0.12222168  0.62260278  0.37751087  1
  Fe  Fe31  1  0.00242402  -0.00293193  0.50080047  1
  Fe  Fe32  1  0.87667285  0.37209677  0.12557851  1
  Fe  Fe33  1  0.75060807  -0.00241134  0.00005539  1
  Fe  Fe34  1  0.49953552  0.25181321  0.24735216  1
  Fe  Fe35  1  0.87840228  0.62599962  0.61965871  1
  Fe  Fe36  1  0.87631653  0.37489191  0.37381355  1
  Fe  Fe37  1  0.12385912  0.37490365  0.12639921  1
  Fe  Fe38  1  0.87293856  0.37492118  0.62730422  1
  Fe  Fe39  1  0.62703781  0.87133785  0.12700653  1
  Fe  Fe40  1  0.62614494  0.37604187  0.37160412  1
  Fe  Fe41  1  0.62225578  0.62777876  0.62123482  1
  Fe  Fe42  1  0.24874169  0.24943128  0.24967674  1
  Fe  Fe43  1  0.62757122  0.37558412  0.62883598  1
  Fe  Fe44  1  0.87653506  0.12503717  0.87409120  1
  Fe  Fe45  1  0.12602571  0.12256306  0.37529181  1
  Fe  Fe46  1  0.74954141  0.25005412  0.49892053  1
  Fe  Fe47  1  0.24797745  0.49647621  0.50021766  1
  Fe  Fe48  1  0.25119330  0.74910554  0.74975432  1
  Fe  Fe49  1  0.37641097  0.62092445  0.37721675  1
  Fe  Fe50  1  0.87234129  0.87024241  0.12692990  1
  Fe  Fe51  1  0.74783861  -0.00006264  0.50071569  1
  Fe  Fe52  1  0.37636928  0.37740010  0.87774242  1
  Fe  Fe53  1  -0.00128996  0.74985586  0.25371115  1
  Fe  Fe54  1  0.12283041  0.12607439  0.12388183  1
  Fe  Fe55  1  0.75046534  0.50017361  0.49997351  1
  Fe  Fe56  1  0.38031084  0.87522278  0.62454635  1
  Fe  Fe57  1  0.24694978  0.25014315  -0.00188070  1
  Fe  Fe58  1  0.00082420  -0.00164209  0.24903554  1
  Fe  Fe59  1  0.37476534  0.12734859  0.12242835  1
  Fe  Fe60  1  0.62384199  0.62199813  0.87692894  1
  Fe  Fe61  1  0.49802796  0.00076145  0.24898584  1
  Fe  Fe62  1  0.50457545  0.25500845  0.00002818  1
  Fe  Fe63  1  0.37719320  0.12544933  0.62446114  1
  Fe  Fe64  1  -0.00098967  0.50289513  0.24709440  1
  Fe  Fe65  1  0.75226406  0.50051101  0.00162696  1
  Fe  Fe66  1  0.24663688  -0.00301065  0.00085473  1
  Fe  Fe67  1  0.87526755  0.12709655  0.12467507  1
  Fe  Fe68  1  0.62274016  0.12426185  0.62555030  1
  Fe  Fe69  1  0.37407106  0.37397416  0.62657647  1
  Fe  Fe70  1  0.75367317  0.50308704  0.24896088  1
  Fe  Fe71  1  0.49926291  0.74906162  -0.00052617  1
  Fe  Fe72  1  0.36987258  0.87236136  0.12670765  1
  Fe  Fe73  1  0.00262576  0.25372974  0.50033120  1
  Fe  Fe74  1  0.00332522  0.75102097  0.00147059  1
  Fe  Fe75  1  0.12461012  0.62550637  0.87593464  1
  Fe  Fe76  1  0.37706566  0.62539968  0.62152574  1
  Fe  Fe77  1  0.50144274  0.25237889  0.49900826  1
  Fe  Fe78  1  0.62314485  0.87529498  0.87265552  1
  Fe  Fe79  1  0.37456761  0.62381836  0.87714457  1
  Fe  Fe80  1  0.12461693  0.12780506  0.62920803  1
  Fe  Fe81  1  0.62618785  0.12640154  0.12475096  1
  Fe  Fe82  1  0.49778757  0.49825106  0.24500665  1
  Fe  Fe83  1  0.37484143  0.87408254  0.87440627  1
  Fe  Fe84  1  0.75096274  0.00110359  0.24931013  1
  Fe  Fe85  1  -0.00007772  0.74956448  0.74941981  1
  Fe  Fe86  1  0.87242076  0.37537646  0.87210330  1
  Fe  Fe87  1  0.12401775  0.37470727  0.87224205  1
  Fe  Fe88  1  0.87645882  0.12452609  0.37531628  1
  Fe  Fe89  1  0.62805844  0.62763977  0.12483121  1
  Co  Co90  1  -0.00049427  0.49916245  0.00084665  1
  Co  Co91  1  0.62466327  0.12205367  0.87844018  1
  Co  Co92  1  0.62701996  0.38107818  0.87259031  1
  Co  Co93  1  0.00107574  0.75578785  0.49627928  1
  Co  Co94  1  0.25358724  0.24899126  0.75272163  1
  Co  Co95  1  0.24987877  0.74526976  0.25608867  1
  Co  Co96  1  0.87364543  0.63017965  0.12204290  1
  Co  Co97  1  0.37052329  0.37338802  0.12309200  1
  Co  Co98  1  0.50057116  0.49494279  0.50163268  1
  Co  Co99  1  0.24997243  0.50107763  0.24948174  1
  Co  Co100  1  0.49975667  0.74645378  0.75183067  1
  Co  Co101  1  0.12915052  0.87832665  0.37260161  1
  Co  Co102  1  0.12456948  0.37708467  0.37081715  1
  Co  Co103  1  -0.00030533  0.25065704  -0.00254078  1
  Co  Co104  1  0.75191855  0.24888772  0.25077238  1
  Co  Co105  1  0.49840702  0.75344247  0.49502472  1
  Co  Co106  1  0.62390409  0.87253958  0.62564762  1
  Co  Co107  1  0.74873417  0.75090251  -0.00445633  1
  Co  Co108  1  0.00107496  0.24795938  0.25140293  1
  Co  Co109  1  0.12591264  0.62729191  0.12524471  1
  Co  Co110  1  0.24833937  0.75066543  -0.00267309  1
  Co  Co111  1  0.12689062  0.37462386  0.62988727  1
  Co  Co112  1  0.00118961  0.49349489  0.50224013  1
  Co  Co113  1  0.50122006  -0.00040196  0.49802682  1
  Co  Co114  1  0.12453619  0.87426515  0.87226301  1
  Co  Co115  1  0.50003671  0.00141201  0.75057815  1
  Co  Co116  1  0.24961407  0.00463637  0.24519327  1
  Co  Co117  1  0.12789387  0.87046455  0.12959459  1
  Co  Co118  1  0.75171846  0.50723611  0.74799747  1
  Co  Co119  1  0.75147014  0.74667149  0.25616428  1
  Co  Co120  1  0.62926166  0.37591620  0.12656460  1
  Co  Co121  1  0.87391662  0.87856273  0.37512962  1
  Co  Co122  1  0.50029397  0.49997022  0.00528221  1
  Co  Co123  1  -0.00112960  -0.00144955  0.74897112  1
  Co  Co124  1  0.24871301  0.00047390  0.50580787  1
  Co  Co125  1  0.74830503  0.24530308  0.75131200  1
  Co  Co126  1  0.87883183  0.62245784  0.37973941  1
  Co  Co127  1  -0.00250552  0.25211718  0.74986552  1
