# generated using pymatgen
data_Fe45Co19
_symmetry_space_group_name_H-M   'P 1'
_cell_length_a   11.41575427
_cell_length_b   11.41506231
_cell_length_c   11.41444536
_cell_angle_alpha   90.00080667
_cell_angle_beta   89.99621349
_cell_angle_gamma   89.99919766
_symmetry_Int_Tables_number   1
_chemical_formula_structural   Fe45Co19
_chemical_formula_sum   'Fe90 Co38'
_cell_volume   1487.43402138
_cell_formula_units_Z   2
loop_
 _symmetry_equiv_pos_site_id
 _symmetry_equiv_pos_as_xyz
  1  'x, y, z'
loop_
 _atom_site_type_symbol
 _atom_site_label
 _atom_site_symmetry_multiplicity
 _atom_site_fract_x
 _atom_site_fract_y
 _atom_site_fract_z
 _atom_site_occupancy
  Fe  Fe0  1  0.75234561  0.49873119  0.50011031  1
  Fe  Fe1  1  0.37412089  0.62344545  0.62698751  1
  Fe  Fe2  1  0.37276926  0.36970312  0.37118814  1
  Fe  Fe3  1  0.50344851  0.25061867  0.75070224  1
  Fe  Fe4  1  0.75096560  0.00231010  0.00261409  1
  Fe  Fe5  1  0.12520365  0.62394399  0.87292788  1
  Fe  Fe6  1  0.37509269  0.62384608  0.37279088  1
  Fe  Fe7  1  0.62441904  0.12798295  0.12347455  1
  Fe  Fe8  1  0.25329592  0.49999176  0.00189648  1
  Fe  Fe9  1  0.87556766  0.12619608  0.37026232  1
  Fe  Fe10  1  0.62568943  0.62429833  0.62225589  1
  Fe  Fe11  1  -0.00125556  -0.00130316  0.49965136  1
  Fe  Fe12  1  0.87512319  0.12673855  0.13146292  1
  Fe  Fe13  1  0.12572179  0.87653382  0.87467189  1
  Fe  Fe14  1  0.24756127  0.00623480  0.25269307  1
  Fe  Fe15  1  0.62539673  0.37426720  0.62382582  1
  Fe  Fe16  1  0.00106622  0.00086686  0.74967306  1
  Fe  Fe17  1  0.49762564  0.49889666  0.50014487  1
  Fe  Fe18  1  0.74916115  0.00112305  0.49784451  1
  Fe  Fe19  1  0.25123311  -0.00045378  0.74883051  1
  Fe  Fe20  1  0.12361556  0.62627446  0.62778355  1
  Fe  Fe21  1  0.74748706  0.00167460  0.74882426  1
  Fe  Fe22  1  0.87507554  0.37274389  0.62757004  1
  Fe  Fe23  1  0.87716190  0.37312734  0.37142142  1
  Fe  Fe24  1  0.00288690  0.50017106  0.24969465  1
  Fe  Fe25  1  0.25045768  0.74850632  -0.00053992  1
  Fe  Fe26  1  -0.00064114  0.50181747  0.50078703  1
  Fe  Fe27  1  -0.00210363  0.00084804  0.00132485  1
  Fe  Fe28  1  0.37502961  0.12746637  0.62241723  1
  Fe  Fe29  1  0.62372993  0.12785411  0.37507231  1
  Fe  Fe30  1  0.37584912  0.62201174  0.87348847  1
  Fe  Fe31  1  0.37472719  0.87541956  0.37449896  1
  Fe  Fe32  1  0.62411456  0.37521113  0.37639999  1
  Fe  Fe33  1  0.49952758  0.74699959  0.00242003  1
  Fe  Fe34  1  0.75017157  0.75026643  0.49762658  1
  Fe  Fe35  1  0.37730990  0.87434913  0.62452203  1
  Fe  Fe36  1  0.87327257  0.37185652  0.87195339  1
  Fe  Fe37  1  0.62493460  0.87554431  0.12364645  1
  Fe  Fe38  1  0.87542817  0.62428138  0.37449429  1
  Fe  Fe39  1  0.74878342  0.74967213  0.75060087  1
  Fe  Fe40  1  0.25442039  0.00201275  -0.00000774  1
  Fe  Fe41  1  0.12609045  0.37328408  0.12481727  1
  Fe  Fe42  1  0.12337743  0.37556937  0.62568275  1
  Fe  Fe43  1  0.62350400  0.61919510  0.87822922  1
  Fe  Fe44  1  0.74938053  0.49729412  0.24793890  1
  Fe  Fe45  1  0.12624651  0.87760489  0.12359822  1
  Fe  Fe46  1  0.62492008  0.12763748  0.87823925  1
  Fe  Fe47  1  0.37726130  0.87576932  0.87580753  1
  Fe  Fe48  1  0.87514238  0.62400366  0.12617460  1
  Fe  Fe49  1  0.62371280  0.87675247  0.87760264  1
  Fe  Fe50  1  0.74747379  0.75092111  0.25101541  1
  Fe  Fe51  1  0.87407234  0.12607992  0.87160697  1
  Fe  Fe52  1  0.62366919  0.62309505  0.37466678  1
  Fe  Fe53  1  0.87399350  0.12706323  0.62647432  1
  Fe  Fe54  1  0.37596407  0.37399673  0.62619666  1
  Fe  Fe55  1  0.37576682  0.12904384  0.12817904  1
  Fe  Fe56  1  0.50067707  0.00229191  0.75084659  1
  Fe  Fe57  1  0.37487397  0.87526243  0.12599376  1
  Fe  Fe58  1  0.87537302  0.62467072  0.87302299  1
  Fe  Fe59  1  -0.00245428  0.49858419  -0.00003037  1
  Fe  Fe60  1  0.62319835  0.87513299  0.62240230  1
  Fe  Fe61  1  0.74951035  0.24996332  0.49919926  1
  Fe  Fe62  1  0.25019705  0.49802418  0.50031062  1
  Fe  Fe63  1  0.74936329  0.49834657  0.75021005  1
  Fe  Fe64  1  0.00308823  0.74952179  0.24999141  1
  Fe  Fe65  1  0.74995773  0.74761350  0.00091786  1
  Fe  Fe66  1  0.24925204  0.25090705  0.74981634  1
  Fe  Fe67  1  0.24703688  0.74815377  0.24983964  1
  Fe  Fe68  1  0.25405858  0.24981415  -0.00123469  1
  Fe  Fe69  1  0.00100970  0.25116901  0.49834079  1
  Fe  Fe70  1  0.87440175  0.87641882  0.12789930  1
  Fe  Fe71  1  0.50168020  0.75009466  0.25026687  1
  Fe  Fe72  1  0.12439689  0.87275612  0.62570910  1
  Fe  Fe73  1  0.12535754  0.87637036  0.37639521  1
  Fe  Fe74  1  0.50155102  0.00086724  0.25068435  1
  Fe  Fe75  1  0.49953634  0.49706277  0.24448527  1
  Fe  Fe76  1  0.12663545  0.12521214  0.62187076  1
  Fe  Fe77  1  0.49880432  0.00115471  0.49775158  1
  Fe  Fe78  1  0.00062846  0.75061208  -0.00019106  1
  Fe  Fe79  1  0.87478969  0.87296235  0.62570160  1
  Fe  Fe80  1  0.62691215  0.37378845  0.11740465  1
  Fe  Fe81  1  0.25066672  0.74953726  0.50025267  1
  Fe  Fe82  1  0.87347411  0.87656991  0.87486888  1
  Fe  Fe83  1  0.12625181  0.12477307  0.87629788  1
  Fe  Fe84  1  0.50056786  0.74762528  0.74947137  1
  Fe  Fe85  1  0.12419354  0.37467894  0.87469556  1
  Fe  Fe86  1  0.24846902  0.50086160  0.24844619  1
  Fe  Fe87  1  -0.00283138  0.24994411  0.00129011  1
  Fe  Fe88  1  0.37871363  0.37755449  0.87325597  1
  Fe  Fe89  1  0.87543678  0.87715716  0.37180897  1
  Co  Co90  1  0.12423976  0.12341059  0.38292610  1
  Co  Co91  1  0.87768773  0.37421743  0.12940116  1
  Co  Co92  1  0.25262448  -0.00198069  0.49987976  1
  Co  Co93  1  0.12561991  0.12564372  0.11844722  1
  Co  Co94  1  0.50081828  0.25246756  0.50010858  1
  Co  Co95  1  0.24902552  0.25344002  0.49872163  1
  Co  Co96  1  0.37457543  0.12516667  0.87176398  1
  Co  Co97  1  0.37357207  0.62739767  0.12748909  1
  Co  Co98  1  0.00522542  0.00199597  0.24960383  1
  Co  Co99  1  0.12588795  0.62381468  0.37698261  1
  Co  Co100  1  0.75467795  0.49950959  0.00038628  1
  Co  Co101  1  0.49826145  0.00278295  0.00141368  1
  Co  Co102  1  0.62434178  0.37599176  0.88056217  1
  Co  Co103  1  0.50400448  0.25314474  0.24812041  1
  Co  Co104  1  0.62667108  0.62357885  0.12568963  1
  Co  Co105  1  0.75506120  0.24903348  0.00143458  1
  Co  Co106  1  -0.00114481  0.75094981  0.75236513  1
  Co  Co107  1  0.25181690  0.75103070  0.75100816  1
  Co  Co108  1  0.62324688  0.87460675  0.37774998  1
  Co  Co109  1  0.00711727  0.24777190  0.25080955  1
  Co  Co110  1  0.37720801  0.12940318  0.37591683  1
  Co  Co111  1  0.74692344  0.25328208  0.24967707  1
  Co  Co112  1  0.49549371  0.25078084  -0.00047601  1
  Co  Co113  1  -0.00155344  0.49921481  0.75021836  1
  Co  Co114  1  0.62382701  0.12453677  0.62218132  1
  Co  Co115  1  0.49750632  0.74709599  0.49890858  1
  Co  Co116  1  0.87444096  0.62660795  0.62526203  1
  Co  Co117  1  0.00311791  0.24846897  0.74993932  1
  Co  Co118  1  0.12529111  0.37755212  0.37435507  1
  Co  Co119  1  0.24267142  0.24387007  0.25343747  1
  Co  Co120  1  0.36972150  0.36993677  0.12934995  1
  Co  Co121  1  -0.00040177  0.74973007  0.49803624  1
  Co  Co122  1  0.49476378  0.49968295  0.00644680  1
  Co  Co123  1  0.74499013  0.25030007  0.74947295  1
  Co  Co124  1  0.74526138  0.00033900  0.25056602  1
  Co  Co125  1  0.12461876  0.62340843  0.12248666  1
  Co  Co126  1  0.24872405  0.49790890  0.74957894  1
  Co  Co127  1  0.50292168  0.49905934  0.74755047  1
