# generated using pymatgen
data_Fe45Co19
_symmetry_space_group_name_H-M   'P 1'
_cell_length_a   11.41571486
_cell_length_b   11.41384654
_cell_length_c   11.41423721
_cell_angle_alpha   90.01093176
_cell_angle_beta   89.99885231
_cell_angle_gamma   90.00425852
_symmetry_Int_Tables_number   1
_chemical_formula_structural   Fe45Co19
_chemical_formula_sum   'Fe90 Co38'
_cell_volume   1487.24331620
_cell_formula_units_Z   2
loop_
 _symmetry_equiv_pos_site_id
 _symmetry_equiv_pos_as_xyz
  1  'x, y, z'
loop_
 _atom_site_type_symbol
 _atom_site_label
 _atom_site_symmetry_multiplicity
 _atom_site_fract_x
 _atom_site_fract_y
 _atom_site_fract_z
 _atom_site_occupancy
  Fe  Fe0  1  0.49960983  -0.00411551  0.75524627  1
  Fe  Fe1  1  0.37534508  0.37671465  0.37531706  1
  Fe  Fe2  1  0.74966540  0.49868604  0.25032409  1
  Fe  Fe3  1  0.87190488  0.62653495  0.87256286  1
  Fe  Fe4  1  0.12378438  0.87552005  0.12178762  1
  Fe  Fe5  1  0.75040098  0.75041032  0.24801924  1
  Fe  Fe6  1  0.49830525  0.24848962  0.50091197  1
  Fe  Fe7  1  0.12591648  0.62598568  0.37287557  1
  Fe  Fe8  1  0.12527522  0.12399863  0.12428139  1
  Fe  Fe9  1  0.87301288  0.12233555  0.87353377  1
  Fe  Fe10  1  0.87665464  0.12419312  0.37687074  1
  Fe  Fe11  1  0.12424258  0.62763144  0.87580164  1
  Fe  Fe12  1  -0.00169764  0.75615378  0.75479785  1
  Fe  Fe13  1  0.50011769  0.74413767  0.50226194  1
  Fe  Fe14  1  0.25019728  0.50304544  0.50083958  1
  Fe  Fe15  1  0.37485799  0.12335480  0.37163268  1
  Fe  Fe16  1  0.25245712  0.25002574  0.24731225  1
  Fe  Fe17  1  0.25228672  0.74841186  0.50009847  1
  Fe  Fe18  1  0.24852245  0.49894145  0.75286838  1
  Fe  Fe19  1  0.37717739  0.87365069  0.62540282  1
  Fe  Fe20  1  0.62846442  0.63010133  0.86971690  1
  Fe  Fe21  1  0.50251814  0.75119076  -0.00229653  1
  Fe  Fe22  1  0.24837923  -0.00311828  0.75051203  1
  Fe  Fe23  1  -0.00005040  0.50150156  -0.00125822  1
  Fe  Fe24  1  0.12389726  0.37339498  0.37564457  1
  Fe  Fe25  1  0.49768471  0.24771763  0.00144710  1
  Fe  Fe26  1  0.87432383  0.62313655  0.12231467  1
  Fe  Fe27  1  -0.00319187  0.24856629  0.00073497  1
  Fe  Fe28  1  0.87500321  0.87541717  0.37547053  1
  Fe  Fe29  1  0.24850529  -0.00155345  0.50080830  1
  Fe  Fe30  1  0.37529107  0.37777930  0.62553101  1
  Fe  Fe31  1  0.62473621  0.87107540  0.37682262  1
  Fe  Fe32  1  0.74832352  -0.00010673  0.50018488  1
  Fe  Fe33  1  0.74976065  0.25308685  0.75260471  1
  Fe  Fe34  1  0.62388740  0.12696144  0.87598995  1
  Fe  Fe35  1  0.50117978  0.49850916  0.24799390  1
  Fe  Fe36  1  0.50031428  0.50520910  0.50061448  1
  Fe  Fe37  1  0.62427511  0.37439054  0.37555258  1
  Fe  Fe38  1  0.12480428  0.37352481  0.62595105  1
  Fe  Fe39  1  0.87630073  0.37561604  0.37617394  1
  Fe  Fe40  1  0.87309069  0.62538200  0.37503933  1
  Fe  Fe41  1  -0.00052237  0.24442167  0.74646373  1
  Fe  Fe42  1  0.87405361  0.62328656  0.62959324  1
  Fe  Fe43  1  0.87560312  0.37674474  0.62834985  1
  Fe  Fe44  1  0.37525594  0.62106370  0.12220851  1
  Fe  Fe45  1  0.74802411  -0.00392306  0.74941472  1
  Fe  Fe46  1  0.37612210  0.87537697  0.37360641  1
  Fe  Fe47  1  0.12399740  0.87527789  0.37514423  1
  Fe  Fe48  1  0.24900099  0.74873334  0.00150470  1
  Fe  Fe49  1  0.50138570  0.50208301  0.75105609  1
  Fe  Fe50  1  0.12547332  0.37595660  0.12290529  1
  Fe  Fe51  1  0.74871069  0.50205316  0.50217945  1
  Fe  Fe52  1  0.75161723  0.24981324  0.50129151  1
  Fe  Fe53  1  0.50001591  0.74875856  0.25013795  1
  Fe  Fe54  1  0.37275113  0.12405723  0.62866749  1
  Fe  Fe55  1  0.37717460  0.37727281  0.87823337  1
  Fe  Fe56  1  0.00081012  0.50151114  0.50205309  1
  Fe  Fe57  1  0.37906211  0.87811272  0.12418742  1
  Fe  Fe58  1  -0.00048234  0.74924515  0.24672392  1
  Fe  Fe59  1  0.25353346  0.24994970  0.00020434  1
  Fe  Fe60  1  -0.00080861  0.50011391  0.24856181  1
  Fe  Fe61  1  0.25032208  0.75080492  0.24730563  1
  Fe  Fe62  1  0.37992334  0.12027558  0.12799404  1
  Fe  Fe63  1  0.62429027  0.12846655  0.37239842  1
  Fe  Fe64  1  0.49985161  0.00198600  0.49902713  1
  Fe  Fe65  1  0.87882672  0.88004511  0.62475138  1
  Fe  Fe66  1  0.12509625  0.62790212  0.62696761  1
  Fe  Fe67  1  0.74877678  0.74915074  0.50501281  1
  Fe  Fe68  1  0.12192760  0.37217389  0.87491664  1
  Fe  Fe69  1  0.12836389  0.12525474  0.87345255  1
  Fe  Fe70  1  0.74890173  0.49533964  -0.00674115  1
  Fe  Fe71  1  0.25042380  0.50007574  0.24804539  1
  Fe  Fe72  1  0.12357943  0.12583825  0.37579544  1
  Fe  Fe73  1  -0.00086386  0.75001368  0.49980579  1
  Fe  Fe74  1  -0.00055526  -0.00050257  0.24897760  1
  Fe  Fe75  1  0.25323378  0.00103170  -0.00037752  1
  Fe  Fe76  1  0.74604444  0.00002770  0.24838492  1
  Fe  Fe77  1  -0.00047744  -0.00062316  -0.00345125  1
  Fe  Fe78  1  0.87432917  0.87460809  0.12125880  1
  Fe  Fe79  1  0.25149295  0.75156675  0.75101789  1
  Fe  Fe80  1  0.37586561  0.62474032  0.87606606  1
  Fe  Fe81  1  0.87050644  0.12683123  0.12370764  1
  Fe  Fe82  1  0.62838259  0.36966930  0.12337542  1
  Fe  Fe83  1  0.25130794  0.24962440  0.50150759  1
  Fe  Fe84  1  0.62512595  0.12438613  0.62688593  1
  Fe  Fe85  1  -0.00266305  0.25081167  0.24763049  1
  Fe  Fe86  1  0.49725718  0.24958279  0.74931671  1
  Fe  Fe87  1  0.62695794  0.62547762  0.12472247  1
  Fe  Fe88  1  0.74299875  -0.00017859  0.00258689  1
  Fe  Fe89  1  0.62383743  0.37575266  0.62568875  1
  Co  Co90  1  0.50324948  -0.00095893  -0.00363304  1
  Co  Co91  1  0.62262680  0.87241967  0.12466905  1
  Co  Co92  1  -0.00094024  0.74909557  -0.00160524  1
  Co  Co93  1  0.50621713  -0.00165319  0.25192834  1
  Co  Co94  1  0.24777063  -0.00095844  0.24953664  1
  Co  Co95  1  0.61797676  0.37114150  0.87517535  1
  Co  Co96  1  0.74989700  0.74887242  0.00184037  1
  Co  Co97  1  0.12925566  0.12504239  0.62588471  1
  Co  Co98  1  0.37412864  0.62450122  0.62898829  1
  Co  Co99  1  0.50725168  0.50256418  -0.00047252  1
  Co  Co100  1  0.88254929  0.37452635  0.87164461  1
  Co  Co101  1  0.62895903  0.87078157  0.87512292  1
  Co  Co102  1  -0.00212202  0.24926042  0.50413787  1
  Co  Co103  1  0.00262212  0.00218605  0.50198392  1
  Co  Co104  1  0.37447183  0.37993140  0.12014678  1
  Co  Co105  1  0.37321045  0.87315851  0.87757945  1
  Co  Co106  1  0.37462493  0.62377077  0.37149068  1
  Co  Co107  1  0.75251672  0.75622627  0.74402795  1
  Co  Co108  1  0.62651136  0.62567405  0.37365446  1
  Co  Co109  1  0.12409941  0.87246455  0.62521189  1
  Co  Co110  1  0.62726084  0.62414216  0.63038157  1
  Co  Co111  1  0.25202512  0.25452283  0.75153877  1
  Co  Co112  1  0.24569935  0.50036913  -0.00444968  1
  Co  Co113  1  0.00304530  0.50270649  0.75035576  1
  Co  Co114  1  0.74764943  0.49441769  0.75453839  1
  Co  Co115  1  0.49952760  0.75209986  0.75085089  1
  Co  Co116  1  0.12760916  0.87594453  0.87918629  1
  Co  Co117  1  0.75356028  0.24976765  0.25303199  1
  Co  Co118  1  0.75252146  0.25319482  -0.00643036  1
  Co  Co119  1  0.61976381  0.87663923  0.62333190  1
  Co  Co120  1  0.37428306  0.12459404  0.87321187  1
  Co  Co121  1  0.12477596  0.62384513  0.12490164  1
  Co  Co122  1  0.87039523  0.87651797  0.87912567  1
  Co  Co123  1  0.00300869  -0.00046871  0.75250514  1
  Co  Co124  1  0.49620298  0.25357208  0.24897592  1
  Co  Co125  1  0.62447092  0.13080998  0.12551436  1
  Co  Co126  1  0.87155061  0.12154841  0.62663711  1
  Co  Co127  1  0.87239704  0.37579986  0.12266412  1
