# generated using pymatgen
data_Fe45Co19
_symmetry_space_group_name_H-M   'P 1'
_cell_length_a   11.41465490
_cell_length_b   11.41596218
_cell_length_c   11.41515063
_cell_angle_alpha   89.99352950
_cell_angle_beta   89.99931289
_cell_angle_gamma   89.99517366
_symmetry_Int_Tables_number   1
_chemical_formula_structural   Fe45Co19
_chemical_formula_sum   'Fe90 Co38'
_cell_volume   1487.49991532
_cell_formula_units_Z   2
loop_
 _symmetry_equiv_pos_site_id
 _symmetry_equiv_pos_as_xyz
  1  'x, y, z'
loop_
 _atom_site_type_symbol
 _atom_site_label
 _atom_site_symmetry_multiplicity
 _atom_site_fract_x
 _atom_site_fract_y
 _atom_site_fract_z
 _atom_site_occupancy
  Fe  Fe0  1  0.75067881  0.25115197  0.75128571  1
  Fe  Fe1  1  0.24628849  0.24854563  0.24742812  1
  Fe  Fe2  1  0.62390080  0.12507868  0.37402680  1
  Fe  Fe3  1  0.87833817  0.12977636  0.12686446  1
  Fe  Fe4  1  0.75117249  0.74991193  -0.00182439  1
  Fe  Fe5  1  0.37316285  0.12537761  0.87399220  1
  Fe  Fe6  1  0.62517663  0.37510871  0.12296960  1
  Fe  Fe7  1  0.37286331  0.62393400  0.37224953  1
  Fe  Fe8  1  0.24731581  0.49891103  0.24667682  1
  Fe  Fe9  1  0.24783079  0.74931673  0.00102432  1
  Fe  Fe10  1  0.88047289  0.87120677  0.12397382  1
  Fe  Fe11  1  0.74664292  0.49994241  0.74657896  1
  Fe  Fe12  1  0.50041793  0.74985295  0.24989507  1
  Fe  Fe13  1  0.49694277  0.00200906  0.49904232  1
  Fe  Fe14  1  -0.00004694  0.00047807  -0.00117279  1
  Fe  Fe15  1  0.62701830  0.37643007  0.87611215  1
  Fe  Fe16  1  0.75088208  -0.00174642  0.50273300  1
  Fe  Fe17  1  0.75113771  -0.00145672  0.24800022  1
  Fe  Fe18  1  0.13000271  0.62272036  0.87373964  1
  Fe  Fe19  1  0.87505334  0.62444123  0.37611357  1
  Fe  Fe20  1  0.49575308  0.50209873  -0.00332297  1
  Fe  Fe21  1  0.50019457  0.25190020  0.75108141  1
  Fe  Fe22  1  0.12565395  0.62370937  0.37443912  1
  Fe  Fe23  1  0.37534984  0.12705962  0.37115189  1
  Fe  Fe24  1  0.74906940  0.25068524  0.50083899  1
  Fe  Fe25  1  0.00077269  -0.00107394  0.74935886  1
  Fe  Fe26  1  0.24796198  -0.00068333  0.24252420  1
  Fe  Fe27  1  0.74923367  0.49917333  0.50257303  1
  Fe  Fe28  1  0.37354411  0.37339740  0.12510020  1
  Fe  Fe29  1  0.74947020  0.75248433  0.50312455  1
  Fe  Fe30  1  0.75204181  0.49837801  0.25048993  1
  Fe  Fe31  1  0.75029051  0.25342286  0.25059123  1
  Fe  Fe32  1  0.25157027  0.24562635  0.50623071  1
  Fe  Fe33  1  0.12617876  0.12148166  0.37774214  1
  Fe  Fe34  1  0.37585367  0.62564315  0.63069815  1
  Fe  Fe35  1  0.37411966  0.37354638  0.37628640  1
  Fe  Fe36  1  0.37360277  0.87359179  0.87607166  1
  Fe  Fe37  1  0.00250135  -0.00186143  0.25140500  1
  Fe  Fe38  1  0.87686446  0.37420031  0.62556877  1
  Fe  Fe39  1  0.49772860  -0.00065479  0.24770298  1
  Fe  Fe40  1  0.49659234  0.00115100  0.00188790  1
  Fe  Fe41  1  0.00252483  0.49828750  0.74906522  1
  Fe  Fe42  1  0.87447581  0.12512023  0.87314313  1
  Fe  Fe43  1  0.88048856  0.62708505  0.12584287  1
  Fe  Fe44  1  0.62352968  0.87433444  0.12299978  1
  Fe  Fe45  1  0.12626375  0.62557989  0.62549851  1
  Fe  Fe46  1  0.49975219  0.24986209  -0.00052112  1
  Fe  Fe47  1  0.49949535  0.49840304  0.25059720  1
  Fe  Fe48  1  0.37303600  0.62530381  0.12505633  1
  Fe  Fe49  1  0.12636259  0.37466757  0.37849285  1
  Fe  Fe50  1  0.37761981  0.37660777  0.62589779  1
  Fe  Fe51  1  0.87498002  0.87490742  0.37572941  1
  Fe  Fe52  1  0.62238339  0.12529045  0.62562020  1
  Fe  Fe53  1  0.62423724  0.12725941  0.12552863  1
  Fe  Fe54  1  0.37533807  0.87314141  0.62591751  1
  Fe  Fe55  1  0.62534038  0.62379029  0.12408887  1
  Fe  Fe56  1  0.75025702  0.74994312  0.24964647  1
  Fe  Fe57  1  0.12749428  0.87775788  0.87817544  1
  Fe  Fe58  1  0.25046056  0.00072086  0.74845385  1
  Fe  Fe59  1  0.87717839  0.12463749  0.62651383  1
  Fe  Fe60  1  0.25135322  0.50196085  0.50322135  1
  Fe  Fe61  1  0.87481357  0.12603844  0.37377364  1
  Fe  Fe62  1  -0.00180728  0.25277890  -0.00367828  1
  Fe  Fe63  1  -0.00013202  0.49638572  0.25037701  1
  Fe  Fe64  1  0.50618015  0.74747982  0.75526826  1
  Fe  Fe65  1  0.12636557  0.12606002  0.87275776  1
  Fe  Fe66  1  0.62222831  0.37531020  0.37868148  1
  Fe  Fe67  1  0.24921735  0.24878959  0.00061292  1
  Fe  Fe68  1  0.37047349  0.87490682  0.37452614  1
  Fe  Fe69  1  0.00102295  0.49993549  0.50182132  1
  Fe  Fe70  1  0.62578501  0.12336756  0.87566342  1
  Fe  Fe71  1  0.87335118  0.87400731  0.87300096  1
  Fe  Fe72  1  0.37135097  0.37664109  0.87273954  1
  Fe  Fe73  1  0.12777523  0.37431755  0.87125770  1
  Fe  Fe74  1  0.74885532  -0.00402084  0.74733647  1
  Fe  Fe75  1  0.24469498  0.75194101  0.24831714  1
  Fe  Fe76  1  0.00246175  0.75151344  0.49729659  1
  Fe  Fe77  1  0.12658486  0.87929665  0.61846092  1
  Fe  Fe78  1  0.00380845  0.75189925  0.75147801  1
  Fe  Fe79  1  0.00093104  0.24825233  0.50065032  1
  Fe  Fe80  1  0.62399592  0.87579880  0.37595272  1
  Fe  Fe81  1  0.00203680  0.49884316  -0.00066589  1
  Fe  Fe82  1  0.62536459  0.62403998  0.37686890  1
  Fe  Fe83  1  0.50002903  0.74690486  -0.00271125  1
  Fe  Fe84  1  0.75423619  0.49849295  0.00178252  1
  Fe  Fe85  1  0.49698029  0.74777522  0.49796895  1
  Fe  Fe86  1  0.75184269  0.00152109  0.00234443  1
  Fe  Fe87  1  0.87325651  0.62447570  0.87123988  1
  Fe  Fe88  1  0.87497245  0.62915718  0.62740587  1
  Fe  Fe89  1  0.50057145  -0.00223097  0.75181094  1
  Co  Co90  1  0.25137012  0.00155587  0.00197379  1
  Co  Co91  1  0.12168788  0.12255295  0.62628102  1
  Co  Co92  1  0.25099966  0.74596929  0.50047061  1
  Co  Co93  1  0.12112801  0.12608253  0.12175685  1
  Co  Co94  1  0.37952016  0.12413730  0.63032855  1
  Co  Co95  1  0.24919206  0.50024653  0.00220778  1
  Co  Co96  1  0.37491569  0.87182863  0.12313894  1
  Co  Co97  1  0.50157752  0.50224490  0.75388222  1
  Co  Co98  1  0.62360202  0.62600936  0.62265249  1
  Co  Co99  1  0.74469466  0.75277429  0.75043227  1
  Co  Co100  1  0.00299182  0.75263576  0.25626526  1
  Co  Co101  1  0.24947409  0.49822561  0.74684188  1
  Co  Co102  1  0.87414717  0.37800814  0.87257657  1
  Co  Co103  1  0.62596079  0.87890593  0.87929339  1
  Co  Co104  1  0.24563873  0.75388096  0.74855686  1
  Co  Co105  1  0.00278568  0.25094665  0.25458384  1
  Co  Co106  1  0.87681836  0.37533044  0.37817801  1
  Co  Co107  1  0.12046663  0.87364043  0.12078179  1
  Co  Co108  1  -0.00411608  0.00039222  0.49865647  1
  Co  Co109  1  0.25066142  0.24871332  0.74536501  1
  Co  Co110  1  0.62003482  0.87493984  0.62257495  1
  Co  Co111  1  0.49687289  0.50232804  0.49949189  1
  Co  Co112  1  -0.00090906  0.25109989  0.75068871  1
  Co  Co113  1  0.49786514  0.24794358  0.50033915  1
  Co  Co114  1  0.25666406  0.00555563  0.50350928  1
  Co  Co115  1  0.87823874  0.87194842  0.62690786  1
  Co  Co116  1  0.12455449  0.37336706  0.62448729  1
  Co  Co117  1  0.62174652  0.37402061  0.62471739  1
  Co  Co118  1  0.12121886  0.62639404  0.12550141  1
  Co  Co119  1  0.50152871  0.25263768  0.24950125  1
  Co  Co120  1  0.00120439  0.74729261  -0.00799346  1
  Co  Co121  1  0.87771155  0.37228595  0.12545115  1
  Co  Co122  1  0.75162923  0.24937154  -0.00161437  1
  Co  Co123  1  0.13074159  0.87939301  0.38019037  1
  Co  Co124  1  0.62969822  0.62105017  0.87791105  1
  Co  Co125  1  0.37543340  0.12831665  0.12531530  1
  Co  Co126  1  0.36868245  0.62627641  0.87177297  1
  Co  Co127  1  0.12415021  0.37309223  0.12446444  1
