# generated using pymatgen
data_Fe45Co19
_symmetry_space_group_name_H-M   'P 1'
_cell_length_a   11.41577205
_cell_length_b   11.41603961
_cell_length_c   11.41607577
_cell_angle_alpha   89.99908393
_cell_angle_beta   90.00401732
_cell_angle_gamma   90.00009307
_symmetry_Int_Tables_number   1
_chemical_formula_structural   Fe45Co19
_chemical_formula_sum   'Fe90 Co38'
_cell_volume   1487.77616509
_cell_formula_units_Z   2
loop_
 _symmetry_equiv_pos_site_id
 _symmetry_equiv_pos_as_xyz
  1  'x, y, z'
loop_
 _atom_site_type_symbol
 _atom_site_label
 _atom_site_symmetry_multiplicity
 _atom_site_fract_x
 _atom_site_fract_y
 _atom_site_fract_z
 _atom_site_occupancy
  Fe  Fe0  1  0.75007960  0.25001830  0.74704913  1
  Fe  Fe1  1  0.75147953  0.25204926  0.00134267  1
  Fe  Fe2  1  0.25076201  0.75056856  0.25152653  1
  Fe  Fe3  1  0.25152967  -0.00169757  -0.00056380  1
  Fe  Fe4  1  0.25120273  -0.00014936  0.25236132  1
  Fe  Fe5  1  -0.00122653  0.24983348  0.49841501  1
  Fe  Fe6  1  0.37249942  0.37797111  0.86919017  1
  Fe  Fe7  1  0.74532929  0.49591684  0.25359018  1
  Fe  Fe8  1  -0.00055177  0.25338174  0.00037162  1
  Fe  Fe9  1  0.49860703  0.75067956  0.00062317  1
  Fe  Fe10  1  0.37558119  0.62375126  0.12683504  1
  Fe  Fe11  1  0.37474724  0.37650478  0.37464859  1
  Fe  Fe12  1  0.25252172  0.24672217  0.50108825  1
  Fe  Fe13  1  0.62645217  0.12367862  0.87428803  1
  Fe  Fe14  1  0.74875596  0.74726540  0.25375382  1
  Fe  Fe15  1  0.74999865  0.00068483  0.25231652  1
  Fe  Fe16  1  -0.00184856  -0.00088454  0.74869118  1
  Fe  Fe17  1  0.00408022  0.49985483  0.50099694  1
  Fe  Fe18  1  0.49848035  0.25101074  -0.00130029  1
  Fe  Fe19  1  0.00607709  0.49572796  0.25192898  1
  Fe  Fe20  1  0.49936655  0.74815107  0.25239855  1
  Fe  Fe21  1  0.24960358  0.50109247  -0.00235175  1
  Fe  Fe22  1  0.49949708  0.49968802  -0.00182173  1
  Fe  Fe23  1  0.00077940  0.25107970  0.74944682  1
  Fe  Fe24  1  0.25048230  0.75059272  0.74794401  1
  Fe  Fe25  1  0.37437355  0.62277904  0.37537852  1
  Fe  Fe26  1  0.50153576  0.25358881  0.25150170  1
  Fe  Fe27  1  0.75115229  0.74738907  -0.00038767  1
  Fe  Fe28  1  0.00064162  -0.00149982  0.49961461  1
  Fe  Fe29  1  0.87445430  0.87552064  0.37621779  1
  Fe  Fe30  1  0.49639032  0.24938081  0.50081584  1
  Fe  Fe31  1  0.49977806  -0.00084637  0.00072078  1
  Fe  Fe32  1  0.87227062  0.87360823  0.12564638  1
  Fe  Fe33  1  0.37170369  0.37685879  0.62884769  1
  Fe  Fe34  1  0.12533006  0.12592397  0.87427610  1
  Fe  Fe35  1  0.24715473  0.50117453  0.50172810  1
  Fe  Fe36  1  0.12623380  0.12429217  0.62594687  1
  Fe  Fe37  1  0.87222673  0.12441566  0.87456296  1
  Fe  Fe38  1  0.87138317  0.87584975  0.87403400  1
  Fe  Fe39  1  0.12416787  0.87419188  0.87350461  1
  Fe  Fe40  1  0.00083808  0.75145265  0.49894248  1
  Fe  Fe41  1  0.49954863  0.00081141  0.25229597  1
  Fe  Fe42  1  0.62810425  0.87636232  0.87493450  1
  Fe  Fe43  1  0.74970365  0.25530238  0.25419213  1
  Fe  Fe44  1  0.87352164  0.62032541  0.12729379  1
  Fe  Fe45  1  0.00482405  0.49818398  0.74668446  1
  Fe  Fe46  1  0.87388605  0.12683785  0.12713688  1
  Fe  Fe47  1  0.62317757  0.62528817  0.87340004  1
  Fe  Fe48  1  0.62429364  0.87377607  0.37795779  1
  Fe  Fe49  1  0.37552473  0.37788706  0.12687035  1
  Fe  Fe50  1  0.37616263  0.12461331  0.12639325  1
  Fe  Fe51  1  0.74748225  0.50268318  0.74644558  1
  Fe  Fe52  1  0.24957420  0.25174519  0.25026523  1
  Fe  Fe53  1  0.12664340  0.62510314  0.12688905  1
  Fe  Fe54  1  0.25131219  0.25104063  -0.00185165  1
  Fe  Fe55  1  0.37674279  0.12280481  0.87131478  1
  Fe  Fe56  1  0.00157296  0.49795976  0.00036381  1
  Fe  Fe57  1  0.87409088  0.37692988  0.87343989  1
  Fe  Fe58  1  0.62425145  0.62322105  0.12431824  1
  Fe  Fe59  1  -0.00168083  0.74901281  0.00167385  1
  Fe  Fe60  1  0.62527297  0.37664136  0.62008862  1
  Fe  Fe61  1  0.12558776  0.12572825  0.37457609  1
  Fe  Fe62  1  0.62579889  0.37477457  0.87458452  1
  Fe  Fe63  1  0.62818992  0.87353641  0.62093541  1
  Fe  Fe64  1  0.62547763  0.12446407  0.62299462  1
  Fe  Fe65  1  0.37595786  0.87649565  0.37862430  1
  Fe  Fe66  1  0.62514091  0.12651877  0.12517583  1
  Fe  Fe67  1  0.50127030  0.75114824  0.74614000  1
  Fe  Fe68  1  -0.00151780  -0.00030148  0.00113449  1
  Fe  Fe69  1  0.87470582  0.37486503  0.62237861  1
  Fe  Fe70  1  0.87517924  0.62317410  0.87320299  1
  Fe  Fe71  1  0.62132730  0.62198181  0.38183141  1
  Fe  Fe72  1  0.87478597  0.62772543  0.62449307  1
  Fe  Fe73  1  0.37693636  0.62393339  0.62771447  1
  Fe  Fe74  1  0.12591987  0.12587985  0.12475801  1
  Fe  Fe75  1  -0.00144092  0.75209546  0.74884760  1
  Fe  Fe76  1  -0.00032345  -0.00014838  0.25026389  1
  Fe  Fe77  1  0.87311245  0.12388565  0.62253811  1
  Fe  Fe78  1  0.24930643  0.75200206  0.50184913  1
  Fe  Fe79  1  0.62479682  0.12749498  0.37757216  1
  Fe  Fe80  1  -0.00011255  0.25386550  0.25125577  1
  Fe  Fe81  1  0.49989094  0.25036962  0.74848951  1
  Fe  Fe82  1  0.00051051  0.74995533  0.25028367  1
  Fe  Fe83  1  0.62483665  0.87443071  0.12630877  1
  Fe  Fe84  1  0.25223508  0.75033523  -0.00013426  1
  Fe  Fe85  1  0.87724779  0.62178901  0.37480347  1
  Fe  Fe86  1  0.12622164  0.87479625  0.12637662  1
  Fe  Fe87  1  0.37513249  0.11811635  0.62713939  1
  Fe  Fe88  1  0.12456969  0.62605491  0.87310668  1
  Fe  Fe89  1  0.37657402  0.87479909  0.87227052  1
  Co  Co90  1  0.75239136  0.50254557  0.50084109  1
  Co  Co91  1  0.12319063  0.62948960  0.62465480  1
  Co  Co92  1  0.24471305  0.50283822  0.74753472  1
  Co  Co93  1  0.12660396  0.37390906  0.87216036  1
  Co  Co94  1  0.75051260  0.00068444  0.74663449  1
  Co  Co95  1  0.75181824  0.74670915  0.49707542  1
  Co  Co96  1  0.62313747  0.62515836  0.62094772  1
  Co  Co97  1  0.12544083  0.62710927  0.37553714  1
  Co  Co98  1  0.87258293  0.87287216  0.62320103  1
  Co  Co99  1  0.12736791  0.37243907  0.37978563  1
  Co  Co100  1  0.37592443  0.12548908  0.37393814  1
  Co  Co101  1  0.50132767  0.00137192  0.49884940  1
  Co  Co102  1  0.50252659  0.49963460  0.25165515  1
  Co  Co103  1  0.50421964  -0.00201804  0.74892453  1
  Co  Co104  1  0.87357016  0.37774726  0.12645368  1
  Co  Co105  1  0.12485632  0.87581183  0.62571072  1
  Co  Co106  1  0.37642294  0.87480384  0.12755916  1
  Co  Co107  1  0.25064646  0.24698519  0.74953426  1
  Co  Co108  1  0.50317822  0.49918569  0.74877366  1
  Co  Co109  1  0.75189983  0.24942659  0.49835229  1
  Co  Co110  1  0.74908461  0.50092809  -0.00176915  1
  Co  Co111  1  0.24822925  -0.00098758  0.75136716  1
  Co  Co112  1  0.62241641  0.37552902  0.38319207  1
  Co  Co113  1  0.49683609  0.74930072  0.50139988  1
  Co  Co114  1  0.37465793  0.87945003  0.62373270  1
  Co  Co115  1  0.87592940  0.37708445  0.37806838  1
  Co  Co116  1  0.75042313  0.00074921  0.00234881  1
  Co  Co117  1  0.75054617  0.00092903  0.49847527  1
  Co  Co118  1  0.74881816  0.74743900  0.74967032  1
  Co  Co119  1  0.87553133  0.12508419  0.37457283  1
  Co  Co120  1  0.12690191  0.37041208  0.62354641  1
  Co  Co121  1  0.12509702  0.87433690  0.37437625  1
  Co  Co122  1  0.37656746  0.62546965  0.87129312  1
  Co  Co123  1  0.24816224  0.00077037  0.49813041  1
  Co  Co124  1  0.49476363  0.49881702  0.50198974  1
  Co  Co125  1  0.24715381  0.49920178  0.25239644  1
  Co  Co126  1  0.12726163  0.37426941  0.12316685  1
  Co  Co127  1  0.62404138  0.37515637  0.12217801  1
