# generated using pymatgen
data_Fe45Co19
_symmetry_space_group_name_H-M   'P 1'
_cell_length_a   11.41410086
_cell_length_b   11.41499500
_cell_length_c   11.41585225
_cell_angle_alpha   90.00339935
_cell_angle_beta   90.00163703
_cell_angle_gamma   89.99733622
_symmetry_Int_Tables_number   1
_chemical_formula_structural   Fe45Co19
_chemical_formula_sum   'Fe90 Co38'
_cell_volume   1487.39312393
_cell_formula_units_Z   2
loop_
 _symmetry_equiv_pos_site_id
 _symmetry_equiv_pos_as_xyz
  1  'x, y, z'
loop_
 _atom_site_type_symbol
 _atom_site_label
 _atom_site_symmetry_multiplicity
 _atom_site_fract_x
 _atom_site_fract_y
 _atom_site_fract_z
 _atom_site_occupancy
  Fe  Fe0  1  0.00030672  0.75172750  0.74799403  1
  Fe  Fe1  1  0.25069006  0.00288245  -0.00025157  1
  Fe  Fe2  1  0.87735113  0.12313982  0.37332583  1
  Fe  Fe3  1  0.62824519  0.37884185  0.62766077  1
  Fe  Fe4  1  0.75126431  0.25012419  0.50093640  1
  Fe  Fe5  1  0.25040241  0.24976986  0.50011087  1
  Fe  Fe6  1  0.24795688  0.00480227  0.25002844  1
  Fe  Fe7  1  0.62768721  0.37806407  0.12581541  1
  Fe  Fe8  1  0.50020584  0.25261053  0.50317842  1
  Fe  Fe9  1  0.24991901  0.75018817  0.49807814  1
  Fe  Fe10  1  0.49958200  -0.00360847  0.75014141  1
  Fe  Fe11  1  0.12328864  0.62729387  0.87586391  1
  Fe  Fe12  1  0.50010246  0.25318096  0.00174011  1
  Fe  Fe13  1  0.00099461  0.49937955  -0.00027546  1
  Fe  Fe14  1  0.37816679  0.12526735  0.87497844  1
  Fe  Fe15  1  0.50153982  0.49946166  0.50044934  1
  Fe  Fe16  1  0.12988965  0.87352618  0.62765730  1
  Fe  Fe17  1  0.49719887  -0.00417744  0.00165470  1
  Fe  Fe18  1  0.74716482  0.50291538  -0.00439378  1
  Fe  Fe19  1  0.37813865  0.12290644  0.62439645  1
  Fe  Fe20  1  0.00007816  0.24982101  0.24784258  1
  Fe  Fe21  1  0.74728017  0.24825197  -0.00205119  1
  Fe  Fe22  1  -0.00181150  0.49788893  0.24879859  1
  Fe  Fe23  1  0.75107255  0.24834302  0.24841299  1
  Fe  Fe24  1  -0.00230681  0.24987919  0.50224853  1
  Fe  Fe25  1  0.37735714  0.62362440  0.37261738  1
  Fe  Fe26  1  0.62471272  0.87349728  0.37399029  1
  Fe  Fe27  1  0.25320571  0.74783326  0.00135775  1
  Fe  Fe28  1  0.12514541  0.37705847  0.62496980  1
  Fe  Fe29  1  0.25121798  0.50310741  0.75145126  1
  Fe  Fe30  1  0.87505241  0.12221816  0.12403037  1
  Fe  Fe31  1  0.62166829  0.37688711  0.87071970  1
  Fe  Fe32  1  0.87476313  0.37361906  0.87588960  1
  Fe  Fe33  1  0.37776494  0.37731023  0.87271899  1
  Fe  Fe34  1  0.87456457  0.62408544  0.12357930  1
  Fe  Fe35  1  0.75515697  0.75061554  0.49993124  1
  Fe  Fe36  1  0.24981810  0.50059766  0.49772276  1
  Fe  Fe37  1  0.50000224  0.25209972  0.24779960  1
  Fe  Fe38  1  0.49754992  0.75133179  0.74857311  1
  Fe  Fe39  1  0.74730025  -0.00079478  0.75525968  1
  Fe  Fe40  1  0.87331217  0.12225796  0.62757964  1
  Fe  Fe41  1  0.74971973  0.75175695  0.24647850  1
  Fe  Fe42  1  0.37415753  0.62576157  0.62260758  1
  Fe  Fe43  1  0.37660800  0.87458517  0.37249600  1
  Fe  Fe44  1  0.12213522  0.37446730  0.37635180  1
  Fe  Fe45  1  0.87663625  0.62856168  0.87626752  1
  Fe  Fe46  1  0.75033630  0.75050027  0.75195352  1
  Fe  Fe47  1  0.75006829  -0.00099547  0.49710584  1
  Fe  Fe48  1  -0.00862249  0.49981081  0.50080534  1
  Fe  Fe49  1  0.62458196  0.12220453  0.12230772  1
  Fe  Fe50  1  0.12295772  0.62577927  0.62343374  1
  Fe  Fe51  1  0.87646383  0.12531002  0.87541524  1
  Fe  Fe52  1  0.13043792  0.87359776  0.87352388  1
  Fe  Fe53  1  0.12527924  0.37308872  0.87357439  1
  Fe  Fe54  1  0.12854333  0.87561341  0.12474840  1
  Fe  Fe55  1  0.12729267  0.37579058  0.12390544  1
  Fe  Fe56  1  -0.00336696  0.49957117  0.74999937  1
  Fe  Fe57  1  0.12487274  0.12322170  0.62450611  1
  Fe  Fe58  1  0.12673973  0.62339069  0.12392009  1
  Fe  Fe59  1  0.50016669  0.74860278  0.24193232  1
  Fe  Fe60  1  0.75318048  0.49878387  0.25291593  1
  Fe  Fe61  1  0.62576221  0.87462309  0.62335051  1
  Fe  Fe62  1  0.50001339  0.75092361  0.50026687  1
  Fe  Fe63  1  0.87170429  0.87806140  0.12360769  1
  Fe  Fe64  1  0.37341567  0.38249574  0.12611799  1
  Fe  Fe65  1  0.38043575  0.62577348  0.87958431  1
  Fe  Fe66  1  0.25121261  0.74600511  0.24992823  1
  Fe  Fe67  1  0.24860929  0.24858688  0.25000899  1
  Fe  Fe68  1  -0.00073001  0.75260736  0.24692623  1
  Fe  Fe69  1  0.25228666  -0.00102138  0.49942053  1
  Fe  Fe70  1  0.87441027  0.87241958  0.87751047  1
  Fe  Fe71  1  0.25131872  0.24796467  0.74891987  1
  Fe  Fe72  1  0.00242695  -0.00142200  -0.00108393  1
  Fe  Fe73  1  0.62279260  0.12619489  0.37563873  1
  Fe  Fe74  1  0.37750049  0.12545888  0.37479226  1
  Fe  Fe75  1  -0.00139134  -0.00425609  0.50013061  1
  Fe  Fe76  1  0.00070129  0.25018055  0.00077297  1
  Fe  Fe77  1  0.12395658  0.87468397  0.37416912  1
  Fe  Fe78  1  0.62720306  0.37512396  0.37571682  1
  Fe  Fe79  1  0.62410333  0.12280164  0.62541708  1
  Fe  Fe80  1  0.62902398  0.62320427  0.62675949  1
  Fe  Fe81  1  0.25172007  0.24967691  0.00028317  1
  Fe  Fe82  1  0.11851654  0.62642162  0.37666103  1
  Fe  Fe83  1  0.74722866  0.24770814  0.75238657  1
  Fe  Fe84  1  0.00195021  -0.00084234  0.75218480  1
  Fe  Fe85  1  0.37523009  0.37639056  0.37401956  1
  Fe  Fe86  1  0.62742685  0.62505116  0.37382186  1
  Fe  Fe87  1  0.62308261  0.87055361  0.88155972  1
  Fe  Fe88  1  0.50233454  -0.00084109  0.24885358  1
  Fe  Fe89  1  0.00016311  0.24965971  0.74901412  1
  Co  Co90  1  0.75082729  0.00230957  -0.00434045  1
  Co  Co91  1  0.00212879  -0.00159821  0.24847547  1
  Co  Co92  1  0.87488567  0.87450605  0.37157982  1
  Co  Co93  1  0.24721483  0.50017124  -0.00513054  1
  Co  Co94  1  0.50249615  0.49972960  0.25198688  1
  Co  Co95  1  0.00186316  0.75248688  0.00248154  1
  Co  Co96  1  0.37257301  0.61672219  0.12494412  1
  Co  Co97  1  0.12572126  0.12671890  0.87569733  1
  Co  Co98  1  0.62911951  0.87868361  0.12176912  1
  Co  Co99  1  0.24579492  0.50098383  0.25499786  1
  Co  Co100  1  0.50518044  0.50063179  0.00086297  1
  Co  Co101  1  0.50029013  0.24967734  0.74690992  1
  Co  Co102  1  0.74763524  0.74618306  0.00217502  1
  Co  Co103  1  0.62068939  0.62918979  0.87307105  1
  Co  Co104  1  0.37290465  0.87357071  0.62509361  1
  Co  Co105  1  0.25215080  0.00369029  0.75018509  1
  Co  Co106  1  0.37271026  0.37694337  0.62596466  1
  Co  Co107  1  0.61846845  0.12395808  0.87700543  1
  Co  Co108  1  0.37695416  0.12518008  0.12516599  1
  Co  Co109  1  0.87502655  0.37155480  0.37415864  1
  Co  Co110  1  0.49769226  0.50351037  0.74712253  1
  Co  Co111  1  0.25228332  0.74428664  0.75113094  1
  Co  Co112  1  0.74734349  0.00130538  0.25286606  1
  Co  Co113  1  0.87319315  0.62657766  0.62724274  1
  Co  Co114  1  -0.00286304  0.75432697  0.50305942  1
  Co  Co115  1  0.12278660  0.12475589  0.37698774  1
  Co  Co116  1  0.87256521  0.87717027  0.62824211  1
  Co  Co117  1  0.87625792  0.62915310  0.37258395  1
  Co  Co118  1  0.37093530  0.87665955  0.12787941  1
  Co  Co119  1  0.87125716  0.37346456  0.62802507  1
  Co  Co120  1  0.12384939  0.12622730  0.12284760  1
  Co  Co121  1  0.49819078  0.74999184  0.00919717  1
  Co  Co122  1  0.87210902  0.37571546  0.12139866  1
  Co  Co123  1  0.75361478  0.50043868  0.49800871  1
  Co  Co124  1  0.62677026  0.62091454  0.12717481  1
  Co  Co125  1  0.50006066  -0.00256982  0.49939607  1
  Co  Co126  1  0.75287941  0.50215715  0.75500808  1
  Co  Co127  1  0.37284350  0.87320187  0.87525627  1
