# generated using pymatgen
data_Fe45Co19
_symmetry_space_group_name_H-M   'P 1'
_cell_length_a   11.41539358
_cell_length_b   11.41512657
_cell_length_c   11.41579995
_cell_angle_alpha   89.99955882
_cell_angle_beta   90.01330623
_cell_angle_gamma   90.00616979
_symmetry_Int_Tables_number   1
_chemical_formula_structural   Fe45Co19
_chemical_formula_sum   'Fe90 Co38'
_cell_volume   1487.57186832
_cell_formula_units_Z   2
loop_
 _symmetry_equiv_pos_site_id
 _symmetry_equiv_pos_as_xyz
  1  'x, y, z'
loop_
 _atom_site_type_symbol
 _atom_site_label
 _atom_site_symmetry_multiplicity
 _atom_site_fract_x
 _atom_site_fract_y
 _atom_site_fract_z
 _atom_site_occupancy
  Fe  Fe0  1  0.25236081  0.49780854  0.24902088  1
  Fe  Fe1  1  0.12378734  0.12186178  0.87278265  1
  Fe  Fe2  1  0.74997994  0.50258351  0.00159713  1
  Fe  Fe3  1  0.75115288  0.49887626  0.24956768  1
  Fe  Fe4  1  0.12489168  0.62188047  0.87578768  1
  Fe  Fe5  1  0.50001205  0.50154423  0.50077218  1
  Fe  Fe6  1  0.37701216  0.37319276  0.12368874  1
  Fe  Fe7  1  0.12387292  0.87460674  0.12579182  1
  Fe  Fe8  1  0.62471428  0.12307062  0.12699196  1
  Fe  Fe9  1  0.49994149  0.50359658  0.75147730  1
  Fe  Fe10  1  0.87397992  0.62601072  0.37564752  1
  Fe  Fe11  1  0.74900008  -0.00047641  0.00106080  1
  Fe  Fe12  1  0.62488709  0.62439907  0.37340754  1
  Fe  Fe13  1  0.74902239  0.25113072  0.25063324  1
  Fe  Fe14  1  0.62425511  0.37711707  0.87480187  1
  Fe  Fe15  1  0.13238781  0.12358998  0.37358400  1
  Fe  Fe16  1  0.37341953  0.87165079  0.87557357  1
  Fe  Fe17  1  0.75333688  0.50200351  0.50385715  1
  Fe  Fe18  1  -0.00527840  0.49773468  0.74503954  1
  Fe  Fe19  1  -0.00021556  0.74725640  0.00119926  1
  Fe  Fe20  1  0.87899062  0.87787790  0.87784569  1
  Fe  Fe21  1  0.87767168  0.37522653  0.37909723  1
  Fe  Fe22  1  0.00263375  0.00037478  0.49952653  1
  Fe  Fe23  1  0.50124216  0.24794443  -0.00067153  1
  Fe  Fe24  1  0.12682861  0.62244948  0.37489186  1
  Fe  Fe25  1  0.87863093  0.12143892  0.87301827  1
  Fe  Fe26  1  0.37253579  0.62672699  0.62386410  1
  Fe  Fe27  1  0.62374980  0.37547110  0.12431057  1
  Fe  Fe28  1  0.12632078  0.62373541  0.62485219  1
  Fe  Fe29  1  0.25041021  -0.00195950  0.00256347  1
  Fe  Fe30  1  0.49857321  0.50012220  0.25103222  1
  Fe  Fe31  1  0.37315363  0.62995869  0.87628351  1
  Fe  Fe32  1  0.25177102  0.49952177  0.75106809  1
  Fe  Fe33  1  0.24839475  0.25282054  0.75088927  1
  Fe  Fe34  1  0.49611340  -0.00011976  0.25161050  1
  Fe  Fe35  1  0.12376474  0.12780325  0.62732610  1
  Fe  Fe36  1  0.37635086  0.37344590  0.62582361  1
  Fe  Fe37  1  0.12289268  0.37885034  0.12252283  1
  Fe  Fe38  1  0.25065644  0.75083066  0.25097566  1
  Fe  Fe39  1  0.12534284  0.62214029  0.12395881  1
  Fe  Fe40  1  0.12536284  0.37958852  0.87632781  1
  Fe  Fe41  1  0.62335123  0.62809098  0.12771641  1
  Fe  Fe42  1  0.49897698  0.50360788  -0.00203823  1
  Fe  Fe43  1  0.50202761  0.24875451  0.75066322  1
  Fe  Fe44  1  0.87298598  0.62463262  0.87226851  1
  Fe  Fe45  1  0.12759730  0.87261178  0.62166998  1
  Fe  Fe46  1  0.75151629  -0.00195949  0.74892465  1
  Fe  Fe47  1  0.87896623  0.12845312  0.62558761  1
  Fe  Fe48  1  0.24967172  0.49645540  0.49914999  1
  Fe  Fe49  1  0.37368850  0.87139058  0.62390872  1
  Fe  Fe50  1  0.74740317  0.24757111  0.49870893  1
  Fe  Fe51  1  0.74997363  0.24952120  0.75103319  1
  Fe  Fe52  1  0.12625423  0.12534835  0.12571429  1
  Fe  Fe53  1  0.37305580  0.12626164  0.12809240  1
  Fe  Fe54  1  0.87509762  0.12403499  0.37498931  1
  Fe  Fe55  1  0.75180337  0.75301182  0.25026596  1
  Fe  Fe56  1  0.75196051  -0.00245140  0.24956250  1
  Fe  Fe57  1  0.37641072  0.62990481  0.12501562  1
  Fe  Fe58  1  0.36932367  0.87619008  0.37745660  1
  Fe  Fe59  1  0.74916850  0.75071722  0.00076877  1
  Fe  Fe60  1  0.62477269  0.37497968  0.62503345  1
  Fe  Fe61  1  0.37329898  0.12823763  0.62349364  1
  Fe  Fe62  1  -0.00176385  0.75116232  0.25060724  1
  Fe  Fe63  1  0.87358844  0.37585802  0.87631467  1
  Fe  Fe64  1  0.49953624  0.74769976  0.49776414  1
  Fe  Fe65  1  0.49794371  -0.00085352  0.74885325  1
  Fe  Fe66  1  0.62937509  0.62831901  0.62938585  1
  Fe  Fe67  1  0.00119660  0.75163020  0.74997780  1
  Fe  Fe68  1  0.62452505  0.12311644  0.62614705  1
  Fe  Fe69  1  0.00116262  -0.00208695  0.25133559  1
  Fe  Fe70  1  0.62578070  0.87647664  0.37550341  1
  Fe  Fe71  1  0.37465183  0.12521628  0.87405552  1
  Fe  Fe72  1  0.87634512  0.37471584  0.12430887  1
  Fe  Fe73  1  0.00154592  0.74797352  0.49760432  1
  Fe  Fe74  1  0.24957990  0.25178653  -0.00092314  1
  Fe  Fe75  1  0.62366250  0.37483927  0.37640032  1
  Fe  Fe76  1  0.12465517  0.87697094  0.87573727  1
  Fe  Fe77  1  0.00245057  0.25049806  0.25219338  1
  Fe  Fe78  1  0.62405577  0.87311089  0.62399913  1
  Fe  Fe79  1  0.74938516  0.24719395  -0.00054439  1
  Fe  Fe80  1  0.62239582  0.87510571  0.87395367  1
  Fe  Fe81  1  0.00080628  0.24931777  -0.00206119  1
  Fe  Fe82  1  -0.00249483  0.50072959  0.24999389  1
  Fe  Fe83  1  0.24961461  -0.00206819  0.74753224  1
  Fe  Fe84  1  0.75050048  0.00064618  0.50022101  1
  Fe  Fe85  1  0.37628492  0.36955950  0.37554840  1
  Fe  Fe86  1  0.49870687  -0.00167081  0.00152835  1
  Fe  Fe87  1  0.87466710  0.87150773  0.62123298  1
  Fe  Fe88  1  0.49714461  0.00437963  0.49749699  1
  Fe  Fe89  1  0.87660154  0.12405476  0.12564275  1
  Co  Co90  1  0.00039259  -0.00400329  0.74456430  1
  Co  Co91  1  0.87572137  0.87542216  0.37756728  1
  Co  Co92  1  0.74721888  0.74899718  0.49670250  1
  Co  Co93  1  0.12723932  0.87499563  0.37585803  1
  Co  Co94  1  0.62854388  0.62440823  0.87209788  1
  Co  Co95  1  0.62353086  0.87398684  0.12767267  1
  Co  Co96  1  -0.00270760  0.50406745  0.50305340  1
  Co  Co97  1  0.50275132  0.24826950  0.25108225  1
  Co  Co98  1  0.24744434  0.75012752  0.75063947  1
  Co  Co99  1  0.62626927  0.12307185  0.37245569  1
  Co  Co100  1  0.36895018  0.12904818  0.37331483  1
  Co  Co101  1  0.25077844  -0.00307871  0.24667077  1
  Co  Co102  1  0.75153105  0.75637493  0.75391883  1
  Co  Co103  1  0.24942081  0.00208061  0.50357241  1
  Co  Co104  1  0.49902785  0.74828638  0.74940302  1
  Co  Co105  1  0.12221258  0.37590910  0.62506562  1
  Co  Co106  1  0.75382886  0.49627652  0.74570845  1
  Co  Co107  1  0.12261367  0.37986762  0.37459928  1
  Co  Co108  1  0.49771685  0.75225630  0.25621036  1
  Co  Co109  1  0.24669669  0.25318207  0.50110675  1
  Co  Co110  1  0.25007235  0.74770279  0.49805025  1
  Co  Co111  1  0.50356879  0.75018788  -0.00169492  1
  Co  Co112  1  0.00046094  0.25385482  0.75462941  1
  Co  Co113  1  0.87354515  0.62550123  0.12649203  1
  Co  Co114  1  0.87757588  0.36794908  0.61970238  1
  Co  Co115  1  0.37592176  0.87077874  0.12397861  1
  Co  Co116  1  0.24673852  0.25518913  0.24754261  1
  Co  Co117  1  0.00579972  0.24759320  0.49490789  1
  Co  Co118  1  0.50200806  0.24652414  0.49937450  1
  Co  Co119  1  0.62364213  0.12225473  0.87415747  1
  Co  Co120  1  -0.00438093  0.50183828  0.00031546  1
  Co  Co121  1  0.37732369  0.37339948  0.87370641  1
  Co  Co122  1  0.87233826  0.63157642  0.62689530  1
  Co  Co123  1  0.87693836  0.87601638  0.12333795  1
  Co  Co124  1  0.25503278  0.50059258  0.00046555  1
  Co  Co125  1  0.00285318  0.00188080  0.00354652  1
  Co  Co126  1  0.37273021  0.62308645  0.37535307  1
  Co  Co127  1  0.24553018  0.75028775  0.00078156  1
