# generated using pymatgen
data_Fe45Co19
_symmetry_space_group_name_H-M   'P 1'
_cell_length_a   11.41426019
_cell_length_b   11.41517638
_cell_length_c   11.41519822
_cell_angle_alpha   90.00022186
_cell_angle_beta   90.00500897
_cell_angle_gamma   89.99825558
_symmetry_Int_Tables_number   1
_chemical_formula_structural   Fe45Co19
_chemical_formula_sum   'Fe90 Co38'
_cell_volume   1487.35230241
_cell_formula_units_Z   2
loop_
 _symmetry_equiv_pos_site_id
 _symmetry_equiv_pos_as_xyz
  1  'x, y, z'
loop_
 _atom_site_type_symbol
 _atom_site_label
 _atom_site_symmetry_multiplicity
 _atom_site_fract_x
 _atom_site_fract_y
 _atom_site_fract_z
 _atom_site_occupancy
  Fe  Fe0  1  0.25088135  0.24819297  0.75020109  1
  Fe  Fe1  1  0.25275450  0.50105377  0.49886212  1
  Fe  Fe2  1  0.61976786  0.12171066  0.37685758  1
  Fe  Fe3  1  0.12575038  0.87878572  0.62207176  1
  Fe  Fe4  1  0.62544105  0.62473452  0.62298807  1
  Fe  Fe5  1  0.62693019  0.37622133  0.37828695  1
  Fe  Fe6  1  0.49957114  0.49937473  0.25171950  1
  Fe  Fe7  1  0.49865594  0.49838717  0.00153834  1
  Fe  Fe8  1  0.12875489  0.87890856  0.12545296  1
  Fe  Fe9  1  0.74833979  0.00247338  0.24841686  1
  Fe  Fe10  1  0.37387391  0.37207322  0.12714177  1
  Fe  Fe11  1  0.74452991  0.24928334  -0.00145659  1
  Fe  Fe12  1  0.62608744  0.37739842  0.12589983  1
  Fe  Fe13  1  0.87515840  0.62780982  0.87916799  1
  Fe  Fe14  1  0.62498830  0.87422231  0.62511017  1
  Fe  Fe15  1  -0.00183574  -0.00143256  0.74940752  1
  Fe  Fe16  1  0.87212420  0.37057840  0.37278330  1
  Fe  Fe17  1  0.49917804  0.75308052  0.49891127  1
  Fe  Fe18  1  0.75033127  0.00035542  0.50050886  1
  Fe  Fe19  1  0.87336450  0.37325172  0.87614453  1
  Fe  Fe20  1  0.87357978  0.12534476  0.87450184  1
  Fe  Fe21  1  0.25650778  0.00132013  0.00024761  1
  Fe  Fe22  1  -0.00124842  0.00100634  0.00167788  1
  Fe  Fe23  1  0.12594388  0.37474178  0.87625225  1
  Fe  Fe24  1  0.25488696  0.24585005  0.49466692  1
  Fe  Fe25  1  0.24841462  0.75048208  0.75011056  1
  Fe  Fe26  1  0.37542235  0.62596293  0.87685851  1
  Fe  Fe27  1  -0.00034512  0.75330536  0.75113749  1
  Fe  Fe28  1  0.37455554  0.62532229  0.12520879  1
  Fe  Fe29  1  0.62462879  0.62315811  0.88041158  1
  Fe  Fe30  1  0.62252675  0.87794768  0.37321101  1
  Fe  Fe31  1  0.00375982  0.24580503  0.24819893  1
  Fe  Fe32  1  0.74984205  0.00164000  -0.00012574  1
  Fe  Fe33  1  0.38167909  0.12796676  0.87678465  1
  Fe  Fe34  1  0.62511039  0.37580580  0.62124440  1
  Fe  Fe35  1  0.25003581  0.75033838  0.00106740  1
  Fe  Fe36  1  0.12585252  0.88155704  0.37574829  1
  Fe  Fe37  1  0.25472668  0.00128847  0.74858779  1
  Fe  Fe38  1  0.49755685  -0.00178240  0.74953100  1
  Fe  Fe39  1  -0.00065114  0.75261401  0.49829717  1
  Fe  Fe40  1  0.74630980  0.75004838  0.24725668  1
  Fe  Fe41  1  0.24944781  0.50050902  0.24976290  1
  Fe  Fe42  1  0.12246468  0.62308089  0.37382860  1
  Fe  Fe43  1  0.12734397  0.37465146  0.12611152  1
  Fe  Fe44  1  -0.00391696  0.49911492  0.49706096  1
  Fe  Fe45  1  0.24829334  0.74957336  0.25106454  1
  Fe  Fe46  1  0.12650730  0.37374287  0.62275914  1
  Fe  Fe47  1  0.87288560  0.87509343  0.12364089  1
  Fe  Fe48  1  0.75058934  0.75206367  0.75342121  1
  Fe  Fe49  1  0.37655652  0.37268766  0.62405919  1
  Fe  Fe50  1  0.49998842  0.49916387  0.74896322  1
  Fe  Fe51  1  0.00014140  0.49986399  0.00300009  1
  Fe  Fe52  1  0.37690467  0.62608106  0.37406999  1
  Fe  Fe53  1  0.00095221  0.24680888  0.00116898  1
  Fe  Fe54  1  0.12527761  0.62357890  0.87740750  1
  Fe  Fe55  1  0.74426466  0.24926527  0.75226078  1
  Fe  Fe56  1  0.87424866  0.62707534  0.62395143  1
  Fe  Fe57  1  0.00300172  0.75153268  0.24803370  1
  Fe  Fe58  1  0.00213145  0.24914443  0.74986243  1
  Fe  Fe59  1  0.25088558  0.49900563  0.75014058  1
  Fe  Fe60  1  0.50260898  0.75298334  0.24470211  1
  Fe  Fe61  1  0.37548858  0.62736910  0.62450531  1
  Fe  Fe62  1  0.12630747  0.37393433  0.37320790  1
  Fe  Fe63  1  0.87337015  0.12497537  0.62662293  1
  Fe  Fe64  1  0.50039544  0.25133039  0.25263124  1
  Fe  Fe65  1  0.75024511  0.50069410  0.75077172  1
  Fe  Fe66  1  0.87277370  0.37018644  0.12641230  1
  Fe  Fe67  1  0.62020401  0.12317108  0.12283170  1
  Fe  Fe68  1  0.37612936  0.37331831  0.87547525  1
  Fe  Fe69  1  0.61989242  0.12556822  0.62348955  1
  Fe  Fe70  1  0.75205829  0.50156248  0.25118342  1
  Fe  Fe71  1  0.25055857  0.24860797  0.00137916  1
  Fe  Fe72  1  0.87580964  0.62704001  0.12576526  1
  Fe  Fe73  1  0.74985865  0.75030444  0.49775513  1
  Fe  Fe74  1  0.87357551  0.87548678  0.37320838  1
  Fe  Fe75  1  0.62413745  0.62411401  0.37484007  1
  Fe  Fe76  1  -0.00101464  0.00319410  0.24800765  1
  Fe  Fe77  1  0.25101386  0.75349068  0.49777922  1
  Fe  Fe78  1  0.25450781  0.00650992  0.25067333  1
  Fe  Fe79  1  0.00020983  0.49884651  0.75044751  1
  Fe  Fe80  1  0.12615078  0.87736122  0.87607198  1
  Fe  Fe81  1  0.50106978  0.74983267  0.75230779  1
  Fe  Fe82  1  0.12686771  0.12275620  0.62084132  1
  Fe  Fe83  1  0.87249358  0.37349411  0.62467522  1
  Fe  Fe84  1  0.62309528  0.87575886  0.87986941  1
  Fe  Fe85  1  0.87350163  0.12635241  0.37267770  1
  Fe  Fe86  1  0.12574929  0.12388547  0.87569121  1
  Fe  Fe87  1  0.12427289  0.62394782  0.62379294  1
  Fe  Fe88  1  0.74964106  -0.00160698  0.75102567  1
  Fe  Fe89  1  -0.00113567  0.24769007  0.49931727  1
  Co  Co90  1  0.49409662  -0.00545196  0.00344453  1
  Co  Co91  1  0.12770550  0.12297211  0.12337433  1
  Co  Co92  1  0.49973530  0.75216964  0.00446849  1
  Co  Co93  1  0.75251315  0.49940088  0.00285799  1
  Co  Co94  1  0.75236269  0.50199986  0.49747346  1
  Co  Co95  1  0.50492222  0.25449837  -0.00027854  1
  Co  Co96  1  0.74629366  0.74973868  0.00250670  1
  Co  Co97  1  0.25136858  0.49909295  0.00050236  1
  Co  Co98  1  0.37927072  0.12878209  0.62550211  1
  Co  Co99  1  0.38004694  0.13013069  0.12426268  1
  Co  Co100  1  0.62743133  0.87884048  0.12275288  1
  Co  Co101  1  0.38250876  0.12171526  0.37305467  1
  Co  Co102  1  0.87153694  0.12746495  0.12453108  1
  Co  Co103  1  0.62596012  0.38037140  0.87561959  1
  Co  Co104  1  0.37304283  0.37637560  0.37251577  1
  Co  Co105  1  0.12614307  0.62335984  0.12561094  1
  Co  Co106  1  0.00435236  0.75227095  0.00251734  1
  Co  Co107  1  0.25031472  0.24461722  0.25213521  1
  Co  Co108  1  0.25845352  -0.00076234  0.50013516  1
  Co  Co109  1  0.37717280  0.87504698  0.36991288  1
  Co  Co110  1  0.37521643  0.87072421  0.62806561  1
  Co  Co111  1  0.62022867  0.12025440  0.87660993  1
  Co  Co112  1  0.87321766  0.87366055  0.62376599  1
  Co  Co113  1  0.74342778  0.24660871  0.24969476  1
  Co  Co114  1  0.50410886  0.25257369  0.75190285  1
  Co  Co115  1  -0.00535484  0.00103645  0.49936554  1
  Co  Co116  1  0.49881543  -0.00230915  0.24446003  1
  Co  Co117  1  0.49535439  -0.00471948  0.50343661  1
  Co  Co118  1  0.87423250  0.87511645  0.87922250  1
  Co  Co119  1  -0.00171748  0.49804118  0.24899725  1
  Co  Co120  1  0.49818064  0.50033157  0.49988456  1
  Co  Co121  1  0.37074038  0.87353444  0.12860631  1
  Co  Co122  1  0.62401854  0.62102982  0.12424179  1
  Co  Co123  1  0.87578220  0.62851422  0.37164496  1
  Co  Co124  1  0.74848310  0.24628875  0.50021887  1
  Co  Co125  1  0.12476144  0.12152450  0.37809268  1
  Co  Co126  1  0.37550340  0.87213783  0.87358979  1
  Co  Co127  1  0.49822245  0.25263503  0.49588413  1
