# generated using pymatgen
data_Fe45Co19
_symmetry_space_group_name_H-M   'P 1'
_cell_length_a   11.41397430
_cell_length_b   11.41433818
_cell_length_c   11.41512528
_cell_angle_alpha   89.99501397
_cell_angle_beta   90.00090902
_cell_angle_gamma   89.99760117
_symmetry_Int_Tables_number   1
_chemical_formula_structural   Fe45Co19
_chemical_formula_sum   'Fe90 Co38'
_cell_volume   1487.19633244
_cell_formula_units_Z   2
loop_
 _symmetry_equiv_pos_site_id
 _symmetry_equiv_pos_as_xyz
  1  'x, y, z'
loop_
 _atom_site_type_symbol
 _atom_site_label
 _atom_site_symmetry_multiplicity
 _atom_site_fract_x
 _atom_site_fract_y
 _atom_site_fract_z
 _atom_site_occupancy
  Fe  Fe0  1  0.37577712  0.37468877  0.12605861  1
  Fe  Fe1  1  0.87260840  0.37724792  0.87664512  1
  Fe  Fe2  1  0.24734612  0.75236989  0.50345694  1
  Fe  Fe3  1  0.87437663  0.87452161  0.87474304  1
  Fe  Fe4  1  0.37475966  0.62354922  0.37426234  1
  Fe  Fe5  1  0.62224145  0.37373643  0.62646102  1
  Fe  Fe6  1  0.62795752  0.87513845  0.62437123  1
  Fe  Fe7  1  0.25119293  0.25096803  0.25170579  1
  Fe  Fe8  1  0.37526643  0.62499304  0.62516255  1
  Fe  Fe9  1  0.37520667  0.87504718  0.37723673  1
  Fe  Fe10  1  -0.00137958  -0.00099615  0.49862074  1
  Fe  Fe11  1  0.49928954  0.00294281  0.75056700  1
  Fe  Fe12  1  0.00061519  0.74812696  0.50213846  1
  Fe  Fe13  1  0.50312890  0.49621982  -0.00200259  1
  Fe  Fe14  1  0.74800957  0.49985060  0.50051989  1
  Fe  Fe15  1  0.37306285  0.36918946  0.87220112  1
  Fe  Fe16  1  0.00004770  0.50034241  0.74969345  1
  Fe  Fe17  1  0.50019828  0.49937383  0.74982703  1
  Fe  Fe18  1  0.49973320  0.74891225  0.25110439  1
  Fe  Fe19  1  0.87690263  0.62235326  0.12114871  1
  Fe  Fe20  1  -0.00027406  0.25065802  -0.00151905  1
  Fe  Fe21  1  -0.00427935  0.25445284  0.50196179  1
  Fe  Fe22  1  0.75131891  -0.00016716  0.25110298  1
  Fe  Fe23  1  0.75081090  0.25075947  0.24962523  1
  Fe  Fe24  1  -0.00375156  0.24931254  0.74961943  1
  Fe  Fe25  1  0.12321044  0.37702913  0.62464351  1
  Fe  Fe26  1  -0.00011570  0.00080547  -0.00252025  1
  Fe  Fe27  1  0.37810922  0.12941845  0.62650466  1
  Fe  Fe28  1  0.87793642  0.87361715  0.37317596  1
  Fe  Fe29  1  0.62625356  0.87475650  0.12550085  1
  Fe  Fe30  1  0.62581279  0.87407487  0.37578625  1
  Fe  Fe31  1  0.25124252  0.25112415  0.50254742  1
  Fe  Fe32  1  0.12517764  0.37449600  0.12586734  1
  Fe  Fe33  1  0.25106290  0.49936817  0.50226000  1
  Fe  Fe34  1  0.62663103  0.12547032  0.12370380  1
  Fe  Fe35  1  0.87392684  0.12660272  0.37704549  1
  Fe  Fe36  1  0.24968319  0.75206568  0.74628372  1
  Fe  Fe37  1  0.12592749  0.37322329  0.87361027  1
  Fe  Fe38  1  0.87308867  0.37694931  0.12171175  1
  Fe  Fe39  1  0.37423388  0.87612817  0.12590899  1
  Fe  Fe40  1  0.24886203  0.75118666  0.00033472  1
  Fe  Fe41  1  0.24734869  -0.00171237  0.25108291  1
  Fe  Fe42  1  0.12547204  0.62319702  0.12493772  1
  Fe  Fe43  1  -0.00081104  0.74942679  0.74860613  1
  Fe  Fe44  1  0.87396315  0.87563254  0.62452261  1
  Fe  Fe45  1  0.87838818  0.87589228  0.12594707  1
  Fe  Fe46  1  0.12544767  0.12540903  0.37676771  1
  Fe  Fe47  1  0.87279951  0.62400578  0.62543858  1
  Fe  Fe48  1  0.50212868  0.25055604  -0.00243750  1
  Fe  Fe49  1  0.75166441  0.74870669  0.25063159  1
  Fe  Fe50  1  0.37775995  0.37750265  0.37735732  1
  Fe  Fe51  1  0.37487902  0.12539952  0.12450527  1
  Fe  Fe52  1  0.50005993  0.00025618  -0.00180114  1
  Fe  Fe53  1  0.12796397  0.12485440  0.87143289  1
  Fe  Fe54  1  0.62315400  0.37618738  0.37472101  1
  Fe  Fe55  1  0.62655651  0.87405601  0.87369472  1
  Fe  Fe56  1  0.75310627  0.00252581  0.74885667  1
  Fe  Fe57  1  0.75070084  0.25174018  0.50276243  1
  Fe  Fe58  1  0.25118404  0.00053021  -0.00167781  1
  Fe  Fe59  1  0.12432381  0.62353464  0.37661684  1
  Fe  Fe60  1  0.49892320  0.75207807  0.00057619  1
  Fe  Fe61  1  0.12522438  0.62491520  0.87288424  1
  Fe  Fe62  1  0.12505805  0.12510839  0.12497339  1
  Fe  Fe63  1  0.37431443  0.62272653  0.12539099  1
  Fe  Fe64  1  0.50394548  0.74563258  0.49999313  1
  Fe  Fe65  1  0.49863125  0.24848137  0.25300055  1
  Fe  Fe66  1  0.24924360  0.49775167  -0.00101612  1
  Fe  Fe67  1  0.24673607  0.75189954  0.24972533  1
  Fe  Fe68  1  0.87444195  0.62280356  0.37568507  1
  Fe  Fe69  1  0.37609416  0.62589783  0.87468231  1
  Fe  Fe70  1  0.74745301  0.50503765  0.75487822  1
  Fe  Fe71  1  0.62893443  0.12519032  0.87632415  1
  Fe  Fe72  1  0.37499509  0.87503721  0.87246618  1
  Fe  Fe73  1  0.50052459  0.00261820  0.50014024  1
  Fe  Fe74  1  0.00220058  0.74993104  -0.00076018  1
  Fe  Fe75  1  0.87279820  0.12404321  0.12156553  1
  Fe  Fe76  1  0.74759970  0.49918298  0.24804081  1
  Fe  Fe77  1  0.12644279  0.87794909  0.87039738  1
  Fe  Fe78  1  0.75204204  0.24669423  0.74795947  1
  Fe  Fe79  1  0.50051852  0.00091459  0.25144616  1
  Fe  Fe80  1  0.62694357  0.12543373  0.37733439  1
  Fe  Fe81  1  0.00025359  0.49901094  0.25093015  1
  Fe  Fe82  1  -0.00239209  0.24982358  0.25049080  1
  Fe  Fe83  1  0.12069722  0.12299293  0.62671650  1
  Fe  Fe84  1  0.75024781  0.74770600  -0.00263736  1
  Fe  Fe85  1  0.50232705  0.74954025  0.74776065  1
  Fe  Fe86  1  0.25051847  -0.00222409  0.50475111  1
  Fe  Fe87  1  0.25121867  0.49808752  0.74846407  1
  Fe  Fe88  1  0.62301933  0.62496256  0.12375269  1
  Fe  Fe89  1  0.12287683  0.37568948  0.37632935  1
  Co  Co90  1  0.87200333  0.37912183  0.62836012  1
  Co  Co91  1  0.74831054  0.25360002  0.00035794  1
  Co  Co92  1  0.49991677  0.24840833  0.49760563  1
  Co  Co93  1  -0.00530985  0.00233113  0.75263231  1
  Co  Co94  1  0.62589445  0.12481754  0.62326369  1
  Co  Co95  1  0.74458582  0.50169555  -0.00207168  1
  Co  Co96  1  0.50161539  0.50334477  0.50215140  1
  Co  Co97  1  0.87202429  0.12688773  0.87904867  1
  Co  Co98  1  0.87342799  0.37647755  0.37458754  1
  Co  Co99  1  0.87839859  0.62274558  0.87700924  1
  Co  Co100  1  0.12104767  0.87836936  0.62766101  1
  Co  Co101  1  0.50110431  0.50093324  0.24987189  1
  Co  Co102  1  0.24872173  0.25048166  0.00165036  1
  Co  Co103  1  0.00406368  0.49799267  -0.00099298  1
  Co  Co104  1  0.24728242  0.24998690  0.74500307  1
  Co  Co105  1  0.62826315  0.62576337  0.62656920  1
  Co  Co106  1  0.12209480  0.87702500  0.12493286  1
  Co  Co107  1  0.24926139  0.49827060  0.25096793  1
  Co  Co108  1  -0.00210615  0.49981328  0.50117114  1
  Co  Co109  1  0.38030572  0.87292753  0.62390834  1
  Co  Co110  1  0.75164946  0.74825188  0.75253078  1
  Co  Co111  1  0.12325081  0.87528247  0.37648952  1
  Co  Co112  1  0.37230051  0.12862575  0.87393227  1
  Co  Co113  1  0.50298081  0.24838331  0.75251665  1
  Co  Co114  1  0.62440762  0.37295179  0.12754337  1
  Co  Co115  1  0.87655058  0.12368220  0.62126526  1
  Co  Co116  1  0.00138553  0.74663269  0.24956467  1
  Co  Co117  1  0.74972380  -0.00358030  0.00015106  1
  Co  Co118  1  0.62893297  0.37267877  0.87075002  1
  Co  Co119  1  0.75066565  0.75008822  0.49859520  1
  Co  Co120  1  0.75111721  -0.00116849  0.49844305  1
  Co  Co121  1  0.12505793  0.62286702  0.62588250  1
  Co  Co122  1  0.25482584  0.00037000  0.74552657  1
  Co  Co123  1  0.37922501  0.37290714  0.62479247  1
  Co  Co124  1  0.62713203  0.62368641  0.37312998  1
  Co  Co125  1  0.61995786  0.62857189  0.87625371  1
  Co  Co126  1  -0.00059473  0.00395638  0.25132699  1
  Co  Co127  1  0.37139444  0.12229471  0.37633136  1
