# generated using pymatgen
data_Fe45Co19
_symmetry_space_group_name_H-M   'P 1'
_cell_length_a   11.41613641
_cell_length_b   11.41608267
_cell_length_c   11.41496513
_cell_angle_alpha   90.00085151
_cell_angle_beta   90.00520213
_cell_angle_gamma   90.00278333
_symmetry_Int_Tables_number   1
_chemical_formula_structural   Fe45Co19
_chemical_formula_sum   'Fe90 Co38'
_cell_volume   1487.68451139
_cell_formula_units_Z   2
loop_
 _symmetry_equiv_pos_site_id
 _symmetry_equiv_pos_as_xyz
  1  'x, y, z'
loop_
 _atom_site_type_symbol
 _atom_site_label
 _atom_site_symmetry_multiplicity
 _atom_site_fract_x
 _atom_site_fract_y
 _atom_site_fract_z
 _atom_site_occupancy
  Fe  Fe0  1  -0.00119454  0.75020799  0.00023659  1
  Fe  Fe1  1  0.74991637  0.74773525  0.25081052  1
  Fe  Fe2  1  0.24784014  -0.00205081  -0.00661540  1
  Fe  Fe3  1  0.12673170  0.62376689  0.62578318  1
  Fe  Fe4  1  0.12414725  0.87628687  0.12298162  1
  Fe  Fe5  1  0.87565382  0.12739129  0.37522778  1
  Fe  Fe6  1  0.75063593  0.75217025  0.50034639  1
  Fe  Fe7  1  0.62572180  0.37222705  0.12815871  1
  Fe  Fe8  1  0.12610652  0.12461002  0.12184030  1
  Fe  Fe9  1  0.49552851  0.25054905  0.49868201  1
  Fe  Fe10  1  0.00094139  0.00318399  0.24967322  1
  Fe  Fe11  1  0.37765773  0.62390687  0.87674101  1
  Fe  Fe12  1  0.74753475  0.49662115  0.49771421  1
  Fe  Fe13  1  0.87597349  0.87571287  0.87409896  1
  Fe  Fe14  1  0.75203901  0.25064565  0.49997708  1
  Fe  Fe15  1  0.12449694  0.62447174  0.37613088  1
  Fe  Fe16  1  0.50271328  0.50188670  0.74705468  1
  Fe  Fe17  1  0.37570659  0.87755318  0.12509946  1
  Fe  Fe18  1  -0.00174886  0.24954569  0.74813644  1
  Fe  Fe19  1  0.25048399  0.49939194  0.75226379  1
  Fe  Fe20  1  0.87470334  0.87905932  0.12498023  1
  Fe  Fe21  1  0.37419998  0.12304680  0.12459004  1
  Fe  Fe22  1  0.87659082  0.87695316  0.62805135  1
  Fe  Fe23  1  0.12481373  0.87278755  0.37306883  1
  Fe  Fe24  1  0.00140066  -0.00047297  0.49957493  1
  Fe  Fe25  1  0.62488184  0.12764037  0.62307292  1
  Fe  Fe26  1  0.12784267  0.12581216  0.62430544  1
  Fe  Fe27  1  0.74705086  0.00225783  -0.00317046  1
  Fe  Fe28  1  0.62577369  0.87480029  0.62538795  1
  Fe  Fe29  1  0.12492478  0.62423002  0.87753971  1
  Fe  Fe30  1  0.25345846  0.25280950  0.00089209  1
  Fe  Fe31  1  0.25225058  0.24888112  0.74850919  1
  Fe  Fe32  1  0.25180211  0.75010616  0.75222623  1
  Fe  Fe33  1  0.62165485  0.62517378  0.37927271  1
  Fe  Fe34  1  0.37891599  0.37374675  0.87363140  1
  Fe  Fe35  1  0.50356372  0.49629997  -0.00065397  1
  Fe  Fe36  1  0.87356567  0.62306872  0.87701026  1
  Fe  Fe37  1  0.74849082  0.75127681  -0.00131996  1
  Fe  Fe38  1  0.62541239  0.37087943  0.62794466  1
  Fe  Fe39  1  0.00232409  0.25220920  0.50182637  1
  Fe  Fe40  1  0.62559651  0.87605174  0.12683998  1
  Fe  Fe41  1  0.12450320  0.37245127  0.87521726  1
  Fe  Fe42  1  0.87493515  0.37628489  0.62613348  1
  Fe  Fe43  1  0.49999748  -0.00259102  0.49583433  1
  Fe  Fe44  1  -0.00106118  0.75053604  0.50287451  1
  Fe  Fe45  1  -0.00328745  0.25027075  0.00450723  1
  Fe  Fe46  1  0.37619436  0.12656455  0.87588247  1
  Fe  Fe47  1  0.74807281  0.00495791  0.75012743  1
  Fe  Fe48  1  0.87602602  0.62314155  0.37607289  1
  Fe  Fe49  1  0.25260307  0.25114890  0.25179309  1
  Fe  Fe50  1  0.37766724  0.37611722  0.12807051  1
  Fe  Fe51  1  0.24978721  -0.00055481  0.25203097  1
  Fe  Fe52  1  0.00341326  0.00310443  0.75364145  1
  Fe  Fe53  1  0.87247385  0.62038277  0.12321432  1
  Fe  Fe54  1  0.50049072  0.74778505  0.74711236  1
  Fe  Fe55  1  0.62617429  0.62402390  0.12310827  1
  Fe  Fe56  1  0.87467251  0.87529543  0.37302940  1
  Fe  Fe57  1  0.12469151  0.37718236  0.12653473  1
  Fe  Fe58  1  0.62010737  0.37303531  0.37161654  1
  Fe  Fe59  1  0.74809887  0.00342489  0.25289425  1
  Fe  Fe60  1  0.00037303  0.50106912  0.75129636  1
  Fe  Fe61  1  0.50288042  0.00129508  -0.00295172  1
  Fe  Fe62  1  0.50106707  0.00296413  0.75151065  1
  Fe  Fe63  1  0.25210915  0.75287469  0.50014852  1
  Fe  Fe64  1  0.37352752  0.87723162  0.62732775  1
  Fe  Fe65  1  0.62636094  0.12868834  0.12461871  1
  Fe  Fe66  1  0.50138987  0.75349560  -0.00087032  1
  Fe  Fe67  1  0.87270717  0.37424802  0.87486784  1
  Fe  Fe68  1  0.75058585  0.00075211  0.49986126  1
  Fe  Fe69  1  -0.00052899  0.74773122  0.24757630  1
  Fe  Fe70  1  0.87230076  0.62180574  0.62413823  1
  Fe  Fe71  1  0.74527009  0.49910642  0.75295040  1
  Fe  Fe72  1  0.87907576  0.37441035  0.37072741  1
  Fe  Fe73  1  0.87428556  0.12703327  0.87674792  1
  Fe  Fe74  1  0.24815233  0.49451570  0.49933476  1
  Fe  Fe75  1  0.12587377  0.62192128  0.12135654  1
  Fe  Fe76  1  0.00248967  0.49800544  0.50056520  1
  Fe  Fe77  1  0.12477139  0.87519100  0.62939156  1
  Fe  Fe78  1  0.25192507  0.75242520  -0.00116983  1
  Fe  Fe79  1  0.87223189  0.37758721  0.12894378  1
  Fe  Fe80  1  0.50099932  0.00351114  0.25427923  1
  Fe  Fe81  1  0.49946420  0.74977260  0.25119939  1
  Fe  Fe82  1  0.25095122  0.50103638  0.25073360  1
  Fe  Fe83  1  0.12838587  0.12800243  0.37716721  1
  Fe  Fe84  1  0.37853037  0.62207152  0.37957000  1
  Fe  Fe85  1  0.74938178  0.74847903  0.75053238  1
  Fe  Fe86  1  0.37092120  0.12214704  0.62053607  1
  Fe  Fe87  1  0.37395251  0.37687229  0.62495609  1
  Fe  Fe88  1  0.37600457  0.62344044  0.12184473  1
  Fe  Fe89  1  0.25203497  0.74826091  0.24924592  1
  Co  Co90  1  0.50119428  0.50268656  0.24731929  1
  Co  Co91  1  0.37864161  0.37823030  0.37340384  1
  Co  Co92  1  0.75037034  0.24895467  0.25103811  1
  Co  Co93  1  0.12273347  0.37404329  0.37026043  1
  Co  Co94  1  0.12533233  0.13311516  0.87715339  1
  Co  Co95  1  0.12467256  0.37504977  0.62975407  1
  Co  Co96  1  0.62497643  0.87422353  0.87240175  1
  Co  Co97  1  0.49491439  0.24687834  0.74486025  1
  Co  Co98  1  -0.00099965  0.49714329  -0.00031510  1
  Co  Co99  1  0.75071816  0.25138571  0.00115285  1
  Co  Co100  1  -0.00182937  0.74551731  0.74926670  1
  Co  Co101  1  0.62358943  0.13311905  0.87344366  1
  Co  Co102  1  0.87236705  0.12225126  0.12475566  1
  Co  Co103  1  0.37836506  0.87546926  0.87387883  1
  Co  Co104  1  0.25229925  0.49638275  -0.00124443  1
  Co  Co105  1  0.24827893  -0.00524720  0.49938235  1
  Co  Co106  1  0.37053341  0.12489419  0.37798094  1
  Co  Co107  1  0.74748337  0.50122958  0.25305594  1
  Co  Co108  1  0.87733819  0.12456886  0.62342348  1
  Co  Co109  1  0.24816913  0.00212108  0.75479299  1
  Co  Co110  1  0.74514331  0.49604377  -0.00272668  1
  Co  Co111  1  0.75325332  0.24740592  0.74767965  1
  Co  Co112  1  0.49848911  0.25047924  0.00384711  1
  Co  Co113  1  0.25016492  0.25651451  0.49990934  1
  Co  Co114  1  0.62569912  0.12855148  0.37846701  1
  Co  Co115  1  0.50247746  0.49681990  0.50605680  1
  Co  Co116  1  0.00114254  0.00199807  -0.00276185  1
  Co  Co117  1  0.62192009  0.36676227  0.87072748  1
  Co  Co118  1  0.37230775  0.62306531  0.62249585  1
  Co  Co119  1  0.00082555  0.50324692  0.24907581  1
  Co  Co120  1  0.00079940  0.24618303  0.24600982  1
  Co  Co121  1  0.62806711  0.62617130  0.62181590  1
  Co  Co122  1  0.49703793  0.24488600  0.25061699  1
  Co  Co123  1  0.62610429  0.87326601  0.37417229  1
  Co  Co124  1  0.37519205  0.87494427  0.37206302  1
  Co  Co125  1  0.62273556  0.62621191  0.87619329  1
  Co  Co126  1  0.49826528  0.75357714  0.50267190  1
  Co  Co127  1  0.12208884  0.87091815  0.87386855  1
