# generated using pymatgen
data_Fe45Co19
_symmetry_space_group_name_H-M   'P 1'
_cell_length_a   11.41522412
_cell_length_b   11.41368296
_cell_length_c   11.41495719
_cell_angle_alpha   90.00040447
_cell_angle_beta   89.99955748
_cell_angle_gamma   90.00493326
_symmetry_Int_Tables_number   1
_chemical_formula_structural   Fe45Co19
_chemical_formula_sum   'Fe90 Co38'
_cell_volume   1487.25190174
_cell_formula_units_Z   2
loop_
 _symmetry_equiv_pos_site_id
 _symmetry_equiv_pos_as_xyz
  1  'x, y, z'
loop_
 _atom_site_type_symbol
 _atom_site_label
 _atom_site_symmetry_multiplicity
 _atom_site_fract_x
 _atom_site_fract_y
 _atom_site_fract_z
 _atom_site_occupancy
  Fe  Fe0  1  0.25182967  0.50010745  0.49966966  1
  Fe  Fe1  1  0.12649856  0.87568189  0.87881082  1
  Fe  Fe2  1  0.25082074  0.24919668  0.75101000  1
  Fe  Fe3  1  0.37391657  0.62424558  0.87343908  1
  Fe  Fe4  1  0.25252666  0.24757017  0.49996072  1
  Fe  Fe5  1  0.62589562  0.87420143  0.37478058  1
  Fe  Fe6  1  0.50262913  -0.00206712  0.24840555  1
  Fe  Fe7  1  0.49929639  0.75063162  0.74966702  1
  Fe  Fe8  1  0.75007604  0.74986115  0.24879860  1
  Fe  Fe9  1  0.12561821  0.37295185  0.37515999  1
  Fe  Fe10  1  0.37451506  0.62371652  0.12558844  1
  Fe  Fe11  1  0.75081241  0.74903002  0.00194337  1
  Fe  Fe12  1  -0.00059112  0.00100608  0.74900003  1
  Fe  Fe13  1  -0.00080499  0.49995233  0.49827314  1
  Fe  Fe14  1  0.49770827  0.49745787  -0.00104596  1
  Fe  Fe15  1  0.12536691  0.12469454  0.62601846  1
  Fe  Fe16  1  0.62427733  0.13017567  0.37256289  1
  Fe  Fe17  1  0.50227774  0.25387590  0.75240789  1
  Fe  Fe18  1  0.00208457  0.49888955  0.24968171  1
  Fe  Fe19  1  0.62247328  0.37232775  0.12414226  1
  Fe  Fe20  1  0.24992663  0.49843004  0.25168540  1
  Fe  Fe21  1  0.75073677  0.75147002  0.74956506  1
  Fe  Fe22  1  0.12493971  0.37415931  0.62462581  1
  Fe  Fe23  1  0.00029049  0.75132330  0.49801819  1
  Fe  Fe24  1  0.87509577  0.62464261  0.37289561  1
  Fe  Fe25  1  0.12626587  0.37126708  0.87555860  1
  Fe  Fe26  1  0.74605420  0.25271158  0.50228124  1
  Fe  Fe27  1  0.62575604  0.12528836  0.62826260  1
  Fe  Fe28  1  0.25186780  0.00001840  0.49954907  1
  Fe  Fe29  1  0.49946384  0.49842707  0.75111580  1
  Fe  Fe30  1  0.50263833  -0.00312343  0.75120523  1
  Fe  Fe31  1  0.25177991  0.75278998  0.49939256  1
  Fe  Fe32  1  0.62456248  0.62433418  0.12433366  1
  Fe  Fe33  1  0.75196849  0.00406697  0.25066916  1
  Fe  Fe34  1  -0.00142550  0.75231484  0.74986774  1
  Fe  Fe35  1  0.24920230  0.00106522  0.75254780  1
  Fe  Fe36  1  -0.00210072  0.00211466  0.25176064  1
  Fe  Fe37  1  0.75129631  0.49240753  0.74870712  1
  Fe  Fe38  1  0.87347902  0.12677644  0.87234638  1
  Fe  Fe39  1  0.12560388  0.87695658  0.62318374  1
  Fe  Fe40  1  0.87395447  0.87702740  0.12496882  1
  Fe  Fe41  1  0.62605985  0.87567391  0.62388886  1
  Fe  Fe42  1  0.24970655  0.50042324  -0.00071224  1
  Fe  Fe43  1  0.25094879  0.75053674  0.74944230  1
  Fe  Fe44  1  0.12569101  0.62465397  0.62461767  1
  Fe  Fe45  1  0.37901084  0.37228077  0.37667595  1
  Fe  Fe46  1  0.62687956  0.62327737  0.87460165  1
  Fe  Fe47  1  0.25613169  0.24273101  0.00004509  1
  Fe  Fe48  1  0.12540502  0.62598114  0.12609025  1
  Fe  Fe49  1  0.00054873  0.24730304  -0.00017863  1
  Fe  Fe50  1  0.74818285  0.49723541  0.25085647  1
  Fe  Fe51  1  0.37740293  0.12326115  0.62840623  1
  Fe  Fe52  1  0.75029719  0.74908312  0.49936027  1
  Fe  Fe53  1  0.87589572  0.37343643  0.12441314  1
  Fe  Fe54  1  0.49713590  0.75063524  0.50177285  1
  Fe  Fe55  1  -0.00278257  0.24820686  0.25125154  1
  Fe  Fe56  1  0.87356606  0.62313687  0.87403861  1
  Fe  Fe57  1  0.87187078  0.12586553  0.62516766  1
  Fe  Fe58  1  0.87247561  0.87902351  0.62117278  1
  Fe  Fe59  1  0.50010904  0.49738290  0.25131318  1
  Fe  Fe60  1  0.75171672  0.49958148  0.00173546  1
  Fe  Fe61  1  0.25438720  0.24905399  0.24918824  1
  Fe  Fe62  1  0.50010931  0.75200686  0.24715829  1
  Fe  Fe63  1  0.12513936  0.62532572  0.87285463  1
  Fe  Fe64  1  0.62406905  0.12587995  0.87605513  1
  Fe  Fe65  1  0.12534526  0.12418490  0.37432505  1
  Fe  Fe66  1  0.62519996  0.62134651  0.62427553  1
  Fe  Fe67  1  0.37462650  0.62730064  0.37440858  1
  Fe  Fe68  1  0.24798509  0.75282319  0.25040843  1
  Fe  Fe69  1  0.37718526  0.12313035  0.37228781  1
  Fe  Fe70  1  0.62422917  0.62357752  0.37639951  1
  Fe  Fe71  1  0.37265640  0.87805043  0.87809548  1
  Fe  Fe72  1  0.75008207  0.24927235  -0.00012510  1
  Fe  Fe73  1  0.00168006  0.75231807  0.25124486  1
  Fe  Fe74  1  0.37678993  0.37484287  0.62474302  1
  Fe  Fe75  1  0.00053007  0.50068082  0.00084197  1
  Fe  Fe76  1  0.50156302  0.00099915  0.49953485  1
  Fe  Fe77  1  0.87371347  0.87746661  0.87667378  1
  Fe  Fe78  1  -0.00106672  0.74782554  0.00068458  1
  Fe  Fe79  1  0.50018369  0.75148293  0.00100204  1
  Fe  Fe80  1  0.62203702  0.12638698  0.12311874  1
  Fe  Fe81  1  0.24727105  -0.00088746  0.24738621  1
  Fe  Fe82  1  0.37223838  0.87791126  0.12192285  1
  Fe  Fe83  1  0.87454068  0.62310842  0.62536811  1
  Fe  Fe84  1  0.00311993  0.00391696  0.00109925  1
  Fe  Fe85  1  0.00151395  0.24768674  0.50074840  1
  Fe  Fe86  1  0.62790166  0.87521030  0.87743805  1
  Fe  Fe87  1  0.87318477  0.37236570  0.37532279  1
  Fe  Fe88  1  -0.00013765  0.49582734  0.75103378  1
  Fe  Fe89  1  0.12763849  0.37065162  0.12450209  1
  Co  Co90  1  0.37556394  0.87821698  0.62605860  1
  Co  Co91  1  0.62243644  0.37254968  0.37628642  1
  Co  Co92  1  0.25070198  0.74699373  0.00007541  1
  Co  Co93  1  0.12594698  0.62539288  0.37564595  1
  Co  Co94  1  0.37635586  0.87679647  0.37358436  1
  Co  Co95  1  0.37241019  0.37491528  0.87433944  1
  Co  Co96  1  0.87290782  0.12800332  0.37973247  1
  Co  Co97  1  0.50161591  -0.00241621  0.00056781  1
  Co  Co98  1  0.12386896  0.12828470  0.12914669  1
  Co  Co99  1  -0.00020804  0.00317398  0.49993995  1
  Co  Co100  1  0.87336274  0.87626269  0.37628920  1
  Co  Co101  1  0.87531416  0.62468790  0.12765202  1
  Co  Co102  1  0.62036358  0.37858478  0.62078271  1
  Co  Co103  1  0.87627062  0.37287755  0.87822559  1
  Co  Co104  1  0.24737993  0.00806583  0.00064058  1
  Co  Co105  1  0.74952554  -0.00075841  0.75106813  1
  Co  Co106  1  0.49780376  0.25181105  0.24763033  1
  Co  Co107  1  0.12434310  0.87513555  0.12144708  1
  Co  Co108  1  0.37354199  0.37601149  0.12438096  1
  Co  Co109  1  0.49687621  0.50210229  0.49777365  1
  Co  Co110  1  0.87552979  0.12555575  0.12280623  1
  Co  Co111  1  0.49515119  0.25082048  -0.00051714  1
  Co  Co112  1  -0.00126899  0.25046441  0.74827586  1
  Co  Co113  1  0.74770106  0.25486910  0.74958466  1
  Co  Co114  1  0.12417811  0.87815552  0.37685004  1
  Co  Co115  1  0.38026290  0.12204929  0.87232040  1
  Co  Co116  1  0.37421680  0.62456694  0.62661093  1
  Co  Co117  1  0.87689330  0.37272028  0.62230348  1
  Co  Co118  1  0.75064516  0.24958336  0.24776504  1
  Co  Co119  1  0.62931647  0.87596594  0.12530693  1
  Co  Co120  1  0.74957843  0.00248648  0.00031631  1
  Co  Co121  1  0.74521772  0.00268666  0.49756278  1
  Co  Co122  1  0.49937229  0.24551478  0.50129257  1
  Co  Co123  1  0.37955116  0.12085940  0.12713756  1
  Co  Co124  1  0.12346505  0.12752342  0.87203835  1
  Co  Co125  1  0.62569714  0.37537469  0.87902874  1
  Co  Co126  1  0.24804261  0.49841148  0.74920030  1
  Co  Co127  1  0.75151630  0.49826946  0.49807905  1
