# generated using pymatgen
data_Fe45Co19
_symmetry_space_group_name_H-M   'P 1'
_cell_length_a   11.41568489
_cell_length_b   11.41609447
_cell_length_c   11.41540145
_cell_angle_alpha   89.99243589
_cell_angle_beta   89.98580682
_cell_angle_gamma   90.00128801
_symmetry_Int_Tables_number   1
_chemical_formula_structural   Fe45Co19
_chemical_formula_sum   'Fe90 Co38'
_cell_volume   1487.68401964
_cell_formula_units_Z   2
loop_
 _symmetry_equiv_pos_site_id
 _symmetry_equiv_pos_as_xyz
  1  'x, y, z'
loop_
 _atom_site_type_symbol
 _atom_site_label
 _atom_site_symmetry_multiplicity
 _atom_site_fract_x
 _atom_site_fract_y
 _atom_site_fract_z
 _atom_site_occupancy
  Fe  Fe0  1  0.24594007  -0.00082558  0.24878199  1
  Fe  Fe1  1  0.87590751  0.88140521  0.12305043  1
  Fe  Fe2  1  0.75400375  0.25030681  0.49948746  1
  Fe  Fe3  1  0.37828078  0.87191997  0.62662246  1
  Fe  Fe4  1  0.00323596  0.49739477  0.75365010  1
  Fe  Fe5  1  0.37653632  0.87637145  0.37671123  1
  Fe  Fe6  1  0.63040655  0.12458932  0.12512712  1
  Fe  Fe7  1  0.24696256  0.49965855  0.75046284  1
  Fe  Fe8  1  0.62469593  0.62368869  0.87698261  1
  Fe  Fe9  1  0.25008257  0.74788766  0.50161634  1
  Fe  Fe10  1  0.24593792  0.24894380  0.24950027  1
  Fe  Fe11  1  0.49849875  0.75066407  0.24826691  1
  Fe  Fe12  1  0.50222242  0.49724334  0.00456523  1
  Fe  Fe13  1  0.62487594  0.12487300  0.37453165  1
  Fe  Fe14  1  0.87676193  0.37506248  0.62580677  1
  Fe  Fe15  1  0.74853974  0.49886003  0.00274777  1
  Fe  Fe16  1  0.49864387  0.25107721  0.24794305  1
  Fe  Fe17  1  0.24876811  -0.00192631  0.75206441  1
  Fe  Fe18  1  0.75415505  0.25003513  0.25031216  1
  Fe  Fe19  1  0.62562553  0.87582322  0.87728738  1
  Fe  Fe20  1  0.12402698  0.62825416  0.87591769  1
  Fe  Fe21  1  0.87606692  0.62291691  0.62710815  1
  Fe  Fe22  1  0.50104619  0.25215625  0.74954063  1
  Fe  Fe23  1  0.24763630  0.24990033  0.49912223  1
  Fe  Fe24  1  0.25109945  0.75206809  0.24805613  1
  Fe  Fe25  1  0.87589951  0.62202384  0.12524869  1
  Fe  Fe26  1  0.74989466  0.50025247  0.49983519  1
  Fe  Fe27  1  0.12455451  0.87309207  0.37513853  1
  Fe  Fe28  1  -0.00020963  0.74878752  0.50140748  1
  Fe  Fe29  1  0.87943021  0.12322520  0.37109797  1
  Fe  Fe30  1  0.37547583  0.12211312  0.87700054  1
  Fe  Fe31  1  0.75145251  0.00035577  0.49808038  1
  Fe  Fe32  1  0.87509945  0.12597636  0.62861290  1
  Fe  Fe33  1  0.37425692  0.12251394  0.12464423  1
  Fe  Fe34  1  0.37342976  0.12305968  0.37385104  1
  Fe  Fe35  1  0.50085601  0.50204281  0.50063633  1
  Fe  Fe36  1  0.50131565  -0.00004005  0.74965844  1
  Fe  Fe37  1  0.75055660  0.74766560  0.50094958  1
  Fe  Fe38  1  0.50352163  0.49866030  0.24511268  1
  Fe  Fe39  1  0.12487570  0.87239968  0.62758150  1
  Fe  Fe40  1  0.87651513  0.37855452  0.12672093  1
  Fe  Fe41  1  0.00425349  0.50104114  0.49895709  1
  Fe  Fe42  1  0.12319901  0.12591668  0.87546063  1
  Fe  Fe43  1  0.24990213  0.25108217  0.75104714  1
  Fe  Fe44  1  0.74630045  0.49630986  0.74902566  1
  Fe  Fe45  1  0.24541874  0.50224666  0.50053321  1
  Fe  Fe46  1  0.12309795  0.37533880  0.12330544  1
  Fe  Fe47  1  -0.00085142  0.75022766  0.75210235  1
  Fe  Fe48  1  0.75456836  0.24944477  -0.00131429  1
  Fe  Fe49  1  0.50309128  0.49860096  0.74928568  1
  Fe  Fe50  1  0.37466678  0.62393067  0.12402248  1
  Fe  Fe51  1  0.87436730  0.62315096  0.87532528  1
  Fe  Fe52  1  0.74857892  0.74909885  0.74959888  1
  Fe  Fe53  1  0.87432311  0.87447850  0.62528489  1
  Fe  Fe54  1  0.24793549  0.50038400  -0.00022381  1
  Fe  Fe55  1  0.49818678  0.24922094  0.49922666  1
  Fe  Fe56  1  0.75076236  -0.00060442  0.75191385  1
  Fe  Fe57  1  0.62598035  0.62605308  0.37182216  1
  Fe  Fe58  1  -0.00385351  0.25009308  0.00003748  1
  Fe  Fe59  1  0.62552005  0.37454376  0.37434642  1
  Fe  Fe60  1  0.37359097  0.37529718  0.62428426  1
  Fe  Fe61  1  0.49877417  0.25090181  0.00283133  1
  Fe  Fe62  1  0.62651216  0.87641736  0.12257110  1
  Fe  Fe63  1  0.24967391  -0.00024236  0.50162406  1
  Fe  Fe64  1  0.12320107  0.12654308  0.62516128  1
  Fe  Fe65  1  0.62689655  0.12753642  0.87468805  1
  Fe  Fe66  1  0.12397188  0.62918939  0.12308236  1
  Fe  Fe67  1  0.62278853  0.87256375  0.62280051  1
  Fe  Fe68  1  0.37467881  0.87953958  0.12090060  1
  Fe  Fe69  1  0.49737026  0.74994779  -0.00251124  1
  Fe  Fe70  1  0.62382000  0.87477455  0.37681582  1
  Fe  Fe71  1  0.75300386  0.74997817  0.00053410  1
  Fe  Fe72  1  -0.00020971  -0.00033013  0.49921023  1
  Fe  Fe73  1  -0.00092044  -0.00205367  0.75379584  1
  Fe  Fe74  1  0.50207826  0.00037626  0.24866605  1
  Fe  Fe75  1  0.24433666  0.50091492  0.24960348  1
  Fe  Fe76  1  0.75175051  0.75186955  0.24867024  1
  Fe  Fe77  1  0.37446154  0.37600281  0.87753246  1
  Fe  Fe78  1  -0.00094928  0.75209876  0.24783502  1
  Fe  Fe79  1  0.62697503  0.12706909  0.62419891  1
  Fe  Fe80  1  0.25300134  0.75239184  -0.00406669  1
  Fe  Fe81  1  0.11885108  0.12016606  0.12422696  1
  Fe  Fe82  1  0.87638039  0.62499075  0.37262831  1
  Fe  Fe83  1  0.37596287  0.62780461  0.62882444  1
  Fe  Fe84  1  0.87956332  0.37720947  0.37166216  1
  Fe  Fe85  1  0.37411466  0.62404221  0.37239569  1
  Fe  Fe86  1  0.37461930  0.12491852  0.62531159  1
  Fe  Fe87  1  0.37257144  0.37674581  0.37220258  1
  Fe  Fe88  1  -0.00071568  0.25389564  0.75208425  1
  Fe  Fe89  1  0.24999657  0.24817020  0.00158795  1
  Co  Co90  1  0.49939032  0.74616209  0.49809448  1
  Co  Co91  1  0.12367712  0.37286254  0.37563288  1
  Co  Co92  1  -0.00174069  0.24887880  0.50011518  1
  Co  Co93  1  0.74824852  0.50067772  0.24877723  1
  Co  Co94  1  0.12320122  0.87275626  0.87723419  1
  Co  Co95  1  0.87328953  0.37789780  0.87538385  1
  Co  Co96  1  0.87524322  0.87304362  0.37675409  1
  Co  Co97  1  0.50060392  0.74984059  0.75556504  1
  Co  Co98  1  0.62481211  0.62610312  0.62578408  1
  Co  Co99  1  0.12428418  0.63022989  0.37333495  1
  Co  Co100  1  0.12454568  0.37276494  0.62420893  1
  Co  Co101  1  0.12351552  0.87444722  0.12140738  1
  Co  Co102  1  0.24591426  0.00114173  -0.00121000  1
  Co  Co103  1  0.62460965  0.37361352  0.87798315  1
  Co  Co104  1  0.87385447  0.87233270  0.87375495  1
  Co  Co105  1  -0.00437821  0.75005752  0.00048962  1
  Co  Co106  1  0.37100485  0.37582541  0.12607045  1
  Co  Co107  1  0.12707896  0.37246675  0.87812319  1
  Co  Co108  1  0.62541004  0.37263509  0.62097497  1
  Co  Co109  1  0.00092903  0.25047865  0.24695781  1
  Co  Co110  1  0.75348307  0.00220724  -0.00401902  1
  Co  Co111  1  0.87499170  0.12667674  0.87121267  1
  Co  Co112  1  -0.00304491  -0.00000559  -0.00589191  1
  Co  Co113  1  0.00114178  0.50030484  -0.00114983  1
  Co  Co114  1  0.37629765  0.61921329  0.87523398  1
  Co  Co115  1  0.62938178  0.37014805  0.12549488  1
  Co  Co116  1  0.74975409  0.25355311  0.74987691  1
  Co  Co117  1  0.49947297  0.00200056  0.50109021  1
  Co  Co118  1  0.12370959  0.12474694  0.37609809  1
  Co  Co119  1  0.00176801  -0.00381722  0.25249298  1
  Co  Co120  1  0.37621472  0.88136957  0.87643207  1
  Co  Co121  1  0.25237863  0.75112775  0.75462402  1
  Co  Co122  1  0.00452934  0.50239531  0.24928755  1
  Co  Co123  1  0.74946578  -0.00202483  0.25280438  1
  Co  Co124  1  0.12384377  0.62719524  0.62844517  1
  Co  Co125  1  0.62540639  0.62921652  0.12425665  1
  Co  Co126  1  0.50347239  0.00342215  0.00109524  1
  Co  Co127  1  0.87576033  0.11973541  0.12743124  1
