# generated using pymatgen
data_Fe45Co19
_symmetry_space_group_name_H-M   'P 1'
_cell_length_a   11.41566738
_cell_length_b   11.41312795
_cell_length_c   11.41421228
_cell_angle_alpha   90.00567565
_cell_angle_beta   89.99674725
_cell_angle_gamma   89.99186935
_symmetry_Int_Tables_number   1
_chemical_formula_structural   Fe45Co19
_chemical_formula_sum   'Fe90 Co38'
_cell_volume   1487.14025741
_cell_formula_units_Z   2
loop_
 _symmetry_equiv_pos_site_id
 _symmetry_equiv_pos_as_xyz
  1  'x, y, z'
loop_
 _atom_site_type_symbol
 _atom_site_label
 _atom_site_symmetry_multiplicity
 _atom_site_fract_x
 _atom_site_fract_y
 _atom_site_fract_z
 _atom_site_occupancy
  Fe  Fe0  1  0.87685575  0.87516683  0.12666153  1
  Fe  Fe1  1  0.25017912  0.25242167  0.00061134  1
  Fe  Fe2  1  0.87770032  0.62828892  0.87603382  1
  Fe  Fe3  1  -0.00004410  0.24829956  0.50024400  1
  Fe  Fe4  1  0.62736162  0.37719994  0.87427444  1
  Fe  Fe5  1  0.12564786  0.37218096  0.62561633  1
  Fe  Fe6  1  0.87558157  0.12452016  0.87654628  1
  Fe  Fe7  1  0.25110390  0.00440292  0.50236874  1
  Fe  Fe8  1  0.50048687  0.25273375  0.00276905  1
  Fe  Fe9  1  0.62341529  0.87415390  0.12523704  1
  Fe  Fe10  1  0.50060498  -0.00178129  0.75162785  1
  Fe  Fe11  1  0.24905961  0.00118628  0.24828246  1
  Fe  Fe12  1  0.37733766  0.12506810  0.87532444  1
  Fe  Fe13  1  0.00169708  0.50135037  0.25057546  1
  Fe  Fe14  1  0.00053091  0.49967510  0.50066691  1
  Fe  Fe15  1  0.37457594  0.37600438  0.87553218  1
  Fe  Fe16  1  0.49836901  0.74897501  0.00035141  1
  Fe  Fe17  1  0.74906445  -0.00384475  0.49827341  1
  Fe  Fe18  1  0.87425031  0.87381049  0.87220075  1
  Fe  Fe19  1  0.12327763  0.87627132  0.62527000  1
  Fe  Fe20  1  0.25112825  -0.00105899  -0.00055837  1
  Fe  Fe21  1  0.37547609  0.38049787  0.12703227  1
  Fe  Fe22  1  0.37378417  0.87477440  0.37512156  1
  Fe  Fe23  1  0.87702848  0.37660073  0.12492078  1
  Fe  Fe24  1  0.12487350  0.12501564  0.37311794  1
  Fe  Fe25  1  -0.00067055  -0.00233809  0.49928424  1
  Fe  Fe26  1  0.87597721  0.12104945  0.62614142  1
  Fe  Fe27  1  0.87600496  0.62631965  0.37442012  1
  Fe  Fe28  1  0.24982112  0.00304007  0.74977941  1
  Fe  Fe29  1  0.75233434  0.50337045  0.74914702  1
  Fe  Fe30  1  0.49827207  0.49768873  0.50069178  1
  Fe  Fe31  1  0.00092336  -0.00077380  0.00267507  1
  Fe  Fe32  1  0.74943767  0.24808821  0.74985410  1
  Fe  Fe33  1  0.24984794  0.74996593  -0.00042994  1
  Fe  Fe34  1  0.12533183  0.62616363  0.12214278  1
  Fe  Fe35  1  0.74906143  0.74839068  0.24783136  1
  Fe  Fe36  1  0.12369354  0.12662718  0.87701397  1
  Fe  Fe37  1  0.37691872  0.12781368  0.37463215  1
  Fe  Fe38  1  0.37285055  0.62349574  0.87691541  1
  Fe  Fe39  1  0.00010000  0.24576693  0.24647892  1
  Fe  Fe40  1  0.62620395  0.62435023  0.37416379  1
  Fe  Fe41  1  0.62409981  0.62438377  0.62418104  1
  Fe  Fe42  1  0.75041300  0.25125095  0.00173284  1
  Fe  Fe43  1  0.87672349  0.63011128  0.62341719  1
  Fe  Fe44  1  0.12478805  0.87350629  0.87552018  1
  Fe  Fe45  1  -0.00090342  0.24906700  0.75114773  1
  Fe  Fe46  1  0.49988834  0.75056224  0.49925213  1
  Fe  Fe47  1  0.62352439  0.38134096  0.12737593  1
  Fe  Fe48  1  0.12431904  0.37403318  0.12559832  1
  Fe  Fe49  1  0.62610860  0.12335849  0.12479392  1
  Fe  Fe50  1  0.62597777  0.87345319  0.87635420  1
  Fe  Fe51  1  0.12579934  0.62484480  0.37725193  1
  Fe  Fe52  1  0.62441393  0.12591916  0.37369638  1
  Fe  Fe53  1  0.74999023  -0.00172774  -0.00002394  1
  Fe  Fe54  1  0.62289720  0.12525726  0.62430123  1
  Fe  Fe55  1  0.49885784  0.49989068  0.75001612  1
  Fe  Fe56  1  0.49673476  0.74606801  0.24931060  1
  Fe  Fe57  1  0.24991620  0.74910128  0.75027711  1
  Fe  Fe58  1  0.50018895  0.00013886  0.24972014  1
  Fe  Fe59  1  0.87495336  0.37548693  0.87486445  1
  Fe  Fe60  1  0.00326907  0.75121745  0.24976837  1
  Fe  Fe61  1  0.00164917  0.50152395  -0.00183568  1
  Fe  Fe62  1  0.37156250  0.62336969  0.37834694  1
  Fe  Fe63  1  0.62338555  0.12528591  0.87723188  1
  Fe  Fe64  1  0.62638249  0.62543857  0.87719411  1
  Fe  Fe65  1  0.12687550  0.37346279  0.37521440  1
  Fe  Fe66  1  0.87336410  0.12345009  0.37150209  1
  Fe  Fe67  1  0.74989757  0.25125526  0.24781075  1
  Fe  Fe68  1  0.12736848  0.87584699  0.37406920  1
  Fe  Fe69  1  0.25104616  0.74727446  0.24858237  1
  Fe  Fe70  1  0.12345191  0.62502725  0.62555752  1
  Fe  Fe71  1  0.87497325  0.87387139  0.37337095  1
  Fe  Fe72  1  0.37217652  0.37394240  0.37377183  1
  Fe  Fe73  1  0.50113071  0.25226048  0.74910861  1
  Fe  Fe74  1  0.24996862  0.50111069  0.74892304  1
  Fe  Fe75  1  0.75158925  0.50014009  0.49921253  1
  Fe  Fe76  1  0.37441648  0.87499957  0.12449733  1
  Fe  Fe77  1  0.37464993  0.12514775  0.12396807  1
  Fe  Fe78  1  0.49988074  -0.00169827  0.49936528  1
  Fe  Fe79  1  0.37239341  0.37163584  0.62396087  1
  Fe  Fe80  1  0.49918453  0.74942876  0.75177336  1
  Fe  Fe81  1  0.74872972  0.25025292  0.50100959  1
  Fe  Fe82  1  0.24916719  0.74982202  0.50228236  1
  Fe  Fe83  1  0.75129440  0.50367302  0.00244257  1
  Fe  Fe84  1  0.62449739  0.37570254  0.37347089  1
  Fe  Fe85  1  0.62769779  0.87296373  0.62563195  1
  Fe  Fe86  1  0.37477263  0.87477756  0.62641536  1
  Fe  Fe87  1  0.12411201  0.37534464  0.87261885  1
  Fe  Fe88  1  0.87430043  0.37465709  0.62603709  1
  Fe  Fe89  1  0.87617774  0.37452175  0.37378025  1
  Co  Co90  1  0.37396775  0.87477224  0.87412805  1
  Co  Co91  1  -0.00104527  0.50107332  0.74917152  1
  Co  Co92  1  0.12658854  0.12464451  0.12221928  1
  Co  Co93  1  0.00128352  -0.00119491  0.75140302  1
  Co  Co94  1  0.00000131  0.75160316  -0.00028428  1
  Co  Co95  1  0.74838548  -0.00231721  0.25045722  1
  Co  Co96  1  0.24625695  0.49796700  -0.00049659  1
  Co  Co97  1  0.49938162  -0.00150135  0.00009601  1
  Co  Co98  1  0.00121531  0.75269696  0.49954844  1
  Co  Co99  1  0.37365332  0.62162716  0.12043632  1
  Co  Co100  1  0.24975372  0.24697438  0.75134882  1
  Co  Co101  1  0.62368761  0.62353342  0.12514622  1
  Co  Co102  1  0.74796896  0.00077619  0.75144571  1
  Co  Co103  1  0.50134217  0.50017660  -0.00223926  1
  Co  Co104  1  0.87346066  0.87471334  0.62675647  1
  Co  Co105  1  0.74928242  0.75109655  0.49858480  1
  Co  Co106  1  0.12728132  0.87442309  0.12493993  1
  Co  Co107  1  0.75147504  0.75010587  0.00284807  1
  Co  Co108  1  0.24898361  0.49927648  0.50176895  1
  Co  Co109  1  0.12157653  0.12553623  0.62567918  1
  Co  Co110  1  0.37603964  0.62614450  0.62459154  1
  Co  Co111  1  0.75252759  0.50062786  0.25037830  1
  Co  Co112  1  0.24840152  0.50167962  0.24988613  1
  Co  Co113  1  0.24982746  0.25003803  0.24829449  1
  Co  Co114  1  0.50052322  0.25288439  0.50032931  1
  Co  Co115  1  0.74994795  0.74872468  0.75063628  1
  Co  Co116  1  0.12537111  0.62539830  0.87465797  1
  Co  Co117  1  0.62266607  0.87267144  0.37199149  1
  Co  Co118  1  0.87333442  0.12320127  0.12479077  1
  Co  Co119  1  -0.00056684  0.25058597  0.00036137  1
  Co  Co120  1  0.49666976  0.50393757  0.25321431  1
  Co  Co121  1  0.50034759  0.25038365  0.24740055  1
  Co  Co122  1  0.37863582  0.12575221  0.62645524  1
  Co  Co123  1  0.00229580  0.00034973  0.24864765  1
  Co  Co124  1  0.87804204  0.62497573  0.12626793  1
  Co  Co125  1  0.00079368  0.75111138  0.75017517  1
  Co  Co126  1  0.62748362  0.37711542  0.62648943  1
  Co  Co127  1  0.24964841  0.24575032  0.49976078  1
