# generated using pymatgen
data_Fe45Co19
_symmetry_space_group_name_H-M   'P 1'
_cell_length_a   11.41623351
_cell_length_b   11.41549975
_cell_length_c   11.41449763
_cell_angle_alpha   90.00704660
_cell_angle_beta   90.00932091
_cell_angle_gamma   89.99895354
_symmetry_Int_Tables_number   1
_chemical_formula_structural   Fe45Co19
_chemical_formula_sum   'Fe90 Co38'
_cell_volume   1487.56025186
_cell_formula_units_Z   2
loop_
 _symmetry_equiv_pos_site_id
 _symmetry_equiv_pos_as_xyz
  1  'x, y, z'
loop_
 _atom_site_type_symbol
 _atom_site_label
 _atom_site_symmetry_multiplicity
 _atom_site_fract_x
 _atom_site_fract_y
 _atom_site_fract_z
 _atom_site_occupancy
  Fe  Fe0  1  0.63071040  0.37341794  0.37238120  1
  Fe  Fe1  1  0.24679152  0.50057556  0.74622498  1
  Fe  Fe2  1  0.24943969  0.25019334  0.00256985  1
  Fe  Fe3  1  0.24687444  0.50101421  0.25207201  1
  Fe  Fe4  1  0.37318782  0.87321745  0.12540582  1
  Fe  Fe5  1  0.37323620  0.62367301  0.37763116  1
  Fe  Fe6  1  0.87299799  0.88271035  0.62150088  1
  Fe  Fe7  1  0.37413589  0.37630803  0.87418314  1
  Fe  Fe8  1  0.87570731  0.37555267  0.62443054  1
  Fe  Fe9  1  0.74917355  0.00313242  0.00487629  1
  Fe  Fe10  1  0.74984542  0.49996527  0.49880259  1
  Fe  Fe11  1  0.25091756  0.25331154  0.50406301  1
  Fe  Fe12  1  0.49983272  -0.00173862  0.00070288  1
  Fe  Fe13  1  0.12589134  0.12604938  0.87309073  1
  Fe  Fe14  1  -0.00162399  0.25005870  0.25238037  1
  Fe  Fe15  1  0.50351392  0.50162639  -0.00208024  1
  Fe  Fe16  1  0.49903552  0.00025769  0.75056492  1
  Fe  Fe17  1  0.87454179  0.12044958  0.37552115  1
  Fe  Fe18  1  0.74763125  0.50229761  -0.00238580  1
  Fe  Fe19  1  0.00194981  0.50215601  -0.00306718  1
  Fe  Fe20  1  0.62693318  0.12642784  0.87666963  1
  Fe  Fe21  1  0.37699826  0.12437817  0.37565683  1
  Fe  Fe22  1  0.62618454  0.62425243  0.62533829  1
  Fe  Fe23  1  0.25093496  0.74947870  0.50346846  1
  Fe  Fe24  1  0.24803500  -0.00087433  -0.00052440  1
  Fe  Fe25  1  0.37335568  0.62500462  0.87490503  1
  Fe  Fe26  1  0.49895106  0.74892733  0.74914936  1
  Fe  Fe27  1  0.12494673  0.37464514  0.87262490  1
  Fe  Fe28  1  0.62581357  0.37623453  0.62561201  1
  Fe  Fe29  1  0.12635813  0.86999335  0.86861109  1
  Fe  Fe30  1  0.87600337  0.62135750  0.62212051  1
  Fe  Fe31  1  0.25225454  0.25023718  0.24892706  1
  Fe  Fe32  1  -0.00112164  0.50001618  0.25601308  1
  Fe  Fe33  1  0.37837609  0.12390346  0.12684943  1
  Fe  Fe34  1  0.50132878  0.75057814  0.49886667  1
  Fe  Fe35  1  0.49946500  0.75165472  0.25294614  1
  Fe  Fe36  1  0.12227571  0.12348092  0.12581598  1
  Fe  Fe37  1  0.50237945  0.49942526  0.25248353  1
  Fe  Fe38  1  0.62562698  0.62708724  0.12559526  1
  Fe  Fe39  1  0.62608187  0.87420310  0.12614952  1
  Fe  Fe40  1  0.87323634  0.87445592  0.87576020  1
  Fe  Fe41  1  0.75553365  0.75004569  0.25122512  1
  Fe  Fe42  1  0.62762726  0.87299744  0.87482701  1
  Fe  Fe43  1  0.75301869  0.24465057  0.24475778  1
  Fe  Fe44  1  0.12261033  0.37470106  0.12738478  1
  Fe  Fe45  1  0.75295000  0.75024597  0.74596731  1
  Fe  Fe46  1  -0.00074635  0.25082858  -0.00041202  1
  Fe  Fe47  1  0.24602862  0.74813216  0.00020354  1
  Fe  Fe48  1  -0.00405324  0.75446290  0.49634854  1
  Fe  Fe49  1  0.12039165  0.62810743  0.12837374  1
  Fe  Fe50  1  0.49927163  0.25102584  -0.00002488  1
  Fe  Fe51  1  0.49829226  0.25088391  0.74870995  1
  Fe  Fe52  1  0.25171209  -0.00148579  0.50332471  1
  Fe  Fe53  1  0.24585027  0.50197062  -0.00011003  1
  Fe  Fe54  1  0.00242700  0.49531014  0.49455743  1
  Fe  Fe55  1  0.87491010  0.37687218  0.12501644  1
  Fe  Fe56  1  0.24701429  0.75126751  0.25187446  1
  Fe  Fe57  1  0.75104512  0.24946284  0.74893250  1
  Fe  Fe58  1  0.87377585  0.12363843  0.87491297  1
  Fe  Fe59  1  0.87850465  0.87432219  0.12392293  1
  Fe  Fe60  1  0.50007166  -0.00215593  0.49847723  1
  Fe  Fe61  1  0.11937358  0.62539122  0.62510876  1
  Fe  Fe62  1  0.75081051  0.24540040  0.50087365  1
  Fe  Fe63  1  0.50024498  0.74985139  -0.00081333  1
  Fe  Fe64  1  -0.00228668  0.24864769  0.74948707  1
  Fe  Fe65  1  0.87777535  0.62651183  0.12573146  1
  Fe  Fe66  1  0.87245494  0.37564303  0.87490426  1
  Fe  Fe67  1  0.62384342  0.12391918  0.62669073  1
  Fe  Fe68  1  0.12375815  0.87546930  0.62659632  1
  Fe  Fe69  1  0.37537237  0.62554725  0.12593145  1
  Fe  Fe70  1  0.37801918  0.62048108  0.62143356  1
  Fe  Fe71  1  0.50401676  0.49977812  0.75303358  1
  Fe  Fe72  1  0.62716932  0.37290871  0.12436049  1
  Fe  Fe73  1  0.25099388  -0.00174293  0.25051876  1
  Fe  Fe74  1  0.25270015  0.25103312  0.74579555  1
  Fe  Fe75  1  0.63107542  0.87651913  0.37463047  1
  Fe  Fe76  1  0.37271182  0.37907711  0.37896217  1
  Fe  Fe77  1  0.12705671  0.12489973  0.37586257  1
  Fe  Fe78  1  0.12337445  0.12438458  0.62619836  1
  Fe  Fe79  1  0.62971915  0.62627109  0.37483057  1
  Fe  Fe80  1  0.37331217  0.12451066  0.87395822  1
  Fe  Fe81  1  0.37209841  0.87338659  0.87144747  1
  Fe  Fe82  1  0.62558680  0.87596879  0.62469526  1
  Fe  Fe83  1  0.00310025  -0.00273943  -0.00348878  1
  Fe  Fe84  1  0.87455100  0.62732888  0.87452741  1
  Fe  Fe85  1  -0.00153861  0.24843533  0.49905561  1
  Fe  Fe86  1  0.50037559  0.25223436  0.49945699  1
  Fe  Fe87  1  0.62272069  0.12327634  0.36875113  1
  Fe  Fe88  1  0.37532183  0.37826186  0.12467207  1
  Fe  Fe89  1  0.00149512  -0.00536438  0.25475069  1
  Co  Co90  1  0.00250605  0.74952802  -0.00187697  1
  Co  Co91  1  0.37745650  0.87541973  0.62592990  1
  Co  Co92  1  0.11961133  0.37319191  0.62682620  1
  Co  Co93  1  0.75147603  0.00257119  0.24435251  1
  Co  Co94  1  0.75122054  0.74887480  0.50295789  1
  Co  Co95  1  -0.00276259  0.75404958  0.25667879  1
  Co  Co96  1  0.37885669  0.38015652  0.62318045  1
  Co  Co97  1  0.12383465  0.62868324  0.37689208  1
  Co  Co98  1  0.37738768  0.12362004  0.62307915  1
  Co  Co99  1  0.00183685  0.00123651  0.49971822  1
  Co  Co100  1  0.24312093  0.49915524  0.50255529  1
  Co  Co101  1  0.75279769  0.24617702  0.00429971  1
  Co  Co102  1  0.74996179  0.50102975  0.75086776  1
  Co  Co103  1  -0.00640607  0.75169479  0.74682468  1
  Co  Co104  1  0.12643918  0.37109412  0.37399571  1
  Co  Co105  1  0.37244839  0.87273925  0.37722770  1
  Co  Co106  1  0.00012736  -0.00066793  0.75122049  1
  Co  Co107  1  0.87462526  0.62453360  0.37723884  1
  Co  Co108  1  0.86855742  0.88032148  0.37907341  1
  Co  Co109  1  0.12357555  0.87407613  0.12579266  1
  Co  Co110  1  0.62720499  0.37075662  0.87552657  1
  Co  Co111  1  0.74590544  0.00590254  0.50105837  1
  Co  Co112  1  0.62744423  0.63086845  0.87316742  1
  Co  Co113  1  0.75088266  0.74937553  0.00187385  1
  Co  Co114  1  0.88396210  0.12145151  0.12412886  1
  Co  Co115  1  0.24990595  0.00114239  0.74755216  1
  Co  Co116  1  -0.00103942  0.50048185  0.75205069  1
  Co  Co117  1  0.25225518  0.74607777  0.74416444  1
  Co  Co118  1  0.74897929  0.00008600  0.75012769  1
  Co  Co119  1  0.75077193  0.50203622  0.24918250  1
  Co  Co120  1  0.61777108  0.12615743  0.12728155  1
  Co  Co121  1  0.49728194  0.25588895  0.25229083  1
  Co  Co122  1  0.87082455  0.37301547  0.37503180  1
  Co  Co123  1  0.87534347  0.12227723  0.62625061  1
  Co  Co124  1  0.50641079  0.49971246  0.49552091  1
  Co  Co125  1  0.12801737  0.87475887  0.37920503  1
  Co  Co126  1  0.12383577  0.62870358  0.86976657  1
  Co  Co127  1  0.49792147  -0.00584757  0.25084677  1
