# generated using pymatgen
data_Fe45Co19
_symmetry_space_group_name_H-M   'P 1'
_cell_length_a   11.41425626
_cell_length_b   11.41437838
_cell_length_c   11.41470135
_cell_angle_alpha   89.99307611
_cell_angle_beta   90.00613541
_cell_angle_gamma   89.99830492
_symmetry_Int_Tables_number   1
_chemical_formula_structural   Fe45Co19
_chemical_formula_sum   'Fe90 Co38'
_cell_volume   1487.18306433
_cell_formula_units_Z   2
loop_
 _symmetry_equiv_pos_site_id
 _symmetry_equiv_pos_as_xyz
  1  'x, y, z'
loop_
 _atom_site_type_symbol
 _atom_site_label
 _atom_site_symmetry_multiplicity
 _atom_site_fract_x
 _atom_site_fract_y
 _atom_site_fract_z
 _atom_site_occupancy
  Fe  Fe0  1  0.12456543  0.87564959  0.88014725  1
  Fe  Fe1  1  0.25033717  0.75187044  0.50040678  1
  Fe  Fe2  1  0.62639023  0.37268370  0.37559471  1
  Fe  Fe3  1  0.62661615  0.12510950  0.62410578  1
  Fe  Fe4  1  0.12180696  0.12620248  0.37467119  1
  Fe  Fe5  1  0.00037462  0.75116602  0.24940942  1
  Fe  Fe6  1  0.12273546  0.87679710  0.62270203  1
  Fe  Fe7  1  0.37453919  0.37473494  0.37543856  1
  Fe  Fe8  1  0.50158766  0.74995250  0.24955566  1
  Fe  Fe9  1  -0.00237294  0.74852840  0.00049846  1
  Fe  Fe10  1  0.87455455  0.37422074  0.87667284  1
  Fe  Fe11  1  0.87672015  0.12395572  0.36906048  1
  Fe  Fe12  1  0.37281756  0.62502834  0.62696962  1
  Fe  Fe13  1  0.87240913  0.62535065  0.87502917  1
  Fe  Fe14  1  0.12263762  0.37550831  0.12206403  1
  Fe  Fe15  1  0.62635066  0.62351809  0.12483391  1
  Fe  Fe16  1  0.74935453  0.75542994  0.75313421  1
  Fe  Fe17  1  0.50047546  0.50035427  0.50111352  1
  Fe  Fe18  1  0.75608711  0.24876169  0.49949546  1
  Fe  Fe19  1  0.62531681  0.37320719  0.62429343  1
  Fe  Fe20  1  0.50115579  0.49936551  0.74951939  1
  Fe  Fe21  1  0.24835257  0.25300516  0.74766389  1
  Fe  Fe22  1  0.49954963  0.50144624  0.00027688  1
  Fe  Fe23  1  0.62686827  0.37405203  0.87803759  1
  Fe  Fe24  1  0.37208336  0.62354032  0.87221221  1
  Fe  Fe25  1  0.12859749  0.62281083  0.87482209  1
  Fe  Fe26  1  0.12529805  0.62342654  0.12281803  1
  Fe  Fe27  1  0.24873744  0.75082746  0.24805652  1
  Fe  Fe28  1  0.12362832  0.37588428  0.87696729  1
  Fe  Fe29  1  0.87467831  0.62309338  0.37186567  1
  Fe  Fe30  1  -0.00049115  0.24786295  0.75101722  1
  Fe  Fe31  1  0.24732358  0.49821340  0.24882871  1
  Fe  Fe32  1  0.12503895  0.62517618  0.62669218  1
  Fe  Fe33  1  0.37564191  0.37402345  0.87370017  1
  Fe  Fe34  1  0.25266321  0.74939896  0.00115054  1
  Fe  Fe35  1  0.87504482  0.37887174  0.12526936  1
  Fe  Fe36  1  0.49763580  0.00272369  -0.00086128  1
  Fe  Fe37  1  0.37307420  0.12592685  0.37379630  1
  Fe  Fe38  1  0.62874443  0.12493065  0.12425202  1
  Fe  Fe39  1  0.12506179  0.62504372  0.37634485  1
  Fe  Fe40  1  0.12283761  0.12539717  0.62292393  1
  Fe  Fe41  1  0.24847169  0.49570061  0.50444140  1
  Fe  Fe42  1  0.50109495  0.74892854  0.00043749  1
  Fe  Fe43  1  0.50099094  0.00343095  0.75145846  1
  Fe  Fe44  1  0.87850144  0.37610192  0.62460147  1
  Fe  Fe45  1  0.24603415  -0.00131745  0.24720623  1
  Fe  Fe46  1  0.87440955  0.62683704  0.62744514  1
  Fe  Fe47  1  0.37321133  0.62389936  0.37457120  1
  Fe  Fe48  1  0.25112715  0.25001422  0.00091780  1
  Fe  Fe49  1  0.11743562  0.37292017  0.38035461  1
  Fe  Fe50  1  0.62746221  0.62598947  0.62591966  1
  Fe  Fe51  1  0.75339511  -0.00142169  -0.00086834  1
  Fe  Fe52  1  0.62655371  0.62563275  0.37509182  1
  Fe  Fe53  1  0.50172246  0.49966889  0.24972977  1
  Fe  Fe54  1  0.50126300  0.00075505  0.49749256  1
  Fe  Fe55  1  0.00206571  -0.00313377  0.24611050  1
  Fe  Fe56  1  0.37629437  0.37490797  0.12566474  1
  Fe  Fe57  1  0.62840342  0.87479463  0.37217138  1
  Fe  Fe58  1  0.75234863  0.49893545  0.49843502  1
  Fe  Fe59  1  0.49973040  0.24848846  0.49846322  1
  Fe  Fe60  1  0.37166383  0.12536304  0.12603547  1
  Fe  Fe61  1  0.37520301  0.12836773  0.62566129  1
  Fe  Fe62  1  0.74855231  0.75223945  -0.00048033  1
  Fe  Fe63  1  -0.00300185  0.75301474  0.49880842  1
  Fe  Fe64  1  0.24613888  0.25136362  0.25041143  1
  Fe  Fe65  1  0.87672094  0.11812713  0.63052417  1
  Fe  Fe66  1  0.75068960  0.24875392  0.75047745  1
  Fe  Fe67  1  -0.00432387  0.24733074  0.00255733  1
  Fe  Fe68  1  0.75090120  0.25281269  0.24813365  1
  Fe  Fe69  1  0.87399421  0.62238975  0.12582711  1
  Fe  Fe70  1  0.00082585  0.75296895  0.75133884  1
  Fe  Fe71  1  0.49978412  0.75098404  0.49961153  1
  Fe  Fe72  1  0.37371040  0.87552840  0.37316853  1
  Fe  Fe73  1  0.50002350  0.24727867  -0.00038568  1
  Fe  Fe74  1  0.37600788  0.87562472  0.12549899  1
  Fe  Fe75  1  0.75296965  0.75281810  0.49914417  1
  Fe  Fe76  1  0.50190721  0.24809404  0.24936100  1
  Fe  Fe77  1  0.24802004  -0.00014996  0.75205363  1
  Fe  Fe78  1  0.50160011  0.75044699  0.75057112  1
  Fe  Fe79  1  0.62664992  0.87664909  0.62548414  1
  Fe  Fe80  1  0.75027249  0.49909688  0.75168976  1
  Fe  Fe81  1  0.75296611  -0.00034629  0.49759124  1
  Fe  Fe82  1  0.50313455  0.00201452  0.25087399  1
  Fe  Fe83  1  0.37462340  0.87606383  0.62588845  1
  Fe  Fe84  1  0.24915158  0.00133459  0.49882428  1
  Fe  Fe85  1  -0.00259119  0.00199946  0.00223765  1
  Fe  Fe86  1  0.00039649  0.50061346  0.75146112  1
  Fe  Fe87  1  0.37538149  0.87572322  0.87448175  1
  Fe  Fe88  1  0.12543255  0.12538821  0.87893089  1
  Fe  Fe89  1  0.62884422  0.12545617  0.87618963  1
  Co  Co90  1  0.24811194  0.49416138  0.74702382  1
  Co  Co91  1  0.12424077  0.87309395  0.12086683  1
  Co  Co92  1  0.87804039  0.87626994  0.87500392  1
  Co  Co93  1  0.87472154  0.12429557  0.87341004  1
  Co  Co94  1  0.87611083  0.87800131  0.62819682  1
  Co  Co95  1  0.62823657  0.12751601  0.37521911  1
  Co  Co96  1  0.74838917  0.00069144  0.24971761  1
  Co  Co97  1  0.74810800  0.49733470  0.25060508  1
  Co  Co98  1  0.74808125  -0.00209475  0.75366911  1
  Co  Co99  1  -0.00209210  0.50491186  0.50164239  1
  Co  Co100  1  0.37490579  0.62423151  0.12710920  1
  Co  Co101  1  -0.00114362  0.50143010  -0.00176585  1
  Co  Co102  1  -0.00271033  -0.00112515  0.49717599  1
  Co  Co103  1  0.00275293  0.50040685  0.24946336  1
  Co  Co104  1  0.25153723  0.49927730  0.00115983  1
  Co  Co105  1  0.62536374  0.87752292  0.12433030  1
  Co  Co106  1  0.87426325  0.87586724  0.36965297  1
  Co  Co107  1  0.87915360  0.37610413  0.37452067  1
  Co  Co108  1  0.12596330  0.12608921  0.12292156  1
  Co  Co109  1  0.87341279  0.87389904  0.12589794  1
  Co  Co110  1  0.74996081  0.74800624  0.24770806  1
  Co  Co111  1  0.75357060  0.24976573  0.00177948  1
  Co  Co112  1  0.24783644  0.75390378  0.75077035  1
  Co  Co113  1  0.74976129  0.50049759  0.00020834  1
  Co  Co114  1  0.62376154  0.37419810  0.12240415  1
  Co  Co115  1  0.50420925  0.24798958  0.75292731  1
  Co  Co116  1  0.24940253  0.25079014  0.49989185  1
  Co  Co117  1  0.62634219  0.62453521  0.87415582  1
  Co  Co118  1  0.00474164  -0.00133119  0.75361198  1
  Co  Co119  1  0.37135596  0.12723780  0.87318941  1
  Co  Co120  1  0.12521143  0.87471450  0.37561893  1
  Co  Co121  1  0.11731340  0.37274663  0.62179772  1
  Co  Co122  1  -0.00026872  0.25164371  0.24578204  1
  Co  Co123  1  0.25198753  -0.00032988  0.00055406  1
  Co  Co124  1  0.62190837  0.87689868  0.87697886  1
  Co  Co125  1  -0.00630871  0.24437551  0.50104011  1
  Co  Co126  1  0.37905970  0.37141605  0.62557684  1
  Co  Co127  1  0.87371541  0.12352463  0.12801885  1
