# generated using pymatgen
data_Fe45Co19
_symmetry_space_group_name_H-M   'P 1'
_cell_length_a   11.41475057
_cell_length_b   11.41600115
_cell_length_c   11.41706562
_cell_angle_alpha   89.99847074
_cell_angle_beta   89.99513491
_cell_angle_gamma   90.00199085
_symmetry_Int_Tables_number   1
_chemical_formula_structural   Fe45Co19
_chemical_formula_sum   'Fe90 Co38'
_cell_volume   1487.76701246
_cell_formula_units_Z   2
loop_
 _symmetry_equiv_pos_site_id
 _symmetry_equiv_pos_as_xyz
  1  'x, y, z'
loop_
 _atom_site_type_symbol
 _atom_site_label
 _atom_site_symmetry_multiplicity
 _atom_site_fract_x
 _atom_site_fract_y
 _atom_site_fract_z
 _atom_site_occupancy
  Fe  Fe0  1  0.12452628  0.62568750  0.87246322  1
  Fe  Fe1  1  0.49989675  -0.00359335  0.24905791  1
  Fe  Fe2  1  0.37592261  0.37627871  0.87679534  1
  Fe  Fe3  1  -0.00193367  0.50030119  0.00193393  1
  Fe  Fe4  1  0.62653433  0.37684341  0.87702543  1
  Fe  Fe5  1  -0.00037393  0.75188874  0.25045415  1
  Fe  Fe6  1  0.37401378  0.87305162  0.37872803  1
  Fe  Fe7  1  0.50114657  0.74942240  0.74959858  1
  Fe  Fe8  1  -0.00413911  0.49738282  0.50054572  1
  Fe  Fe9  1  0.75091140  0.49653627  0.25099476  1
  Fe  Fe10  1  0.62440263  0.62799883  0.12768881  1
  Fe  Fe11  1  0.74993993  0.25153534  0.75208801  1
  Fe  Fe12  1  0.75282819  0.74960823  0.74804107  1
  Fe  Fe13  1  0.87705855  0.87523947  0.37719232  1
  Fe  Fe14  1  0.87507031  0.12660904  0.62634704  1
  Fe  Fe15  1  0.12224204  0.37220048  0.37589383  1
  Fe  Fe16  1  0.87407356  0.87536278  0.87679767  1
  Fe  Fe17  1  -0.00193551  0.74830938  0.00079868  1
  Fe  Fe18  1  0.24787719  -0.00321694  0.74937642  1
  Fe  Fe19  1  0.49955020  0.24849489  0.49967918  1
  Fe  Fe20  1  -0.00447401  0.49855320  0.74795142  1
  Fe  Fe21  1  0.37377807  0.37560189  0.62271306  1
  Fe  Fe22  1  0.24853690  0.25267030  0.75022071  1
  Fe  Fe23  1  0.62160281  0.37499228  0.12600336  1
  Fe  Fe24  1  0.25178983  0.49843383  0.25267445  1
  Fe  Fe25  1  0.12452661  0.62525360  0.12706962  1
  Fe  Fe26  1  0.24604496  0.24620174  0.50072552  1
  Fe  Fe27  1  0.00179929  -0.00109122  0.75054601  1
  Fe  Fe28  1  0.75101030  0.24920731  0.00213931  1
  Fe  Fe29  1  0.37357685  0.12484594  0.37182417  1
  Fe  Fe30  1  0.00323977  0.00609666  0.49914206  1
  Fe  Fe31  1  0.87146659  0.87803996  0.12322710  1
  Fe  Fe32  1  0.24941994  0.50163235  0.49881619  1
  Fe  Fe33  1  0.50067853  0.00001688  -0.00026449  1
  Fe  Fe34  1  0.87347710  0.62650018  0.12807936  1
  Fe  Fe35  1  0.75232504  0.25221189  0.49645096  1
  Fe  Fe36  1  0.87718488  0.87484815  0.62350437  1
  Fe  Fe37  1  0.24914280  0.75137068  0.25110297  1
  Fe  Fe38  1  0.49816190  0.00367596  0.50143894  1
  Fe  Fe39  1  0.25063606  0.50335972  -0.00090471  1
  Fe  Fe40  1  0.62677585  0.37513015  0.62437562  1
  Fe  Fe41  1  0.87781413  0.12709035  0.87534403  1
  Fe  Fe42  1  0.12634150  0.87664052  0.37792366  1
  Fe  Fe43  1  0.62700740  0.12192053  0.12821888  1
  Fe  Fe44  1  0.74619665  0.75602292  0.25351897  1
  Fe  Fe45  1  0.49571549  0.49902377  0.25346755  1
  Fe  Fe46  1  0.62563140  0.87598098  0.62200081  1
  Fe  Fe47  1  0.87155959  0.62560297  0.37617872  1
  Fe  Fe48  1  0.62728582  0.87319729  0.87759443  1
  Fe  Fe49  1  0.12712219  0.37804981  0.12431972  1
  Fe  Fe50  1  0.62350071  0.12561713  0.87382324  1
  Fe  Fe51  1  0.50336742  0.74621492  0.49617233  1
  Fe  Fe52  1  0.12420978  0.62531152  0.62818499  1
  Fe  Fe53  1  0.87237123  0.62195230  0.87604100  1
  Fe  Fe54  1  0.87858362  0.13082713  0.36939558  1
  Fe  Fe55  1  0.00016730  0.00007641  0.24952688  1
  Fe  Fe56  1  0.12916797  0.12138496  0.12694493  1
  Fe  Fe57  1  0.12487872  0.87158743  0.87618104  1
  Fe  Fe58  1  0.12413168  0.62481142  0.37355119  1
  Fe  Fe59  1  0.62881692  0.62436366  0.87625879  1
  Fe  Fe60  1  0.25257944  0.25254577  0.24765633  1
  Fe  Fe61  1  0.50103047  -0.00180461  0.74911960  1
  Fe  Fe62  1  -0.00103791  0.49929248  0.25073505  1
  Fe  Fe63  1  0.62658368  0.12586643  0.62487662  1
  Fe  Fe64  1  0.87578985  0.37324541  0.12638925  1
  Fe  Fe65  1  0.37563954  0.62703424  0.12805691  1
  Fe  Fe66  1  0.37371784  0.62561282  0.62456721  1
  Fe  Fe67  1  0.37457342  0.12365350  0.87370068  1
  Fe  Fe68  1  0.00097078  0.74824513  0.50104282  1
  Fe  Fe69  1  0.37459234  0.87358700  0.12190283  1
  Fe  Fe70  1  0.74943226  0.00046453  0.75055670  1
  Fe  Fe71  1  0.12439945  0.37641567  0.87545295  1
  Fe  Fe72  1  0.00144734  0.24876147  0.00346503  1
  Fe  Fe73  1  0.37373197  0.87305116  0.87739313  1
  Fe  Fe74  1  0.37381715  0.12535594  0.62828840  1
  Fe  Fe75  1  0.63090335  0.62307500  0.62139559  1
  Fe  Fe76  1  0.12555330  0.87431707  0.12325286  1
  Fe  Fe77  1  0.37416330  0.62698104  0.87319691  1
  Fe  Fe78  1  0.00132540  0.25320547  0.74748276  1
  Fe  Fe79  1  0.25113495  0.24776894  0.00071278  1
  Fe  Fe80  1  0.00064444  0.00245250  0.00038750  1
  Fe  Fe81  1  0.49802069  0.24770016  0.00318782  1
  Fe  Fe82  1  0.50023473  0.50272450  0.00024371  1
  Fe  Fe83  1  0.62269818  0.37406886  0.37338627  1
  Fe  Fe84  1  0.50020431  0.25219583  0.74954838  1
  Fe  Fe85  1  0.50093604  0.49989562  0.74925736  1
  Fe  Fe86  1  0.37363105  0.87284901  0.62142420  1
  Fe  Fe87  1  0.75254357  0.00158007  0.49765158  1
  Fe  Fe88  1  0.49956631  0.50088557  0.49742134  1
  Fe  Fe89  1  0.62416248  0.12443332  0.37303999  1
  Co  Co90  1  0.62853181  0.62242070  0.37351068  1
  Co  Co91  1  0.87503526  0.37462152  0.87749111  1
  Co  Co92  1  -0.00312587  0.74916327  0.75024831  1
  Co  Co93  1  0.74805316  0.25138111  0.24898154  1
  Co  Co94  1  0.87200349  0.62584235  0.62056509  1
  Co  Co95  1  0.49727389  0.24993211  0.24877478  1
  Co  Co96  1  0.24869526  0.00116580  -0.00195475  1
  Co  Co97  1  0.74905624  0.75366500  0.49754462  1
  Co  Co98  1  0.12613778  0.37730637  0.62401089  1
  Co  Co99  1  0.00462774  0.24975299  0.24362312  1
  Co  Co100  1  0.37390247  0.37232359  0.37854326  1
  Co  Co101  1  0.12444449  0.12647152  0.87363658  1
  Co  Co102  1  0.37541964  0.37785299  0.12228682  1
  Co  Co103  1  0.87329829  0.12312747  0.12752885  1
  Co  Co104  1  0.62769424  0.87615556  0.12098010  1
  Co  Co105  1  0.37391399  0.62792894  0.37381313  1
  Co  Co106  1  0.12471366  0.12330467  0.62901937  1
  Co  Co107  1  0.75124630  0.49919816  0.74899660  1
  Co  Co108  1  0.25143585  -0.00483978  0.25113871  1
  Co  Co109  1  0.25156228  0.49932705  0.75011052  1
  Co  Co110  1  0.12287904  0.87525202  0.62245510  1
  Co  Co111  1  0.37415422  0.12132329  0.12632918  1
  Co  Co112  1  0.75311796  0.49372432  0.49638861  1
  Co  Co113  1  0.88055303  0.37052711  0.37089650  1
  Co  Co114  1  0.24977443  0.75195270  0.74839009  1
  Co  Co115  1  0.50232571  0.75407920  0.25207128  1
  Co  Co116  1  0.75004501  0.49895433  0.00528953  1
  Co  Co117  1  0.24602287  0.74704469  0.50029499  1
  Co  Co118  1  0.87263442  0.37294993  0.62564517  1
  Co  Co119  1  0.00161667  0.24842884  0.50312268  1
  Co  Co120  1  0.24834828  0.74638548  0.00089977  1
  Co  Co121  1  0.50042641  0.74892358  -0.00058146  1
  Co  Co122  1  0.12585020  0.12616796  0.36928890  1
  Co  Co123  1  0.24870189  0.00402690  0.50069800  1
  Co  Co124  1  0.75097755  -0.00253560  0.25454908  1
  Co  Co125  1  0.75009368  0.00454737  -0.00344164  1
  Co  Co126  1  0.75166214  0.74789183  0.00122973  1
  Co  Co127  1  0.62172507  0.87962652  0.37984978  1
