# generated using pymatgen
data_Fe45Co19
_symmetry_space_group_name_H-M   'P 1'
_cell_length_a   11.41642212
_cell_length_b   11.41597035
_cell_length_c   11.41591559
_cell_angle_alpha   90.00543073
_cell_angle_beta   90.00345370
_cell_angle_gamma   89.99832086
_symmetry_Int_Tables_number   1
_chemical_formula_structural   Fe45Co19
_chemical_formula_sum   'Fe90 Co38'
_cell_volume   1487.83097720
_cell_formula_units_Z   2
loop_
 _symmetry_equiv_pos_site_id
 _symmetry_equiv_pos_as_xyz
  1  'x, y, z'
loop_
 _atom_site_type_symbol
 _atom_site_label
 _atom_site_symmetry_multiplicity
 _atom_site_fract_x
 _atom_site_fract_y
 _atom_site_fract_z
 _atom_site_occupancy
  Fe  Fe0  1  0.00272451  0.00081223  0.49621132  1
  Fe  Fe1  1  0.62722177  0.62448007  0.62098594  1
  Fe  Fe2  1  0.87711828  0.87631964  0.62654708  1
  Fe  Fe3  1  0.49940128  0.74773240  0.74892600  1
  Fe  Fe4  1  0.12527298  0.12451757  0.12340009  1
  Fe  Fe5  1  0.87504036  0.87453472  0.37258379  1
  Fe  Fe6  1  0.12219077  0.37326820  0.87164464  1
  Fe  Fe7  1  0.37538453  0.37225658  0.87154881  1
  Fe  Fe8  1  0.50023694  0.24828451  -0.00119659  1
  Fe  Fe9  1  0.75185296  0.75524944  0.00392731  1
  Fe  Fe10  1  0.12570148  0.12581850  0.87392594  1
  Fe  Fe11  1  0.87163804  0.62472276  0.87529006  1
  Fe  Fe12  1  0.62576857  0.62647845  0.87756214  1
  Fe  Fe13  1  0.62784908  0.12880480  0.37792097  1
  Fe  Fe14  1  0.87703441  0.37751005  0.12574680  1
  Fe  Fe15  1  0.24989238  0.74960833  0.24870620  1
  Fe  Fe16  1  0.74820928  0.75099969  0.24437491  1
  Fe  Fe17  1  0.00020129  0.74622657  0.24600539  1
  Fe  Fe18  1  0.50206438  -0.00019033  0.49894738  1
  Fe  Fe19  1  0.62555853  0.37165320  0.87259777  1
  Fe  Fe20  1  0.87913780  0.12245912  0.62601678  1
  Fe  Fe21  1  0.12124620  0.37611535  0.12689687  1
  Fe  Fe22  1  0.50100335  0.00121490  0.25212179  1
  Fe  Fe23  1  0.49944253  0.75083892  0.50181889  1
  Fe  Fe24  1  0.75544784  0.25127912  0.50304592  1
  Fe  Fe25  1  0.49755473  0.00133134  -0.00256110  1
  Fe  Fe26  1  0.37596289  0.62294860  0.37775620  1
  Fe  Fe27  1  0.88133271  0.37945978  0.63024338  1
  Fe  Fe28  1  0.37383773  0.87817882  0.62647750  1
  Fe  Fe29  1  0.75324023  0.24885090  -0.00261159  1
  Fe  Fe30  1  0.49732147  0.00576520  0.75192432  1
  Fe  Fe31  1  0.24933567  0.25129828  0.24860771  1
  Fe  Fe32  1  0.87857300  0.37291472  0.37216092  1
  Fe  Fe33  1  0.11940676  0.37237266  0.37462660  1
  Fe  Fe34  1  0.74907627  0.49809992  -0.00071830  1
  Fe  Fe35  1  0.75178735  0.24788558  0.24825116  1
  Fe  Fe36  1  0.74908380  0.75006073  0.74809865  1
  Fe  Fe37  1  0.62487948  0.87685528  0.62649577  1
  Fe  Fe38  1  0.00274036  0.00407457  0.25413109  1
  Fe  Fe39  1  0.24657547  0.25408705  0.50569633  1
  Fe  Fe40  1  0.50153460  0.75026142  0.24766798  1
  Fe  Fe41  1  -0.00246357  0.24988641  -0.00108480  1
  Fe  Fe42  1  0.12422228  0.62547414  0.37646167  1
  Fe  Fe43  1  0.49939666  0.24764161  0.25037912  1
  Fe  Fe44  1  0.49898482  0.49871393  -0.00229348  1
  Fe  Fe45  1  0.62488942  0.37373068  0.62645874  1
  Fe  Fe46  1  0.24798135  0.49954700  0.74915721  1
  Fe  Fe47  1  0.62427502  0.87583287  0.87500112  1
  Fe  Fe48  1  0.00056945  0.50188015  -0.00115158  1
  Fe  Fe49  1  0.50483560  0.50059240  0.25372489  1
  Fe  Fe50  1  0.25008794  0.75208635  0.74985865  1
  Fe  Fe51  1  0.24468807  -0.00119146  0.50075111  1
  Fe  Fe52  1  0.37698036  0.37563729  0.12623647  1
  Fe  Fe53  1  0.12465004  0.62362610  0.62229478  1
  Fe  Fe54  1  0.75074813  -0.00131400  0.49910238  1
  Fe  Fe55  1  0.25034452  0.24863321  0.74410226  1
  Fe  Fe56  1  0.24730733  0.49960531  0.25106798  1
  Fe  Fe57  1  0.87373932  0.12020451  0.12490045  1
  Fe  Fe58  1  0.62797217  0.12111640  0.12258762  1
  Fe  Fe59  1  0.00382372  -0.00229541  0.75310501  1
  Fe  Fe60  1  0.37313848  0.12481793  0.12441867  1
  Fe  Fe61  1  0.00091401  0.74788806  0.75007967  1
  Fe  Fe62  1  0.74975862  0.49799924  0.49813396  1
  Fe  Fe63  1  0.50169158  0.50071594  0.74993898  1
  Fe  Fe64  1  0.37164734  0.12568667  0.37854244  1
  Fe  Fe65  1  0.12801359  0.62822527  0.87867889  1
  Fe  Fe66  1  0.62588783  0.12661378  0.62601281  1
  Fe  Fe67  1  0.62703927  0.87182473  0.37591397  1
  Fe  Fe68  1  0.37364741  0.87544329  0.37453496  1
  Fe  Fe69  1  0.87391905  0.62226861  0.62587936  1
  Fe  Fe70  1  0.25094229  0.49731162  -0.00084457  1
  Fe  Fe71  1  -0.00204351  0.75005003  0.50082857  1
  Fe  Fe72  1  0.49714833  0.75100614  0.00099700  1
  Fe  Fe73  1  -0.00367013  0.75027233  0.00250954  1
  Fe  Fe74  1  0.49861007  0.25087596  0.50274718  1
  Fe  Fe75  1  0.12415293  0.87446799  0.12489335  1
  Fe  Fe76  1  0.62453399  0.37384185  0.12546345  1
  Fe  Fe77  1  0.75491780  0.24960835  0.75219152  1
  Fe  Fe78  1  0.24965693  0.75146427  0.50030086  1
  Fe  Fe79  1  0.25471861  0.75298568  0.00066660  1
  Fe  Fe80  1  0.74657188  0.50047182  0.25094625  1
  Fe  Fe81  1  0.87233468  0.62601585  0.37396748  1
  Fe  Fe82  1  0.37598491  0.37629878  0.37802494  1
  Fe  Fe83  1  0.37416098  0.62046627  0.62255246  1
  Fe  Fe84  1  0.24766035  0.00014448  0.25146723  1
  Fe  Fe85  1  0.75105781  0.00046849  0.75311324  1
  Fe  Fe86  1  -0.00240902  -0.00308679  -0.00331604  1
  Fe  Fe87  1  0.37495492  0.62187790  0.12520712  1
  Fe  Fe88  1  0.25185316  -0.00302267  -0.00323770  1
  Fe  Fe89  1  0.24900017  0.25197461  0.00144996  1
  Co  Co90  1  0.24843338  -0.00019784  0.75125720  1
  Co  Co91  1  0.12859281  0.62508069  0.12135086  1
  Co  Co92  1  -0.00173446  0.24880780  0.75143133  1
  Co  Co93  1  0.62779838  0.63054050  0.37772348  1
  Co  Co94  1  0.49740085  0.24742585  0.74781004  1
  Co  Co95  1  0.62416496  0.87937816  0.12221700  1
  Co  Co96  1  0.75391402  -0.00355690  -0.00453488  1
  Co  Co97  1  0.87362235  0.12664182  0.37627978  1
  Co  Co98  1  -0.00096033  0.24516989  0.24670256  1
  Co  Co99  1  0.37353158  0.12159254  0.62162998  1
  Co  Co100  1  0.00156881  0.50408979  0.24961196  1
  Co  Co101  1  0.62726375  0.12593573  0.87492367  1
  Co  Co102  1  0.74705334  0.50062233  0.75028198  1
  Co  Co103  1  0.87512063  0.87139000  0.87075005  1
  Co  Co104  1  0.37505908  0.87711907  0.12747319  1
  Co  Co105  1  0.11787622  0.37771610  0.62762784  1
  Co  Co106  1  0.37073818  0.12895738  0.87586802  1
  Co  Co107  1  0.87680328  0.88041293  0.13013838  1
  Co  Co108  1  0.12737007  0.13133773  0.37693768  1
  Co  Co109  1  0.37678828  0.37986460  0.62408042  1
  Co  Co110  1  0.74710414  -0.00004415  0.25410367  1
  Co  Co111  1  0.62405442  0.62382454  0.12179883  1
  Co  Co112  1  0.87218892  0.62089557  0.12419011  1
  Co  Co113  1  0.87709516  0.12368687  0.87386247  1
  Co  Co114  1  0.12353219  0.87390104  0.62477622  1
  Co  Co115  1  0.62657268  0.36900322  0.37530750  1
  Co  Co116  1  0.12361259  0.87087619  0.37383383  1
  Co  Co117  1  0.37690239  0.87490683  0.87094001  1
  Co  Co118  1  0.12446258  0.87172058  0.87652978  1
  Co  Co119  1  -0.00051502  0.24917081  0.50258937  1
  Co  Co120  1  0.12160518  0.12337558  0.62650720  1
  Co  Co121  1  0.37393265  0.62423876  0.87398613  1
  Co  Co122  1  0.75274124  0.75318138  0.50394474  1
  Co  Co123  1  -0.00180598  0.50130278  0.49775002  1
  Co  Co124  1  0.00280957  0.50660390  0.75470055  1
  Co  Co125  1  0.50585376  0.49941320  0.49849077  1
  Co  Co126  1  0.24504006  0.49698510  0.49903634  1
  Co  Co127  1  0.87669934  0.37880602  0.87356733  1
