# generated using pymatgen
data_Fe45Co19
_symmetry_space_group_name_H-M   'P 1'
_cell_length_a   11.41420754
_cell_length_b   11.41499289
_cell_length_c   11.41438338
_cell_angle_alpha   90.00452266
_cell_angle_beta   89.99390341
_cell_angle_gamma   90.00271160
_symmetry_Int_Tables_number   1
_chemical_formula_structural   Fe45Co19
_chemical_formula_sum   'Fe90 Co38'
_cell_volume   1487.21535580
_cell_formula_units_Z   2
loop_
 _symmetry_equiv_pos_site_id
 _symmetry_equiv_pos_as_xyz
  1  'x, y, z'
loop_
 _atom_site_type_symbol
 _atom_site_label
 _atom_site_symmetry_multiplicity
 _atom_site_fract_x
 _atom_site_fract_y
 _atom_site_fract_z
 _atom_site_occupancy
  Fe  Fe0  1  0.50123114  0.24847373  0.00055571  1
  Fe  Fe1  1  0.87600721  0.87365817  0.62347693  1
  Fe  Fe2  1  0.37404434  0.37420570  0.87633844  1
  Fe  Fe3  1  0.24856786  -0.00163497  0.74961215  1
  Fe  Fe4  1  0.37434800  0.12445858  0.87734660  1
  Fe  Fe5  1  0.49933512  0.74948396  0.25084238  1
  Fe  Fe6  1  0.12113641  0.87379219  0.12206486  1
  Fe  Fe7  1  0.24995556  -0.00099013  0.00197286  1
  Fe  Fe8  1  0.37626888  0.87197012  0.62739709  1
  Fe  Fe9  1  0.62470774  0.87426355  0.62636734  1
  Fe  Fe10  1  0.00161833  0.50236487  0.50120051  1
  Fe  Fe11  1  -0.00202007  0.25073051  0.75258958  1
  Fe  Fe12  1  0.11986824  0.37261399  0.12254084  1
  Fe  Fe13  1  0.49697723  0.50078689  0.74897912  1
  Fe  Fe14  1  0.24565651  0.49991416  -0.00063489  1
  Fe  Fe15  1  0.24768914  0.00058313  0.50251026  1
  Fe  Fe16  1  0.87678745  0.87434404  0.87688543  1
  Fe  Fe17  1  0.62754875  0.12473972  0.12591948  1
  Fe  Fe18  1  0.49848498  0.25043531  0.24986577  1
  Fe  Fe19  1  0.00010156  0.74781133  0.50062951  1
  Fe  Fe20  1  0.62876102  0.12465532  0.37268592  1
  Fe  Fe21  1  0.25001881  0.49888991  0.74838417  1
  Fe  Fe22  1  0.75692133  0.25275162  0.24997832  1
  Fe  Fe23  1  0.75218038  0.74929717  0.00194919  1
  Fe  Fe24  1  0.62685424  0.12665867  0.87325797  1
  Fe  Fe25  1  0.49972675  0.50148947  0.50120776  1
  Fe  Fe26  1  0.50045664  0.74993687  -0.00227899  1
  Fe  Fe27  1  0.75478872  -0.00414114  0.24753040  1
  Fe  Fe28  1  0.74805001  0.50050346  0.50043081  1
  Fe  Fe29  1  0.62319054  0.37185537  0.62814075  1
  Fe  Fe30  1  0.62653642  0.12856966  0.62853318  1
  Fe  Fe31  1  0.62565183  0.37547079  0.12551286  1
  Fe  Fe32  1  0.87492043  0.12835665  0.62182848  1
  Fe  Fe33  1  0.75278601  0.75231399  0.24963132  1
  Fe  Fe34  1  0.62764182  0.62316050  0.87433152  1
  Fe  Fe35  1  0.24823805  0.25203857  0.25010998  1
  Fe  Fe36  1  -0.00075722  0.00087793  0.75077644  1
  Fe  Fe37  1  0.24959739  0.75229565  0.24849393  1
  Fe  Fe38  1  0.75314431  0.49878297  0.24815338  1
  Fe  Fe39  1  0.87300619  0.62502625  0.37613866  1
  Fe  Fe40  1  0.12707431  0.12571331  0.87322829  1
  Fe  Fe41  1  0.87839764  0.37577519  0.88196932  1
  Fe  Fe42  1  0.74989374  -0.00021887  0.50083379  1
  Fe  Fe43  1  0.00369902  0.24790522  0.49243784  1
  Fe  Fe44  1  0.24724077  0.24836415  0.49861867  1
  Fe  Fe45  1  0.12430066  0.37429507  0.62560284  1
  Fe  Fe46  1  0.25054242  0.25157998  0.75051876  1
  Fe  Fe47  1  0.12239943  0.87436832  0.62655423  1
  Fe  Fe48  1  -0.00029730  0.00398164  -0.00038484  1
  Fe  Fe49  1  0.75246358  0.00085724  0.74913159  1
  Fe  Fe50  1  0.50139657  0.74814943  0.49918544  1
  Fe  Fe51  1  0.49939778  -0.00042498  0.75158042  1
  Fe  Fe52  1  0.74980263  -0.00166827  0.00313017  1
  Fe  Fe53  1  0.37100430  0.12295735  0.37245237  1
  Fe  Fe54  1  0.62496911  0.37431359  0.87369377  1
  Fe  Fe55  1  0.62520546  0.37629629  0.37347235  1
  Fe  Fe56  1  0.87635011  0.37269804  0.62051042  1
  Fe  Fe57  1  -0.00235749  0.49700394  0.24949005  1
  Fe  Fe58  1  0.37273533  0.62662517  0.87494020  1
  Fe  Fe59  1  0.00056888  0.74448119  -0.00376857  1
  Fe  Fe60  1  0.75267278  0.75021709  0.74979006  1
  Fe  Fe61  1  0.50087445  0.00126312  0.50050352  1
  Fe  Fe62  1  0.49979238  0.00058276  0.24881697  1
  Fe  Fe63  1  0.62469518  0.62539432  0.12706153  1
  Fe  Fe64  1  0.12578411  0.62324330  0.37320407  1
  Fe  Fe65  1  0.12453568  0.62572902  0.12552768  1
  Fe  Fe66  1  0.75473759  0.49652947  0.74935733  1
  Fe  Fe67  1  0.25027114  0.50243024  0.50332299  1
  Fe  Fe68  1  0.62601568  0.62580578  0.62709712  1
  Fe  Fe69  1  0.75231841  0.50093849  0.00280294  1
  Fe  Fe70  1  0.37491472  0.12649313  0.62536834  1
  Fe  Fe71  1  0.12486120  0.87726915  0.37458933  1
  Fe  Fe72  1  0.37336601  0.87707757  0.37511283  1
  Fe  Fe73  1  -0.00109655  0.75047535  0.25172299  1
  Fe  Fe74  1  0.37797678  0.87570924  0.12208093  1
  Fe  Fe75  1  0.24610450  0.75180558  0.75342555  1
  Fe  Fe76  1  0.00164682  0.00246654  0.49923559  1
  Fe  Fe77  1  0.24951307  0.49843412  0.24797416  1
  Fe  Fe78  1  0.50093802  0.24899956  0.49895444  1
  Fe  Fe79  1  0.12453220  0.12745222  0.12853971  1
  Fe  Fe80  1  0.37388128  0.37648105  0.37632256  1
  Fe  Fe81  1  0.50065421  0.49991280  0.00051202  1
  Fe  Fe82  1  0.37469601  0.62431658  0.12397550  1
  Fe  Fe83  1  0.62511375  0.87566060  0.87544898  1
  Fe  Fe84  1  0.24845830  0.74860114  0.49927710  1
  Fe  Fe85  1  -0.00329386  0.00155187  0.25036362  1
  Fe  Fe86  1  0.37492156  0.37417677  0.12274497  1
  Fe  Fe87  1  0.62643690  0.87475786  0.37450293  1
  Fe  Fe88  1  0.87174742  0.12670302  0.87809371  1
  Fe  Fe89  1  0.37535669  0.62268501  0.37340286  1
  Co  Co90  1  0.87436333  0.62525801  0.62469804  1
  Co  Co91  1  0.50161474  0.00233645  -0.00029584  1
  Co  Co92  1  0.00273674  0.24562178  -0.00151681  1
  Co  Co93  1  0.49735609  0.24973782  0.75193019  1
  Co  Co94  1  0.37500526  0.87536127  0.87522032  1
  Co  Co95  1  0.12446003  0.62197425  0.87090553  1
  Co  Co96  1  0.12326685  0.12758672  0.62772035  1
  Co  Co97  1  -0.00131107  0.75052746  0.75111520  1
  Co  Co98  1  0.37418796  0.12566125  0.12584579  1
  Co  Co99  1  0.87436658  0.37707773  0.37900782  1
  Co  Co100  1  0.50298804  0.74926639  0.75316538  1
  Co  Co101  1  -0.00296546  0.49770734  0.74881343  1
  Co  Co102  1  0.74869287  0.74975873  0.49998248  1
  Co  Co103  1  0.24819864  0.24994560  0.00016705  1
  Co  Co104  1  0.87419271  0.12780574  0.12363003  1
  Co  Co105  1  0.87228985  0.12389193  0.37644578  1
  Co  Co106  1  0.49898046  0.49839345  0.24870990  1
  Co  Co107  1  0.12805134  0.12116462  0.37006886  1
  Co  Co108  1  0.12427464  0.62514720  0.62851346  1
  Co  Co109  1  0.87947219  0.37253219  0.11934727  1
  Co  Co110  1  0.12207107  0.87648369  0.87719900  1
  Co  Co111  1  0.37455785  0.37258818  0.62325971  1
  Co  Co112  1  0.75520658  0.25274530  0.75120707  1
  Co  Co113  1  0.87457146  0.62350835  0.87296435  1
  Co  Co114  1  0.24838967  0.75048101  0.00016368  1
  Co  Co115  1  0.24931098  -0.00485577  0.24463326  1
  Co  Co116  1  0.74714065  0.25151546  -0.00026158  1
  Co  Co117  1  0.87626312  0.87490880  0.37788905  1
  Co  Co118  1  0.37463384  0.62953766  0.62745014  1
  Co  Co119  1  0.00202641  0.50517733  0.00029868  1
  Co  Co120  1  0.62301259  0.87396193  0.12479703  1
  Co  Co121  1  0.12621912  0.37882628  0.37574668  1
  Co  Co122  1  0.87636358  0.62560067  0.12635334  1
  Co  Co123  1  -0.00241927  0.25136412  0.25455218  1
  Co  Co124  1  0.12301218  0.37563268  0.87443741  1
  Co  Co125  1  0.62608197  0.62405425  0.37161429  1
  Co  Co126  1  0.74637106  0.25099453  0.49934231  1
  Co  Co127  1  0.87972393  0.87370935  0.12129367  1
