# generated using pymatgen
data_Fe45Co19
_symmetry_space_group_name_H-M   'P 1'
_cell_length_a   11.41549707
_cell_length_b   11.41641940
_cell_length_c   11.41449697
_cell_angle_alpha   89.99535660
_cell_angle_beta   89.99757173
_cell_angle_gamma   89.99965136
_symmetry_Int_Tables_number   1
_chemical_formula_structural   Fe45Co19
_chemical_formula_sum   'Fe90 Co38'
_cell_volume   1487.58406459
_cell_formula_units_Z   2
loop_
 _symmetry_equiv_pos_site_id
 _symmetry_equiv_pos_as_xyz
  1  'x, y, z'
loop_
 _atom_site_type_symbol
 _atom_site_label
 _atom_site_symmetry_multiplicity
 _atom_site_fract_x
 _atom_site_fract_y
 _atom_site_fract_z
 _atom_site_occupancy
  Fe  Fe0  1  0.74766325  0.49751738  0.25510291  1
  Fe  Fe1  1  0.25317960  0.75020204  0.74658192  1
  Fe  Fe2  1  0.75053897  0.50333578  0.75027489  1
  Fe  Fe3  1  0.87610078  0.37728422  0.62798751  1
  Fe  Fe4  1  0.87336080  0.87689368  0.87326896  1
  Fe  Fe5  1  0.87354479  0.87817336  0.37593661  1
  Fe  Fe6  1  0.24855105  0.24979123  -0.00082871  1
  Fe  Fe7  1  0.12459068  0.12395430  0.37371235  1
  Fe  Fe8  1  0.24689157  0.49856266  -0.00092056  1
  Fe  Fe9  1  0.37329394  0.12294125  0.37763768  1
  Fe  Fe10  1  0.62702803  0.37229135  0.87358240  1
  Fe  Fe11  1  0.50126346  0.25080982  0.00032605  1
  Fe  Fe12  1  0.75392747  0.25041242  0.49818988  1
  Fe  Fe13  1  0.62617916  0.87584154  0.12538089  1
  Fe  Fe14  1  0.62614237  0.12817490  0.37522822  1
  Fe  Fe15  1  -0.00034433  0.49759611  -0.00219198  1
  Fe  Fe16  1  0.37717071  0.62300696  0.12163334  1
  Fe  Fe17  1  0.37488240  0.37622387  0.12511857  1
  Fe  Fe18  1  0.37580327  0.87401627  0.87406249  1
  Fe  Fe19  1  0.62596777  0.62603718  0.62307026  1
  Fe  Fe20  1  0.12082137  0.37341628  0.86873100  1
  Fe  Fe21  1  0.37426680  0.62618150  0.37630245  1
  Fe  Fe22  1  0.12286928  0.12494141  0.87185451  1
  Fe  Fe23  1  0.49973031  0.00132680  0.25121015  1
  Fe  Fe24  1  0.50444534  0.49879880  0.49696798  1
  Fe  Fe25  1  0.37741803  0.62483601  0.87730482  1
  Fe  Fe26  1  0.37661043  0.62285423  0.62371495  1
  Fe  Fe27  1  0.00051000  0.75307293  0.49893926  1
  Fe  Fe28  1  0.49972641  0.24847147  0.24954140  1
  Fe  Fe29  1  0.12476645  0.12426834  0.62706465  1
  Fe  Fe30  1  0.24988431  0.24772077  0.24926329  1
  Fe  Fe31  1  0.25111554  -0.00201072  0.74673632  1
  Fe  Fe32  1  0.12576392  0.87436408  0.87270249  1
  Fe  Fe33  1  -0.00121679  0.25003900  0.50177482  1
  Fe  Fe34  1  0.62375094  0.62903478  0.87761661  1
  Fe  Fe35  1  0.12377560  0.62705621  0.62487593  1
  Fe  Fe36  1  0.37498736  0.37520685  0.37522111  1
  Fe  Fe37  1  0.50334317  0.50001634  0.25243956  1
  Fe  Fe38  1  0.62545461  0.87451005  0.37436430  1
  Fe  Fe39  1  0.50162645  0.00053656  0.50232034  1
  Fe  Fe40  1  0.37350762  0.87696522  0.12602291  1
  Fe  Fe41  1  0.62576318  0.87038827  0.87247088  1
  Fe  Fe42  1  0.87543308  0.62570164  0.87554874  1
  Fe  Fe43  1  0.62698351  0.37427421  0.62486837  1
  Fe  Fe44  1  0.49998984  0.75077541  0.50065569  1
  Fe  Fe45  1  0.87501308  0.12370568  0.12433670  1
  Fe  Fe46  1  -0.00424188  0.24868223  0.25178814  1
  Fe  Fe47  1  0.75139936  0.74974390  0.25026560  1
  Fe  Fe48  1  0.75007881  0.75156152  0.50055501  1
  Fe  Fe49  1  0.50256177  -0.00001303  -0.00266922  1
  Fe  Fe50  1  0.37582643  0.12386338  0.12311842  1
  Fe  Fe51  1  0.12316933  0.37351847  0.12525428  1
  Fe  Fe52  1  0.87433534  0.62580164  0.62300583  1
  Fe  Fe53  1  -0.00271262  0.25200985  -0.00216974  1
  Fe  Fe54  1  0.75484586  0.24561720  0.75215769  1
  Fe  Fe55  1  0.50242290  0.49948703  0.75157520  1
  Fe  Fe56  1  -0.00225977  0.75200089  0.00131257  1
  Fe  Fe57  1  0.62754349  0.37200895  0.12732390  1
  Fe  Fe58  1  0.62509565  0.62684094  0.12380966  1
  Fe  Fe59  1  0.87414799  0.87694594  0.12668010  1
  Fe  Fe60  1  0.75245539  0.24900001  -0.00115781  1
  Fe  Fe61  1  0.62398209  0.12545981  0.62881606  1
  Fe  Fe62  1  0.37635246  0.37563914  0.87451612  1
  Fe  Fe63  1  0.87385657  0.62368498  0.37714092  1
  Fe  Fe64  1  0.25070771  0.75000426  0.00175910  1
  Fe  Fe65  1  0.24754763  0.00220075  0.00118058  1
  Fe  Fe66  1  0.49878535  0.75042519  0.24962033  1
  Fe  Fe67  1  -0.00306040  0.75319654  0.74774061  1
  Fe  Fe68  1  0.12390929  0.62768281  0.87491710  1
  Fe  Fe69  1  0.49731052  0.25022955  0.50351910  1
  Fe  Fe70  1  0.75013811  0.49864528  -0.00090378  1
  Fe  Fe71  1  0.00207425  0.50247059  0.25065786  1
  Fe  Fe72  1  0.12570126  0.87238084  0.12938037  1
  Fe  Fe73  1  0.62730447  0.87443390  0.62870274  1
  Fe  Fe74  1  0.87492549  0.62364397  0.12495419  1
  Fe  Fe75  1  0.24700955  0.49944912  0.50040311  1
  Fe  Fe76  1  0.00084100  0.49897568  0.50168879  1
  Fe  Fe77  1  0.74979537  0.00386568  0.25257576  1
  Fe  Fe78  1  0.00301618  -0.00112102  0.00104271  1
  Fe  Fe79  1  0.24698575  0.50305025  0.24924487  1
  Fe  Fe80  1  0.00373620  -0.00322243  0.49977817  1
  Fe  Fe81  1  0.25266619  0.25271262  0.74589741  1
  Fe  Fe82  1  0.37034674  0.87564652  0.37692946  1
  Fe  Fe83  1  0.74666301  0.00216105  -0.00353129  1
  Fe  Fe84  1  0.25058598  0.25040994  0.50295638  1
  Fe  Fe85  1  0.24855128  0.49950548  0.74906802  1
  Fe  Fe86  1  0.87489884  0.11740168  0.62341839  1
  Fe  Fe87  1  0.12371872  0.37437886  0.37608051  1
  Fe  Fe88  1  0.37774586  0.12579568  0.87124869  1
  Fe  Fe89  1  0.12942617  0.87283805  0.37152343  1
  Co  Co90  1  0.49971756  0.75288680  0.00191888  1
  Co  Co91  1  0.24753190  0.00130815  0.50203456  1
  Co  Co92  1  0.37625061  0.12213849  0.62719415  1
  Co  Co93  1  0.24986068  0.74895653  0.50239837  1
  Co  Co94  1  0.49748304  0.25427224  0.74718985  1
  Co  Co95  1  0.74467936  0.00046620  0.49981018  1
  Co  Co96  1  0.62640662  0.12498850  0.12571161  1
  Co  Co97  1  0.50128501  -0.00312411  0.75040632  1
  Co  Co98  1  -0.00063440  -0.00271941  0.74841661  1
  Co  Co99  1  0.49811679  0.74888349  0.74846246  1
  Co  Co100  1  0.37616626  0.38023660  0.62240890  1
  Co  Co101  1  0.24906159  0.00386988  0.24817239  1
  Co  Co102  1  0.12450342  0.62671328  0.37755957  1
  Co  Co103  1  0.87754254  0.37748978  0.37571828  1
  Co  Co104  1  0.12193758  0.37459144  0.62702848  1
  Co  Co105  1  0.12193116  0.62677484  0.12101279  1
  Co  Co106  1  0.62110871  0.12875114  0.87198451  1
  Co  Co107  1  0.75200757  0.75066663  0.00121879  1
  Co  Co108  1  0.50324120  0.49653320  -0.00043897  1
  Co  Co109  1  -0.00264894  0.74905573  0.25188551  1
  Co  Co110  1  -0.00471375  0.24584550  0.74813184  1
  Co  Co111  1  0.75256268  0.74809709  0.74917654  1
  Co  Co112  1  0.00048100  -0.00025346  0.25051357  1
  Co  Co113  1  0.87415678  0.37648100  0.12697967  1
  Co  Co114  1  -0.00062566  0.50393479  0.74965652  1
  Co  Co115  1  0.74893515  0.00202643  0.75345505  1
  Co  Co116  1  0.37566504  0.87615504  0.62160688  1
  Co  Co117  1  0.12150034  0.12784350  0.12469921  1
  Co  Co118  1  0.75452413  0.24828133  0.25355839  1
  Co  Co119  1  0.12607781  0.87338367  0.62558412  1
  Co  Co120  1  0.87502615  0.37666952  0.87060251  1
  Co  Co121  1  0.87913146  0.12081966  0.87734457  1
  Co  Co122  1  0.62698054  0.62890263  0.37596987  1
  Co  Co123  1  0.87161978  0.87855452  0.62347566  1
  Co  Co124  1  0.87587656  0.12072695  0.37854605  1
  Co  Co125  1  0.25133935  0.74493463  0.24792996  1
  Co  Co126  1  0.74930285  0.49748745  0.49888292  1
  Co  Co127  1  0.62434623  0.36883822  0.37661519  1
