# generated using pymatgen
data_Fe45Co19
_symmetry_space_group_name_H-M   'P 1'
_cell_length_a   11.41436757
_cell_length_b   11.41573797
_cell_length_c   11.41495791
_cell_angle_alpha   90.00020025
_cell_angle_beta   90.00971517
_cell_angle_gamma   90.00157551
_symmetry_Int_Tables_number   1
_chemical_formula_structural   Fe45Co19
_chemical_formula_sum   'Fe90 Co38'
_cell_volume   1487.40813859
_cell_formula_units_Z   2
loop_
 _symmetry_equiv_pos_site_id
 _symmetry_equiv_pos_as_xyz
  1  'x, y, z'
loop_
 _atom_site_type_symbol
 _atom_site_label
 _atom_site_symmetry_multiplicity
 _atom_site_fract_x
 _atom_site_fract_y
 _atom_site_fract_z
 _atom_site_occupancy
  Fe  Fe0  1  0.62696560  0.37347077  0.12635425  1
  Fe  Fe1  1  0.36997801  0.37873107  0.12496831  1
  Fe  Fe2  1  0.12366827  0.62360652  0.87492122  1
  Fe  Fe3  1  0.37584981  0.12501441  0.87567083  1
  Fe  Fe4  1  0.74947887  0.50126680  0.00085498  1
  Fe  Fe5  1  -0.00323087  0.24869652  0.75075728  1
  Fe  Fe6  1  0.75220305  0.24926466  0.75248486  1
  Fe  Fe7  1  0.87538279  0.62355263  0.87427602  1
  Fe  Fe8  1  0.74880884  0.75037518  0.74897066  1
  Fe  Fe9  1  0.75013094  0.50041242  0.49773887  1
  Fe  Fe10  1  0.00161719  0.75019445  0.74899698  1
  Fe  Fe11  1  -0.00035093  0.74998501  0.00023384  1
  Fe  Fe12  1  0.74866919  0.74960019  0.25359839  1
  Fe  Fe13  1  0.37466182  0.37298157  0.62490852  1
  Fe  Fe14  1  0.00401627  0.75166993  0.25354370  1
  Fe  Fe15  1  0.24802781  0.00035727  0.00052074  1
  Fe  Fe16  1  0.12320428  0.12313415  0.37226367  1
  Fe  Fe17  1  0.75299878  -0.00003980  0.74795731  1
  Fe  Fe18  1  0.37976614  0.62028142  0.87719358  1
  Fe  Fe19  1  0.12819716  0.37845124  0.37449849  1
  Fe  Fe20  1  0.24733827  -0.00013648  0.24952507  1
  Fe  Fe21  1  -0.00082830  0.00030155  0.74734303  1
  Fe  Fe22  1  0.12353381  0.12381348  0.87554550  1
  Fe  Fe23  1  0.37359250  0.12421283  0.62656345  1
  Fe  Fe24  1  0.00055341  0.50035121  0.00173712  1
  Fe  Fe25  1  0.50029087  0.75280339  0.25024472  1
  Fe  Fe26  1  0.74968540  0.25013905  0.49748383  1
  Fe  Fe27  1  0.74722899  -0.00093412  0.24865812  1
  Fe  Fe28  1  0.62111953  0.12613326  0.37275431  1
  Fe  Fe29  1  0.24908936  0.25181021  -0.00175089  1
  Fe  Fe30  1  0.49820800  0.49652334  0.50002871  1
  Fe  Fe31  1  0.50146720  0.25056865  0.74858309  1
  Fe  Fe32  1  0.50043707  0.74962069  0.75118051  1
  Fe  Fe33  1  0.87620252  0.62608247  0.12841880  1
  Fe  Fe34  1  0.25001560  0.24848112  0.49907859  1
  Fe  Fe35  1  0.25032916  0.24931900  0.75206967  1
  Fe  Fe36  1  0.75008337  0.50041700  0.75022677  1
  Fe  Fe37  1  -0.00153632  -0.00118233  0.49940086  1
  Fe  Fe38  1  0.12882267  0.87652965  0.62150943  1
  Fe  Fe39  1  0.87469526  0.37577426  0.37198676  1
  Fe  Fe40  1  0.62262409  0.37788827  0.87413540  1
  Fe  Fe41  1  0.50036559  -0.00342831  0.00362245  1
  Fe  Fe42  1  0.25030191  0.74719876  -0.00200669  1
  Fe  Fe43  1  0.00116047  -0.00092787  0.00527021  1
  Fe  Fe44  1  0.62657729  0.12474113  0.62399216  1
  Fe  Fe45  1  0.24836502  0.25096298  0.24911471  1
  Fe  Fe46  1  0.62337185  0.12567942  0.12620247  1
  Fe  Fe47  1  0.49777927  0.49853105  0.25061109  1
  Fe  Fe48  1  0.62298472  0.62640884  0.37639299  1
  Fe  Fe49  1  0.37239128  0.87706986  0.62459994  1
  Fe  Fe50  1  0.37804956  0.12817148  0.37182449  1
  Fe  Fe51  1  0.12520140  0.12443199  0.62456187  1
  Fe  Fe52  1  0.62568024  0.12314743  0.87727560  1
  Fe  Fe53  1  0.25060436  0.74944289  0.74982469  1
  Fe  Fe54  1  0.62260600  0.62743367  0.12404627  1
  Fe  Fe55  1  0.37417769  0.87614998  0.87513245  1
  Fe  Fe56  1  0.87438065  0.62696076  0.62344153  1
  Fe  Fe57  1  0.50087314  0.75340097  0.50039600  1
  Fe  Fe58  1  0.74981660  0.74885827  -0.00075201  1
  Fe  Fe59  1  0.87396861  0.87360072  0.12739306  1
  Fe  Fe60  1  0.87493160  0.37409077  0.12721671  1
  Fe  Fe61  1  0.00334283  0.50084726  0.24923433  1
  Fe  Fe62  1  0.12530161  0.87568445  0.87569840  1
  Fe  Fe63  1  0.37473892  0.62419263  0.12397213  1
  Fe  Fe64  1  -0.00145559  0.75151196  0.49665376  1
  Fe  Fe65  1  -0.00222286  0.49911775  0.50074498  1
  Fe  Fe66  1  0.12673921  0.62369398  0.62113096  1
  Fe  Fe67  1  0.37426680  0.12432511  0.12544469  1
  Fe  Fe68  1  0.12301603  0.37731081  0.87342016  1
  Fe  Fe69  1  0.87374022  0.37342979  0.62576849  1
  Fe  Fe70  1  0.62140890  0.37134607  0.37431138  1
  Fe  Fe71  1  0.87509097  0.87764704  0.87523730  1
  Fe  Fe72  1  0.37266856  0.87474882  0.37528439  1
  Fe  Fe73  1  0.87740335  0.12649327  0.12786254  1
  Fe  Fe74  1  0.74815847  0.50107106  0.25104318  1
  Fe  Fe75  1  0.87635083  0.12296099  0.37247104  1
  Fe  Fe76  1  0.62472479  0.62494990  0.62377955  1
  Fe  Fe77  1  0.75224090  0.24964829  -0.00135410  1
  Fe  Fe78  1  0.37202432  0.87273950  0.12558457  1
  Fe  Fe79  1  0.37498302  0.62580501  0.62218261  1
  Fe  Fe80  1  0.00004640  0.25123307  0.00119537  1
  Fe  Fe81  1  0.12567474  0.37611393  0.62518846  1
  Fe  Fe82  1  -0.00018859  0.25091544  0.49751340  1
  Fe  Fe83  1  0.24632084  0.74476491  0.25510480  1
  Fe  Fe84  1  0.75017600  -0.00346355  0.50130490  1
  Fe  Fe85  1  0.49873057  0.25248552  0.00199552  1
  Fe  Fe86  1  0.62623611  0.87561243  0.87670284  1
  Fe  Fe87  1  0.49846751  0.00033543  0.49869516  1
  Fe  Fe88  1  0.25122778  0.50046755  0.74988560  1
  Fe  Fe89  1  0.49985838  -0.00022104  0.75018059  1
  Co  Co90  1  0.62314080  0.62380342  0.87563321  1
  Co  Co91  1  0.75042003  0.24875308  0.25185751  1
  Co  Co92  1  -0.00076941  0.50211750  0.74714942  1
  Co  Co93  1  0.12765349  0.87763501  0.37795796  1
  Co  Co94  1  0.37496853  0.37121653  0.37421016  1
  Co  Co95  1  0.24785956  0.50092141  -0.00270940  1
  Co  Co96  1  0.87558636  0.62503372  0.37352283  1
  Co  Co97  1  0.37898837  0.62639235  0.37721684  1
  Co  Co98  1  0.50249369  0.49809177  0.00402892  1
  Co  Co99  1  0.87637402  0.37785632  0.87516883  1
  Co  Co100  1  0.62345666  0.87553030  0.62563630  1
  Co  Co101  1  0.25260657  0.00458642  0.49769432  1
  Co  Co102  1  0.24874422  0.00029829  0.75115782  1
  Co  Co103  1  0.49979984  -0.00343441  0.24831553  1
  Co  Co104  1  0.87464102  0.12739827  0.62238650  1
  Co  Co105  1  0.49928270  0.50004845  0.74584008  1
  Co  Co106  1  0.75028770  0.00087034  0.00451329  1
  Co  Co107  1  0.74974080  0.75029586  0.49934948  1
  Co  Co108  1  0.12530441  0.62584842  0.12395271  1
  Co  Co109  1  0.12338040  0.62160086  0.38008729  1
  Co  Co110  1  0.62624328  0.87193222  0.12440075  1
  Co  Co111  1  0.12771811  0.37656836  0.12590437  1
  Co  Co112  1  0.12506287  0.12725851  0.12585937  1
  Co  Co113  1  0.87284859  0.87593820  0.37347679  1
  Co  Co114  1  0.25062712  0.50525099  0.25357886  1
  Co  Co115  1  0.24969439  0.74909863  0.49805404  1
  Co  Co116  1  0.37796450  0.37666857  0.87462237  1
  Co  Co117  1  0.87638749  0.12143692  0.87708217  1
  Co  Co118  1  0.62536747  0.87530395  0.37595246  1
  Co  Co119  1  0.62758838  0.37450499  0.62482025  1
  Co  Co120  1  0.12869224  0.87097287  0.12426904  1
  Co  Co121  1  0.00253376  -0.00389809  0.24770062  1
  Co  Co122  1  0.49831496  0.25239427  0.24485316  1
  Co  Co123  1  0.49953883  0.24898304  0.50328977  1
  Co  Co124  1  0.00144366  0.25214503  0.25148251  1
  Co  Co125  1  0.87595710  0.87237746  0.62423809  1
  Co  Co126  1  0.49947671  0.75171568  -0.00090564  1
  Co  Co127  1  0.25492703  0.49926944  0.49851904  1
