# generated using pymatgen
data_Fe45Co19
_symmetry_space_group_name_H-M   'P 1'
_cell_length_a   11.41454511
_cell_length_b   11.41449189
_cell_length_c   11.41504900
_cell_angle_alpha   89.99776070
_cell_angle_beta   89.99633867
_cell_angle_gamma   90.00069522
_symmetry_Int_Tables_number   1
_chemical_formula_structural   Fe45Co19
_chemical_formula_sum   'Fe90 Co38'
_cell_volume   1487.28079968
_cell_formula_units_Z   2
loop_
 _symmetry_equiv_pos_site_id
 _symmetry_equiv_pos_as_xyz
  1  'x, y, z'
loop_
 _atom_site_type_symbol
 _atom_site_label
 _atom_site_symmetry_multiplicity
 _atom_site_fract_x
 _atom_site_fract_y
 _atom_site_fract_z
 _atom_site_occupancy
  Fe  Fe0  1  0.37502341  0.62261739  0.87226096  1
  Fe  Fe1  1  0.37876287  0.87405483  0.37703426  1
  Fe  Fe2  1  0.24706757  0.75220410  0.75186928  1
  Fe  Fe3  1  0.62134917  0.87674175  0.12152276  1
  Fe  Fe4  1  0.37505979  0.12553611  0.12671864  1
  Fe  Fe5  1  0.12919078  0.37562491  0.87506526  1
  Fe  Fe6  1  0.00069185  0.24752911  0.75016593  1
  Fe  Fe7  1  0.00170439  0.50260874  0.24875882  1
  Fe  Fe8  1  0.50025238  0.74972767  0.24918430  1
  Fe  Fe9  1  0.12166868  0.87272215  0.37522625  1
  Fe  Fe10  1  0.75044244  0.49833981  0.00071559  1
  Fe  Fe11  1  0.00017602  0.74887398  -0.00071249  1
  Fe  Fe12  1  0.75040557  -0.00039539  0.74952186  1
  Fe  Fe13  1  0.50282223  0.25340943  0.74909227  1
  Fe  Fe14  1  -0.00259843  0.00243200  0.74878503  1
  Fe  Fe15  1  0.87461839  0.62322789  0.87557043  1
  Fe  Fe16  1  0.62871029  0.12579199  0.62127404  1
  Fe  Fe17  1  0.75133847  0.49958690  0.49957820  1
  Fe  Fe18  1  0.24932681  -0.00068406  0.74855675  1
  Fe  Fe19  1  0.24991127  0.24899561  0.25064126  1
  Fe  Fe20  1  0.12771423  0.37413924  0.12384825  1
  Fe  Fe21  1  0.12664381  0.12467064  0.87438702  1
  Fe  Fe22  1  0.50040916  0.50121431  0.50072827  1
  Fe  Fe23  1  0.37420913  0.62678431  0.37576992  1
  Fe  Fe24  1  0.75096779  0.25012041  0.00092409  1
  Fe  Fe25  1  0.12673369  0.12542298  0.12587585  1
  Fe  Fe26  1  0.00082096  -0.00043478  0.24835874  1
  Fe  Fe27  1  0.37713231  0.87535800  0.87622820  1
  Fe  Fe28  1  0.74994847  0.00044350  -0.00020925  1
  Fe  Fe29  1  0.87614793  0.37438805  0.12784502  1
  Fe  Fe30  1  0.25133873  0.00092158  -0.00012381  1
  Fe  Fe31  1  0.24858370  0.50142922  0.50126113  1
  Fe  Fe32  1  -0.00242331  0.24821270  0.49789731  1
  Fe  Fe33  1  0.37300651  0.62670912  0.12519012  1
  Fe  Fe34  1  -0.00116868  0.00231129  0.00084030  1
  Fe  Fe35  1  0.49815103  0.24859536  0.49839152  1
  Fe  Fe36  1  0.50160627  0.75175575  0.75065572  1
  Fe  Fe37  1  0.24819820  0.74895806  -0.00268701  1
  Fe  Fe38  1  0.37581096  0.62571994  0.62692295  1
  Fe  Fe39  1  0.87506320  0.62781778  0.62668006  1
  Fe  Fe40  1  0.49749125  0.49945673  0.00093217  1
  Fe  Fe41  1  0.50168711  -0.00103757  0.75016547  1
  Fe  Fe42  1  0.62335430  0.37329015  0.37516230  1
  Fe  Fe43  1  -0.00135552  0.74834773  0.24786420  1
  Fe  Fe44  1  0.24970636  0.24818050  0.50138154  1
  Fe  Fe45  1  0.50170955  0.00378746  0.25188734  1
  Fe  Fe46  1  0.62514891  0.12533667  0.87682576  1
  Fe  Fe47  1  0.37103427  0.37587956  0.87398214  1
  Fe  Fe48  1  0.75096014  0.75383675  0.49835655  1
  Fe  Fe49  1  0.12357322  0.62762391  0.62664363  1
  Fe  Fe50  1  0.62547646  0.87552148  0.62330174  1
  Fe  Fe51  1  0.62521195  0.62310986  0.62627307  1
  Fe  Fe52  1  0.49928533  0.49979390  0.24991409  1
  Fe  Fe53  1  0.37431365  0.37548236  0.62589532  1
  Fe  Fe54  1  0.25071133  -0.00319697  0.25086925  1
  Fe  Fe55  1  0.37450451  0.12356372  0.62514743  1
  Fe  Fe56  1  0.24960367  0.50121435  0.24890695  1
  Fe  Fe57  1  0.74946110  0.75083328  0.75239406  1
  Fe  Fe58  1  0.87593324  0.87637404  0.87525150  1
  Fe  Fe59  1  0.74895225  0.75136852  0.00026851  1
  Fe  Fe60  1  0.62468604  0.62097990  0.87421088  1
  Fe  Fe61  1  0.87511318  0.37481124  0.87498259  1
  Fe  Fe62  1  0.12061945  0.87435881  0.62616953  1
  Fe  Fe63  1  -0.00637400  -0.00001648  0.50194396  1
  Fe  Fe64  1  0.37465320  0.37443104  0.37361246  1
  Fe  Fe65  1  0.12447957  0.12399493  0.37589165  1
  Fe  Fe66  1  0.62495463  0.62739797  0.37492521  1
  Fe  Fe67  1  0.00066067  0.50243797  0.49966779  1
  Fe  Fe68  1  0.87323580  0.12542618  0.12863396  1
  Fe  Fe69  1  0.87506723  0.62544357  0.37400982  1
  Fe  Fe70  1  0.00049400  0.24805297  0.00080583  1
  Fe  Fe71  1  0.12484413  0.37344627  0.62557105  1
  Fe  Fe72  1  0.62589654  0.62425199  0.12446336  1
  Fe  Fe73  1  0.62294271  0.37238749  0.12677195  1
  Fe  Fe74  1  0.37763151  0.87436887  0.12242924  1
  Fe  Fe75  1  0.87436315  0.37432880  0.62534843  1
  Fe  Fe76  1  0.75474516  0.25081589  0.49468572  1
  Fe  Fe77  1  0.37452958  0.12603892  0.87240871  1
  Fe  Fe78  1  0.24967791  -0.00205362  0.50110077  1
  Fe  Fe79  1  0.75028181  0.75269656  0.24822608  1
  Fe  Fe80  1  0.24937817  0.75147850  0.49967071  1
  Fe  Fe81  1  -0.00039079  0.50046371  0.74948301  1
  Fe  Fe82  1  0.49807904  0.24972961  0.00097078  1
  Fe  Fe83  1  0.74722760  -0.00135486  0.25296252  1
  Fe  Fe84  1  0.12559444  0.87303235  0.12343456  1
  Fe  Fe85  1  0.74802592  0.25276647  0.75139259  1
  Fe  Fe86  1  0.00237662  0.50167783  0.00190574  1
  Fe  Fe87  1  0.12424736  0.37557430  0.37505502  1
  Fe  Fe88  1  0.75020683  0.49841193  0.25077408  1
  Fe  Fe89  1  0.50094988  0.00054065  0.49918653  1
  Co  Co90  1  0.37606464  0.87492742  0.62476041  1
  Co  Co91  1  0.37437853  0.37380479  0.12692883  1
  Co  Co92  1  0.24842321  0.49997806  0.74697629  1
  Co  Co93  1  0.87561535  0.12215450  0.37071806  1
  Co  Co94  1  0.50083768  0.74839108  0.50247733  1
  Co  Co95  1  0.87513612  0.87660424  0.12406558  1
  Co  Co96  1  0.37152922  0.12372688  0.37581364  1
  Co  Co97  1  0.87335119  0.62424885  0.12401585  1
  Co  Co98  1  0.62524595  0.37649695  0.87884751  1
  Co  Co99  1  0.87854857  0.37827778  0.37288440  1
  Co  Co100  1  0.62815216  0.12645096  0.37830594  1
  Co  Co101  1  0.24879752  0.24835646  0.74738349  1
  Co  Co102  1  0.62664404  0.12581491  0.12412836  1
  Co  Co103  1  0.25208299  0.75364565  0.25154795  1
  Co  Co104  1  0.25078689  0.50223058  0.00179281  1
  Co  Co105  1  0.87585375  0.87197027  0.62801703  1
  Co  Co106  1  0.25102746  0.24752640  0.00056355  1
  Co  Co107  1  0.87361168  0.12554962  0.87481002  1
  Co  Co108  1  0.12613452  0.62684840  0.37355337  1
  Co  Co109  1  0.50199716  0.49576487  0.74855418  1
  Co  Co110  1  0.62443146  0.87675989  0.87723480  1
  Co  Co111  1  0.50119826  0.74686478  -0.00136430  1
  Co  Co112  1  0.87773740  0.87426272  0.37196591  1
  Co  Co113  1  0.62147870  0.87367127  0.37572374  1
  Co  Co114  1  0.87115744  0.12753495  0.62544387  1
  Co  Co115  1  0.49855721  0.00376265  -0.00095792  1
  Co  Co116  1  0.00135877  0.24958067  0.24988647  1
  Co  Co117  1  0.75025367  0.49794943  0.74910038  1
  Co  Co118  1  0.12286598  0.87963901  0.87635594  1
  Co  Co119  1  -0.00146490  0.74876591  0.49859602  1
  Co  Co120  1  0.75381043  -0.00422067  0.49745053  1
  Co  Co121  1  0.12739725  0.62825666  0.12620786  1
  Co  Co122  1  0.49983502  0.24639196  0.25136562  1
  Co  Co123  1  0.00085737  0.74957069  0.75486886  1
  Co  Co124  1  0.62717149  0.37397299  0.62001470  1
  Co  Co125  1  0.75046581  0.25157985  0.25216004  1
  Co  Co126  1  0.12395728  0.12358925  0.62344593  1
  Co  Co127  1  0.12493422  0.62113074  0.87462565  1
