# generated using pymatgen
data_Fe45Co19
_symmetry_space_group_name_H-M   'P 1'
_cell_length_a   11.41492154
_cell_length_b   11.41465028
_cell_length_c   11.41468071
_cell_angle_alpha   89.99389071
_cell_angle_beta   90.00097572
_cell_angle_gamma   90.00880765
_symmetry_Int_Tables_number   1
_chemical_formula_structural   Fe45Co19
_chemical_formula_sum   'Fe90 Co38'
_cell_volume   1487.30247742
_cell_formula_units_Z   2
loop_
 _symmetry_equiv_pos_site_id
 _symmetry_equiv_pos_as_xyz
  1  'x, y, z'
loop_
 _atom_site_type_symbol
 _atom_site_label
 _atom_site_symmetry_multiplicity
 _atom_site_fract_x
 _atom_site_fract_y
 _atom_site_fract_z
 _atom_site_occupancy
  Fe  Fe0  1  0.37549470  0.87007859  0.37522740  1
  Fe  Fe1  1  0.74693219  0.25312294  0.00226298  1
  Fe  Fe2  1  0.87536746  0.87240768  0.37298215  1
  Fe  Fe3  1  0.37434280  0.62618116  0.87457274  1
  Fe  Fe4  1  0.24705414  0.75070229  0.25002953  1
  Fe  Fe5  1  0.62746164  0.12256759  0.62268241  1
  Fe  Fe6  1  0.74993758  0.74649067  0.24768332  1
  Fe  Fe7  1  0.62371404  0.62465242  0.87695468  1
  Fe  Fe8  1  0.87272691  0.37525481  0.87451959  1
  Fe  Fe9  1  0.00000532  0.50071453  0.75050826  1
  Fe  Fe10  1  0.37877531  0.12968712  0.37257891  1
  Fe  Fe11  1  0.74998268  0.74997394  0.50322635  1
  Fe  Fe12  1  0.62315618  0.12101778  0.12632134  1
  Fe  Fe13  1  -0.00021765  0.50020621  0.25058664  1
  Fe  Fe14  1  0.87562182  0.62378811  0.12188871  1
  Fe  Fe15  1  -0.00152077  0.00413922  0.74943769  1
  Fe  Fe16  1  0.12578791  0.12562830  0.62375339  1
  Fe  Fe17  1  0.00122304  0.24861545  0.75055618  1
  Fe  Fe18  1  0.25222473  0.49768302  0.25407652  1
  Fe  Fe19  1  0.12722190  0.62321027  0.87799652  1
  Fe  Fe20  1  0.74829438  0.74941179  0.00119381  1
  Fe  Fe21  1  0.12630858  0.37541623  0.62390172  1
  Fe  Fe22  1  0.62422019  0.38329729  0.12951463  1
  Fe  Fe23  1  -0.00133849  0.49755685  0.49983062  1
  Fe  Fe24  1  0.50045405  0.74828341  0.74833805  1
  Fe  Fe25  1  0.87392683  0.62497759  0.87613149  1
  Fe  Fe26  1  0.25090456  -0.00176729  0.49827103  1
  Fe  Fe27  1  0.62034238  0.37710744  0.62670442  1
  Fe  Fe28  1  -0.00032186  0.25016340  0.49924415  1
  Fe  Fe29  1  0.37355157  0.12362341  0.87792570  1
  Fe  Fe30  1  0.62380164  0.87344598  0.87387858  1
  Fe  Fe31  1  0.74916459  -0.00204719  0.00129635  1
  Fe  Fe32  1  0.00114884  0.75144157  0.50119147  1
  Fe  Fe33  1  0.87331167  0.12589568  0.12540981  1
  Fe  Fe34  1  0.25254917  0.49988790  0.74764371  1
  Fe  Fe35  1  0.74876471  -0.00155588  0.25115321  1
  Fe  Fe36  1  0.12644144  0.12426173  0.12404057  1
  Fe  Fe37  1  0.00179293  0.25252439  0.00084934  1
  Fe  Fe38  1  0.87266999  0.87562422  0.62823494  1
  Fe  Fe39  1  0.25223730  -0.00115153  0.24970202  1
  Fe  Fe40  1  0.62497826  0.12543378  0.87734833  1
  Fe  Fe41  1  0.12283442  0.87549718  0.37415988  1
  Fe  Fe42  1  0.87239627  0.62386305  0.37865375  1
  Fe  Fe43  1  0.50132442  -0.00024890  0.49644388  1
  Fe  Fe44  1  0.62626720  0.87257596  0.37522016  1
  Fe  Fe45  1  0.37491501  0.62692463  0.12602527  1
  Fe  Fe46  1  0.37771079  0.37509910  0.87291865  1
  Fe  Fe47  1  0.62634210  0.87704628  0.62623291  1
  Fe  Fe48  1  0.12618378  0.87632169  0.87427113  1
  Fe  Fe49  1  0.12586059  0.12595634  0.37500709  1
  Fe  Fe50  1  0.37582220  0.37528362  0.12915982  1
  Fe  Fe51  1  0.37303658  0.62794562  0.61937341  1
  Fe  Fe52  1  0.24930957  0.75066580  0.74703141  1
  Fe  Fe53  1  -0.00147467  0.00163259  0.25046905  1
  Fe  Fe54  1  0.24946378  0.00079360  0.74921383  1
  Fe  Fe55  1  0.12651954  0.62328809  0.62202373  1
  Fe  Fe56  1  0.25170367  0.25325933  0.49744801  1
  Fe  Fe57  1  0.12836721  0.62321617  0.37908484  1
  Fe  Fe58  1  0.24979649  0.25145472  0.00195492  1
  Fe  Fe59  1  0.37535214  0.12582043  0.62290388  1
  Fe  Fe60  1  0.37620579  0.87458563  0.62423359  1
  Fe  Fe61  1  0.37743436  0.12223385  0.12597624  1
  Fe  Fe62  1  0.12156735  0.87368728  0.12652915  1
  Fe  Fe63  1  0.87361676  0.12712286  0.87701844  1
  Fe  Fe64  1  0.62472465  0.62384381  0.62143124  1
  Fe  Fe65  1  0.61948766  0.87340662  0.12505657  1
  Fe  Fe66  1  0.74780021  0.24919724  0.74883575  1
  Fe  Fe67  1  0.87283714  0.87347125  0.87357138  1
  Fe  Fe68  1  0.49672412  0.50189196  0.49344338  1
  Fe  Fe69  1  0.25104291  0.25052727  0.75070048  1
  Fe  Fe70  1  0.00227277  0.25204394  0.24995201  1
  Fe  Fe71  1  0.50113145  0.25133344  0.00235318  1
  Fe  Fe72  1  0.62231281  0.37717710  0.87213769  1
  Fe  Fe73  1  0.49783724  0.50158993  0.00070349  1
  Fe  Fe74  1  0.87492256  0.37454883  0.62522639  1
  Fe  Fe75  1  0.25293652  0.75462614  0.00088265  1
  Fe  Fe76  1  0.87415212  0.37686318  0.12563673  1
  Fe  Fe77  1  0.87182245  0.12687558  0.37513943  1
  Fe  Fe78  1  0.50221320  0.74390480  0.25343686  1
  Fe  Fe79  1  0.74974759  0.50237203  0.74780772  1
  Fe  Fe80  1  0.00071758  0.74823554  0.74977595  1
  Fe  Fe81  1  0.00006970  -0.00043461  -0.00021211  1
  Fe  Fe82  1  0.37934404  0.37367658  0.62556060  1
  Fe  Fe83  1  0.87781212  0.87255154  0.12621571  1
  Fe  Fe84  1  0.74676299  0.25261684  0.25135482  1
  Fe  Fe85  1  -0.00306766  0.00036475  0.50079729  1
  Fe  Fe86  1  0.12724296  0.37735527  0.87703536  1
  Fe  Fe87  1  0.12523092  0.62232493  0.12150437  1
  Fe  Fe88  1  0.50059993  0.00278984  0.75125493  1
  Fe  Fe89  1  0.74617729  0.25393528  0.49767986  1
  Co  Co90  1  0.25543588  0.49373168  0.49840899  1
  Co  Co91  1  0.36931211  0.63090420  0.37837947  1
  Co  Co92  1  0.62144822  0.37921328  0.37096120  1
  Co  Co93  1  0.50371577  0.24947409  0.50093043  1
  Co  Co94  1  0.37558858  0.87536992  0.87094060  1
  Co  Co95  1  0.24540892  0.75555722  0.50179736  1
  Co  Co96  1  0.49815957  0.50525167  0.74860700  1
  Co  Co97  1  0.49730144  0.74868044  -0.00140315  1
  Co  Co98  1  0.87178676  0.12685034  0.62315533  1
  Co  Co99  1  0.49994515  0.24455201  0.75000047  1
  Co  Co100  1  0.75013279  0.00299993  0.75286198  1
  Co  Co101  1  0.75087078  -0.00162332  0.49640511  1
  Co  Co102  1  0.74938985  0.49960952  -0.00167970  1
  Co  Co103  1  0.25526044  0.49927298  0.00037641  1
  Co  Co104  1  0.12473333  0.37504244  0.37480610  1
  Co  Co105  1  0.87481463  0.37491543  0.37437330  1
  Co  Co106  1  0.00085588  0.74376299  0.25167570  1
  Co  Co107  1  0.12700169  0.12438223  0.87652265  1
  Co  Co108  1  0.49538729  0.50719998  0.25476726  1
  Co  Co109  1  0.87606632  0.62469827  0.62327852  1
  Co  Co110  1  0.74802629  0.74532293  0.74862001  1
  Co  Co111  1  -0.00172939  0.49775390  -0.00093867  1
  Co  Co112  1  0.62384561  0.62234082  0.12396774  1
  Co  Co113  1  0.25088607  -0.00509717  0.00409685  1
  Co  Co114  1  0.24805680  0.24981311  0.24898833  1
  Co  Co115  1  0.12654102  0.37827467  0.12490909  1
  Co  Co116  1  0.38078182  0.87378216  0.12905218  1
  Co  Co117  1  0.50482902  0.24952712  0.24642334  1
  Co  Co118  1  0.00068410  0.74998366  -0.00152397  1
  Co  Co119  1  0.49894771  -0.00197689  -0.00213564  1
  Co  Co120  1  0.75323023  0.50247747  0.25115724  1
  Co  Co121  1  0.74915883  0.49575664  0.50202264  1
  Co  Co122  1  0.50043442  -0.00157872  0.25544984  1
  Co  Co123  1  0.12320810  0.87777710  0.62629323  1
  Co  Co124  1  0.62511992  0.12566429  0.37350011  1
  Co  Co125  1  0.50301489  0.74984581  0.49940245  1
  Co  Co126  1  0.38027943  0.36882474  0.37083581  1
  Co  Co127  1  0.63016439  0.62259615  0.37643031  1
