# generated using pymatgen
data_Fe45Co19
_symmetry_space_group_name_H-M   'P 1'
_cell_length_a   11.41498037
_cell_length_b   11.41601590
_cell_length_c   11.41444134
_cell_angle_alpha   90.00300433
_cell_angle_beta   89.99912195
_cell_angle_gamma   90.00262853
_symmetry_Int_Tables_number   1
_chemical_formula_structural   Fe45Co19
_chemical_formula_sum   'Fe90 Co38'
_cell_volume   1487.45690892
_cell_formula_units_Z   2
loop_
 _symmetry_equiv_pos_site_id
 _symmetry_equiv_pos_as_xyz
  1  'x, y, z'
loop_
 _atom_site_type_symbol
 _atom_site_label
 _atom_site_symmetry_multiplicity
 _atom_site_fract_x
 _atom_site_fract_y
 _atom_site_fract_z
 _atom_site_occupancy
  Fe  Fe0  1  0.37840109  0.37734960  0.12505145  1
  Fe  Fe1  1  0.49877880  0.50274747  -0.00245771  1
  Fe  Fe2  1  0.62661704  0.12135375  0.62374305  1
  Fe  Fe3  1  0.87322610  0.87549267  0.62718856  1
  Fe  Fe4  1  0.25127205  0.75119831  0.50352450  1
  Fe  Fe5  1  -0.00143437  0.74866134  -0.00025914  1
  Fe  Fe6  1  0.37419492  0.12419836  0.87610932  1
  Fe  Fe7  1  0.37219028  0.12715671  0.37215830  1
  Fe  Fe8  1  0.12441525  0.37619059  0.62398159  1
  Fe  Fe9  1  0.62617500  0.12521934  0.87635366  1
  Fe  Fe10  1  0.87210255  0.62689349  0.62379872  1
  Fe  Fe11  1  0.87412416  0.87280088  0.87164939  1
  Fe  Fe12  1  0.62672879  0.87304184  0.87469144  1
  Fe  Fe13  1  0.87566053  0.87338562  0.12879242  1
  Fe  Fe14  1  0.25234988  0.49937492  -0.00171895  1
  Fe  Fe15  1  0.25210813  0.50126243  0.50213347  1
  Fe  Fe16  1  0.74830599  0.24946179  0.74961995  1
  Fe  Fe17  1  0.50494429  0.74867154  0.74540893  1
  Fe  Fe18  1  0.12781981  0.62411808  0.12449801  1
  Fe  Fe19  1  0.74847189  0.25233851  0.49837270  1
  Fe  Fe20  1  0.12639542  0.37501102  0.87427997  1
  Fe  Fe21  1  0.87342741  0.12467100  0.12704691  1
  Fe  Fe22  1  0.00176812  0.00090079  0.25111310  1
  Fe  Fe23  1  -0.00032127  0.50208106  0.25124257  1
  Fe  Fe24  1  0.12389477  0.37577284  0.12590355  1
  Fe  Fe25  1  0.62313177  0.37846491  0.62056976  1
  Fe  Fe26  1  0.74998628  -0.00458694  0.00085260  1
  Fe  Fe27  1  0.12640446  0.12321775  0.87782810  1
  Fe  Fe28  1  0.25039771  -0.00320431  0.00838838  1
  Fe  Fe29  1  -0.00028462  0.24820393  0.75060709  1
  Fe  Fe30  1  0.50009501  0.24730683  0.74805901  1
  Fe  Fe31  1  0.37677611  0.37154665  0.37725910  1
  Fe  Fe32  1  0.37662874  0.87624461  0.62667905  1
  Fe  Fe33  1  0.00135488  -0.00047830  0.75077528  1
  Fe  Fe34  1  0.37700683  0.37308328  0.62374702  1
  Fe  Fe35  1  0.00074387  -0.00123155  0.00187084  1
  Fe  Fe36  1  0.00049438  0.24825421  0.49849471  1
  Fe  Fe37  1  0.37428067  0.87385349  0.87298223  1
  Fe  Fe38  1  0.62519426  0.62539117  0.38468852  1
  Fe  Fe39  1  0.25216875  0.25013027  0.00304903  1
  Fe  Fe40  1  0.00013876  0.75074508  0.50093529  1
  Fe  Fe41  1  0.62397268  0.37682527  0.12632099  1
  Fe  Fe42  1  0.12650527  0.12276056  0.62453931  1
  Fe  Fe43  1  0.87308630  0.12422022  0.87518588  1
  Fe  Fe44  1  -0.00185073  0.25075774  0.00066596  1
  Fe  Fe45  1  0.87282707  0.37338069  0.37126142  1
  Fe  Fe46  1  0.49854000  0.00124163  0.49865731  1
  Fe  Fe47  1  0.25134919  0.75068072  0.24740842  1
  Fe  Fe48  1  0.25391546  0.75274780  0.00367791  1
  Fe  Fe49  1  0.00105881  0.74661143  0.25006109  1
  Fe  Fe50  1  0.49978483  0.50194275  0.74880219  1
  Fe  Fe51  1  0.62728618  0.12588552  0.37577918  1
  Fe  Fe52  1  0.50185275  0.00138461  0.75129837  1
  Fe  Fe53  1  0.74717431  0.50088233  0.25154418  1
  Fe  Fe54  1  0.74899014  0.50259425  0.74966218  1
  Fe  Fe55  1  0.00026622  0.50184995  0.75062573  1
  Fe  Fe56  1  0.37603261  0.62829400  0.37711172  1
  Fe  Fe57  1  0.12950334  0.12648729  0.37179056  1
  Fe  Fe58  1  0.25155582  -0.00051804  0.49776632  1
  Fe  Fe59  1  0.00458926  0.75101498  0.74923888  1
  Fe  Fe60  1  0.37986726  0.87387484  0.36987649  1
  Fe  Fe61  1  0.12669127  0.37456932  0.37562623  1
  Fe  Fe62  1  0.49942032  -0.00240654  0.00069720  1
  Fe  Fe63  1  0.49927132  0.24914470  0.00023020  1
  Fe  Fe64  1  0.87191491  0.62835053  0.37703129  1
  Fe  Fe65  1  0.75062091  0.25297195  0.00224116  1
  Fe  Fe66  1  0.87328072  0.37728786  0.87519567  1
  Fe  Fe67  1  -0.00111975  0.00066236  0.49687852  1
  Fe  Fe68  1  0.37228674  0.62673115  0.86992897  1
  Fe  Fe69  1  0.62784910  0.62686655  0.87768575  1
  Fe  Fe70  1  0.24757100  -0.00257971  0.75056929  1
  Fe  Fe71  1  0.74698128  -0.00338101  0.25162939  1
  Fe  Fe72  1  0.74536407  0.75231509  0.25248207  1
  Fe  Fe73  1  -0.00093240  0.24938299  0.24986840  1
  Fe  Fe74  1  0.75090625  -0.00577155  0.49538348  1
  Fe  Fe75  1  -0.00237668  0.50074055  0.49853082  1
  Fe  Fe76  1  0.25214019  0.50004046  0.25129198  1
  Fe  Fe77  1  0.62479003  0.62861585  0.12047516  1
  Fe  Fe78  1  0.62350938  0.37521021  0.87503068  1
  Fe  Fe79  1  0.12871994  0.62636345  0.87258856  1
  Fe  Fe80  1  0.50152682  0.24834091  0.25059087  1
  Fe  Fe81  1  0.62540517  0.12336951  0.12376665  1
  Fe  Fe82  1  0.50043202  0.50423680  0.25286738  1
  Fe  Fe83  1  0.87263829  0.12385392  0.62346713  1
  Fe  Fe84  1  0.25158723  0.24988189  0.74931287  1
  Fe  Fe85  1  0.12638878  0.62573160  0.37744160  1
  Fe  Fe86  1  0.87145783  0.62423825  0.12378635  1
  Fe  Fe87  1  -0.00166264  0.50168169  -0.00058142  1
  Fe  Fe88  1  0.87502422  0.37391201  0.62553654  1
  Fe  Fe89  1  0.12477428  0.87347704  0.37372177  1
  Co  Co90  1  0.24966453  -0.00320073  0.24634478  1
  Co  Co91  1  0.74727115  0.25019358  0.24871446  1
  Co  Co92  1  0.49632043  0.75040785  -0.00288241  1
  Co  Co93  1  0.37650797  0.12410683  0.12592790  1
  Co  Co94  1  0.49418871  0.50153921  0.49938233  1
  Co  Co95  1  0.74922941  0.49848920  -0.00003975  1
  Co  Co96  1  0.61940533  0.87289895  0.12650844  1
  Co  Co97  1  0.87469577  0.37759889  0.12738169  1
  Co  Co98  1  0.24566158  0.75442783  0.74580008  1
  Co  Co99  1  0.12425733  0.87817846  0.62043224  1
  Co  Co100  1  0.25197334  0.25323977  0.24648206  1
  Co  Co101  1  0.74537222  0.74721267  0.74698375  1
  Co  Co102  1  0.24953949  0.24875137  0.50249008  1
  Co  Co103  1  0.87818024  0.87251997  0.37211721  1
  Co  Co104  1  0.12534308  0.62313940  0.62461840  1
  Co  Co105  1  0.74959344  0.00086367  0.75285505  1
  Co  Co106  1  0.38389644  0.87358422  0.13126560  1
  Co  Co107  1  0.50176750  0.00522300  0.25112007  1
  Co  Co108  1  0.37537372  0.62385478  0.12472095  1
  Co  Co109  1  0.12403422  0.12723694  0.12641197  1
  Co  Co110  1  0.62216674  0.37604078  0.37622044  1
  Co  Co111  1  0.87329389  0.62623942  0.87408437  1
  Co  Co112  1  0.37389360  0.12231285  0.62641298  1
  Co  Co113  1  0.12544210  0.87477093  0.87958684  1
  Co  Co114  1  0.12158883  0.87167356  0.12659982  1
  Co  Co115  1  0.62552844  0.88016908  0.62538312  1
  Co  Co116  1  0.75198637  0.75421150  0.00050615  1
  Co  Co117  1  0.74828046  0.75708299  0.50026033  1
  Co  Co118  1  0.62705179  0.62073646  0.61676528  1
  Co  Co119  1  0.50021954  0.75191509  0.50533114  1
  Co  Co120  1  0.37416393  0.62699229  0.62844614  1
  Co  Co121  1  0.50289354  0.74269092  0.25090089  1
  Co  Co122  1  0.87214029  0.12607692  0.37429866  1
  Co  Co123  1  0.37723282  0.37381299  0.87481116  1
  Co  Co124  1  0.61704108  0.87351100  0.37379386  1
  Co  Co125  1  0.25185996  0.49647027  0.74786379  1
  Co  Co126  1  0.50109569  0.24572073  0.50082583  1
  Co  Co127  1  0.75494313  0.49625498  0.49771385  1
