# generated using pymatgen
data_Fe45Co19
_symmetry_space_group_name_H-M   'P 1'
_cell_length_a   11.41501257
_cell_length_b   11.41475622
_cell_length_c   11.41477206
_cell_angle_alpha   90.00124787
_cell_angle_beta   89.99875968
_cell_angle_gamma   90.00423997
_symmetry_Int_Tables_number   1
_chemical_formula_structural   Fe45Co19
_chemical_formula_sum   'Fe90 Co38'
_cell_volume   1487.34006585
_cell_formula_units_Z   2
loop_
 _symmetry_equiv_pos_site_id
 _symmetry_equiv_pos_as_xyz
  1  'x, y, z'
loop_
 _atom_site_type_symbol
 _atom_site_label
 _atom_site_symmetry_multiplicity
 _atom_site_fract_x
 _atom_site_fract_y
 _atom_site_fract_z
 _atom_site_occupancy
  Fe  Fe0  1  0.37333989  0.87858630  0.62589164  1
  Fe  Fe1  1  0.49585857  0.25085872  0.00739719  1
  Fe  Fe2  1  0.87697987  0.12220616  0.62878551  1
  Fe  Fe3  1  0.12522478  0.87476774  0.62154023  1
  Fe  Fe4  1  0.50010804  0.75107106  0.50254006  1
  Fe  Fe5  1  0.12522306  0.62589605  0.62532329  1
  Fe  Fe6  1  0.87881959  0.37209238  0.37188259  1
  Fe  Fe7  1  0.74904859  0.75158362  0.24900427  1
  Fe  Fe8  1  0.12454192  0.62598836  0.12403047  1
  Fe  Fe9  1  0.25197601  0.74973232  0.49980839  1
  Fe  Fe10  1  0.12877094  0.87377080  0.12181978  1
  Fe  Fe11  1  0.00231370  0.49759940  0.75235051  1
  Fe  Fe12  1  0.49897083  0.00074561  0.24870642  1
  Fe  Fe13  1  0.49747179  0.75001357  0.00089514  1
  Fe  Fe14  1  0.00056671  0.24984448  0.00311092  1
  Fe  Fe15  1  0.00058813  -0.00063574  0.49626559  1
  Fe  Fe16  1  0.24766743  0.00011014  0.75310369  1
  Fe  Fe17  1  0.37508956  0.87292569  0.37414849  1
  Fe  Fe18  1  0.12391994  0.87185184  0.88016225  1
  Fe  Fe19  1  0.62645044  0.12516716  0.12407484  1
  Fe  Fe20  1  0.00028528  0.50195750  -0.00100479  1
  Fe  Fe21  1  0.75179935  0.24802680  0.49928186  1
  Fe  Fe22  1  0.12473526  0.37432900  0.62330863  1
  Fe  Fe23  1  0.74956804  0.75266184  0.75129906  1
  Fe  Fe24  1  0.12653163  0.37694535  0.12424957  1
  Fe  Fe25  1  0.87551395  0.37597523  0.12779738  1
  Fe  Fe26  1  0.62287556  0.37141898  0.87527980  1
  Fe  Fe27  1  0.49481872  0.00250073  0.00070034  1
  Fe  Fe28  1  0.87270584  0.87966667  0.62575777  1
  Fe  Fe29  1  -0.00040190  0.49952626  0.49895664  1
  Fe  Fe30  1  0.87549646  0.12381421  0.12565766  1
  Fe  Fe31  1  0.24836316  -0.00009897  0.49568577  1
  Fe  Fe32  1  0.49929307  0.49794700  0.50138100  1
  Fe  Fe33  1  0.87472760  0.87642039  0.12430576  1
  Fe  Fe34  1  0.87432452  0.62295748  0.62678258  1
  Fe  Fe35  1  0.62648204  0.62370376  0.12392879  1
  Fe  Fe36  1  0.87574026  0.62632169  0.87352976  1
  Fe  Fe37  1  0.75223682  0.75047162  -0.00009029  1
  Fe  Fe38  1  0.12348134  0.62973780  0.37714223  1
  Fe  Fe39  1  0.75030472  0.49750347  0.49902153  1
  Fe  Fe40  1  0.75161483  0.24850347  -0.00077749  1
  Fe  Fe41  1  0.62741236  0.62446997  0.62563178  1
  Fe  Fe42  1  0.50008711  0.75311250  0.74816338  1
  Fe  Fe43  1  0.49957404  0.00268304  0.50154200  1
  Fe  Fe44  1  0.37445659  0.62645547  0.87174796  1
  Fe  Fe45  1  0.25254718  0.25110827  0.50074637  1
  Fe  Fe46  1  0.12727503  0.12241533  0.12438462  1
  Fe  Fe47  1  0.49922862  0.49730476  0.00226875  1
  Fe  Fe48  1  0.87629924  0.62639323  0.37360765  1
  Fe  Fe49  1  0.75338790  0.00244875  -0.00553330  1
  Fe  Fe50  1  0.74940827  0.49922719  0.25052114  1
  Fe  Fe51  1  0.24794269  0.24925749  0.74969933  1
  Fe  Fe52  1  0.75045606  0.49887444  -0.00151263  1
  Fe  Fe53  1  0.37581098  0.12735342  0.37424398  1
  Fe  Fe54  1  0.62628918  0.37262295  0.62595366  1
  Fe  Fe55  1  0.62877815  0.88176178  0.62569285  1
  Fe  Fe56  1  0.24726905  0.49835215  0.75237562  1
  Fe  Fe57  1  0.37386899  0.87594160  0.87558264  1
  Fe  Fe58  1  0.24826958  0.50246183  0.25319455  1
  Fe  Fe59  1  0.24890705  -0.00218232  0.25237284  1
  Fe  Fe60  1  0.62633221  0.87627868  0.37655772  1
  Fe  Fe61  1  0.62503201  0.62483166  0.87477570  1
  Fe  Fe62  1  0.00004659  0.75112502  0.24798761  1
  Fe  Fe63  1  0.12065399  0.12576124  0.87559450  1
  Fe  Fe64  1  0.25073148  0.49908004  0.49837416  1
  Fe  Fe65  1  0.37439847  0.37219957  0.87425719  1
  Fe  Fe66  1  0.37428938  0.62424193  0.12701515  1
  Fe  Fe67  1  0.62447365  0.87719206  0.12299107  1
  Fe  Fe68  1  0.87907565  0.12639040  0.37223664  1
  Fe  Fe69  1  0.62252306  0.12851156  0.37523354  1
  Fe  Fe70  1  0.62343812  0.62474059  0.37564605  1
  Fe  Fe71  1  0.87464223  0.37477095  0.62693998  1
  Fe  Fe72  1  0.00098879  0.75269442  0.74893061  1
  Fe  Fe73  1  0.24916852  0.50294499  -0.00367871  1
  Fe  Fe74  1  0.50125725  0.49935713  0.74915715  1
  Fe  Fe75  1  0.12148044  0.37068254  0.37463032  1
  Fe  Fe76  1  0.74955109  0.00093032  0.25224381  1
  Fe  Fe77  1  0.24947432  0.24936970  0.24878791  1
  Fe  Fe78  1  0.37827433  0.37476278  0.37176022  1
  Fe  Fe79  1  0.37331215  0.62387972  0.62645055  1
  Fe  Fe80  1  0.75215915  0.75152505  0.49964886  1
  Fe  Fe81  1  0.12425557  0.12450544  0.62318644  1
  Fe  Fe82  1  0.74989020  0.24481858  0.75274245  1
  Fe  Fe83  1  0.62353243  0.87809121  0.87574791  1
  Fe  Fe84  1  0.00371462  -0.00072177  0.25083558  1
  Fe  Fe85  1  0.25133353  0.24755962  0.00037596  1
  Fe  Fe86  1  0.87709616  0.37252347  0.87404447  1
  Fe  Fe87  1  0.49847683  0.24418456  0.74473040  1
  Fe  Fe88  1  0.62148402  0.37119132  0.37183781  1
  Fe  Fe89  1  0.49942531  0.75004831  0.24880589  1
  Co  Co90  1  0.50058281  0.50001246  0.24684737  1
  Co  Co91  1  -0.00369956  0.75096728  0.50242254  1
  Co  Co92  1  0.75287752  0.00350268  0.49514189  1
  Co  Co93  1  0.49945717  0.00243688  0.74918091  1
  Co  Co94  1  0.87397532  0.62351638  0.12696194  1
  Co  Co95  1  0.61980391  0.12699155  0.87887584  1
  Co  Co96  1  0.74938649  0.00364792  0.75752506  1
  Co  Co97  1  0.36830049  0.37861682  0.12611924  1
  Co  Co98  1  0.00277536  0.50061158  0.25090555  1
  Co  Co99  1  0.37326234  0.87586827  0.12464882  1
  Co  Co100  1  0.62905205  0.37482496  0.12589086  1
  Co  Co101  1  0.00268062  0.25261422  0.74820361  1
  Co  Co102  1  0.49825818  0.24949949  0.24232534  1
  Co  Co103  1  0.62834314  0.12161733  0.62301813  1
  Co  Co104  1  0.37346143  0.37637020  0.62769529  1
  Co  Co105  1  0.74842866  0.49794588  0.75242950  1
  Co  Co106  1  0.25071972  0.00165125  -0.00322548  1
  Co  Co107  1  0.87574694  0.87462291  0.37275046  1
  Co  Co108  1  0.37684860  0.62497330  0.37635441  1
  Co  Co109  1  0.25275334  0.74727283  0.00022656  1
  Co  Co110  1  0.87704209  0.87463615  0.87586216  1
  Co  Co111  1  0.88283495  0.12601117  0.87305735  1
  Co  Co112  1  -0.00188210  0.24901191  0.50243517  1
  Co  Co113  1  0.37522423  0.12701336  0.87394443  1
  Co  Co114  1  0.12364005  0.62939543  0.87337973  1
  Co  Co115  1  0.49775795  0.24957078  0.50405374  1
  Co  Co116  1  0.25131638  0.74971696  0.24963352  1
  Co  Co117  1  -0.00233384  0.74840320  0.00207041  1
  Co  Co118  1  0.00392498  -0.00405985  0.75131417  1
  Co  Co119  1  0.37116178  0.12169935  0.12762018  1
  Co  Co120  1  0.12504251  0.12866503  0.37599125  1
  Co  Co121  1  0.00248723  0.24820684  0.24506312  1
  Co  Co122  1  0.75066020  0.24842020  0.25005572  1
  Co  Co123  1  0.00001165  0.00023019  0.00121231  1
  Co  Co124  1  0.12447407  0.87009795  0.37593677  1
  Co  Co125  1  0.36976359  0.12154652  0.62441576  1
  Co  Co126  1  0.24922154  0.75347910  0.74969892  1
  Co  Co127  1  0.12543229  0.37239264  0.87839242  1
