# generated using pymatgen
data_Fe45Co19
_symmetry_space_group_name_H-M   'P 1'
_cell_length_a   11.42374347
_cell_length_b   11.42356513
_cell_length_c   11.42355300
_cell_angle_alpha   90.00402348
_cell_angle_beta   89.99587206
_cell_angle_gamma   90.00286919
_symmetry_Int_Tables_number   1
_chemical_formula_structural   Fe45Co19
_chemical_formula_sum   'Fe90 Co38'
_cell_volume   1490.77225866
_cell_formula_units_Z   2
loop_
 _symmetry_equiv_pos_site_id
 _symmetry_equiv_pos_as_xyz
  1  'x, y, z'
loop_
 _atom_site_type_symbol
 _atom_site_label
 _atom_site_symmetry_multiplicity
 _atom_site_fract_x
 _atom_site_fract_y
 _atom_site_fract_z
 _atom_site_occupancy
  Fe  Fe0  1  0.87496576  0.87571517  0.12363229  1
  Fe  Fe1  1  0.00060720  0.24855430  0.24980778  1
  Fe  Fe2  1  0.74621678  0.24538928  0.50087442  1
  Fe  Fe3  1  0.87440089  0.37420234  0.12604493  1
  Fe  Fe4  1  0.75103445  0.00075319  0.00007414  1
  Fe  Fe5  1  0.12679274  0.87524862  0.12343424  1
  Fe  Fe6  1  0.75045247  0.75178857  0.50022344  1
  Fe  Fe7  1  0.74705077  0.24958289  0.00429699  1
  Fe  Fe8  1  0.25067181  0.25072331  0.25037714  1
  Fe  Fe9  1  0.25167735  0.75138617  0.49727825  1
  Fe  Fe10  1  0.49905940  0.25059333  0.74360698  1
  Fe  Fe11  1  -0.00155321  0.49951996  0.74931377  1
  Fe  Fe12  1  0.62513353  0.62706794  0.62472255  1
  Fe  Fe13  1  0.00100128  0.50159517  0.24778610  1
  Fe  Fe14  1  0.25120807  0.24834394  0.74892040  1
  Fe  Fe15  1  0.12559363  0.12474749  0.87658118  1
  Fe  Fe16  1  0.87765137  0.62570867  0.87857018  1
  Fe  Fe17  1  0.12404849  0.87425730  0.37437972  1
  Fe  Fe18  1  0.50014610  -0.00149990  0.24776215  1
  Fe  Fe19  1  0.24987908  0.50083003  0.75124090  1
  Fe  Fe20  1  0.37900779  0.37482984  0.37660941  1
  Fe  Fe21  1  0.75069283  0.75061157  0.75170349  1
  Fe  Fe22  1  -0.00088663  0.00203064  0.75192372  1
  Fe  Fe23  1  0.00127848  0.24795256  0.50011964  1
  Fe  Fe24  1  0.37512153  0.62529905  0.12688702  1
  Fe  Fe25  1  0.25182461  0.74986154  0.25355114  1
  Fe  Fe26  1  -0.00176454  0.75020249  0.49953011  1
  Fe  Fe27  1  0.62493104  0.62750443  0.12428332  1
  Fe  Fe28  1  -0.00095316  0.50043333  0.49995675  1
  Fe  Fe29  1  0.87288178  0.37376594  0.62396346  1
  Fe  Fe30  1  0.75004075  0.00127994  0.25038741  1
  Fe  Fe31  1  0.49744878  0.00129030  0.00162811  1
  Fe  Fe32  1  0.74822663  0.75186973  0.24813458  1
  Fe  Fe33  1  0.75028470  0.00047155  0.75180395  1
  Fe  Fe34  1  0.12644558  0.87689216  0.62521330  1
  Fe  Fe35  1  0.12491563  0.62637827  0.62468654  1
  Fe  Fe36  1  0.25134816  0.24837657  0.49904053  1
  Fe  Fe37  1  0.62247798  0.12659273  0.87560682  1
  Fe  Fe38  1  0.25251398  0.00189628  -0.00103632  1
  Fe  Fe39  1  0.24984067  0.50045646  0.49787257  1
  Fe  Fe40  1  0.62441749  0.87523429  0.37342886  1
  Fe  Fe41  1  0.50120587  0.49722690  0.74645920  1
  Fe  Fe42  1  0.50361865  0.24909294  0.24661078  1
  Fe  Fe43  1  0.12406090  0.37485356  0.37481721  1
  Fe  Fe44  1  0.74994609  0.24735542  0.74830772  1
  Fe  Fe45  1  0.87456975  0.87745068  0.62499394  1
  Fe  Fe46  1  0.37694255  0.37572944  0.12631052  1
  Fe  Fe47  1  0.25297015  0.24922468  0.00162047  1
  Fe  Fe48  1  0.50099484  0.00133900  0.49954867  1
  Fe  Fe49  1  0.12593953  0.37507164  0.62531324  1
  Fe  Fe50  1  0.74996803  0.00026021  0.49775165  1
  Fe  Fe51  1  0.87347710  0.37188422  0.37438507  1
  Fe  Fe52  1  0.25194927  0.74980292  0.75215602  1
  Fe  Fe53  1  0.50014626  0.49964619  0.00029107  1
  Fe  Fe54  1  0.62254963  0.62644389  0.87552484  1
  Fe  Fe55  1  0.62426189  0.87548427  0.62575943  1
  Fe  Fe56  1  0.75045512  0.50129065  0.75022675  1
  Fe  Fe57  1  0.25254057  0.74720386  -0.00377712  1
  Fe  Fe58  1  0.25010022  0.50050783  -0.00144398  1
  Fe  Fe59  1  0.25092389  -0.00015073  0.25210435  1
  Fe  Fe60  1  -0.00086577  0.24792692  0.00128229  1
  Fe  Fe61  1  0.37582561  0.62391340  0.62412231  1
  Fe  Fe62  1  0.49775747  -0.00042770  0.75129952  1
  Fe  Fe63  1  -0.00123643  0.75014291  0.74961574  1
  Fe  Fe64  1  -0.00102716  0.00095156  0.25069600  1
  Fe  Fe65  1  0.62448296  0.37297066  0.87511310  1
  Fe  Fe66  1  0.12396929  0.37472107  0.87616056  1
  Fe  Fe67  1  0.12729226  0.12171150  0.62391196  1
  Fe  Fe68  1  0.12618089  0.12372193  0.12596012  1
  Fe  Fe69  1  0.50270711  0.50270452  0.25249484  1
  Fe  Fe70  1  0.74961116  0.50030534  0.00090116  1
  Fe  Fe71  1  0.87361061  0.62616776  0.37318721  1
  Fe  Fe72  1  0.62322263  0.87451214  0.87806228  1
  Fe  Fe73  1  0.37739185  0.12519918  0.37396269  1
  Fe  Fe74  1  0.87680154  0.87491068  0.87768863  1
  Fe  Fe75  1  0.87451302  0.37379719  0.87691573  1
  Fe  Fe76  1  0.37676225  0.37333414  0.87448794  1
  Fe  Fe77  1  0.12526866  0.37481621  0.12408584  1
  Fe  Fe78  1  0.12452361  0.87481246  0.87644190  1
  Fe  Fe79  1  0.37531254  0.87292346  0.12541990  1
  Fe  Fe80  1  0.37319349  0.87834046  0.62390664  1
  Fe  Fe81  1  0.00063022  0.74865785  0.24722645  1
  Fe  Fe82  1  0.74831207  0.49866975  0.24990238  1
  Fe  Fe83  1  0.62355530  0.37320337  0.37714536  1
  Fe  Fe84  1  0.49772981  0.75204220  0.75137856  1
  Fe  Fe85  1  0.74891449  0.50134170  0.49990760  1
  Fe  Fe86  1  0.49905061  0.74948577  0.49643951  1
  Fe  Fe87  1  -0.00109196  0.24782972  0.74916839  1
  Fe  Fe88  1  -0.00124508  0.00124003  0.49632207  1
  Fe  Fe89  1  0.24866229  0.49944986  0.25123269  1
  Co  Co90  1  0.37890874  0.62188555  0.87359621  1
  Co  Co91  1  0.37503985  0.62238079  0.37417975  1
  Co  Co92  1  0.87172094  0.62549210  0.12540077  1
  Co  Co93  1  0.87461018  0.87341754  0.37321199  1
  Co  Co94  1  0.87406907  0.62546502  0.62425995  1
  Co  Co95  1  0.49821120  0.75007014  0.00051111  1
  Co  Co96  1  0.12968798  0.62598435  0.12458648  1
  Co  Co97  1  0.87283711  0.12875182  0.37357101  1
  Co  Co98  1  0.50254507  0.50087615  0.50089975  1
  Co  Co99  1  0.12398289  0.62579357  0.37511649  1
  Co  Co100  1  0.87432548  0.12539329  0.12698662  1
  Co  Co101  1  0.62296350  0.12419665  0.37301972  1
  Co  Co102  1  0.12601558  0.12552843  0.37298313  1
  Co  Co103  1  0.87290740  0.12665795  0.87683212  1
  Co  Co104  1  0.62539882  0.12158020  0.12445379  1
  Co  Co105  1  0.37788106  0.87776179  0.37427622  1
  Co  Co106  1  0.37251691  0.12015667  0.62389359  1
  Co  Co107  1  0.87464011  0.12289134  0.62346594  1
  Co  Co108  1  0.62316936  0.37844691  0.12451114  1
  Co  Co109  1  0.37764224  0.12818081  0.87420869  1
  Co  Co110  1  0.24946010  -0.00069638  0.49469626  1
  Co  Co111  1  0.50084563  0.74998066  0.25118263  1
  Co  Co112  1  0.37225619  0.37696360  0.62248565  1
  Co  Co113  1  0.00081697  0.74962082  0.00385517  1
  Co  Co114  1  0.12171346  0.62464379  0.87453665  1
  Co  Co115  1  0.00021313  0.50006688  0.00368373  1
  Co  Co116  1  0.62487521  0.87552370  0.12352291  1
  Co  Co117  1  0.74526169  0.25082730  0.24719752  1
  Co  Co118  1  0.62895278  0.37579347  0.62393914  1
  Co  Co119  1  0.74959868  0.75066963  -0.00093941  1
  Co  Co120  1  0.25038892  0.00000005  0.75429968  1
  Co  Co121  1  0.62815993  0.62713091  0.37520901  1
  Co  Co122  1  0.62505117  0.12043496  0.62709990  1
  Co  Co123  1  0.49998743  0.24999307  0.00376398  1
  Co  Co124  1  0.37568480  0.87629993  0.87658780  1
  Co  Co125  1  0.37496125  0.12552098  0.12780067  1
  Co  Co126  1  0.50040129  0.24792945  0.50487250  1
  Co  Co127  1  -0.00026985  0.00155500  0.00062062  1
