# generated using pymatgen
data_Fe45Co19
_symmetry_space_group_name_H-M   'P 1'
_cell_length_a   11.41471869
_cell_length_b   11.41408368
_cell_length_c   11.41592401
_cell_angle_alpha   89.99426658
_cell_angle_beta   89.99109664
_cell_angle_gamma   90.01238662
_symmetry_Int_Tables_number   1
_chemical_formula_structural   Fe45Co19
_chemical_formula_sum   'Fe90 Co38'
_cell_volume   1487.36417486
_cell_formula_units_Z   2
loop_
 _symmetry_equiv_pos_site_id
 _symmetry_equiv_pos_as_xyz
  1  'x, y, z'
loop_
 _atom_site_type_symbol
 _atom_site_label
 _atom_site_symmetry_multiplicity
 _atom_site_fract_x
 _atom_site_fract_y
 _atom_site_fract_z
 _atom_site_occupancy
  Fe  Fe0  1  0.87653100  0.87548260  0.87475419  1
  Fe  Fe1  1  0.12505825  0.12624594  0.87399767  1
  Fe  Fe2  1  0.37187126  0.12546267  0.37329792  1
  Fe  Fe3  1  0.12434444  0.12651915  0.37497848  1
  Fe  Fe4  1  0.75087643  0.75123968  0.74906424  1
  Fe  Fe5  1  0.25089219  0.25011214  0.00018493  1
  Fe  Fe6  1  0.37831356  0.37206872  0.12451994  1
  Fe  Fe7  1  -0.00066777  0.00215301  0.50066438  1
  Fe  Fe8  1  0.62142409  0.37221319  0.62105418  1
  Fe  Fe9  1  0.12611175  0.87560046  0.37614896  1
  Fe  Fe10  1  0.24814509  0.25251529  0.24870291  1
  Fe  Fe11  1  0.62561322  0.87635605  0.62341888  1
  Fe  Fe12  1  0.62319898  0.12605798  0.62582551  1
  Fe  Fe13  1  0.24985342  0.24998099  0.50156386  1
  Fe  Fe14  1  0.37571949  0.62684760  0.87490969  1
  Fe  Fe15  1  0.37590045  0.62976646  0.37178621  1
  Fe  Fe16  1  0.37595923  0.87405104  0.12478521  1
  Fe  Fe17  1  0.49984105  0.75076174  0.75039025  1
  Fe  Fe18  1  0.12487071  0.87707302  0.62488010  1
  Fe  Fe19  1  -0.00208997  0.00338262  -0.00082034  1
  Fe  Fe20  1  0.50122367  0.00620310  0.00149218  1
  Fe  Fe21  1  0.75008999  0.50033427  -0.00069942  1
  Fe  Fe22  1  0.87429446  0.12694773  0.87185178  1
  Fe  Fe23  1  0.12561895  0.62538145  0.37336992  1
  Fe  Fe24  1  0.62228259  0.87335446  0.37736009  1
  Fe  Fe25  1  -0.00069605  0.49759177  0.24863467  1
  Fe  Fe26  1  0.37600991  0.37344082  0.37604093  1
  Fe  Fe27  1  0.62538426  0.62541938  0.62563448  1
  Fe  Fe28  1  0.62907991  0.12864682  0.37068484  1
  Fe  Fe29  1  0.25245521  0.75123279  0.49952553  1
  Fe  Fe30  1  0.25114854  -0.00005419  -0.00136158  1
  Fe  Fe31  1  0.37723375  0.37261605  0.87612049  1
  Fe  Fe32  1  0.25036436  -0.00286262  0.25051997  1
  Fe  Fe33  1  0.49852883  0.00016894  0.75097313  1
  Fe  Fe34  1  0.74939265  0.49805853  0.74898534  1
  Fe  Fe35  1  0.62236504  0.37117254  0.12525896  1
  Fe  Fe36  1  0.62353153  0.87672122  0.87688477  1
  Fe  Fe37  1  0.00366350  0.74995363  0.24743779  1
  Fe  Fe38  1  0.87464919  0.62254562  0.87167078  1
  Fe  Fe39  1  0.75043845  -0.00120139  0.75129984  1
  Fe  Fe40  1  0.87406643  0.62509270  0.12683856  1
  Fe  Fe41  1  0.62390906  0.37379435  0.87586802  1
  Fe  Fe42  1  0.74812891  0.75169591  0.25039504  1
  Fe  Fe43  1  0.37533907  0.87579719  0.62388626  1
  Fe  Fe44  1  0.87568211  0.37221839  0.12139458  1
  Fe  Fe45  1  0.62645818  0.87749776  0.12223196  1
  Fe  Fe46  1  0.75232482  0.00329384  0.49811461  1
  Fe  Fe47  1  0.37599432  0.12661162  0.87388904  1
  Fe  Fe48  1  0.49800699  0.50268235  0.50103537  1
  Fe  Fe49  1  0.24968940  0.49919829  0.24896529  1
  Fe  Fe50  1  0.24865502  0.25439216  0.74961797  1
  Fe  Fe51  1  0.12424495  0.12583575  0.62627609  1
  Fe  Fe52  1  0.87571709  0.87464350  0.37603045  1
  Fe  Fe53  1  0.87405711  0.87577782  0.12393446  1
  Fe  Fe54  1  0.49992815  0.50166829  -0.00079350  1
  Fe  Fe55  1  0.75206376  0.74852021  0.50225639  1
  Fe  Fe56  1  0.12349845  0.87680549  0.87600344  1
  Fe  Fe57  1  0.87656722  0.12421587  0.62790295  1
  Fe  Fe58  1  0.24946099  0.75151583  0.75176754  1
  Fe  Fe59  1  0.12583136  0.62264459  0.62654966  1
  Fe  Fe60  1  0.62601804  0.62424136  0.12502287  1
  Fe  Fe61  1  0.00183991  0.74748853  0.00209708  1
  Fe  Fe62  1  -0.00003391  0.50184333  0.50105633  1
  Fe  Fe63  1  0.49814760  0.00239555  0.49794453  1
  Fe  Fe64  1  0.00258991  0.25685719  0.75242659  1
  Fe  Fe65  1  0.74893280  0.74897123  -0.00239273  1
  Fe  Fe66  1  0.12211730  0.37352493  0.37729175  1
  Fe  Fe67  1  0.12603807  0.12439046  0.12519844  1
  Fe  Fe68  1  0.12296648  0.37726607  0.11880395  1
  Fe  Fe69  1  0.74707382  0.24589906  -0.00066752  1
  Fe  Fe70  1  0.74758850  0.25118814  0.74789500  1
  Fe  Fe71  1  0.37554349  0.12787037  0.62578627  1
  Fe  Fe72  1  0.25213086  0.50069155  0.50040272  1
  Fe  Fe73  1  0.24768909  0.74998942  0.00222773  1
  Fe  Fe74  1  0.37552016  0.62747478  0.12723307  1
  Fe  Fe75  1  0.62497690  0.62585594  0.37573288  1
  Fe  Fe76  1  -0.00180336  0.74922926  0.50298110  1
  Fe  Fe77  1  0.12432414  0.61958318  0.87694754  1
  Fe  Fe78  1  0.25045788  -0.00059787  0.75033372  1
  Fe  Fe79  1  0.50098447  0.49952133  0.25101585  1
  Fe  Fe80  1  -0.00033702  -0.00000741  0.25032159  1
  Fe  Fe81  1  0.87410650  0.62333317  0.37413256  1
  Fe  Fe82  1  0.24992176  0.49591660  0.74964693  1
  Fe  Fe83  1  -0.00081056  0.74978532  0.74756685  1
  Fe  Fe84  1  0.87038874  0.12473824  0.12993191  1
  Fe  Fe85  1  0.87543662  0.37649017  0.62167713  1
  Fe  Fe86  1  0.49871676  0.49930144  0.74889014  1
  Fe  Fe87  1  0.49996551  0.00207002  0.24936035  1
  Fe  Fe88  1  0.75049884  0.49552125  0.25188224  1
  Fe  Fe89  1  0.62470935  0.37186707  0.37767642  1
  Co  Co90  1  -0.00552942  0.50105032  -0.00148348  1
  Co  Co91  1  0.75116291  0.00293988  -0.00307288  1
  Co  Co92  1  0.50410750  0.75111443  0.24785331  1
  Co  Co93  1  0.62536903  0.62341779  0.87285945  1
  Co  Co94  1  0.00078651  0.49451681  0.75186479  1
  Co  Co95  1  0.74822258  0.49998459  0.49951568  1
  Co  Co96  1  0.49839999  0.74877403  0.50291281  1
  Co  Co97  1  0.87510334  0.62107961  0.62657305  1
  Co  Co98  1  0.00103966  0.25163115  0.24725796  1
  Co  Co99  1  0.87547618  0.12656637  0.37022659  1
  Co  Co100  1  0.63041264  0.12601387  0.13090390  1
  Co  Co101  1  0.12571389  0.37772249  0.88230188  1
  Co  Co102  1  0.25635880  0.50044543  0.00120011  1
  Co  Co103  1  0.49880156  0.24630498  0.49704914  1
  Co  Co104  1  0.25042934  0.00056007  0.50151848  1
  Co  Co105  1  0.50255989  0.74788963  -0.00009146  1
  Co  Co106  1  0.87779697  0.37534960  0.37929246  1
  Co  Co107  1  0.75325649  0.25688718  0.25240318  1
  Co  Co108  1  0.75237230  0.24716518  0.50045456  1
  Co  Co109  1  0.37201585  0.12632465  0.12636895  1
  Co  Co110  1  0.50064039  0.25067179  0.75130899  1
  Co  Co111  1  0.24611520  0.75159692  0.24765837  1
  Co  Co112  1  0.49831686  0.24789362  0.25096443  1
  Co  Co113  1  0.37276988  0.62537463  0.62752972  1
  Co  Co114  1  0.62463907  0.12426975  0.87130699  1
  Co  Co115  1  0.00105511  -0.00064743  0.75094352  1
  Co  Co116  1  -0.00221039  0.24704944  0.50108027  1
  Co  Co117  1  0.74942786  -0.00526960  0.25353737  1
  Co  Co118  1  0.37656494  0.87343259  0.37357887  1
  Co  Co119  1  0.50262598  0.24462231  0.00065113  1
  Co  Co120  1  0.37636076  0.87458713  0.87767955  1
  Co  Co121  1  0.12413319  0.87946673  0.12340015  1
  Co  Co122  1  0.87089158  0.37275068  0.87661121  1
  Co  Co123  1  -0.00119853  0.24576732  -0.00034642  1
  Co  Co124  1  0.37691538  0.37305394  0.62287496  1
  Co  Co125  1  0.12527689  0.61898772  0.12357412  1
  Co  Co126  1  0.87448493  0.87827595  0.62470471  1
  Co  Co127  1  0.12518719  0.37621556  0.62065446  1
