# generated using pymatgen
data_Fe45Co19
_symmetry_space_group_name_H-M   'P 1'
_cell_length_a   11.41588318
_cell_length_b   11.41488848
_cell_length_c   11.41450476
_cell_angle_alpha   89.99932375
_cell_angle_beta   90.00248916
_cell_angle_gamma   90.00166403
_symmetry_Int_Tables_number   1
_chemical_formula_structural   Fe45Co19
_chemical_formula_sum   'Fe90 Co38'
_cell_volume   1487.43590810
_cell_formula_units_Z   2
loop_
 _symmetry_equiv_pos_site_id
 _symmetry_equiv_pos_as_xyz
  1  'x, y, z'
loop_
 _atom_site_type_symbol
 _atom_site_label
 _atom_site_symmetry_multiplicity
 _atom_site_fract_x
 _atom_site_fract_y
 _atom_site_fract_z
 _atom_site_occupancy
  Fe  Fe0  1  0.37407174  0.87325148  0.12576611  1
  Fe  Fe1  1  0.37573284  0.62622388  0.62336654  1
  Fe  Fe2  1  0.12405748  0.62228278  0.87566403  1
  Fe  Fe3  1  0.87650192  0.12443349  0.12722995  1
  Fe  Fe4  1  0.24761821  0.74962829  0.49581079  1
  Fe  Fe5  1  0.87459089  0.87256427  0.62397894  1
  Fe  Fe6  1  0.50030415  0.50030247  0.00060148  1
  Fe  Fe7  1  0.24949410  0.50283547  0.25077923  1
  Fe  Fe8  1  0.12491997  0.12187137  0.87424124  1
  Fe  Fe9  1  0.12321646  0.37334878  0.62269890  1
  Fe  Fe10  1  0.62541942  0.12365150  0.62495789  1
  Fe  Fe11  1  0.62455960  0.62219816  0.37709608  1
  Fe  Fe12  1  0.49687387  0.00235051  0.49961823  1
  Fe  Fe13  1  0.12374122  0.37595051  0.37810048  1
  Fe  Fe14  1  0.37427976  0.37621743  0.37503258  1
  Fe  Fe15  1  0.75268218  0.24579103  0.49869117  1
  Fe  Fe16  1  0.37520330  0.62708391  0.12644299  1
  Fe  Fe17  1  0.75310717  0.74918856  0.00022197  1
  Fe  Fe18  1  0.24745582  0.74878227  0.74778774  1
  Fe  Fe19  1  0.12586913  0.37601671  0.12408448  1
  Fe  Fe20  1  0.62578269  0.37257194  0.11984210  1
  Fe  Fe21  1  0.75006825  -0.00031236  0.00275269  1
  Fe  Fe22  1  0.12607444  0.37908374  0.87508536  1
  Fe  Fe23  1  0.50133734  0.74990248  0.49884283  1
  Fe  Fe24  1  0.62708553  0.87723800  0.37549498  1
  Fe  Fe25  1  0.00113949  0.75320308  0.75262256  1
  Fe  Fe26  1  0.62677160  0.37414667  0.62456498  1
  Fe  Fe27  1  0.49963209  0.74993543  0.25324174  1
  Fe  Fe28  1  0.87560124  0.37378355  0.37581106  1
  Fe  Fe29  1  0.62707508  0.87281626  0.62408298  1
  Fe  Fe30  1  -0.00081289  0.25168554  -0.00155239  1
  Fe  Fe31  1  -0.00068801  0.49974852  0.24999972  1
  Fe  Fe32  1  0.37215234  0.62356885  0.87301202  1
  Fe  Fe33  1  0.37344742  0.12726646  0.12648638  1
  Fe  Fe34  1  0.74958205  -0.00244904  0.75032755  1
  Fe  Fe35  1  0.12087828  0.62701487  0.12490976  1
  Fe  Fe36  1  0.24866504  0.00055469  0.74622725  1
  Fe  Fe37  1  0.50058755  0.49903116  0.25024365  1
  Fe  Fe38  1  0.62760852  0.62460112  0.87206902  1
  Fe  Fe39  1  0.75475722  0.50126912  0.50613754  1
  Fe  Fe40  1  0.25011812  0.50061775  0.50096069  1
  Fe  Fe41  1  -0.00291470  0.49866839  0.74476301  1
  Fe  Fe42  1  0.37344328  0.12297084  0.87391692  1
  Fe  Fe43  1  0.00064186  0.24895914  0.75020619  1
  Fe  Fe44  1  0.75148984  0.74949096  0.25283371  1
  Fe  Fe45  1  0.24785724  0.74996138  -0.00070123  1
  Fe  Fe46  1  0.25035812  0.25103243  -0.00116721  1
  Fe  Fe47  1  0.49878899  0.00045852  0.00019908  1
  Fe  Fe48  1  0.87571609  0.62281997  0.87524522  1
  Fe  Fe49  1  0.62493652  0.87250160  0.12494108  1
  Fe  Fe50  1  0.00280928  0.24981274  0.25037508  1
  Fe  Fe51  1  0.37167750  0.87526941  0.87431302  1
  Fe  Fe52  1  0.49887654  0.74946367  -0.00287521  1
  Fe  Fe53  1  0.00336752  -0.00273932  0.00113821  1
  Fe  Fe54  1  0.24788076  0.24945468  0.74845994  1
  Fe  Fe55  1  0.12361228  0.87977950  0.62128167  1
  Fe  Fe56  1  0.24795802  0.00044905  0.24892748  1
  Fe  Fe57  1  -0.00335766  0.24464093  0.50113083  1
  Fe  Fe58  1  0.50324062  0.25035334  0.75420703  1
  Fe  Fe59  1  0.87720505  0.87670934  0.87616531  1
  Fe  Fe60  1  0.75470076  0.00207406  0.49729183  1
  Fe  Fe61  1  0.87580365  0.12162718  0.87394575  1
  Fe  Fe62  1  0.49854215  0.24772891  0.49836810  1
  Fe  Fe63  1  0.74729867  0.24981329  0.75410233  1
  Fe  Fe64  1  0.62514408  0.87313046  0.87578817  1
  Fe  Fe65  1  0.12554406  0.12686674  0.12306204  1
  Fe  Fe66  1  0.75089548  0.50041076  0.24816810  1
  Fe  Fe67  1  0.87667580  0.62382835  0.37603148  1
  Fe  Fe68  1  0.37315431  0.37309949  0.12623589  1
  Fe  Fe69  1  0.00011725  0.75426899  0.49281777  1
  Fe  Fe70  1  0.87726642  0.87368621  0.13015382  1
  Fe  Fe71  1  0.87164951  0.37859911  0.87540517  1
  Fe  Fe72  1  0.12041992  0.62499358  0.62140264  1
  Fe  Fe73  1  0.12405811  0.87035773  0.12745330  1
  Fe  Fe74  1  0.62729385  0.62950004  0.62636133  1
  Fe  Fe75  1  0.50150262  -0.00212717  0.74989667  1
  Fe  Fe76  1  0.62464563  0.12768967  0.12168530  1
  Fe  Fe77  1  0.37533020  0.37396026  0.62558545  1
  Fe  Fe78  1  0.50240551  0.00111370  0.24989620  1
  Fe  Fe79  1  0.74869441  0.24879771  0.25022184  1
  Fe  Fe80  1  0.87376840  0.37506168  0.12353127  1
  Fe  Fe81  1  0.50156288  0.50016587  0.74788888  1
  Fe  Fe82  1  0.12500170  0.12059356  0.37863054  1
  Fe  Fe83  1  0.62548597  0.62719226  0.12572325  1
  Fe  Fe84  1  0.37513845  0.87319834  0.62514029  1
  Fe  Fe85  1  0.25247380  0.24541183  0.50082785  1
  Fe  Fe86  1  0.37244317  0.87534147  0.37402008  1
  Fe  Fe87  1  0.50175588  0.25037511  0.25253796  1
  Fe  Fe88  1  0.62680423  0.37647732  0.37821353  1
  Fe  Fe89  1  0.37308727  0.37876892  0.87438161  1
  Co  Co90  1  -0.00469723  0.49812679  0.50290215  1
  Co  Co91  1  0.62507568  0.12477824  0.37629461  1
  Co  Co92  1  0.12260733  0.62112107  0.37655296  1
  Co  Co93  1  0.74603674  0.00164563  0.24818409  1
  Co  Co94  1  0.50066794  0.50016708  0.50321996  1
  Co  Co95  1  0.87264571  0.12585166  0.63110018  1
  Co  Co96  1  0.00062147  0.74922869  0.25654168  1
  Co  Co97  1  0.74927782  0.50333842  0.00356867  1
  Co  Co98  1  0.87468540  0.36844481  0.62549241  1
  Co  Co99  1  0.12303256  0.12244029  0.62395038  1
  Co  Co100  1  0.24804569  0.50095908  0.74437786  1
  Co  Co101  1  0.24861725  0.74767691  0.25349006  1
  Co  Co102  1  0.75348222  0.24767188  -0.00227600  1
  Co  Co103  1  0.00448360  0.00111933  0.24916571  1
  Co  Co104  1  0.49868681  0.75054284  0.75046510  1
  Co  Co105  1  0.62572551  0.12222317  0.87698411  1
  Co  Co106  1  0.49616809  0.24991435  -0.00326785  1
  Co  Co107  1  0.87803585  0.62736151  0.12559681  1
  Co  Co108  1  -0.00763829  0.00194485  0.50090569  1
  Co  Co109  1  -0.00050740  -0.00208311  0.74792805  1
  Co  Co110  1  0.24818326  -0.00070604  0.00295440  1
  Co  Co111  1  0.87606279  0.12443718  0.36803820  1
  Co  Co112  1  -0.00101602  0.49833707  0.00144460  1
  Co  Co113  1  0.87861912  0.63291076  0.62396055  1
  Co  Co114  1  0.87492455  0.87946055  0.36921070  1
  Co  Co115  1  0.75330711  0.75171955  0.75249213  1
  Co  Co116  1  0.62767480  0.37860210  0.87793721  1
  Co  Co117  1  -0.00023463  0.75222992  -0.00291154  1
  Co  Co118  1  0.12796919  0.87720447  0.87330192  1
  Co  Co119  1  0.12674349  0.88147952  0.37676902  1
  Co  Co120  1  0.75088971  0.75033570  0.49536827  1
  Co  Co121  1  0.24959977  0.50112740  0.00326127  1
  Co  Co122  1  0.37676848  0.62386375  0.37659245  1
  Co  Co123  1  0.75281913  0.50120636  0.74381945  1
  Co  Co124  1  0.37438800  0.12451377  0.37013070  1
  Co  Co125  1  0.25553286  0.00295487  0.50275605  1
  Co  Co126  1  0.24563557  0.24977004  0.25246328  1
  Co  Co127  1  0.37826617  0.12676679  0.62977288  1
