# generated using pymatgen
data_Fe45Co19
_symmetry_space_group_name_H-M   'P 1'
_cell_length_a   11.41526770
_cell_length_b   11.41651506
_cell_length_c   11.41546262
_cell_angle_alpha   90.00176552
_cell_angle_beta   90.01719205
_cell_angle_gamma   90.00218740
_symmetry_Int_Tables_number   1
_chemical_formula_structural   Fe45Co19
_chemical_formula_sum   'Fe90 Co38'
_cell_volume   1487.69242216
_cell_formula_units_Z   2
loop_
 _symmetry_equiv_pos_site_id
 _symmetry_equiv_pos_as_xyz
  1  'x, y, z'
loop_
 _atom_site_type_symbol
 _atom_site_label
 _atom_site_symmetry_multiplicity
 _atom_site_fract_x
 _atom_site_fract_y
 _atom_site_fract_z
 _atom_site_occupancy
  Fe  Fe0  1  0.50135269  0.24946548  0.50216178  1
  Fe  Fe1  1  0.37746252  0.37349494  0.87454960  1
  Fe  Fe2  1  0.37325832  0.62500789  0.62728101  1
  Fe  Fe3  1  0.12309212  0.87366023  0.37490041  1
  Fe  Fe4  1  0.12379498  0.37601478  0.37428213  1
  Fe  Fe5  1  0.24991915  0.25160889  0.74959489  1
  Fe  Fe6  1  0.37437849  0.12381511  0.12435931  1
  Fe  Fe7  1  0.75020079  -0.00305583  0.49908843  1
  Fe  Fe8  1  0.75006552  -0.00128524  0.24935113  1
  Fe  Fe9  1  0.12191085  0.87146311  0.87342103  1
  Fe  Fe10  1  0.87337513  0.87333685  0.62653309  1
  Fe  Fe11  1  0.62227081  0.62585413  0.12519610  1
  Fe  Fe12  1  0.37501264  0.87711313  0.12480826  1
  Fe  Fe13  1  0.00060305  0.50468368  0.00188347  1
  Fe  Fe14  1  0.12380369  0.37570954  0.87418457  1
  Fe  Fe15  1  0.87546799  0.37598809  0.37386900  1
  Fe  Fe16  1  0.25020527  0.75142115  0.50090414  1
  Fe  Fe17  1  0.74615612  -0.00412032  0.75114102  1
  Fe  Fe18  1  0.37950178  0.62788262  0.87295420  1
  Fe  Fe19  1  0.62358706  0.87412957  0.12413886  1
  Fe  Fe20  1  0.50514744  -0.00101431  0.74776041  1
  Fe  Fe21  1  -0.00123209  0.50380151  0.24676417  1
  Fe  Fe22  1  0.12468567  0.62767769  0.87300795  1
  Fe  Fe23  1  0.62360727  0.87331640  0.37566212  1
  Fe  Fe24  1  0.25239739  0.75115269  -0.00231987  1
  Fe  Fe25  1  0.12885807  0.12299024  0.12248099  1
  Fe  Fe26  1  0.37637783  0.12362298  0.62541049  1
  Fe  Fe27  1  0.12513295  0.12531908  0.87399778  1
  Fe  Fe28  1  0.24962508  -0.00106071  0.49995691  1
  Fe  Fe29  1  0.50224353  0.50152477  0.50148337  1
  Fe  Fe30  1  0.12664969  0.37760722  0.12476475  1
  Fe  Fe31  1  0.25336391  0.74941895  0.25165922  1
  Fe  Fe32  1  0.38070471  0.87362189  0.87378401  1
  Fe  Fe33  1  0.87672117  0.87296522  0.87593203  1
  Fe  Fe34  1  0.25243714  0.50055191  -0.00282589  1
  Fe  Fe35  1  -0.00197107  0.74914272  0.50305382  1
  Fe  Fe36  1  0.87436985  0.12526224  0.87381114  1
  Fe  Fe37  1  0.25080236  0.25061688  0.50191983  1
  Fe  Fe38  1  0.86822468  0.62464082  0.62883660  1
  Fe  Fe39  1  0.12422947  0.12284372  0.62711837  1
  Fe  Fe40  1  0.74742568  0.24723224  0.00128498  1
  Fe  Fe41  1  0.87239154  0.62738463  0.37343000  1
  Fe  Fe42  1  0.37683729  0.37659037  0.37728257  1
  Fe  Fe43  1  0.87501277  0.62703964  0.87421595  1
  Fe  Fe44  1  0.87302258  0.12392549  0.62753333  1
  Fe  Fe45  1  0.87385740  0.87362887  0.12312732  1
  Fe  Fe46  1  0.62497034  0.62771747  0.37332563  1
  Fe  Fe47  1  0.12781004  0.62558686  0.62895193  1
  Fe  Fe48  1  0.37698824  0.87579491  0.37556039  1
  Fe  Fe49  1  0.37622100  0.87477637  0.62573809  1
  Fe  Fe50  1  -0.00048282  0.00015674  0.24855280  1
  Fe  Fe51  1  0.74713642  0.00223725  -0.00020021  1
  Fe  Fe52  1  0.00092229  0.24887364  0.00103802  1
  Fe  Fe53  1  0.12760314  0.87354465  0.12415217  1
  Fe  Fe54  1  0.37660307  0.12244896  0.37468579  1
  Fe  Fe55  1  -0.00229796  0.50239758  0.50150975  1
  Fe  Fe56  1  0.12439108  0.12517003  0.37578194  1
  Fe  Fe57  1  0.87516106  0.12417539  0.37455563  1
  Fe  Fe58  1  -0.00119557  0.25085475  0.50272526  1
  Fe  Fe59  1  0.74953388  0.25104640  0.50059213  1
  Fe  Fe60  1  -0.00056075  0.24873031  0.24731861  1
  Fe  Fe61  1  0.50289736  0.24927121  0.74724472  1
  Fe  Fe62  1  0.74837594  0.25191175  0.74892814  1
  Fe  Fe63  1  0.62102201  0.37363769  0.12511472  1
  Fe  Fe64  1  0.25083884  0.49928146  0.50097754  1
  Fe  Fe65  1  -0.00121013  -0.00190658  0.50150845  1
  Fe  Fe66  1  0.24908007  -0.00354547  0.75158773  1
  Fe  Fe67  1  0.37839224  0.37420760  0.12344131  1
  Fe  Fe68  1  0.50052169  0.74901848  0.50177193  1
  Fe  Fe69  1  0.74604816  0.50155033  -0.00247407  1
  Fe  Fe70  1  0.62407575  0.37537549  0.37491909  1
  Fe  Fe71  1  0.37483840  0.12523838  0.87469136  1
  Fe  Fe72  1  0.74995110  0.24838557  0.24870841  1
  Fe  Fe73  1  0.87678867  0.37502760  0.87614248  1
  Fe  Fe74  1  0.62242422  0.37336728  0.87598518  1
  Fe  Fe75  1  -0.00143393  0.74750017  0.24530118  1
  Fe  Fe76  1  0.37687607  0.62439784  0.12496385  1
  Fe  Fe77  1  0.12627405  0.62549947  0.37465435  1
  Fe  Fe78  1  0.25317431  0.50124020  0.25149633  1
  Fe  Fe79  1  0.50187067  0.49957415  0.74907787  1
  Fe  Fe80  1  0.50181478  0.00334009  0.00010862  1
  Fe  Fe81  1  0.74866596  0.50114520  0.24951510  1
  Fe  Fe82  1  0.12491313  0.37745087  0.62782171  1
  Fe  Fe83  1  0.62364206  0.12292956  0.37519166  1
  Fe  Fe84  1  0.25167023  0.24954409  0.24961330  1
  Fe  Fe85  1  0.87204923  0.37896408  0.62626763  1
  Fe  Fe86  1  0.87384247  0.37629881  0.12358396  1
  Fe  Fe87  1  0.63098587  0.62566819  0.62793163  1
  Fe  Fe88  1  0.00082469  -0.00004842  -0.00070099  1
  Fe  Fe89  1  0.74670671  0.74887253  -0.00259609  1
  Co  Co90  1  0.25110307  0.75311349  0.75134937  1
  Co  Co91  1  0.50015423  0.50051112  -0.00104998  1
  Co  Co92  1  0.75115211  0.75181126  0.49863403  1
  Co  Co93  1  0.24976599  -0.00031011  0.25227713  1
  Co  Co94  1  0.74918434  0.75160298  0.24876418  1
  Co  Co95  1  0.74969336  0.50055443  0.49619915  1
  Co  Co96  1  0.49872708  0.24914365  0.25149028  1
  Co  Co97  1  0.25029138  -0.00330892  -0.00463495  1
  Co  Co98  1  0.87729801  0.87320751  0.37284147  1
  Co  Co99  1  0.74841689  0.49873478  0.75627177  1
  Co  Co100  1  0.62685155  0.37735451  0.62426701  1
  Co  Co101  1  -0.00114236  0.25087201  0.74882908  1
  Co  Co102  1  0.37546902  0.62449387  0.37825276  1
  Co  Co103  1  0.62315974  0.12580791  0.12729908  1
  Co  Co104  1  -0.00187311  0.50186169  0.75005768  1
  Co  Co105  1  0.62609296  0.87357102  0.62205831  1
  Co  Co106  1  0.00056855  0.74760848  0.00293697  1
  Co  Co107  1  -0.00059758  -0.00148283  0.75063752  1
  Co  Co108  1  0.13108008  0.62562212  0.12475356  1
  Co  Co109  1  0.50403586  0.75093772  0.74630856  1
  Co  Co110  1  -0.00166255  0.74914368  0.74658288  1
  Co  Co111  1  0.49928567  0.74996102  0.00317227  1
  Co  Co112  1  0.37605756  0.37628149  0.62543048  1
  Co  Co113  1  0.50089772  -0.00142687  0.24920018  1
  Co  Co114  1  0.49958534  0.50105462  0.25117243  1
  Co  Co115  1  0.62659019  0.12369089  0.62386675  1
  Co  Co116  1  0.62054335  0.62707772  0.87421810  1
  Co  Co117  1  0.50035021  -0.00119087  0.50106882  1
  Co  Co118  1  0.62653754  0.12503878  0.87239492  1
  Co  Co119  1  0.25067660  0.25143458  -0.00070510  1
  Co  Co120  1  0.25182105  0.49960322  0.75316840  1
  Co  Co121  1  0.49774524  0.75054885  0.24993959  1
  Co  Co122  1  0.12537108  0.87518813  0.62539871  1
  Co  Co123  1  0.86945495  0.62538644  0.12257474  1
  Co  Co124  1  0.74669839  0.75392676  0.75473556  1
  Co  Co125  1  0.87440772  0.12374651  0.12361551  1
  Co  Co126  1  0.50061231  0.24579244  -0.00062842  1
  Co  Co127  1  0.62053104  0.87433601  0.87845142  1
