# generated using pymatgen
data_Fe45Co19
_symmetry_space_group_name_H-M   'P 1'
_cell_length_a   11.41464683
_cell_length_b   11.41429775
_cell_length_c   11.41548893
_cell_angle_alpha   89.99766346
_cell_angle_beta   90.00523518
_cell_angle_gamma   90.00062854
_symmetry_Int_Tables_number   1
_chemical_formula_structural   Fe45Co19
_chemical_formula_sum   'Fe90 Co38'
_cell_volume   1487.32607285
_cell_formula_units_Z   2
loop_
 _symmetry_equiv_pos_site_id
 _symmetry_equiv_pos_as_xyz
  1  'x, y, z'
loop_
 _atom_site_type_symbol
 _atom_site_label
 _atom_site_symmetry_multiplicity
 _atom_site_fract_x
 _atom_site_fract_y
 _atom_site_fract_z
 _atom_site_occupancy
  Fe  Fe0  1  0.11826551  0.61945170  0.37518205  1
  Fe  Fe1  1  -0.00671111  -0.00059609  -0.00082375  1
  Fe  Fe2  1  0.12250345  0.12512880  0.37623675  1
  Fe  Fe3  1  0.49827580  0.00401452  0.50277765  1
  Fe  Fe4  1  0.74966237  -0.00019623  0.24718421  1
  Fe  Fe5  1  -0.00012733  0.75139275  0.75096232  1
  Fe  Fe6  1  0.49847393  0.74790081  0.49797557  1
  Fe  Fe7  1  0.62576420  0.87499504  0.37589115  1
  Fe  Fe8  1  0.24971187  0.49991693  0.50076087  1
  Fe  Fe9  1  0.24665606  0.74851618  0.25180101  1
  Fe  Fe10  1  0.24949254  0.00301267  0.75244375  1
  Fe  Fe11  1  0.00075665  0.75176180  -0.00251373  1
  Fe  Fe12  1  0.24992925  0.74802863  0.49847693  1
  Fe  Fe13  1  -0.00319328  0.00046454  0.75121323  1
  Fe  Fe14  1  0.87179428  0.12996522  0.62912270  1
  Fe  Fe15  1  0.38073818  0.61684012  0.87330471  1
  Fe  Fe16  1  0.50112913  -0.00292154  0.00063758  1
  Fe  Fe17  1  0.37432172  0.87287513  0.12528292  1
  Fe  Fe18  1  0.24983290  0.25140545  0.75759554  1
  Fe  Fe19  1  0.12411139  0.62487868  0.62572388  1
  Fe  Fe20  1  0.50220705  0.74905181  0.75193058  1
  Fe  Fe21  1  -0.00004562  0.75084451  0.50029935  1
  Fe  Fe22  1  0.62547778  0.87442795  0.62517297  1
  Fe  Fe23  1  0.12482411  0.12545567  0.62492786  1
  Fe  Fe24  1  0.49968229  0.25391612  -0.00052040  1
  Fe  Fe25  1  0.62715435  0.37788789  0.37424840  1
  Fe  Fe26  1  0.62794651  0.37180514  0.62174642  1
  Fe  Fe27  1  -0.00276515  0.25186316  0.50103133  1
  Fe  Fe28  1  0.37625593  0.12602309  0.12350575  1
  Fe  Fe29  1  0.37534696  0.87556569  0.37359374  1
  Fe  Fe30  1  0.50053875  0.49938004  0.24807091  1
  Fe  Fe31  1  0.12356465  0.87821036  0.37734547  1
  Fe  Fe32  1  0.62719869  0.38076038  0.87938637  1
  Fe  Fe33  1  -0.00022306  -0.00199520  0.24676728  1
  Fe  Fe34  1  0.25050290  0.00283340  -0.00046647  1
  Fe  Fe35  1  0.12147144  0.62455692  0.12350995  1
  Fe  Fe36  1  0.24735115  0.25000493  0.24999592  1
  Fe  Fe37  1  0.87146655  0.37155287  0.63017284  1
  Fe  Fe38  1  0.37503934  0.62284538  0.62742666  1
  Fe  Fe39  1  0.62439747  0.12557920  0.37612227  1
  Fe  Fe40  1  0.62474786  0.62603706  0.62376026  1
  Fe  Fe41  1  0.11994996  0.12725821  0.87776979  1
  Fe  Fe42  1  0.74829430  0.74440550  -0.00066677  1
  Fe  Fe43  1  0.75202959  0.00230942  0.49990425  1
  Fe  Fe44  1  0.50120294  0.25215149  0.24820962  1
  Fe  Fe45  1  0.87311528  0.87012641  0.12498051  1
  Fe  Fe46  1  0.75173734  0.74752180  0.49776212  1
  Fe  Fe47  1  0.24979919  0.74701915  0.75270969  1
  Fe  Fe48  1  0.74627244  0.50217639  0.75056155  1
  Fe  Fe49  1  0.12523708  0.87624138  0.62567814  1
  Fe  Fe50  1  -0.00687407  0.49519322  0.00366673  1
  Fe  Fe51  1  0.25187478  0.74663116  -0.00300296  1
  Fe  Fe52  1  0.37511874  0.87577462  0.62793905  1
  Fe  Fe53  1  0.50244838  0.25035523  0.75186178  1
  Fe  Fe54  1  0.87591090  0.62494113  0.62651378  1
  Fe  Fe55  1  0.49971888  0.24799491  0.50026405  1
  Fe  Fe56  1  0.63238888  0.37689024  0.12376783  1
  Fe  Fe57  1  0.87514765  0.87347878  0.37342228  1
  Fe  Fe58  1  0.24620265  0.49865080  0.24806531  1
  Fe  Fe59  1  0.12253951  0.62043311  0.87564140  1
  Fe  Fe60  1  0.87729115  0.12460754  0.37256776  1
  Fe  Fe61  1  0.25184713  0.24886150  0.49823508  1
  Fe  Fe62  1  0.12450680  0.87592939  0.87493127  1
  Fe  Fe63  1  0.50232588  0.74732038  0.25263088  1
  Fe  Fe64  1  0.25327417  0.00251634  0.49996144  1
  Fe  Fe65  1  0.37448335  0.37434511  0.62858428  1
  Fe  Fe66  1  0.62827743  0.12673368  0.12173972  1
  Fe  Fe67  1  0.75028090  0.24865335  0.25198100  1
  Fe  Fe68  1  0.87430145  0.87356387  0.62693669  1
  Fe  Fe69  1  0.12188341  0.12825951  0.12128873  1
  Fe  Fe70  1  0.37419520  0.37534668  0.37415257  1
  Fe  Fe71  1  0.87523840  0.62422910  0.87337985  1
  Fe  Fe72  1  0.62629586  0.87097534  0.12418369  1
  Fe  Fe73  1  0.75017910  -0.00052518  0.75155254  1
  Fe  Fe74  1  0.75315166  0.50063296  0.50007561  1
  Fe  Fe75  1  0.87644681  0.37937486  0.37275600  1
  Fe  Fe76  1  0.12634297  0.87442487  0.12183634  1
  Fe  Fe77  1  0.37686641  0.62576055  0.12549955  1
  Fe  Fe78  1  0.50105079  0.00138030  0.24854128  1
  Fe  Fe79  1  0.49938819  0.49940701  0.50001389  1
  Fe  Fe80  1  -0.00869930  0.25441417  -0.00046751  1
  Fe  Fe81  1  0.75293547  0.50972146  0.24705082  1
  Fe  Fe82  1  0.37536045  0.87722697  0.87391983  1
  Fe  Fe83  1  0.62685186  0.12348747  0.87831593  1
  Fe  Fe84  1  0.00247787  0.49574418  0.74912211  1
  Fe  Fe85  1  0.37018853  0.37437558  0.12157181  1
  Fe  Fe86  1  0.00113039  0.25538500  0.24735589  1
  Fe  Fe87  1  0.62789060  0.87341822  0.87513201  1
  Fe  Fe88  1  0.12672499  0.37326968  0.62494562  1
  Fe  Fe89  1  0.24913362  0.00280871  0.24862899  1
  Co  Co90  1  0.50547133  0.49658789  0.74562816  1
  Co  Co91  1  0.87228520  0.37627902  0.86942955  1
  Co  Co92  1  0.00379129  0.25238986  0.75076640  1
  Co  Co93  1  0.88036839  0.63135034  0.12541273  1
  Co  Co94  1  0.75290274  0.25073258  0.49501021  1
  Co  Co95  1  0.37993061  0.12327327  0.87505710  1
  Co  Co96  1  0.87215780  0.87129702  0.87549342  1
  Co  Co97  1  0.62484059  0.62197269  0.37725025  1
  Co  Co98  1  0.00060882  0.49501069  0.24246040  1
  Co  Co99  1  0.87409009  0.12693798  0.12649009  1
  Co  Co100  1  0.74891327  0.74684410  0.75042259  1
  Co  Co101  1  0.37427162  0.12667882  0.63029734  1
  Co  Co102  1  0.62205146  0.62154391  0.87721405  1
  Co  Co103  1  0.74271209  0.25091470  0.75504030  1
  Co  Co104  1  0.87312314  0.12796633  0.87201649  1
  Co  Co105  1  0.88160955  0.62363135  0.37450518  1
  Co  Co106  1  0.50476446  0.00109633  0.74939066  1
  Co  Co107  1  0.00330573  0.75326181  0.25130842  1
  Co  Co108  1  0.62929389  0.12705950  0.62389259  1
  Co  Co109  1  -0.00214089  0.49573590  0.50595585  1
  Co  Co110  1  0.12844130  0.37264626  0.11714983  1
  Co  Co111  1  0.37658824  0.12674927  0.37178821  1
  Co  Co112  1  0.25375993  0.24746890  -0.00553316  1
  Co  Co113  1  0.37633522  0.38049763  0.87470339  1
  Co  Co114  1  -0.00345362  0.00196307  0.50292282  1
  Co  Co115  1  0.25138758  0.50409300  -0.00017195  1
  Co  Co116  1  0.62117738  0.62553938  0.12194943  1
  Co  Co117  1  0.37449431  0.62181598  0.37344612  1
  Co  Co118  1  0.75327010  0.25137263  -0.00212916  1
  Co  Co119  1  0.86707802  0.37363798  0.12786478  1
  Co  Co120  1  0.24619542  0.49842508  0.75070970  1
  Co  Co121  1  0.50034636  0.49695430  0.00569610  1
  Co  Co122  1  0.49810626  0.75104621  -0.00341586  1
  Co  Co123  1  0.12476712  0.37644177  0.88199255  1
  Co  Co124  1  0.75339431  -0.00023570  0.00122205  1
  Co  Co125  1  0.12360031  0.37687759  0.37715772  1
  Co  Co126  1  0.75491545  0.50382266  0.00144944  1
  Co  Co127  1  0.74798168  0.74567690  0.25142155  1
