# generated using pymatgen
data_Fe45Co19
_symmetry_space_group_name_H-M   'P 1'
_cell_length_a   11.41516728
_cell_length_b   11.41377518
_cell_length_c   11.41534853
_cell_angle_alpha   89.99410013
_cell_angle_beta   89.99890577
_cell_angle_gamma   89.99404527
_symmetry_Int_Tables_number   1
_chemical_formula_structural   Fe45Co19
_chemical_formula_sum   'Fe90 Co38'
_cell_volume   1487.30748999
_cell_formula_units_Z   2
loop_
 _symmetry_equiv_pos_site_id
 _symmetry_equiv_pos_as_xyz
  1  'x, y, z'
loop_
 _atom_site_type_symbol
 _atom_site_label
 _atom_site_symmetry_multiplicity
 _atom_site_fract_x
 _atom_site_fract_y
 _atom_site_fract_z
 _atom_site_occupancy
  Fe  Fe0  1  0.75017467  -0.00080491  0.00036640  1
  Fe  Fe1  1  0.75053698  0.00011072  0.49945658  1
  Fe  Fe2  1  0.50194056  -0.00181169  0.49740119  1
  Fe  Fe3  1  0.87668151  0.37712401  0.12472501  1
  Fe  Fe4  1  0.87378565  0.37771152  0.37308071  1
  Fe  Fe5  1  0.37548387  0.87550810  0.12707365  1
  Fe  Fe6  1  0.62413996  0.37246131  0.87596287  1
  Fe  Fe7  1  -0.00020056  -0.00263069  0.25110623  1
  Fe  Fe8  1  0.62561872  0.12837676  0.87709021  1
  Fe  Fe9  1  0.87230764  0.37155073  0.87604160  1
  Fe  Fe10  1  0.24863755  0.50417927  0.24947038  1
  Fe  Fe11  1  0.87555794  0.87558831  0.62638604  1
  Fe  Fe12  1  0.62366131  0.12333504  0.62409667  1
  Fe  Fe13  1  0.74916245  0.74895977  0.50299086  1
  Fe  Fe14  1  0.37659037  0.87897524  0.62652418  1
  Fe  Fe15  1  -0.00029350  0.25414552  0.74920198  1
  Fe  Fe16  1  0.37502319  0.12436918  0.37584848  1
  Fe  Fe17  1  0.75019660  0.24970169  0.50207333  1
  Fe  Fe18  1  0.74862069  0.50026814  0.50045104  1
  Fe  Fe19  1  0.75073548  0.49867602  0.75148254  1
  Fe  Fe20  1  -0.00188834  0.74945141  0.49940903  1
  Fe  Fe21  1  0.00115889  0.25043854  0.24942884  1
  Fe  Fe22  1  0.24790587  0.75271036  0.74808833  1
  Fe  Fe23  1  0.74789168  -0.00018806  0.75044087  1
  Fe  Fe24  1  0.25117622  0.00140658  -0.00014640  1
  Fe  Fe25  1  0.12613054  0.12608753  0.87444770  1
  Fe  Fe26  1  0.37490646  0.37702279  0.37561753  1
  Fe  Fe27  1  0.25382465  0.50400449  -0.00038613  1
  Fe  Fe28  1  0.62558948  0.37604096  0.62654685  1
  Fe  Fe29  1  -0.00237342  0.75185435  -0.00200603  1
  Fe  Fe30  1  0.87506634  0.62727602  0.87443866  1
  Fe  Fe31  1  0.24910104  -0.00075123  0.25177995  1
  Fe  Fe32  1  0.74994757  0.75124870  0.74884372  1
  Fe  Fe33  1  0.12295972  0.12502849  0.37653574  1
  Fe  Fe34  1  0.87560498  0.12649962  0.37579800  1
  Fe  Fe35  1  0.37656595  0.37731683  0.12486370  1
  Fe  Fe36  1  0.50036147  0.25069779  0.49973562  1
  Fe  Fe37  1  0.50098209  -0.00108131  0.25211275  1
  Fe  Fe38  1  0.87829599  0.12389991  0.62622486  1
  Fe  Fe39  1  0.62768838  0.87337679  0.37474901  1
  Fe  Fe40  1  0.50052005  0.74778997  0.50331235  1
  Fe  Fe41  1  0.00250813  0.49822318  0.50006749  1
  Fe  Fe42  1  0.49949714  0.75109682  0.25050731  1
  Fe  Fe43  1  -0.00005809  -0.00152955  -0.00154894  1
  Fe  Fe44  1  0.62311597  0.12517506  0.12460629  1
  Fe  Fe45  1  0.24854909  0.49967348  0.49952399  1
  Fe  Fe46  1  0.87652090  0.62249439  0.62735337  1
  Fe  Fe47  1  0.25100802  0.50184319  0.75113557  1
  Fe  Fe48  1  0.25005330  0.24918022  0.24956843  1
  Fe  Fe49  1  0.12453151  0.37735729  0.12486461  1
  Fe  Fe50  1  0.37346044  0.87759769  0.87126529  1
  Fe  Fe51  1  0.37550034  0.37377899  0.87522893  1
  Fe  Fe52  1  0.25236881  0.75025603  0.50114893  1
  Fe  Fe53  1  0.49874195  -0.00073536  -0.00021068  1
  Fe  Fe54  1  0.00143833  0.50676433  0.25173822  1
  Fe  Fe55  1  0.62582991  0.87285675  0.87673954  1
  Fe  Fe56  1  0.87309950  0.87164571  0.37294020  1
  Fe  Fe57  1  0.74884195  0.50084588  0.00073163  1
  Fe  Fe58  1  0.87652052  0.12637588  0.12307098  1
  Fe  Fe59  1  0.00523064  -0.00600824  0.75188024  1
  Fe  Fe60  1  0.24773411  0.24931809  0.50211511  1
  Fe  Fe61  1  0.62193807  0.37614063  0.12307073  1
  Fe  Fe62  1  0.49898485  0.24980436  0.25041388  1
  Fe  Fe63  1  0.25568299  0.74725404  0.00071113  1
  Fe  Fe64  1  0.37640559  0.62393386  0.37583584  1
  Fe  Fe65  1  0.62553878  0.37694987  0.37393054  1
  Fe  Fe66  1  0.12446828  0.12439789  0.12484823  1
  Fe  Fe67  1  0.25211213  0.24511679  0.74566520  1
  Fe  Fe68  1  0.25259600  0.24816375  0.00221996  1
  Fe  Fe69  1  0.12842157  0.37358577  0.87419728  1
  Fe  Fe70  1  0.49856942  0.50181281  0.74875555  1
  Fe  Fe71  1  0.87338042  0.87255773  0.12543566  1
  Fe  Fe72  1  0.74970818  0.00102102  0.24994104  1
  Fe  Fe73  1  0.12492739  0.87185638  0.12374631  1
  Fe  Fe74  1  0.24818667  0.00110940  0.50281647  1
  Fe  Fe75  1  0.37472572  0.37642622  0.62402384  1
  Fe  Fe76  1  0.61964940  0.62544882  0.12142573  1
  Fe  Fe77  1  0.24936038  0.74824560  0.25026037  1
  Fe  Fe78  1  0.62293949  0.62685027  0.87574909  1
  Fe  Fe79  1  0.87550423  0.12637804  0.87449079  1
  Fe  Fe80  1  0.62463390  0.62289748  0.37588189  1
  Fe  Fe81  1  0.00153837  0.25502251  0.50127551  1
  Fe  Fe82  1  0.12464298  0.87287186  0.37636311  1
  Fe  Fe83  1  0.74956984  0.25038737  0.24827678  1
  Fe  Fe84  1  0.12328111  0.62433729  0.62677676  1
  Fe  Fe85  1  0.00106957  0.49915532  -0.00394426  1
  Fe  Fe86  1  0.75071340  0.74438392  0.24685141  1
  Fe  Fe87  1  0.50071812  0.74973224  0.74699487  1
  Fe  Fe88  1  0.12482963  0.62737288  0.87445025  1
  Fe  Fe89  1  0.49880511  0.24739145  0.74976552  1
  Co  Co90  1  0.87308664  0.37734759  0.62464788  1
  Co  Co91  1  0.75037812  0.25062561  0.00275638  1
  Co  Co92  1  0.12917030  0.87269737  0.87973763  1
  Co  Co93  1  0.24431305  0.00010865  0.74642576  1
  Co  Co94  1  0.87794314  0.62468706  0.12135491  1
  Co  Co95  1  0.12612914  0.62740804  0.37819217  1
  Co  Co96  1  0.62533992  0.87402908  0.12514572  1
  Co  Co97  1  0.50372310  0.00118176  0.75328917  1
  Co  Co98  1  0.37476640  0.87481866  0.37645798  1
  Co  Co99  1  0.49691541  0.50137064  -0.00374943  1
  Co  Co100  1  0.62454681  0.87658564  0.62454824  1
  Co  Co101  1  0.12374780  0.62704154  0.12036606  1
  Co  Co102  1  0.49623902  0.24863297  0.00017492  1
  Co  Co103  1  0.00176032  0.25099128  -0.00061945  1
  Co  Co104  1  0.87171216  0.87512691  0.87464713  1
  Co  Co105  1  0.37652348  0.62790532  0.87078573  1
  Co  Co106  1  0.87335821  0.62351399  0.37764549  1
  Co  Co107  1  0.12574171  0.37542144  0.37176270  1
  Co  Co108  1  0.49579466  0.75216004  -0.00080674  1
  Co  Co109  1  0.37889007  0.62447535  0.12783391  1
  Co  Co110  1  0.74990430  0.24879275  0.74732957  1
  Co  Co111  1  0.50040923  0.50138461  0.50202191  1
  Co  Co112  1  0.00147026  0.75331644  0.75113397  1
  Co  Co113  1  0.12388437  0.87304910  0.62029563  1
  Co  Co114  1  -0.00177646  -0.00299551  0.49716366  1
  Co  Co115  1  0.12741915  0.37690806  0.62840624  1
  Co  Co116  1  0.37575383  0.12277978  0.12737995  1
  Co  Co117  1  -0.00065934  0.49741990  0.75327251  1
  Co  Co118  1  0.00019390  0.74777069  0.25103724  1
  Co  Co119  1  0.62542467  0.12510233  0.37476457  1
  Co  Co120  1  0.37248809  0.62410733  0.62538111  1
  Co  Co121  1  0.37868222  0.12080446  0.62420775  1
  Co  Co122  1  0.50033419  0.49939878  0.25143090  1
  Co  Co123  1  0.62789992  0.62293009  0.62729410  1
  Co  Co124  1  0.75002856  0.74933073  0.00099862  1
  Co  Co125  1  0.11891071  0.12538337  0.62430488  1
  Co  Co126  1  0.37330763  0.12239722  0.87285836  1
  Co  Co127  1  0.74907466  0.50325099  0.24650199  1
