# generated using pymatgen
data_Fe45Co19
_symmetry_space_group_name_H-M   'P 1'
_cell_length_a   11.41502749
_cell_length_b   11.41541325
_cell_length_c   11.41449088
_cell_angle_alpha   90.00311318
_cell_angle_beta   89.98949973
_cell_angle_gamma   90.01012978
_symmetry_Int_Tables_number   1
_chemical_formula_structural   Fe45Co19
_chemical_formula_sum   'Fe90 Co38'
_cell_volume   1487.39093584
_cell_formula_units_Z   2
loop_
 _symmetry_equiv_pos_site_id
 _symmetry_equiv_pos_as_xyz
  1  'x, y, z'
loop_
 _atom_site_type_symbol
 _atom_site_label
 _atom_site_symmetry_multiplicity
 _atom_site_fract_x
 _atom_site_fract_y
 _atom_site_fract_z
 _atom_site_occupancy
  Fe  Fe0  1  0.12290243  0.12328189  0.37023878  1
  Fe  Fe1  1  0.00097085  -0.00107096  0.74891051  1
  Fe  Fe2  1  0.37594468  0.12657828  0.62404553  1
  Fe  Fe3  1  0.49902930  0.49880354  -0.00086533  1
  Fe  Fe4  1  0.24991621  0.24830451  -0.00145782  1
  Fe  Fe5  1  0.24900431  0.00219440  0.00150731  1
  Fe  Fe6  1  0.12724209  0.62265826  0.37795742  1
  Fe  Fe7  1  0.12540093  0.87527491  0.12717821  1
  Fe  Fe8  1  0.62529447  0.87744453  0.37952533  1
  Fe  Fe9  1  0.50365634  0.25499371  0.25399504  1
  Fe  Fe10  1  0.00042928  0.24554617  0.00240744  1
  Fe  Fe11  1  0.37783136  0.12715700  0.37538371  1
  Fe  Fe12  1  0.87606751  0.37487087  0.12386678  1
  Fe  Fe13  1  -0.00034050  0.49909795  0.25344255  1
  Fe  Fe14  1  0.75254489  0.50061276  0.50516003  1
  Fe  Fe15  1  0.74920838  0.24971744  0.00037170  1
  Fe  Fe16  1  0.62369167  0.87420520  0.12525017  1
  Fe  Fe17  1  0.49757817  0.49597631  0.49934146  1
  Fe  Fe18  1  0.24758767  0.25200281  0.25095010  1
  Fe  Fe19  1  0.37368195  0.37319230  0.62449360  1
  Fe  Fe20  1  0.12276177  0.62361703  0.62171567  1
  Fe  Fe21  1  0.00061687  0.50331317  -0.00145880  1
  Fe  Fe22  1  0.87671008  0.87399299  0.87393972  1
  Fe  Fe23  1  0.49849366  0.74878454  -0.00059272  1
  Fe  Fe24  1  0.62552722  0.87378011  0.87407495  1
  Fe  Fe25  1  0.62457456  0.12670838  0.12668145  1
  Fe  Fe26  1  0.24670069  0.25278382  0.75156946  1
  Fe  Fe27  1  0.75033674  0.00193989  0.00036257  1
  Fe  Fe28  1  0.12407533  0.87243095  0.87813536  1
  Fe  Fe29  1  0.62454838  0.62397196  0.12581213  1
  Fe  Fe30  1  -0.00005957  0.00301781  0.00318977  1
  Fe  Fe31  1  0.12533042  0.62698361  0.12425476  1
  Fe  Fe32  1  0.12618110  0.12479892  0.62517242  1
  Fe  Fe33  1  0.87411903  0.87515290  0.37721393  1
  Fe  Fe34  1  0.74455156  0.24638414  0.50119218  1
  Fe  Fe35  1  0.37573700  0.37448924  0.12547011  1
  Fe  Fe36  1  0.62603402  0.62516461  0.87324493  1
  Fe  Fe37  1  0.75074067  0.00073531  0.25068431  1
  Fe  Fe38  1  0.62723491  0.62252462  0.37686674  1
  Fe  Fe39  1  0.62498156  0.12514711  0.87311394  1
  Fe  Fe40  1  0.37261626  0.62352062  0.37373881  1
  Fe  Fe41  1  0.87479188  0.62503922  0.12784888  1
  Fe  Fe42  1  0.49816971  -0.00200870  0.25283387  1
  Fe  Fe43  1  0.12612544  0.87581537  0.37547495  1
  Fe  Fe44  1  -0.00114892  0.74875691  0.25363345  1
  Fe  Fe45  1  0.50058756  -0.00135138  0.74733835  1
  Fe  Fe46  1  0.00288250  0.25374800  0.74675782  1
  Fe  Fe47  1  0.50133344  0.75014923  0.74800381  1
  Fe  Fe48  1  0.50104318  0.49765421  0.25207741  1
  Fe  Fe49  1  0.24860186  -0.00122740  0.75020779  1
  Fe  Fe50  1  0.37393884  0.87446103  0.87460374  1
  Fe  Fe51  1  0.37450145  0.12522676  0.87346916  1
  Fe  Fe52  1  0.25123124  0.75005401  0.25145854  1
  Fe  Fe53  1  0.75037870  0.49774247  0.24903853  1
  Fe  Fe54  1  0.37145086  0.62492816  0.87341883  1
  Fe  Fe55  1  0.87459515  0.37337040  0.37905431  1
  Fe  Fe56  1  0.88005950  0.62418277  0.62804922  1
  Fe  Fe57  1  0.24659866  0.74999151  0.74862047  1
  Fe  Fe58  1  0.74807826  0.74979594  0.25085606  1
  Fe  Fe59  1  0.25248391  0.00090041  0.49780693  1
  Fe  Fe60  1  0.87765044  0.37594837  0.87343758  1
  Fe  Fe61  1  0.75147501  0.74858494  -0.00011729  1
  Fe  Fe62  1  0.87590221  0.12626894  0.62516656  1
  Fe  Fe63  1  0.50094246  0.25084822  0.74939191  1
  Fe  Fe64  1  0.87611786  0.12505383  0.87284345  1
  Fe  Fe65  1  0.87474225  0.87443241  0.12549827  1
  Fe  Fe66  1  0.37561611  0.12749478  0.12703164  1
  Fe  Fe67  1  0.12298360  0.87427178  0.62020741  1
  Fe  Fe68  1  0.74937262  0.25260608  0.74796379  1
  Fe  Fe69  1  0.75065684  0.50050633  -0.00169026  1
  Fe  Fe70  1  0.12611236  0.37771599  0.37951655  1
  Fe  Fe71  1  0.37425641  0.87434869  0.62274180  1
  Fe  Fe72  1  0.25010820  0.49985325  -0.00073051  1
  Fe  Fe73  1  0.50121821  0.49987521  0.74942936  1
  Fe  Fe74  1  0.74937471  0.75032660  0.74627307  1
  Fe  Fe75  1  0.12403321  0.37477603  0.12366621  1
  Fe  Fe76  1  0.75279802  0.74863150  0.50302926  1
  Fe  Fe77  1  -0.00194035  0.00225761  0.49915297  1
  Fe  Fe78  1  0.74869941  0.25224408  0.24992521  1
  Fe  Fe79  1  0.24937386  0.24949228  0.49865660  1
  Fe  Fe80  1  0.37584840  0.87364718  0.12695470  1
  Fe  Fe81  1  0.74935640  -0.00170457  0.74572928  1
  Fe  Fe82  1  0.24411033  0.49749855  0.75067938  1
  Fe  Fe83  1  0.49848846  0.74955082  0.49879288  1
  Fe  Fe84  1  0.37603408  0.62516073  0.12772836  1
  Fe  Fe85  1  0.87898684  0.62527778  0.87049098  1
  Fe  Fe86  1  0.37424459  0.62480053  0.62558678  1
  Fe  Fe87  1  0.62442240  0.37600917  0.87474622  1
  Fe  Fe88  1  0.87610540  0.12709181  0.37222038  1
  Fe  Fe89  1  0.50058432  0.00162464  -0.00061927  1
  Co  Co90  1  0.75087328  0.49992860  0.74853977  1
  Co  Co91  1  0.37392857  0.87329934  0.37653340  1
  Co  Co92  1  0.12259680  0.37322270  0.87899907  1
  Co  Co93  1  0.00440004  0.49566524  0.74902051  1
  Co  Co94  1  0.00337823  0.75151393  0.74836974  1
  Co  Co95  1  0.25377367  0.50012944  0.50231816  1
  Co  Co96  1  0.12534059  0.12438349  0.13007015  1
  Co  Co97  1  0.50016436  0.24978987  -0.00173465  1
  Co  Co98  1  0.62304273  0.12195351  0.37347470  1
  Co  Co99  1  0.12509520  0.62776070  0.87709258  1
  Co  Co100  1  0.62249317  0.12394739  0.62574192  1
  Co  Co101  1  0.62481340  0.37657774  0.62511224  1
  Co  Co102  1  0.12532401  0.37560740  0.61822104  1
  Co  Co103  1  0.62490264  0.87504193  0.62077635  1
  Co  Co104  1  0.87405031  0.12681506  0.12880589  1
  Co  Co105  1  -0.00326580  0.50056746  0.49882434  1
  Co  Co106  1  0.62482692  0.37596316  0.12300388  1
  Co  Co107  1  0.12399863  0.12525956  0.87302102  1
  Co  Co108  1  0.62953748  0.37903728  0.37826676  1
  Co  Co109  1  -0.00300647  -0.00165167  0.24946608  1
  Co  Co110  1  0.50282587  0.25346398  0.49810188  1
  Co  Co111  1  0.75240469  0.00442198  0.50154623  1
  Co  Co112  1  0.87505846  0.37286919  0.62227135  1
  Co  Co113  1  0.25074544  0.74903929  0.50027982  1
  Co  Co114  1  0.25420697  -0.00020170  0.25132195  1
  Co  Co115  1  0.37114362  0.37514719  0.37457196  1
  Co  Co116  1  0.25291796  0.75046159  0.00173319  1
  Co  Co117  1  0.87738313  0.87518882  0.62328058  1
  Co  Co118  1  0.37464272  0.37553495  0.87356679  1
  Co  Co119  1  0.24816661  0.49929011  0.24803059  1
  Co  Co120  1  0.49726215  0.00119566  0.50081280  1
  Co  Co121  1  0.62302203  0.62417111  0.62276293  1
  Co  Co122  1  -0.00175739  0.74786365  0.49676897  1
  Co  Co123  1  0.00065266  0.25488339  0.25112893  1
  Co  Co124  1  0.50177739  0.74930530  0.25379682  1
  Co  Co125  1  0.00211039  0.24754241  0.49959865  1
  Co  Co126  1  0.87111631  0.62375495  0.37415204  1
  Co  Co127  1  -0.00277884  0.74944995  0.00201196  1
