# generated using pymatgen
data_Fe45Co19
_symmetry_space_group_name_H-M   'P 1'
_cell_length_a   11.41407508
_cell_length_b   11.41428305
_cell_length_c   11.41500568
_cell_angle_alpha   90.00451762
_cell_angle_beta   89.99834570
_cell_angle_gamma   90.01643793
_symmetry_Int_Tables_number   1
_chemical_formula_structural   Fe45Co19
_chemical_formula_sum   'Fe90 Co38'
_cell_volume   1487.18664070
_cell_formula_units_Z   2
loop_
 _symmetry_equiv_pos_site_id
 _symmetry_equiv_pos_as_xyz
  1  'x, y, z'
loop_
 _atom_site_type_symbol
 _atom_site_label
 _atom_site_symmetry_multiplicity
 _atom_site_fract_x
 _atom_site_fract_y
 _atom_site_fract_z
 _atom_site_occupancy
  Fe  Fe0  1  0.37568026  0.62473531  0.37478293  1
  Fe  Fe1  1  0.62609744  0.12144939  0.87799184  1
  Fe  Fe2  1  0.62586669  0.37418311  0.62364327  1
  Fe  Fe3  1  0.24903007  0.50099483  0.74786753  1
  Fe  Fe4  1  0.37598742  0.87564744  0.87623037  1
  Fe  Fe5  1  0.12323224  0.87377009  0.62722291  1
  Fe  Fe6  1  0.87361667  0.37344641  0.62276847  1
  Fe  Fe7  1  0.37485124  0.37586651  0.37364267  1
  Fe  Fe8  1  -0.00185911  0.74860650  0.75135469  1
  Fe  Fe9  1  0.12402304  0.37332308  0.37483454  1
  Fe  Fe10  1  0.62858750  0.37792838  0.12629393  1
  Fe  Fe11  1  0.37574274  0.37414581  0.62513775  1
  Fe  Fe12  1  0.12383812  0.87637141  0.87473785  1
  Fe  Fe13  1  0.74948224  0.00169584  0.50135987  1
  Fe  Fe14  1  -0.00231539  0.00279725  0.75262133  1
  Fe  Fe15  1  0.37782751  0.12498426  0.62229840  1
  Fe  Fe16  1  0.87389939  0.12728555  0.37521982  1
  Fe  Fe17  1  0.87233426  0.62350316  0.12259128  1
  Fe  Fe18  1  0.12336310  0.87603721  0.12462396  1
  Fe  Fe19  1  0.62826930  0.62749083  0.87668789  1
  Fe  Fe20  1  -0.00099839  0.24870388  0.75261719  1
  Fe  Fe21  1  0.24843498  0.24636762  0.25121663  1
  Fe  Fe22  1  0.50339551  0.50172224  0.24929774  1
  Fe  Fe23  1  -0.00211520  0.49735806  0.00060874  1
  Fe  Fe24  1  0.12178142  0.62533814  0.12739429  1
  Fe  Fe25  1  0.49509645  -0.00549402  0.24931092  1
  Fe  Fe26  1  0.50215020  0.49830398  0.49885330  1
  Fe  Fe27  1  0.63138247  0.37355205  0.37625030  1
  Fe  Fe28  1  0.50213683  0.25084719  -0.00024546  1
  Fe  Fe29  1  0.50267740  0.49970536  -0.00107703  1
  Fe  Fe30  1  0.50348021  0.75331687  0.00100563  1
  Fe  Fe31  1  0.75182438  0.74991802  0.24860828  1
  Fe  Fe32  1  0.50020098  0.75338786  0.49690366  1
  Fe  Fe33  1  0.74825721  0.25075230  0.00183062  1
  Fe  Fe34  1  0.12360895  0.62289769  0.87386546  1
  Fe  Fe35  1  0.75190348  0.00055432  0.75118512  1
  Fe  Fe36  1  0.37590893  0.87600365  0.62295895  1
  Fe  Fe37  1  0.24916271  0.50079828  0.24867876  1
  Fe  Fe38  1  0.12198099  0.12616878  0.12370849  1
  Fe  Fe39  1  0.24670888  0.50030625  0.50186749  1
  Fe  Fe40  1  0.62372921  0.11996890  0.12353868  1
  Fe  Fe41  1  0.50072832  0.75014610  0.75141634  1
  Fe  Fe42  1  0.25001153  0.24944285  0.49996022  1
  Fe  Fe43  1  0.62428804  0.12390212  0.37422931  1
  Fe  Fe44  1  0.24989354  0.50172708  0.00168940  1
  Fe  Fe45  1  0.25130686  0.00122405  0.00003416  1
  Fe  Fe46  1  0.12686903  0.37414547  0.87320844  1
  Fe  Fe47  1  0.49993435  0.24916538  0.75149402  1
  Fe  Fe48  1  0.75349047  0.00104279  0.24648990  1
  Fe  Fe49  1  0.75234946  0.75092975  0.49965624  1
  Fe  Fe50  1  -0.00080016  0.50002923  0.74899709  1
  Fe  Fe51  1  -0.00410079  0.00035869  -0.00341519  1
  Fe  Fe52  1  0.62759199  0.87628712  0.37221574  1
  Fe  Fe53  1  0.87202418  0.37360065  0.87558943  1
  Fe  Fe54  1  0.00010369  0.00191079  0.25100361  1
  Fe  Fe55  1  0.37699185  0.12517141  0.12375933  1
  Fe  Fe56  1  0.12419751  0.37288835  0.12605648  1
  Fe  Fe57  1  0.50182732  0.50098973  0.75209933  1
  Fe  Fe58  1  0.37520285  0.37423237  0.12627160  1
  Fe  Fe59  1  0.25181629  0.75193907  0.24984957  1
  Fe  Fe60  1  0.00015568  -0.00066112  0.49950354  1
  Fe  Fe61  1  0.75119844  0.75654514  -0.00013073  1
  Fe  Fe62  1  0.37602591  0.62436007  0.62446690  1
  Fe  Fe63  1  0.50172730  0.25012155  0.25154356  1
  Fe  Fe64  1  0.75003935  0.50233283  0.75032821  1
  Fe  Fe65  1  0.12333006  0.12749417  0.62636787  1
  Fe  Fe66  1  0.37482378  0.37436188  0.87461597  1
  Fe  Fe67  1  0.24808450  0.74786842  -0.00093625  1
  Fe  Fe68  1  -0.00329491  0.75167307  0.25285760  1
  Fe  Fe69  1  0.62750463  0.62534145  0.37439781  1
  Fe  Fe70  1  0.75016142  0.24778574  0.74820369  1
  Fe  Fe71  1  0.12746452  0.87848364  0.37437394  1
  Fe  Fe72  1  0.62524775  0.62632534  0.62374524  1
  Fe  Fe73  1  -0.00128738  0.49940054  0.49905474  1
  Fe  Fe74  1  -0.00610967  0.49601714  0.25093002  1
  Fe  Fe75  1  0.50008548  -0.00006213  0.75100459  1
  Fe  Fe76  1  0.62299461  0.12513698  0.62395713  1
  Fe  Fe77  1  0.25089940  0.00308000  0.75032185  1
  Fe  Fe78  1  0.87533128  0.87530909  0.62527663  1
  Fe  Fe79  1  -0.00188640  0.24892300  0.49858336  1
  Fe  Fe80  1  0.12226378  0.62537550  0.37483562  1
  Fe  Fe81  1  0.24915716  0.24846580  -0.00212606  1
  Fe  Fe82  1  0.62695662  0.87421311  0.62700511  1
  Fe  Fe83  1  -0.00127523  0.74990595  -0.00129890  1
  Fe  Fe84  1  0.37450131  0.12022335  0.37821547  1
  Fe  Fe85  1  0.24778794  0.74966948  0.50109083  1
  Fe  Fe86  1  0.87671250  0.62720202  0.62305043  1
  Fe  Fe87  1  0.37810752  0.62683223  0.12498036  1
  Fe  Fe88  1  0.87676663  0.12901642  0.12242453  1
  Fe  Fe89  1  0.25085539  0.74807080  0.75137267  1
  Co  Co90  1  0.75133316  0.74855042  0.74964525  1
  Co  Co91  1  0.62555719  0.87771487  0.12813866  1
  Co  Co92  1  0.74800556  0.24786817  0.24681475  1
  Co  Co93  1  0.87411007  0.62551780  0.87674320  1
  Co  Co94  1  0.37023036  0.87866352  0.37875556  1
  Co  Co95  1  0.25082893  0.24735796  0.74949294  1
  Co  Co96  1  0.87649594  0.12343813  0.62456938  1
  Co  Co97  1  -0.00020296  0.25118288  0.25142426  1
  Co  Co98  1  0.62818596  0.62585742  0.12365026  1
  Co  Co99  1  0.37673410  0.62426242  0.87654218  1
  Co  Co100  1  0.87536963  0.87447345  0.87150295  1
  Co  Co101  1  0.86964795  0.37035770  0.37673773  1
  Co  Co102  1  0.49903449  -0.00291919  0.00029919  1
  Co  Co103  1  0.75404426  -0.00417958  0.00156969  1
  Co  Co104  1  0.49929303  0.75214109  0.25218402  1
  Co  Co105  1  0.74882085  0.24513559  0.50276471  1
  Co  Co106  1  0.75284008  0.50099141  0.25140484  1
  Co  Co107  1  0.00012680  0.75364656  0.49770783  1
  Co  Co108  1  0.12427206  0.12477773  0.87496271  1
  Co  Co109  1  0.75149530  0.50178399  0.50168419  1
  Co  Co110  1  0.62662572  0.87739089  0.87303596  1
  Co  Co111  1  0.87500030  0.62578955  0.37612220  1
  Co  Co112  1  0.37756549  0.12542980  0.87632178  1
  Co  Co113  1  0.87279743  0.87851582  0.37526067  1
  Co  Co114  1  0.24593335  0.00090949  0.50588219  1
  Co  Co115  1  0.74975410  0.49783504  -0.00297368  1
  Co  Co116  1  0.62655613  0.37255262  0.87287487  1
  Co  Co117  1  0.87267358  0.37278598  0.12433452  1
  Co  Co118  1  0.00089143  0.25274318  -0.00286852  1
  Co  Co119  1  0.37342448  0.87208596  0.12240863  1
  Co  Co120  1  0.12500779  0.12351113  0.37596251  1
  Co  Co121  1  0.87844757  0.87562055  0.12717791  1
  Co  Co122  1  0.12341376  0.37159658  0.62494787  1
  Co  Co123  1  0.50105363  0.25083445  0.49741608  1
  Co  Co124  1  0.25040137  0.00179291  0.24523455  1
  Co  Co125  1  0.12237834  0.62701627  0.62514334  1
  Co  Co126  1  0.87106838  0.12746623  0.87777712  1
  Co  Co127  1  0.50446633  -0.00318297  0.50043791  1
