# generated using pymatgen
data_Fe45Co19
_symmetry_space_group_name_H-M   'P 1'
_cell_length_a   11.41621372
_cell_length_b   11.41597502
_cell_length_c   11.41763918
_cell_angle_alpha   89.99487642
_cell_angle_beta   90.00443229
_cell_angle_gamma   89.99616791
_symmetry_Int_Tables_number   1
_chemical_formula_structural   Fe45Co19
_chemical_formula_sum   'Fe90 Co38'
_cell_volume   1488.02905307
_cell_formula_units_Z   2
loop_
 _symmetry_equiv_pos_site_id
 _symmetry_equiv_pos_as_xyz
  1  'x, y, z'
loop_
 _atom_site_type_symbol
 _atom_site_label
 _atom_site_symmetry_multiplicity
 _atom_site_fract_x
 _atom_site_fract_y
 _atom_site_fract_z
 _atom_site_occupancy
  Fe  Fe0  1  0.24955436  0.00154221  0.50174112  1
  Fe  Fe1  1  0.74955363  -0.00051652  0.74885632  1
  Fe  Fe2  1  0.75054010  0.24896014  0.74885411  1
  Fe  Fe3  1  -0.00049420  0.49851855  0.50205331  1
  Fe  Fe4  1  0.62520074  0.87364279  0.87491665  1
  Fe  Fe5  1  0.37297533  0.62546055  0.62574656  1
  Fe  Fe6  1  -0.00390126  0.24752860  0.00115901  1
  Fe  Fe7  1  0.87818767  0.87746286  0.12729923  1
  Fe  Fe8  1  0.49826192  0.75008691  0.50045885  1
  Fe  Fe9  1  0.37374705  0.37626082  0.37648419  1
  Fe  Fe10  1  0.74935271  0.75013641  0.25000756  1
  Fe  Fe11  1  0.12381646  0.37115330  0.62448089  1
  Fe  Fe12  1  -0.00167768  0.50033001  0.74870792  1
  Fe  Fe13  1  0.36976540  0.62567224  0.37442883  1
  Fe  Fe14  1  0.49915550  0.24809035  -0.00229050  1
  Fe  Fe15  1  0.12616823  0.37234228  0.87467313  1
  Fe  Fe16  1  0.25409551  0.25003124  -0.00161955  1
  Fe  Fe17  1  0.00173455  0.74896928  -0.00091053  1
  Fe  Fe18  1  0.12711934  0.12586760  0.37478625  1
  Fe  Fe19  1  0.12442426  0.87534394  0.37483390  1
  Fe  Fe20  1  0.25313587  0.24737345  0.50246923  1
  Fe  Fe21  1  0.62595428  0.37707951  0.12649769  1
  Fe  Fe22  1  0.37448749  0.87194462  0.12789515  1
  Fe  Fe23  1  0.62251570  0.12491079  0.62409782  1
  Fe  Fe24  1  0.25210715  0.25000805  0.24939657  1
  Fe  Fe25  1  0.25069209  0.49677925  0.74940834  1
  Fe  Fe26  1  0.50129412  0.00122743  0.75186220  1
  Fe  Fe27  1  0.62294821  0.37420816  0.62580171  1
  Fe  Fe28  1  0.62722429  0.62597709  0.62493694  1
  Fe  Fe29  1  0.62611011  0.12550579  0.12526517  1
  Fe  Fe30  1  0.11957751  0.87698026  0.62719508  1
  Fe  Fe31  1  -0.00068841  0.75199316  0.50192254  1
  Fe  Fe32  1  0.37247299  0.87693570  0.87302676  1
  Fe  Fe33  1  0.12801431  0.62527419  0.87521318  1
  Fe  Fe34  1  0.37647778  0.37285435  0.62606470  1
  Fe  Fe35  1  0.49963417  0.00054967  -0.00109896  1
  Fe  Fe36  1  0.12476141  0.62520374  0.62477271  1
  Fe  Fe37  1  0.87439699  0.37638050  0.37329758  1
  Fe  Fe38  1  0.49854400  0.50014767  0.50146249  1
  Fe  Fe39  1  0.62576319  0.37625515  0.37523468  1
  Fe  Fe40  1  0.37140283  0.62478496  0.87410516  1
  Fe  Fe41  1  0.49747778  0.74931804  -0.00120834  1
  Fe  Fe42  1  0.49953587  0.24909264  0.25239931  1
  Fe  Fe43  1  0.75297700  0.49781221  0.50361556  1
  Fe  Fe44  1  0.49844582  0.00115136  0.49895860  1
  Fe  Fe45  1  0.87307430  0.37754565  0.12743207  1
  Fe  Fe46  1  0.62320738  0.87255832  0.12462411  1
  Fe  Fe47  1  0.75086011  -0.00411794  0.50147195  1
  Fe  Fe48  1  0.00049390  0.00468372  0.00018304  1
  Fe  Fe49  1  0.75117915  0.25008176  0.50044821  1
  Fe  Fe50  1  0.87672248  0.87581356  0.37224135  1
  Fe  Fe51  1  0.62680909  0.62474461  0.12444244  1
  Fe  Fe52  1  -0.00223263  0.24769848  0.49681302  1
  Fe  Fe53  1  0.75094257  0.25028733  0.00090366  1
  Fe  Fe54  1  0.37392773  0.87374225  0.37258131  1
  Fe  Fe55  1  0.49837307  0.50194800  0.25007882  1
  Fe  Fe56  1  0.62318041  0.87211586  0.37553568  1
  Fe  Fe57  1  0.12511741  0.87497277  0.87473119  1
  Fe  Fe58  1  0.00063264  0.49964367  -0.00113520  1
  Fe  Fe59  1  0.87290315  0.62370588  0.87326104  1
  Fe  Fe60  1  0.49878059  0.74994805  0.75043441  1
  Fe  Fe61  1  0.62511457  0.37764375  0.87312981  1
  Fe  Fe62  1  0.12667198  0.37522109  0.37746546  1
  Fe  Fe63  1  0.87423155  0.37450636  0.87281982  1
  Fe  Fe64  1  0.49741828  0.24739396  0.75326411  1
  Fe  Fe65  1  0.50045607  0.00088834  0.25032439  1
  Fe  Fe66  1  0.00574525  0.74750011  0.24856190  1
  Fe  Fe67  1  0.62657926  0.62572818  0.37741174  1
  Fe  Fe68  1  0.87754870  0.87710077  0.87245716  1
  Fe  Fe69  1  0.75212383  0.75098343  0.00054288  1
  Fe  Fe70  1  0.87524601  0.62292431  0.12466699  1
  Fe  Fe71  1  0.12592861  0.37445819  0.12355579  1
  Fe  Fe72  1  0.37595675  0.87686938  0.62654452  1
  Fe  Fe73  1  0.87852009  0.12181502  0.62514170  1
  Fe  Fe74  1  0.24748165  0.00067857  0.24730373  1
  Fe  Fe75  1  0.87266911  0.12131666  0.37049564  1
  Fe  Fe76  1  0.62804374  0.62443362  0.87263363  1
  Fe  Fe77  1  0.24886109  0.75208697  0.50200131  1
  Fe  Fe78  1  0.75297245  0.75357599  0.74556054  1
  Fe  Fe79  1  0.49916759  0.50171708  -0.00189362  1
  Fe  Fe80  1  0.24987927  0.00050488  0.00350346  1
  Fe  Fe81  1  0.36856677  0.62607847  0.12584193  1
  Fe  Fe82  1  -0.00102435  0.24803472  0.24965803  1
  Fe  Fe83  1  0.24583684  0.00596292  0.74751135  1
  Fe  Fe84  1  0.37501898  0.37655237  0.12428558  1
  Fe  Fe85  1  0.00230360  0.24454753  0.75204463  1
  Fe  Fe86  1  0.00499348  0.50175461  0.25045624  1
  Fe  Fe87  1  0.87541726  0.62584607  0.37721285  1
  Fe  Fe88  1  0.75015262  0.00042357  0.00030989  1
  Fe  Fe89  1  0.62564992  0.12539555  0.37556029  1
  Co  Co90  1  0.24653302  0.49874602  0.25084184  1
  Co  Co91  1  0.74592594  -0.00296411  0.24990972  1
  Co  Co92  1  0.24881693  0.75183338  0.74851525  1
  Co  Co93  1  0.75176707  0.75537411  0.50195393  1
  Co  Co94  1  0.87900836  0.37032982  0.62647443  1
  Co  Co95  1  0.24335470  0.75006673  0.25043536  1
  Co  Co96  1  0.62657769  0.12490404  0.87548546  1
  Co  Co97  1  0.12256137  0.87466750  0.12277134  1
  Co  Co98  1  0.37833293  0.12463386  0.62564780  1
  Co  Co99  1  0.87237456  0.12518164  0.87471827  1
  Co  Co100  1  0.87286282  0.12247690  0.12816599  1
  Co  Co101  1  0.74956166  0.25100605  0.25042715  1
  Co  Co102  1  0.12879067  0.12778040  0.88045246  1
  Co  Co103  1  0.24995058  0.75344746  -0.00099200  1
  Co  Co104  1  0.12118355  0.12669923  0.62087955  1
  Co  Co105  1  0.00407071  0.00527679  0.75481471  1
  Co  Co106  1  0.50033922  0.74724820  0.25020650  1
  Co  Co107  1  0.88176523  0.87943580  0.62790431  1
  Co  Co108  1  0.12595549  0.62387480  0.38038989  1
  Co  Co109  1  0.24983934  0.49693706  -0.00227221  1
  Co  Co110  1  0.37258004  0.12208113  0.87498533  1
  Co  Co111  1  0.00003303  0.74803863  0.75166232  1
  Co  Co112  1  0.00020341  0.00096437  0.49548743  1
  Co  Co113  1  0.49909235  0.25005088  0.49736002  1
  Co  Co114  1  0.00498775  0.00279804  0.24927023  1
  Co  Co115  1  0.87503749  0.62709574  0.62347118  1
  Co  Co116  1  0.12580513  0.12918494  0.12383607  1
  Co  Co117  1  0.75308910  0.49791069  0.74640548  1
  Co  Co118  1  0.75014529  0.49817046  -0.00125376  1
  Co  Co119  1  0.62087443  0.87490032  0.62477200  1
  Co  Co120  1  0.37622501  0.12529801  0.12536709  1
  Co  Co121  1  0.25047282  0.49842776  0.50328663  1
  Co  Co122  1  0.75013294  0.50199968  0.25135615  1
  Co  Co123  1  0.49830609  0.50170074  0.74953663  1
  Co  Co124  1  0.37357335  0.12345350  0.37449223  1
  Co  Co125  1  0.25056600  0.24815574  0.74872260  1
  Co  Co126  1  0.12852172  0.62357845  0.12054780  1
  Co  Co127  1  0.37643773  0.37528946  0.87428682  1
