# generated using pymatgen
data_Fe45Co19
_symmetry_space_group_name_H-M   'P 1'
_cell_length_a   11.41522429
_cell_length_b   11.41578885
_cell_length_c   11.41498434
_cell_angle_alpha   90.00088211
_cell_angle_beta   90.00110697
_cell_angle_gamma   90.00477959
_symmetry_Int_Tables_number   1
_chemical_formula_structural   Fe45Co19
_chemical_formula_sum   'Fe90 Co38'
_cell_volume   1487.52986805
_cell_formula_units_Z   2
loop_
 _symmetry_equiv_pos_site_id
 _symmetry_equiv_pos_as_xyz
  1  'x, y, z'
loop_
 _atom_site_type_symbol
 _atom_site_label
 _atom_site_symmetry_multiplicity
 _atom_site_fract_x
 _atom_site_fract_y
 _atom_site_fract_z
 _atom_site_occupancy
  Fe  Fe0  1  0.49757015  0.00006284  0.24840932  1
  Fe  Fe1  1  0.50177162  0.00029346  0.50176583  1
  Fe  Fe2  1  0.00350644  0.00084078  0.75211574  1
  Fe  Fe3  1  0.00193480  0.75001771  0.00132535  1
  Fe  Fe4  1  0.62387166  0.37261447  0.87568185  1
  Fe  Fe5  1  0.12141551  0.37185280  0.87411480  1
  Fe  Fe6  1  0.25153268  0.49925121  0.25213271  1
  Fe  Fe7  1  0.62746572  0.37264912  0.12580475  1
  Fe  Fe8  1  0.49821860  0.74878505  -0.00058171  1
  Fe  Fe9  1  0.12658346  0.63025285  0.87244441  1
  Fe  Fe10  1  0.62649569  0.12627567  0.12510167  1
  Fe  Fe11  1  0.87561979  0.37402552  0.62225707  1
  Fe  Fe12  1  0.37397514  0.37295843  0.12580965  1
  Fe  Fe13  1  0.62331731  0.62488638  0.87243205  1
  Fe  Fe14  1  0.12272732  0.12233335  0.37157655  1
  Fe  Fe15  1  0.87771060  0.37420897  0.87778578  1
  Fe  Fe16  1  0.62432143  0.12695549  0.87529158  1
  Fe  Fe17  1  0.24947134  0.25076632  0.49778766  1
  Fe  Fe18  1  0.12518062  0.37440646  0.62556418  1
  Fe  Fe19  1  0.12654896  0.87375384  0.12667691  1
  Fe  Fe20  1  0.00288754  0.50252418  0.00250474  1
  Fe  Fe21  1  0.74817023  0.24773404  0.49463857  1
  Fe  Fe22  1  0.75153212  0.00051112  0.25185065  1
  Fe  Fe23  1  0.12196534  0.37515680  0.37209074  1
  Fe  Fe24  1  0.62500217  0.87695828  0.37376161  1
  Fe  Fe25  1  0.12653692  0.12382029  0.12727433  1
  Fe  Fe26  1  0.62661702  0.87479059  0.12578007  1
  Fe  Fe27  1  0.75008637  0.49843692  0.75023121  1
  Fe  Fe28  1  0.75054272  0.24839668  0.25477813  1
  Fe  Fe29  1  0.74801638  0.74996243  -0.00163238  1
  Fe  Fe30  1  0.49434590  0.75097684  0.74926614  1
  Fe  Fe31  1  0.25045656  0.49975237  0.75024844  1
  Fe  Fe32  1  0.38005519  0.37261999  0.37669212  1
  Fe  Fe33  1  0.12386022  0.87606881  0.37179335  1
  Fe  Fe34  1  0.24665139  -0.00150718  0.49960477  1
  Fe  Fe35  1  0.12455385  0.62608969  0.37249932  1
  Fe  Fe36  1  0.12757988  0.62781114  0.62777974  1
  Fe  Fe37  1  0.49714629  -0.00166299  0.74823583  1
  Fe  Fe38  1  0.50202301  0.74872281  0.50097882  1
  Fe  Fe39  1  0.37237101  0.12429047  0.62424385  1
  Fe  Fe40  1  0.87641034  0.87830765  0.37766903  1
  Fe  Fe41  1  0.87724919  0.87643703  0.87676048  1
  Fe  Fe42  1  0.87911666  0.12523592  0.87876852  1
  Fe  Fe43  1  0.62330110  0.37481213  0.62136633  1
  Fe  Fe44  1  0.00094035  0.24901256  0.49962405  1
  Fe  Fe45  1  -0.00145134  0.24875421  0.24832198  1
  Fe  Fe46  1  0.87469552  0.12195214  0.12122835  1
  Fe  Fe47  1  0.87424827  0.62373606  0.87720079  1
  Fe  Fe48  1  0.24737337  0.25201416  0.00075507  1
  Fe  Fe49  1  0.75272174  0.25033106  0.75066708  1
  Fe  Fe50  1  0.37270726  0.62484522  0.12410379  1
  Fe  Fe51  1  0.50256620  0.49870306  0.00202675  1
  Fe  Fe52  1  0.75141580  0.75061874  0.74929610  1
  Fe  Fe53  1  0.00282158  0.75150625  0.50221685  1
  Fe  Fe54  1  0.25130748  0.25121977  0.75034325  1
  Fe  Fe55  1  0.24427010  -0.00217468  -0.00452750  1
  Fe  Fe56  1  0.49932279  0.50082453  0.25032267  1
  Fe  Fe57  1  0.62824033  0.62650178  0.12601576  1
  Fe  Fe58  1  0.49929864  0.75023857  0.24969450  1
  Fe  Fe59  1  0.37618204  0.12580698  0.37419077  1
  Fe  Fe60  1  0.87500330  0.87820149  0.62456723  1
  Fe  Fe61  1  0.49889040  0.49975401  0.74624010  1
  Fe  Fe62  1  0.74985547  0.49946869  0.49803298  1
  Fe  Fe63  1  0.00071975  0.50088460  0.49980820  1
  Fe  Fe64  1  -0.00056478  0.50091151  0.74873710  1
  Fe  Fe65  1  0.37275775  0.62556706  0.62178486  1
  Fe  Fe66  1  0.87361741  0.62459307  0.62278685  1
  Fe  Fe67  1  0.87545500  0.12273957  0.62168905  1
  Fe  Fe68  1  0.37496312  0.87427520  0.37812952  1
  Fe  Fe69  1  0.49795487  0.25067103  0.74782098  1
  Fe  Fe70  1  0.37366320  0.87566861  0.12187178  1
  Fe  Fe71  1  0.37396606  0.12421861  0.87631854  1
  Fe  Fe72  1  0.12605005  0.12638104  0.62773253  1
  Fe  Fe73  1  0.50210331  0.00194404  0.00113722  1
  Fe  Fe74  1  0.25081881  0.49989541  0.49740476  1
  Fe  Fe75  1  0.75015073  -0.00033004  0.75200846  1
  Fe  Fe76  1  0.87416025  0.37707832  0.12352709  1
  Fe  Fe77  1  -0.00454494  0.74895556  0.24929488  1
  Fe  Fe78  1  0.74813962  0.75253301  0.50088030  1
  Fe  Fe79  1  0.87270757  0.87577469  0.12256384  1
  Fe  Fe80  1  0.24667356  0.50080161  0.00052604  1
  Fe  Fe81  1  0.37614087  0.37637257  0.87563825  1
  Fe  Fe82  1  0.62530914  0.62437067  0.37485465  1
  Fe  Fe83  1  0.75283135  0.50214807  0.25253960  1
  Fe  Fe84  1  -0.00335498  0.50384125  0.24912411  1
  Fe  Fe85  1  0.62226423  0.87499960  0.87346971  1
  Fe  Fe86  1  0.25234337  0.75081913  0.25081621  1
  Fe  Fe87  1  0.62668032  0.12365744  0.62529740  1
  Fe  Fe88  1  0.37228575  0.12619301  0.12508874  1
  Fe  Fe89  1  0.12941984  0.87146420  0.63222153  1
  Co  Co90  1  0.50145835  0.24712622  0.50133302  1
  Co  Co91  1  0.49810945  0.50344240  0.50090980  1
  Co  Co92  1  -0.00568354  0.74804356  0.74819483  1
  Co  Co93  1  0.37409347  0.37461558  0.62288438  1
  Co  Co94  1  0.62205243  0.12208763  0.37323076  1
  Co  Co95  1  -0.00300676  0.24979117  0.74678474  1
  Co  Co96  1  0.00603573  -0.00258443  -0.00128439  1
  Co  Co97  1  0.37483813  0.62758492  0.37430387  1
  Co  Co98  1  0.75236468  0.75049595  0.25210338  1
  Co  Co99  1  0.00646642  -0.00235564  0.50400004  1
  Co  Co100  1  0.24932453  0.00015476  0.75222513  1
  Co  Co101  1  0.12535379  0.86808983  0.86950878  1
  Co  Co102  1  0.37651648  0.61975505  0.87778729  1
  Co  Co103  1  0.25145265  0.74964459  -0.00140693  1
  Co  Co104  1  0.87201920  0.62575331  0.12157609  1
  Co  Co105  1  0.50150741  0.24927983  0.24888182  1
  Co  Co106  1  0.62439210  0.87562963  0.62766186  1
  Co  Co107  1  0.25325298  -0.00197584  0.25146187  1
  Co  Co108  1  0.75051561  0.24995428  -0.00148525  1
  Co  Co109  1  0.12291175  0.12994094  0.87402928  1
  Co  Co110  1  0.74702337  0.49981354  -0.00185981  1
  Co  Co111  1  0.87921230  0.12105155  0.37809127  1
  Co  Co112  1  0.74705319  -0.00005470  0.49908399  1
  Co  Co113  1  0.62183423  0.37727308  0.37566837  1
  Co  Co114  1  0.87568415  0.62754680  0.37943452  1
  Co  Co115  1  -0.00251639  -0.00120242  0.24667136  1
  Co  Co116  1  0.87717804  0.37392227  0.37477787  1
  Co  Co117  1  0.24604679  0.75059415  0.49768501  1
  Co  Co118  1  0.25000869  0.25097527  0.25231556  1
  Co  Co119  1  0.62637775  0.62567497  0.62659367  1
  Co  Co120  1  0.26043666  0.74991383  0.75378192  1
  Co  Co121  1  0.12742389  0.62702918  0.12852591  1
  Co  Co122  1  0.37610773  0.87958327  0.87888431  1
  Co  Co123  1  0.00168324  0.25016974  0.00548854  1
  Co  Co124  1  0.74713423  -0.00022692  -0.00218928  1
  Co  Co125  1  0.12455048  0.37684972  0.12876697  1
  Co  Co126  1  0.49910640  0.25019752  0.00107067  1
  Co  Co127  1  0.37284360  0.87523523  0.62043549  1
