# generated using pymatgen
data_Fe45Co19
_symmetry_space_group_name_H-M   'P 1'
_cell_length_a   11.41524729
_cell_length_b   11.41494865
_cell_length_c   11.41543023
_cell_angle_alpha   90.00035539
_cell_angle_beta   89.99811068
_cell_angle_gamma   90.00245332
_symmetry_Int_Tables_number   1
_chemical_formula_structural   Fe45Co19
_chemical_formula_sum   'Fe90 Co38'
_cell_volume   1487.48148764
_cell_formula_units_Z   2
loop_
 _symmetry_equiv_pos_site_id
 _symmetry_equiv_pos_as_xyz
  1  'x, y, z'
loop_
 _atom_site_type_symbol
 _atom_site_label
 _atom_site_symmetry_multiplicity
 _atom_site_fract_x
 _atom_site_fract_y
 _atom_site_fract_z
 _atom_site_occupancy
  Fe  Fe0  1  0.62298953  0.87471240  0.12693504  1
  Fe  Fe1  1  0.75320840  -0.00021972  0.25243821  1
  Fe  Fe2  1  -0.00156921  -0.00152528  -0.00147885  1
  Fe  Fe3  1  0.62462376  0.12519491  0.12667236  1
  Fe  Fe4  1  0.87721986  0.37101198  0.38079481  1
  Fe  Fe5  1  0.75127340  -0.00059441  0.75003892  1
  Fe  Fe6  1  0.00210677  0.74818401  0.49923115  1
  Fe  Fe7  1  0.37323742  0.87472363  0.87529716  1
  Fe  Fe8  1  0.87633841  0.37484187  0.62001300  1
  Fe  Fe9  1  0.00160150  0.50247491  -0.00048747  1
  Fe  Fe10  1  -0.00132268  0.00402247  0.49710914  1
  Fe  Fe11  1  0.50013704  0.75230638  0.50046064  1
  Fe  Fe12  1  0.25153567  0.74962813  0.74737012  1
  Fe  Fe13  1  0.62557426  0.12426474  0.62639118  1
  Fe  Fe14  1  0.75193993  0.49730044  0.25004209  1
  Fe  Fe15  1  0.49775240  0.00105982  0.49700494  1
  Fe  Fe16  1  0.12346086  0.62662372  0.87378990  1
  Fe  Fe17  1  -0.00226926  -0.00148787  0.25250483  1
  Fe  Fe18  1  0.50323746  0.25112039  0.49963251  1
  Fe  Fe19  1  0.12780365  0.87646827  0.62138275  1
  Fe  Fe20  1  0.37621572  0.62404104  0.37637446  1
  Fe  Fe21  1  -0.00319719  0.49754021  0.25156776  1
  Fe  Fe22  1  0.37443978  0.37392376  0.62442708  1
  Fe  Fe23  1  0.74938772  0.74950710  0.25063092  1
  Fe  Fe24  1  0.37385003  0.37351515  0.88058398  1
  Fe  Fe25  1  0.75148016  0.25077026  0.74760901  1
  Fe  Fe26  1  0.12587957  0.37558646  0.87480403  1
  Fe  Fe27  1  0.49881443  0.25318274  0.24868378  1
  Fe  Fe28  1  0.74934069  0.75004388  0.00027070  1
  Fe  Fe29  1  0.37790475  0.87310870  0.12687734  1
  Fe  Fe30  1  0.87478419  0.37585168  0.87748033  1
  Fe  Fe31  1  0.49940578  0.49867869  0.75131170  1
  Fe  Fe32  1  0.37522018  0.37801584  0.11922078  1
  Fe  Fe33  1  0.12679833  0.38072717  0.12620981  1
  Fe  Fe34  1  0.12423527  0.12749533  0.36931866  1
  Fe  Fe35  1  0.74885295  0.74971643  0.74502575  1
  Fe  Fe36  1  0.87532462  0.62676818  0.87398739  1
  Fe  Fe37  1  0.37780682  0.62667897  0.87728922  1
  Fe  Fe38  1  0.24597275  0.25134101  0.50031676  1
  Fe  Fe39  1  0.87691720  0.12476580  0.12615893  1
  Fe  Fe40  1  0.87522111  0.87342403  0.12495406  1
  Fe  Fe41  1  0.00258947  0.25025976  0.00296922  1
  Fe  Fe42  1  0.75320666  0.00448379  0.49724079  1
  Fe  Fe43  1  0.00017068  -0.00210183  0.75185656  1
  Fe  Fe44  1  0.24954865  0.74500690  0.00426599  1
  Fe  Fe45  1  0.12675292  0.12506222  0.87536751  1
  Fe  Fe46  1  0.25342744  0.74711898  0.24923948  1
  Fe  Fe47  1  0.62099380  0.62570832  0.12624096  1
  Fe  Fe48  1  0.62597233  0.12772216  0.37222246  1
  Fe  Fe49  1  0.87649944  0.62561494  0.12433804  1
  Fe  Fe50  1  0.25054150  0.25025249  0.75160242  1
  Fe  Fe51  1  -0.00054859  0.75199555  0.74878183  1
  Fe  Fe52  1  0.12541616  0.62246150  0.62624802  1
  Fe  Fe53  1  0.87472356  0.12602290  0.87455052  1
  Fe  Fe54  1  0.62245275  0.62787564  0.87189285  1
  Fe  Fe55  1  -0.00100330  0.75067145  0.25187546  1
  Fe  Fe56  1  0.87399436  0.62371910  0.37916916  1
  Fe  Fe57  1  0.49843327  0.49764541  0.25057571  1
  Fe  Fe58  1  0.12604956  0.62197370  0.37215895  1
  Fe  Fe59  1  0.12667533  0.87283273  0.87701803  1
  Fe  Fe60  1  0.12624696  0.12345128  0.62823727  1
  Fe  Fe61  1  0.37149694  0.87719504  0.62150161  1
  Fe  Fe62  1  0.24958388  0.00130009  0.00230030  1
  Fe  Fe63  1  0.37673390  0.62319104  0.62355191  1
  Fe  Fe64  1  0.37263884  0.12809635  0.37370706  1
  Fe  Fe65  1  0.75055739  -0.00025748  -0.00061147  1
  Fe  Fe66  1  0.87574940  0.87609361  0.62266333  1
  Fe  Fe67  1  0.37306933  0.12480466  0.62554964  1
  Fe  Fe68  1  0.50339083  0.49453865  0.49953779  1
  Fe  Fe69  1  0.62521548  0.62248003  0.37576506  1
  Fe  Fe70  1  0.13013802  0.87570074  0.37575627  1
  Fe  Fe71  1  0.50091329  0.00269188  -0.00192950  1
  Fe  Fe72  1  0.49735136  -0.00134684  0.25318005  1
  Fe  Fe73  1  0.74833107  0.25055002  0.00219899  1
  Fe  Fe74  1  0.24910308  0.25312174  0.24680498  1
  Fe  Fe75  1  0.62465074  0.87438698  0.87321846  1
  Fe  Fe76  1  0.24748344  0.49694389  0.49793335  1
  Fe  Fe77  1  0.62616768  0.87542350  0.37592007  1
  Fe  Fe78  1  0.12423692  0.87421526  0.12603703  1
  Fe  Fe79  1  0.62500396  0.37290430  0.87468840  1
  Fe  Fe80  1  -0.00143710  0.49928798  0.74813585  1
  Fe  Fe81  1  0.25167230  0.49987176  0.75226809  1
  Fe  Fe82  1  0.74995296  0.50094648  0.74557159  1
  Fe  Fe83  1  0.75267279  0.25340789  0.24809732  1
  Fe  Fe84  1  0.74820238  0.74791866  0.50303882  1
  Fe  Fe85  1  0.49803088  0.00059720  0.75140059  1
  Fe  Fe86  1  -0.00058605  0.25095578  0.74812829  1
  Fe  Fe87  1  0.49873853  0.24732382  0.75319069  1
  Fe  Fe88  1  0.37436976  0.12597551  0.12343532  1
  Fe  Fe89  1  0.74674112  0.50078290  0.00052882  1
  Co  Co90  1  0.37064478  0.12496793  0.87675346  1
  Co  Co91  1  0.62684549  0.37415382  0.37254904  1
  Co  Co92  1  0.00022145  0.25386396  0.24390424  1
  Co  Co93  1  0.87347129  0.87181433  0.37736004  1
  Co  Co94  1  0.00355801  0.50032845  0.49985940  1
  Co  Co95  1  0.12199429  0.62310604  0.12986742  1
  Co  Co96  1  0.25259299  -0.00006590  0.24959825  1
  Co  Co97  1  0.24754054  0.50516792  -0.00095215  1
  Co  Co98  1  0.87734701  0.62465826  0.62308061  1
  Co  Co99  1  0.62325291  0.37343448  0.62832425  1
  Co  Co100  1  0.24944345  0.74531379  0.50012137  1
  Co  Co101  1  0.87740551  0.13251228  0.37262145  1
  Co  Co102  1  0.24948889  0.00564404  0.49737717  1
  Co  Co103  1  0.62500820  0.87907630  0.62291578  1
  Co  Co104  1  0.24595286  0.24929387  0.00229002  1
  Co  Co105  1  0.00495382  0.24687881  0.50395037  1
  Co  Co106  1  0.12253412  0.37377990  0.37299940  1
  Co  Co107  1  0.62294563  0.37518430  0.12559058  1
  Co  Co108  1  0.50379400  0.49983143  -0.00208166  1
  Co  Co109  1  0.24924797  -0.00126110  0.75080734  1
  Co  Co110  1  0.87271340  0.87263148  0.87402516  1
  Co  Co111  1  0.87468154  0.12432085  0.62664435  1
  Co  Co112  1  -0.00043703  0.74956917  0.00043721  1
  Co  Co113  1  0.62857958  0.12553117  0.87362926  1
  Co  Co114  1  0.37417467  0.37279820  0.37681784  1
  Co  Co115  1  0.12670304  0.37703952  0.62744236  1
  Co  Co116  1  0.74692090  0.24906475  0.50084956  1
  Co  Co117  1  0.50231274  0.24725852  -0.00104870  1
  Co  Co118  1  0.37995810  0.62328148  0.12424311  1
  Co  Co119  1  0.49981802  0.75048677  0.25460814  1
  Co  Co120  1  0.12353412  0.12130640  0.12749543  1
  Co  Co121  1  0.74730263  0.49825381  0.50244879  1
  Co  Co122  1  0.49763859  0.75330400  0.74663046  1
  Co  Co123  1  0.61976334  0.62330184  0.62511030  1
  Co  Co124  1  0.50109337  0.75153234  -0.00089255  1
  Co  Co125  1  0.37110366  0.87400289  0.37713274  1
  Co  Co126  1  0.87553059  0.37713806  0.12077095  1
  Co  Co127  1  0.25451539  0.49982420  0.25105433  1
