# generated using pymatgen
data_Fe45Co19
_symmetry_space_group_name_H-M   'P 1'
_cell_length_a   11.41529949
_cell_length_b   11.41618372
_cell_length_c   11.41515231
_cell_angle_alpha   90.00869545
_cell_angle_beta   89.99954541
_cell_angle_gamma   90.00716898
_symmetry_Int_Tables_number   1
_chemical_formula_structural   Fe45Co19
_chemical_formula_sum   'Fe90 Co38'
_cell_volume   1487.61298836
_cell_formula_units_Z   2
loop_
 _symmetry_equiv_pos_site_id
 _symmetry_equiv_pos_as_xyz
  1  'x, y, z'
loop_
 _atom_site_type_symbol
 _atom_site_label
 _atom_site_symmetry_multiplicity
 _atom_site_fract_x
 _atom_site_fract_y
 _atom_site_fract_z
 _atom_site_occupancy
  Fe  Fe0  1  0.49702562  0.49646468  0.25330669  1
  Fe  Fe1  1  0.12558337  0.12754051  0.37403076  1
  Fe  Fe2  1  0.62509222  0.12747898  0.37334467  1
  Fe  Fe3  1  0.62413351  0.62590315  0.12683329  1
  Fe  Fe4  1  -0.00119459  0.49891966  0.25103343  1
  Fe  Fe5  1  0.12300875  0.87879038  0.62501022  1
  Fe  Fe6  1  0.62318854  0.12414846  0.62629902  1
  Fe  Fe7  1  0.25044985  0.74968554  0.50030934  1
  Fe  Fe8  1  0.87528244  0.12352490  0.12441397  1
  Fe  Fe9  1  0.37527368  0.62042472  0.12436753  1
  Fe  Fe10  1  0.37560718  0.87869404  0.12822060  1
  Fe  Fe11  1  0.75205439  0.74951615  0.00419545  1
  Fe  Fe12  1  0.00190292  0.25145859  0.50016978  1
  Fe  Fe13  1  0.12508714  0.62502653  0.37318997  1
  Fe  Fe14  1  0.37692492  0.62378441  0.62516847  1
  Fe  Fe15  1  0.74999858  0.25073779  0.00086679  1
  Fe  Fe16  1  0.12287963  0.62256121  0.62447783  1
  Fe  Fe17  1  0.24718827  0.00005785  0.75008173  1
  Fe  Fe18  1  0.74691807  0.49923786  -0.00190202  1
  Fe  Fe19  1  0.49911653  0.25046912  0.00118026  1
  Fe  Fe20  1  0.62734765  0.87064477  0.37379283  1
  Fe  Fe21  1  0.74947236  0.25031827  0.74826369  1
  Fe  Fe22  1  0.49691797  0.75053409  0.25147441  1
  Fe  Fe23  1  0.00115141  0.50013209  0.75273292  1
  Fe  Fe24  1  0.12810049  0.63042152  0.87631296  1
  Fe  Fe25  1  0.87496948  0.37752643  0.12365790  1
  Fe  Fe26  1  -0.00121769  0.75038755  0.49914396  1
  Fe  Fe27  1  0.49915573  0.74872129  0.49866823  1
  Fe  Fe28  1  0.24964257  0.49999363  0.49716376  1
  Fe  Fe29  1  0.87675021  0.12210927  0.62166803  1
  Fe  Fe30  1  0.87180820  0.12645154  0.37690460  1
  Fe  Fe31  1  0.24762120  0.25044304  0.50180138  1
  Fe  Fe32  1  0.87495094  0.87693627  0.87618682  1
  Fe  Fe33  1  0.12650625  0.87296439  0.37170764  1
  Fe  Fe34  1  0.50163258  0.25063910  0.49974153  1
  Fe  Fe35  1  -0.00592730  0.74846181  0.24753131  1
  Fe  Fe36  1  0.24657296  0.00028366  0.00409678  1
  Fe  Fe37  1  -0.00033989  0.75208692  0.00273289  1
  Fe  Fe38  1  0.25169141  0.49661450  0.25086270  1
  Fe  Fe39  1  0.75227185  0.74898234  0.74726496  1
  Fe  Fe40  1  0.75019020  0.00105316  0.74950073  1
  Fe  Fe41  1  0.87062344  0.87404424  0.37568318  1
  Fe  Fe42  1  0.00034915  0.75194826  0.75001642  1
  Fe  Fe43  1  0.62688776  0.62705124  0.37345993  1
  Fe  Fe44  1  0.37142403  0.87359658  0.87384819  1
  Fe  Fe45  1  0.24993979  0.49999366  0.75136306  1
  Fe  Fe46  1  -0.00064265  0.49830015  0.49622181  1
  Fe  Fe47  1  0.37623020  0.37635729  0.87912750  1
  Fe  Fe48  1  0.62289122  0.62311331  0.62785844  1
  Fe  Fe49  1  0.12581491  0.62600598  0.12526901  1
  Fe  Fe50  1  0.00320239  0.49904826  -0.00098217  1
  Fe  Fe51  1  0.37867015  0.12322649  0.12857942  1
  Fe  Fe52  1  0.37606341  0.12350995  0.87408419  1
  Fe  Fe53  1  0.62386101  0.12748767  0.87452207  1
  Fe  Fe54  1  0.75031559  0.25086749  0.24841391  1
  Fe  Fe55  1  0.62489648  0.87461309  0.62495720  1
  Fe  Fe56  1  0.87559376  0.37623251  0.62485979  1
  Fe  Fe57  1  0.37552864  0.12366721  0.62483477  1
  Fe  Fe58  1  -0.00192694  0.25183063  0.24940645  1
  Fe  Fe59  1  0.87429379  0.62432420  0.87563639  1
  Fe  Fe60  1  0.00452495  -0.00090369  0.00180805  1
  Fe  Fe61  1  0.62268795  0.37744862  0.62701340  1
  Fe  Fe62  1  0.25372733  0.25139656  0.24852793  1
  Fe  Fe63  1  0.12732926  0.37165534  0.12218774  1
  Fe  Fe64  1  0.87575632  0.12446136  0.87633665  1
  Fe  Fe65  1  0.87528843  0.87800148  0.62271551  1
  Fe  Fe66  1  0.37262703  0.62687294  0.87444586  1
  Fe  Fe67  1  0.62300808  0.37537547  0.12480167  1
  Fe  Fe68  1  0.37537180  0.87532785  0.62455019  1
  Fe  Fe69  1  0.75312553  0.50172093  0.25090656  1
  Fe  Fe70  1  0.87387030  0.37458138  0.87439688  1
  Fe  Fe71  1  0.24867719  -0.00007118  0.49671105  1
  Fe  Fe72  1  0.62516448  0.62567182  0.87235829  1
  Fe  Fe73  1  0.62687433  0.37492101  0.37647624  1
  Fe  Fe74  1  0.75179314  0.50261825  0.50098306  1
  Fe  Fe75  1  0.49719530  0.74928927  -0.00022440  1
  Fe  Fe76  1  0.37653756  0.37690218  0.62270406  1
  Fe  Fe77  1  0.00126141  0.24855521  0.74780460  1
  Fe  Fe78  1  0.00171047  0.00078064  0.25081361  1
  Fe  Fe79  1  0.12457141  0.12698629  0.87608125  1
  Fe  Fe80  1  0.25106141  0.24989314  0.74857127  1
  Fe  Fe81  1  0.50279503  -0.00113551  0.00121575  1
  Fe  Fe82  1  0.37726259  0.12429878  0.37319694  1
  Fe  Fe83  1  0.50159785  -0.00089283  0.49733687  1
  Fe  Fe84  1  0.25351349  0.74978351  0.24976937  1
  Fe  Fe85  1  0.62593932  0.87273537  0.87556632  1
  Fe  Fe86  1  0.50082622  -0.00207687  0.75112107  1
  Fe  Fe87  1  0.12679413  0.37100045  0.87660935  1
  Fe  Fe88  1  0.74545835  -0.00082230  0.24716056  1
  Fe  Fe89  1  0.74621061  0.00025750  0.00315747  1
  Co  Co90  1  0.49795877  0.49936323  0.75363761  1
  Co  Co91  1  0.24752204  0.50163018  -0.00086612  1
  Co  Co92  1  0.24679616  0.00227148  0.24976134  1
  Co  Co93  1  0.37454138  0.37282830  0.37929663  1
  Co  Co94  1  0.49727871  0.25117536  0.74926437  1
  Co  Co95  1  0.00035094  0.00035800  0.75269869  1
  Co  Co96  1  0.12387856  0.12975413  0.12577881  1
  Co  Co97  1  0.37560781  0.37744558  0.12080475  1
  Co  Co98  1  0.49874314  0.25462930  0.25059107  1
  Co  Co99  1  0.87314671  0.37362371  0.37627566  1
  Co  Co100  1  0.37360573  0.62426586  0.37561668  1
  Co  Co101  1  0.50091662  0.50167367  0.49631200  1
  Co  Co102  1  0.00079303  -0.00006903  0.49403514  1
  Co  Co103  1  0.75511943  0.74869060  0.24544990  1
  Co  Co104  1  0.49906025  0.75062720  0.75057113  1
  Co  Co105  1  0.87908963  0.62319335  0.62576390  1
  Co  Co106  1  0.50276597  0.50265264  -0.00176353  1
  Co  Co107  1  0.12790381  0.87268434  0.87563443  1
  Co  Co108  1  0.12502441  0.87210534  0.12925914  1
  Co  Co109  1  0.24854717  0.74995091  0.74488991  1
  Co  Co110  1  0.25274263  0.75148374  0.00512645  1
  Co  Co111  1  0.74813648  0.25027896  0.50284008  1
  Co  Co112  1  0.87442216  0.62612812  0.37649353  1
  Co  Co113  1  0.87545142  0.62007930  0.12128676  1
  Co  Co114  1  0.87487794  0.87960194  0.12454031  1
  Co  Co115  1  0.37445599  0.87698821  0.37437301  1
  Co  Co116  1  0.74723034  0.00048602  0.49915879  1
  Co  Co117  1  0.75058914  0.49961291  0.75035347  1
  Co  Co118  1  0.62382336  0.37205567  0.87404010  1
  Co  Co119  1  0.12594358  0.37405733  0.37385218  1
  Co  Co120  1  0.62255754  0.12842076  0.12532507  1
  Co  Co121  1  0.12413373  0.12215491  0.62419618  1
  Co  Co122  1  0.62340153  0.86980779  0.12485116  1
  Co  Co123  1  0.25418790  0.24637538  0.00054034  1
  Co  Co124  1  0.12536953  0.37780408  0.62544525  1
  Co  Co125  1  0.75012931  0.74662645  0.50395567  1
  Co  Co126  1  0.50563510  -0.00154971  0.25165094  1
  Co  Co127  1  -0.00310486  0.25075265  0.00088869  1
