# generated using pymatgen
data_Fe45Co19
_symmetry_space_group_name_H-M   'P 1'
_cell_length_a   11.41614018
_cell_length_b   11.41532877
_cell_length_c   11.41524880
_cell_angle_alpha   90.00137456
_cell_angle_beta   90.00978656
_cell_angle_gamma   90.00193160
_symmetry_Int_Tables_number   1
_chemical_formula_structural   Fe45Co19
_chemical_formula_sum   'Fe90 Co38'
_cell_volume   1487.62371067
_cell_formula_units_Z   2
loop_
 _symmetry_equiv_pos_site_id
 _symmetry_equiv_pos_as_xyz
  1  'x, y, z'
loop_
 _atom_site_type_symbol
 _atom_site_label
 _atom_site_symmetry_multiplicity
 _atom_site_fract_x
 _atom_site_fract_y
 _atom_site_fract_z
 _atom_site_occupancy
  Fe  Fe0  1  0.37402492  0.62491887  0.12502551  1
  Fe  Fe1  1  0.62440536  0.12589197  0.87659938  1
  Fe  Fe2  1  0.25307625  0.25054529  0.50126016  1
  Fe  Fe3  1  0.24945086  0.50137845  0.25165157  1
  Fe  Fe4  1  0.74946486  -0.00054386  0.75199243  1
  Fe  Fe5  1  -0.00053266  0.75215241  0.00021737  1
  Fe  Fe6  1  -0.00334075  0.00166930  0.49682190  1
  Fe  Fe7  1  0.50298169  0.50157666  0.75494358  1
  Fe  Fe8  1  0.87367694  0.62035601  0.62251984  1
  Fe  Fe9  1  0.50122033  0.00098222  0.49729856  1
  Fe  Fe10  1  0.25009851  0.75322571  0.00210938  1
  Fe  Fe11  1  0.00154889  -0.00248653  -0.00330323  1
  Fe  Fe12  1  0.62570767  0.62357959  0.12169907  1
  Fe  Fe13  1  0.12479401  0.87748690  0.12531006  1
  Fe  Fe14  1  0.37422218  0.37741050  0.12645847  1
  Fe  Fe15  1  0.87643911  0.12261454  0.12655810  1
  Fe  Fe16  1  0.37680436  0.37286763  0.37322677  1
  Fe  Fe17  1  0.87534560  0.37281697  0.37272722  1
  Fe  Fe18  1  0.37525743  0.87217495  0.37593817  1
  Fe  Fe19  1  0.62414894  0.12830285  0.37382732  1
  Fe  Fe20  1  0.25156705  -0.00106652  0.49829387  1
  Fe  Fe21  1  0.12407960  0.37641639  0.62472034  1
  Fe  Fe22  1  0.74917590  0.75069604  0.74879802  1
  Fe  Fe23  1  0.12599270  0.12361352  0.62238890  1
  Fe  Fe24  1  0.00194575  0.75030438  0.74594078  1
  Fe  Fe25  1  0.37619103  0.37840259  0.62610215  1
  Fe  Fe26  1  0.25027514  0.75108000  0.74078958  1
  Fe  Fe27  1  0.12757954  0.12796335  0.87825528  1
  Fe  Fe28  1  0.37664292  0.37349261  0.87532405  1
  Fe  Fe29  1  -0.00110508  0.24888420  0.49975769  1
  Fe  Fe30  1  0.75298867  0.25173013  -0.00062595  1
  Fe  Fe31  1  0.37414936  0.62777248  0.37783042  1
  Fe  Fe32  1  0.62513268  0.37602465  0.62560828  1
  Fe  Fe33  1  0.49895793  0.75082906  -0.00020474  1
  Fe  Fe34  1  -0.00232407  0.75035483  0.24902287  1
  Fe  Fe35  1  0.74971155  0.25111797  0.50090963  1
  Fe  Fe36  1  0.87540103  0.37641543  0.62714472  1
  Fe  Fe37  1  0.12727948  0.62749285  0.87323450  1
  Fe  Fe38  1  0.62542470  0.12155406  0.12514110  1
  Fe  Fe39  1  -0.00069086  0.50101217  0.25126502  1
  Fe  Fe40  1  0.12503290  0.37177072  0.37393173  1
  Fe  Fe41  1  0.00110479  0.50071955  0.75097987  1
  Fe  Fe42  1  0.50063849  0.50211653  0.24979046  1
  Fe  Fe43  1  0.87281033  0.62902856  0.37768605  1
  Fe  Fe44  1  0.62566454  0.62305619  0.62376223  1
  Fe  Fe45  1  -0.00189160  0.25103905  0.00311480  1
  Fe  Fe46  1  0.62539781  0.12483177  0.62438506  1
  Fe  Fe47  1  0.75198252  -0.00299340  -0.00317470  1
  Fe  Fe48  1  0.87445170  0.12562725  0.62606928  1
  Fe  Fe49  1  0.37466363  0.87567501  0.87452407  1
  Fe  Fe50  1  0.00087744  0.50023252  -0.00003777  1
  Fe  Fe51  1  0.87401553  0.62650850  0.87444077  1
  Fe  Fe52  1  0.87608818  0.12612199  0.87382335  1
  Fe  Fe53  1  0.12526223  0.37353810  0.12752215  1
  Fe  Fe54  1  0.75115896  -0.00213602  0.25179807  1
  Fe  Fe55  1  0.50098257  0.75002055  0.24884349  1
  Fe  Fe56  1  0.75019814  0.25232948  0.75227912  1
  Fe  Fe57  1  0.24921679  0.25079040  0.74958029  1
  Fe  Fe58  1  0.24839014  -0.00077722  0.75144635  1
  Fe  Fe59  1  0.24912719  0.50113869  0.50032752  1
  Fe  Fe60  1  0.62281315  0.87730871  0.12384361  1
  Fe  Fe61  1  0.37230688  0.62530439  0.87367860  1
  Fe  Fe62  1  0.75034526  0.25034272  0.24657689  1
  Fe  Fe63  1  0.75004741  0.49674020  -0.00619461  1
  Fe  Fe64  1  0.36974915  0.11767099  0.12792274  1
  Fe  Fe65  1  0.00268076  0.00109281  0.75232444  1
  Fe  Fe66  1  0.37599310  0.12665169  0.37240905  1
  Fe  Fe67  1  0.50061074  0.00152706  0.75329676  1
  Fe  Fe68  1  0.62709213  0.87153296  0.37554861  1
  Fe  Fe69  1  0.50153252  0.50008412  0.49792662  1
  Fe  Fe70  1  0.87327611  0.62331256  0.12380725  1
  Fe  Fe71  1  0.49922546  0.74943975  0.74855024  1
  Fe  Fe72  1  0.75085199  -0.00092760  0.49908992  1
  Fe  Fe73  1  0.49984149  0.24799560  0.74840360  1
  Fe  Fe74  1  0.62202242  0.87635207  0.62542843  1
  Fe  Fe75  1  0.12443030  0.87200656  0.37984057  1
  Fe  Fe76  1  0.00258283  0.00352062  0.25393923  1
  Fe  Fe77  1  0.49593565  0.24519927  0.00340111  1
  Fe  Fe78  1  0.24968055  0.75190139  0.24920443  1
  Fe  Fe79  1  0.62800670  0.62881599  0.37717838  1
  Fe  Fe80  1  0.12552545  0.62502818  0.12549996  1
  Fe  Fe81  1  0.62327449  0.37649397  0.12203415  1
  Fe  Fe82  1  0.62198388  0.37126235  0.37356020  1
  Fe  Fe83  1  0.24938413  0.49928849  -0.00128859  1
  Fe  Fe84  1  0.74891652  0.50064491  0.25128735  1
  Fe  Fe85  1  0.87669907  0.87762080  0.62608179  1
  Fe  Fe86  1  0.12389867  0.37322830  0.87522978  1
  Fe  Fe87  1  0.37482824  0.12249129  0.62565170  1
  Fe  Fe88  1  0.12479908  0.62792906  0.37869676  1
  Fe  Fe89  1  0.75182748  0.75454866  0.00061912  1
  Co  Co90  1  0.37555234  0.87743420  0.12635597  1
  Co  Co91  1  -0.00061743  0.49856597  0.49700536  1
  Co  Co92  1  0.74956756  0.49744015  0.49766429  1
  Co  Co93  1  0.37296735  0.12485645  0.87291218  1
  Co  Co94  1  0.37822943  0.87995686  0.62449133  1
  Co  Co95  1  0.12446014  0.62117164  0.62335381  1
  Co  Co96  1  0.00227258  0.24748604  0.74823178  1
  Co  Co97  1  -0.00103631  0.75019436  0.50442752  1
  Co  Co98  1  0.24928436  -0.00343439  -0.00221647  1
  Co  Co99  1  0.62014290  0.37012397  0.87805976  1
  Co  Co100  1  0.12771269  0.12801306  0.37828031  1
  Co  Co101  1  0.12334288  0.88009889  0.62219960  1
  Co  Co102  1  0.49858484  0.24793512  0.24405852  1
  Co  Co103  1  0.62639815  0.62856947  0.87682540  1
  Co  Co104  1  0.24604730  -0.00231337  0.25360212  1
  Co  Co105  1  0.49762509  0.50223188  -0.00199025  1
  Co  Co106  1  0.24847700  0.49861832  0.75142411  1
  Co  Co107  1  0.75017787  0.75062106  0.24495301  1
  Co  Co108  1  0.00061467  0.24655215  0.24919302  1
  Co  Co109  1  0.12647192  0.87078254  0.87274987  1
  Co  Co110  1  0.37712625  0.61953105  0.62483901  1
  Co  Co111  1  0.62384990  0.87506624  0.87460684  1
  Co  Co112  1  0.87439684  0.87190304  0.37405336  1
  Co  Co113  1  0.49759278  0.00153903  -0.00171593  1
  Co  Co114  1  0.49870226  0.24901088  0.50293476  1
  Co  Co115  1  0.87891807  0.37429733  0.87256234  1
  Co  Co116  1  0.50126180  -0.00151812  0.25239404  1
  Co  Co117  1  0.24960493  0.24784338  0.24932967  1
  Co  Co118  1  0.87468740  0.37764912  0.12682471  1
  Co  Co119  1  0.49960960  0.74989038  0.50241063  1
  Co  Co120  1  0.87140083  0.12760602  0.37406476  1
  Co  Co121  1  0.74817318  0.49855330  0.75407492  1
  Co  Co122  1  0.87597372  0.87361620  0.87153087  1
  Co  Co123  1  0.12665371  0.12401806  0.12215782  1
  Co  Co124  1  0.25308050  0.25089901  0.00144135  1
  Co  Co125  1  0.25074998  0.74968039  0.50745527  1
  Co  Co126  1  0.75135659  0.75268796  0.50530694  1
  Co  Co127  1  0.87808296  0.87876566  0.12692901  1
