# generated using pymatgen
data_Fe45Co19
_symmetry_space_group_name_H-M   'P 1'
_cell_length_a   11.41540017
_cell_length_b   11.41489043
_cell_length_c   11.41538434
_cell_angle_alpha   90.01340204
_cell_angle_beta   89.99765370
_cell_angle_gamma   90.00349851
_symmetry_Int_Tables_number   1
_chemical_formula_structural   Fe45Co19
_chemical_formula_sum   'Fe90 Co38'
_cell_volume   1487.48779978
_cell_formula_units_Z   2
loop_
 _symmetry_equiv_pos_site_id
 _symmetry_equiv_pos_as_xyz
  1  'x, y, z'
loop_
 _atom_site_type_symbol
 _atom_site_label
 _atom_site_symmetry_multiplicity
 _atom_site_fract_x
 _atom_site_fract_y
 _atom_site_fract_z
 _atom_site_occupancy
  Fe  Fe0  1  0.62499732  0.37432484  0.37341390  1
  Fe  Fe1  1  0.50212708  0.75283871  0.49835351  1
  Fe  Fe2  1  0.87481377  0.37292721  0.87370476  1
  Fe  Fe3  1  0.62681251  0.12535582  0.37589651  1
  Fe  Fe4  1  0.87370688  0.62679695  0.37551833  1
  Fe  Fe5  1  0.62559878  0.62343071  0.12301922  1
  Fe  Fe6  1  0.49985942  0.75051390  0.75136853  1
  Fe  Fe7  1  0.25011612  0.24898577  0.25006455  1
  Fe  Fe8  1  0.87726532  0.12687413  0.37291231  1
  Fe  Fe9  1  0.00092405  0.49812994  0.24845144  1
  Fe  Fe10  1  -0.00135568  0.75053143  0.24926576  1
  Fe  Fe11  1  0.37485552  0.62553549  0.62513991  1
  Fe  Fe12  1  0.12160725  0.12253535  0.12946375  1
  Fe  Fe13  1  0.24976632  0.00232809  0.00194897  1
  Fe  Fe14  1  -0.00144680  0.49921032  -0.00070069  1
  Fe  Fe15  1  0.87870791  0.12339794  0.12712210  1
  Fe  Fe16  1  0.12471158  0.37570492  0.12371025  1
  Fe  Fe17  1  0.37409319  0.87647443  0.87425550  1
  Fe  Fe18  1  -0.00109930  0.24896627  -0.00022419  1
  Fe  Fe19  1  0.75065139  0.74962694  0.74939259  1
  Fe  Fe20  1  0.24828781  0.74982164  0.74939035  1
  Fe  Fe21  1  0.62539446  0.37346333  0.62509927  1
  Fe  Fe22  1  0.62402748  0.37291253  0.87572633  1
  Fe  Fe23  1  0.75072694  0.49907255  0.74981302  1
  Fe  Fe24  1  0.74974648  0.49907079  0.24872773  1
  Fe  Fe25  1  0.37697247  0.37666551  0.13056567  1
  Fe  Fe26  1  0.24746601  0.24879656  0.74961393  1
  Fe  Fe27  1  0.00120167  0.49935273  0.50197242  1
  Fe  Fe28  1  0.24858100  0.74923239  0.50107265  1
  Fe  Fe29  1  0.12666781  0.87610527  0.37388555  1
  Fe  Fe30  1  0.49552061  0.24858126  0.00043874  1
  Fe  Fe31  1  0.37509820  0.62345678  0.12739498  1
  Fe  Fe32  1  0.86855135  0.87206502  0.37341749  1
  Fe  Fe33  1  0.37646277  0.87616850  0.62431026  1
  Fe  Fe34  1  0.37481466  0.87696750  0.12634480  1
  Fe  Fe35  1  0.25062236  0.50092820  0.49907480  1
  Fe  Fe36  1  0.87355324  0.87713410  0.87519423  1
  Fe  Fe37  1  0.49948873  0.00006266  -0.00188076  1
  Fe  Fe38  1  -0.00093950  -0.00020290  0.49733381  1
  Fe  Fe39  1  0.24906063  0.00208427  0.49992351  1
  Fe  Fe40  1  0.49942205  0.75174920  -0.00060213  1
  Fe  Fe41  1  0.75128873  0.50018286  0.50218625  1
  Fe  Fe42  1  0.62363335  0.62528310  0.62488506  1
  Fe  Fe43  1  0.25016716  0.74911618  0.00036903  1
  Fe  Fe44  1  0.87619983  0.87341111  0.62529929  1
  Fe  Fe45  1  0.62825354  0.62709403  0.37538619  1
  Fe  Fe46  1  0.12214773  0.87417725  0.62374574  1
  Fe  Fe47  1  0.49811981  0.49963928  -0.00183345  1
  Fe  Fe48  1  0.00175918  0.24971401  0.50310745  1
  Fe  Fe49  1  0.74981188  -0.00019923  0.50181721  1
  Fe  Fe50  1  0.12344665  0.12547961  0.87484645  1
  Fe  Fe51  1  0.24951174  0.49957251  0.75123541  1
  Fe  Fe52  1  0.00017854  0.00044057  0.75146029  1
  Fe  Fe53  1  0.50198560  -0.00189596  0.25225228  1
  Fe  Fe54  1  0.87560663  0.12854382  0.62855995  1
  Fe  Fe55  1  0.62584421  0.62561121  0.87609041  1
  Fe  Fe56  1  0.12386682  0.62540622  0.37364243  1
  Fe  Fe57  1  0.49880551  0.49844398  0.49756354  1
  Fe  Fe58  1  0.12325226  0.87652393  0.12570066  1
  Fe  Fe59  1  0.75112149  0.24988849  0.24825218  1
  Fe  Fe60  1  0.25252285  0.50003323  -0.00045533  1
  Fe  Fe61  1  0.74963488  0.00206500  -0.00058412  1
  Fe  Fe62  1  0.12392540  0.62476469  0.87553824  1
  Fe  Fe63  1  0.49816306  0.25078283  0.49848671  1
  Fe  Fe64  1  0.24940754  0.00126117  0.74848152  1
  Fe  Fe65  1  0.74654748  0.00371534  0.75038661  1
  Fe  Fe66  1  0.37449401  0.12349514  0.37338128  1
  Fe  Fe67  1  0.50219428  -0.00210986  0.49893683  1
  Fe  Fe68  1  0.62408719  0.37468780  0.12558124  1
  Fe  Fe69  1  0.87634688  0.37483628  0.37468977  1
  Fe  Fe70  1  0.12517547  0.37323519  0.37599376  1
  Fe  Fe71  1  0.87462376  0.62221254  0.12296094  1
  Fe  Fe72  1  0.25018509  0.24703353  0.49995353  1
  Fe  Fe73  1  -0.00129001  0.75063293  -0.00161250  1
  Fe  Fe74  1  0.00218633  0.49595694  0.74914043  1
  Fe  Fe75  1  0.88034785  0.62753689  0.62557834  1
  Fe  Fe76  1  0.87372382  0.87788760  0.12593292  1
  Fe  Fe77  1  0.37474307  0.62458346  0.37241790  1
  Fe  Fe78  1  0.75091384  0.25165337  0.50131501  1
  Fe  Fe79  1  0.49789839  0.49989525  0.75191508  1
  Fe  Fe80  1  0.50261405  0.75255496  0.25077364  1
  Fe  Fe81  1  0.62315974  0.12479150  0.12452366  1
  Fe  Fe82  1  0.12548714  0.87611789  0.87669881  1
  Fe  Fe83  1  0.25247675  0.24820468  0.00162959  1
  Fe  Fe84  1  0.50087789  0.24642647  0.75008999  1
  Fe  Fe85  1  0.24927650  0.75010042  0.24840716  1
  Fe  Fe86  1  0.50327556  0.00353085  0.75060494  1
  Fe  Fe87  1  0.75025222  0.75025331  -0.00029297  1
  Fe  Fe88  1  0.75238263  0.24970951  0.00027886  1
  Fe  Fe89  1  0.37375065  0.37348956  0.62568963  1
  Co  Co90  1  0.00062222  0.75213629  0.49687570  1
  Co  Co91  1  0.37603106  0.12414057  0.62459884  1
  Co  Co92  1  0.12845718  0.37510227  0.62238042  1
  Co  Co93  1  0.63218422  0.87416356  0.37401225  1
  Co  Co94  1  0.12274049  0.62558950  0.62606338  1
  Co  Co95  1  0.74965241  0.74904348  0.50540930  1
  Co  Co96  1  0.74931838  0.49755826  -0.00220917  1
  Co  Co97  1  0.62481119  0.12730753  0.87878781  1
  Co  Co98  1  0.87405805  0.37307771  0.62556801  1
  Co  Co99  1  0.37272409  0.87495041  0.37522695  1
  Co  Co100  1  0.50307423  0.50117134  0.25214297  1
  Co  Co101  1  0.00049481  0.00043239  -0.00131079  1
  Co  Co102  1  0.62635926  0.87714278  0.12493382  1
  Co  Co103  1  0.50063238  0.24783933  0.25156564  1
  Co  Co104  1  0.62447857  0.87528608  0.62581802  1
  Co  Co105  1  0.37404163  0.62654424  0.87499750  1
  Co  Co106  1  0.37390705  0.37498202  0.37223228  1
  Co  Co107  1  0.24992530  0.00060591  0.24964693  1
  Co  Co108  1  0.37685027  0.12244097  0.12762399  1
  Co  Co109  1  0.37303903  0.12416398  0.87388881  1
  Co  Co110  1  0.37469087  0.37215652  0.87360536  1
  Co  Co111  1  0.24659261  0.49909197  0.25025366  1
  Co  Co112  1  0.74781016  0.24928039  0.75110656  1
  Co  Co113  1  0.00094243  0.75282319  0.75393496  1
  Co  Co114  1  0.62591259  0.87482440  0.87512498  1
  Co  Co115  1  -0.00002764  0.25329623  0.24837108  1
  Co  Co116  1  0.87638888  0.12611424  0.87276328  1
  Co  Co117  1  -0.00143536  -0.00337120  0.25395366  1
  Co  Co118  1  0.12293204  0.12537978  0.37272050  1
  Co  Co119  1  0.62579722  0.12688182  0.62117300  1
  Co  Co120  1  0.87470130  0.37639260  0.12421017  1
  Co  Co121  1  0.87571050  0.62317231  0.87436510  1
  Co  Co122  1  0.12368683  0.62436342  0.12309207  1
  Co  Co123  1  0.00335554  0.25255162  0.74937278  1
  Co  Co124  1  0.12245702  0.12338347  0.62520963  1
  Co  Co125  1  0.74982779  0.00439004  0.24913148  1
  Co  Co126  1  0.74961988  0.74748225  0.24484396  1
  Co  Co127  1  0.12581067  0.37435990  0.87861360  1
