# generated using pymatgen
data_Fe45Co19
_symmetry_space_group_name_H-M   'P 1'
_cell_length_a   11.41501678
_cell_length_b   11.41504384
_cell_length_c   11.41610099
_cell_angle_alpha   90.00381988
_cell_angle_beta   90.00671389
_cell_angle_gamma   89.99885385
_symmetry_Int_Tables_number   1
_chemical_formula_structural   Fe45Co19
_chemical_formula_sum   'Fe90 Co38'
_cell_volume   1487.55124652
_cell_formula_units_Z   2
loop_
 _symmetry_equiv_pos_site_id
 _symmetry_equiv_pos_as_xyz
  1  'x, y, z'
loop_
 _atom_site_type_symbol
 _atom_site_label
 _atom_site_symmetry_multiplicity
 _atom_site_fract_x
 _atom_site_fract_y
 _atom_site_fract_z
 _atom_site_occupancy
  Fe  Fe0  1  0.49742786  0.24866189  -0.00198741  1
  Fe  Fe1  1  0.50140471  0.00191709  0.74921594  1
  Fe  Fe2  1  0.62510629  0.62167332  0.87405200  1
  Fe  Fe3  1  0.25146256  0.00354886  0.50212820  1
  Fe  Fe4  1  0.12156386  0.37542484  0.87872142  1
  Fe  Fe5  1  0.87743783  0.12677707  0.62951832  1
  Fe  Fe6  1  0.37355521  0.62275474  0.37370755  1
  Fe  Fe7  1  0.62764505  0.12525056  0.37380546  1
  Fe  Fe8  1  0.50357362  -0.00014035  0.24796213  1
  Fe  Fe9  1  0.87594481  0.62234414  0.87365053  1
  Fe  Fe10  1  0.87308290  0.12478973  0.12701143  1
  Fe  Fe11  1  0.75215366  0.75075100  -0.00047081  1
  Fe  Fe12  1  0.12024185  0.37316867  0.37970435  1
  Fe  Fe13  1  -0.00148621  0.74855279  0.49900644  1
  Fe  Fe14  1  0.88009669  0.37813844  0.12645158  1
  Fe  Fe15  1  0.25161898  0.75121994  0.49841930  1
  Fe  Fe16  1  0.75370581  0.25238161  -0.00161180  1
  Fe  Fe17  1  0.24638405  0.49668722  0.25024545  1
  Fe  Fe18  1  0.37575769  0.87716229  0.37419208  1
  Fe  Fe19  1  -0.00001984  0.74956727  0.25012722  1
  Fe  Fe20  1  0.24925954  0.49886623  0.00158205  1
  Fe  Fe21  1  0.87774474  0.12331547  0.87299464  1
  Fe  Fe22  1  0.62820681  0.12730737  0.87534834  1
  Fe  Fe23  1  0.62478742  0.37385574  0.12244649  1
  Fe  Fe24  1  0.25009188  0.49727525  0.50112655  1
  Fe  Fe25  1  0.25023423  0.25259543  0.25500703  1
  Fe  Fe26  1  0.12430822  0.12680607  0.37789255  1
  Fe  Fe27  1  0.50007553  0.74619336  0.74728962  1
  Fe  Fe28  1  0.62529810  0.13014729  0.62691146  1
  Fe  Fe29  1  0.24563573  0.25100284  0.74898150  1
  Fe  Fe30  1  0.49747193  0.74722312  -0.00118227  1
  Fe  Fe31  1  0.00151926  0.75175124  0.74895129  1
  Fe  Fe32  1  0.74550627  -0.00426025  0.24693275  1
  Fe  Fe33  1  0.74903775  0.49815047  0.74929992  1
  Fe  Fe34  1  0.12662839  0.62564809  0.12493823  1
  Fe  Fe35  1  0.37298120  0.37375104  0.12434427  1
  Fe  Fe36  1  0.62862949  0.62421188  0.12465048  1
  Fe  Fe37  1  0.37261693  0.62453344  0.12707581  1
  Fe  Fe38  1  0.37247638  0.12324554  0.87184791  1
  Fe  Fe39  1  0.87916679  0.37772209  0.87346986  1
  Fe  Fe40  1  0.88109209  0.37505139  0.62697479  1
  Fe  Fe41  1  0.75245793  0.49769892  0.50079115  1
  Fe  Fe42  1  0.87211340  0.62127783  0.12833469  1
  Fe  Fe43  1  -0.00169910  0.00197224  0.50163784  1
  Fe  Fe44  1  0.12603552  0.62529013  0.62433951  1
  Fe  Fe45  1  0.62234511  0.37672421  0.87487303  1
  Fe  Fe46  1  0.62269992  0.37487913  0.37812118  1
  Fe  Fe47  1  0.75418671  0.24946625  0.49978262  1
  Fe  Fe48  1  0.75156220  0.25290570  0.25128976  1
  Fe  Fe49  1  0.75048290  0.00171947  0.50181370  1
  Fe  Fe50  1  0.12382622  0.87330730  0.12291515  1
  Fe  Fe51  1  0.87319809  0.62521354  0.62730737  1
  Fe  Fe52  1  0.37422757  0.87565041  0.62634075  1
  Fe  Fe53  1  -0.00206359  0.74822868  0.00190797  1
  Fe  Fe54  1  0.50114002  0.49936884  0.24815561  1
  Fe  Fe55  1  0.37683118  0.36998689  0.62401884  1
  Fe  Fe56  1  0.49900909  0.00433705  0.50164828  1
  Fe  Fe57  1  0.74897279  -0.00130570  0.00223897  1
  Fe  Fe58  1  0.24987102  -0.00212100  -0.00118873  1
  Fe  Fe59  1  0.37435417  0.62155364  0.87220782  1
  Fe  Fe60  1  0.87443543  0.87776109  0.37231856  1
  Fe  Fe61  1  0.74988203  -0.00122210  0.75002841  1
  Fe  Fe62  1  0.49872479  0.24998096  0.25268651  1
  Fe  Fe63  1  0.24803315  -0.00099337  0.24915985  1
  Fe  Fe64  1  0.25226199  0.75251941  -0.00196838  1
  Fe  Fe65  1  0.00212084  0.00227504  0.24780760  1
  Fe  Fe66  1  0.12611371  0.62533575  0.37557882  1
  Fe  Fe67  1  0.49911603  0.50321285  0.50479331  1
  Fe  Fe68  1  0.88018141  0.37642997  0.37387845  1
  Fe  Fe69  1  0.87486128  0.87384921  0.62598590  1
  Fe  Fe70  1  0.12422587  0.87533836  0.37664545  1
  Fe  Fe71  1  0.62739375  0.62295735  0.37538834  1
  Fe  Fe72  1  0.12680860  0.13082926  0.12224016  1
  Fe  Fe73  1  0.50212875  0.75079999  0.25172793  1
  Fe  Fe74  1  0.24829112  0.75447055  0.75158849  1
  Fe  Fe75  1  0.12184267  0.12356248  0.87627720  1
  Fe  Fe76  1  0.75043459  0.75089840  0.49752475  1
  Fe  Fe77  1  0.12577773  0.62542534  0.87528418  1
  Fe  Fe78  1  0.87936466  0.87781042  0.87609940  1
  Fe  Fe79  1  0.49943902  0.74742577  0.50162674  1
  Fe  Fe80  1  0.62321807  0.87413102  0.87553699  1
  Fe  Fe81  1  0.87291505  0.62248519  0.37110712  1
  Fe  Fe82  1  0.37313642  0.12685545  0.12603073  1
  Fe  Fe83  1  0.24737949  0.49646766  0.74685131  1
  Fe  Fe84  1  0.62235149  0.37113120  0.62467376  1
  Fe  Fe85  1  0.37596241  0.87502506  0.12506690  1
  Fe  Fe86  1  0.62621850  0.87272760  0.62492704  1
  Fe  Fe87  1  0.37683762  0.37771022  0.87418664  1
  Fe  Fe88  1  0.50046230  0.00278382  0.00080538  1
  Fe  Fe89  1  0.24446710  -0.00259987  0.74915406  1
  Co  Co90  1  0.37809243  0.87614170  0.87319486  1
  Co  Co91  1  0.12486418  0.87347687  0.62036716  1
  Co  Co92  1  0.74781093  0.49544128  0.25106760  1
  Co  Co93  1  0.36852491  0.62542816  0.62620809  1
  Co  Co94  1  0.87613324  0.87609684  0.12659731  1
  Co  Co95  1  0.75100830  0.49807035  -0.00107073  1
  Co  Co96  1  -0.00355821  0.24946215  -0.00058994  1
  Co  Co97  1  0.25190789  0.25056166  -0.00424782  1
  Co  Co98  1  -0.00492113  0.24512000  0.49887479  1
  Co  Co99  1  0.00513679  0.50097327  0.24956629  1
  Co  Co100  1  0.00305571  -0.00239007  0.74642828  1
  Co  Co101  1  0.00019461  0.24769116  0.25033474  1
  Co  Co102  1  0.63202837  0.62587022  0.62480527  1
  Co  Co103  1  0.12428169  0.37065740  0.12278188  1
  Co  Co104  1  0.62666474  0.13026607  0.12469341  1
  Co  Co105  1  0.37448056  0.12154844  0.37110631  1
  Co  Co106  1  0.11975283  0.87503573  0.87949675  1
  Co  Co107  1  0.00331508  0.50178835  0.74931872  1
  Co  Co108  1  0.50049448  0.50178840  0.74462288  1
  Co  Co109  1  0.75160440  0.25249776  0.75134500  1
  Co  Co110  1  0.87216891  0.12175652  0.37108730  1
  Co  Co111  1  0.12043554  0.37247931  0.61908422  1
  Co  Co112  1  0.00316253  0.25037095  0.75200750  1
  Co  Co113  1  0.75078754  0.75185179  0.75391754  1
  Co  Co114  1  0.24965007  0.75262700  0.25109038  1
  Co  Co115  1  0.00048352  0.00349191  0.00466669  1
  Co  Co116  1  0.37787250  0.37913720  0.37693144  1
  Co  Co117  1  0.49864518  0.50055766  0.00273449  1
  Co  Co118  1  0.62309787  0.87121312  0.12012445  1
  Co  Co119  1  -0.00144938  0.50478459  0.50024574  1
  Co  Co120  1  0.37296663  0.12753174  0.62993287  1
  Co  Co121  1  0.25330748  0.24887060  0.49822513  1
  Co  Co122  1  0.62435713  0.87665750  0.37934614  1
  Co  Co123  1  0.49669369  0.24424941  0.49647361  1
  Co  Co124  1  0.74806105  0.75353786  0.25064076  1
  Co  Co125  1  0.49984935  0.24875752  0.75409162  1
  Co  Co126  1  0.12396154  0.12831881  0.62285932  1
  Co  Co127  1  0.00171396  0.50171898  0.00136016  1
