# generated using pymatgen
data_Fe45Co19
_symmetry_space_group_name_H-M   'P 1'
_cell_length_a   11.41421456
_cell_length_b   11.41469540
_cell_length_c   11.41485566
_cell_angle_alpha   90.00284293
_cell_angle_beta   90.00058469
_cell_angle_gamma   90.00959593
_symmetry_Int_Tables_number   1
_chemical_formula_structural   Fe45Co19
_chemical_formula_sum   'Fe90 Co38'
_cell_volume   1487.23903774
_cell_formula_units_Z   2
loop_
 _symmetry_equiv_pos_site_id
 _symmetry_equiv_pos_as_xyz
  1  'x, y, z'
loop_
 _atom_site_type_symbol
 _atom_site_label
 _atom_site_symmetry_multiplicity
 _atom_site_fract_x
 _atom_site_fract_y
 _atom_site_fract_z
 _atom_site_occupancy
  Fe  Fe0  1  0.37723389  0.37694041  0.37690689  1
  Fe  Fe1  1  0.49779867  0.50191822  0.00180037  1
  Fe  Fe2  1  0.87362933  0.12289110  0.37429570  1
  Fe  Fe3  1  0.74838538  0.24949272  0.49860793  1
  Fe  Fe4  1  0.37342181  0.37479910  0.62503971  1
  Fe  Fe5  1  0.74464306  -0.00297119  0.49891648  1
  Fe  Fe6  1  0.25118842  0.50430232  0.50076779  1
  Fe  Fe7  1  0.25312945  0.50419943  0.24962180  1
  Fe  Fe8  1  0.49727290  0.75676149  0.75406413  1
  Fe  Fe9  1  0.12643427  0.87397029  0.37660926  1
  Fe  Fe10  1  0.37552104  0.87509185  0.37641607  1
  Fe  Fe11  1  0.00082710  0.25116323  0.50082615  1
  Fe  Fe12  1  0.49948421  0.50274922  0.50525186  1
  Fe  Fe13  1  0.74992096  0.50465968  0.50243409  1
  Fe  Fe14  1  0.62285171  0.12498465  0.62700902  1
  Fe  Fe15  1  0.74626557  0.24888035  -0.00417579  1
  Fe  Fe16  1  0.00123445  -0.00176530  0.00148981  1
  Fe  Fe17  1  -0.00220558  0.74801483  0.50172260  1
  Fe  Fe18  1  0.00045067  0.75420194  0.74975872  1
  Fe  Fe19  1  0.74721019  0.24802549  0.75376984  1
  Fe  Fe20  1  0.87700172  0.12299855  0.87404890  1
  Fe  Fe21  1  0.86819421  0.87278579  0.62684874  1
  Fe  Fe22  1  0.12495316  0.12343399  0.37536810  1
  Fe  Fe23  1  0.00130614  -0.00254586  0.24761977  1
  Fe  Fe24  1  0.25258925  0.24822518  0.75370828  1
  Fe  Fe25  1  -0.00020458  0.25151980  0.24924573  1
  Fe  Fe26  1  0.87443888  0.12387196  0.62483468  1
  Fe  Fe27  1  0.62517638  0.63018585  0.63029718  1
  Fe  Fe28  1  0.37551967  0.12386255  0.62380255  1
  Fe  Fe29  1  0.12549926  0.62682046  0.62716869  1
  Fe  Fe30  1  0.87264217  0.87430641  0.12476814  1
  Fe  Fe31  1  0.00232299  0.50083184  0.00216390  1
  Fe  Fe32  1  0.87334667  0.37526256  0.62552265  1
  Fe  Fe33  1  0.37788505  0.12372159  0.37681830  1
  Fe  Fe34  1  0.62395423  0.37491059  0.12255863  1
  Fe  Fe35  1  0.12627249  0.37499737  0.87729764  1
  Fe  Fe36  1  0.62285583  0.37626261  0.37752367  1
  Fe  Fe37  1  0.25209372  0.75230136  0.75336558  1
  Fe  Fe38  1  0.00066083  0.24947799  0.75010483  1
  Fe  Fe39  1  0.75057589  0.74854994  0.25215119  1
  Fe  Fe40  1  0.38068759  0.11899246  0.87647144  1
  Fe  Fe41  1  0.74863381  0.50293524  -0.00225082  1
  Fe  Fe42  1  0.24946786  0.74735107  -0.00617153  1
  Fe  Fe43  1  0.25253286  0.50341533  0.75260718  1
  Fe  Fe44  1  0.87832220  0.62414706  0.87413571  1
  Fe  Fe45  1  0.37181369  0.87077550  0.12188298  1
  Fe  Fe46  1  0.00071966  0.49891647  0.74791178  1
  Fe  Fe47  1  0.12373640  0.37916059  0.37509843  1
  Fe  Fe48  1  0.12804788  0.37448812  0.62594485  1
  Fe  Fe49  1  0.00089216  -0.00234622  0.50294125  1
  Fe  Fe50  1  0.24881887  0.00084536  0.00150341  1
  Fe  Fe51  1  0.49989047  0.25183616  0.24994753  1
  Fe  Fe52  1  0.50142239  0.75156291  0.50156159  1
  Fe  Fe53  1  0.13005651  0.37355850  0.12164657  1
  Fe  Fe54  1  0.50112823  -0.00209708  0.24829050  1
  Fe  Fe55  1  0.12641973  0.12335575  0.62548815  1
  Fe  Fe56  1  0.87870209  0.62142988  0.37340917  1
  Fe  Fe57  1  0.74872955  0.50254491  0.75143611  1
  Fe  Fe58  1  0.87220050  0.87616148  0.37373642  1
  Fe  Fe59  1  0.25105259  0.24895098  0.49883848  1
  Fe  Fe60  1  0.62445838  0.62693487  0.12358268  1
  Fe  Fe61  1  0.25212070  0.25060019  0.25084598  1
  Fe  Fe62  1  0.49972857  0.25157433  0.75248981  1
  Fe  Fe63  1  0.62685098  0.87254860  0.12637461  1
  Fe  Fe64  1  0.87519295  0.37539468  0.87572279  1
  Fe  Fe65  1  0.12796779  0.62825818  0.12593008  1
  Fe  Fe66  1  0.87433489  0.12549354  0.12507140  1
  Fe  Fe67  1  0.12328000  0.12173044  0.87381949  1
  Fe  Fe68  1  0.25017294  -0.00205549  0.24983130  1
  Fe  Fe69  1  0.87435082  0.87782157  0.87356376  1
  Fe  Fe70  1  0.74594222  0.74952223  -0.00651704  1
  Fe  Fe71  1  0.49747710  0.50167150  0.24694736  1
  Fe  Fe72  1  0.12497595  0.12684540  0.12446342  1
  Fe  Fe73  1  0.00168066  0.75122822  0.24913980  1
  Fe  Fe74  1  0.49678937  0.74888295  0.24812966  1
  Fe  Fe75  1  0.62543532  0.37407389  0.62634406  1
  Fe  Fe76  1  0.25164045  -0.00402880  0.74809263  1
  Fe  Fe77  1  0.87694415  0.37876466  0.37551012  1
  Fe  Fe78  1  0.62421899  0.12586510  0.12462156  1
  Fe  Fe79  1  0.37595134  0.37731988  0.87847803  1
  Fe  Fe80  1  0.74822462  0.25039988  0.25211252  1
  Fe  Fe81  1  0.62248296  0.62574836  0.37439689  1
  Fe  Fe82  1  0.74894392  0.50021496  0.24897343  1
  Fe  Fe83  1  0.25180338  0.74683518  0.49825595  1
  Fe  Fe84  1  0.37633895  0.12721721  0.12336441  1
  Fe  Fe85  1  0.87434146  0.62652200  0.12388390  1
  Fe  Fe86  1  0.87401793  0.37369269  0.12292537  1
  Fe  Fe87  1  0.50293536  -0.00385269  0.50290561  1
  Fe  Fe88  1  0.00181680  0.75162761  -0.00150508  1
  Fe  Fe89  1  0.74743161  -0.00012700  -0.00038665  1
  Co  Co90  1  0.87394309  0.62711243  0.62918146  1
  Co  Co91  1  0.50034968  0.25018650  -0.00245695  1
  Co  Co92  1  0.62395745  0.87204633  0.37199547  1
  Co  Co93  1  0.74984329  0.74787290  0.75858646  1
  Co  Co94  1  0.50217419  -0.00440565  0.00562758  1
  Co  Co95  1  0.61863081  0.62265037  0.87244061  1
  Co  Co96  1  0.61895693  0.11922755  0.87427319  1
  Co  Co97  1  0.49901891  0.25040900  0.50246888  1
  Co  Co98  1  0.62238038  0.12475756  0.37520657  1
  Co  Co99  1  0.37352304  0.62909471  0.12124482  1
  Co  Co100  1  0.62464325  0.88143631  0.87222504  1
  Co  Co101  1  0.12178034  0.62419593  0.37459856  1
  Co  Co102  1  0.25181866  0.74888478  0.25440786  1
  Co  Co103  1  0.63086067  0.87001582  0.62911598  1
  Co  Co104  1  0.12203657  0.62542236  0.87221132  1
  Co  Co105  1  0.49766690  -0.00595206  0.74400136  1
  Co  Co106  1  0.74717165  0.00012402  0.24939413  1
  Co  Co107  1  0.00044436  0.50143224  0.50547529  1
  Co  Co108  1  0.12858738  0.87192659  0.12355078  1
  Co  Co109  1  0.37875522  0.62492667  0.37650494  1
  Co  Co110  1  0.12852121  0.87289195  0.62289907  1
  Co  Co111  1  0.37592106  0.62822898  0.62852347  1
  Co  Co112  1  0.62340869  0.37868543  0.87545035  1
  Co  Co113  1  0.12586117  0.87781087  0.87501537  1
  Co  Co114  1  0.75077845  0.74705050  0.49608951  1
  Co  Co115  1  0.00002823  -0.00348667  0.74591781  1
  Co  Co116  1  0.00098222  0.24979146  -0.00126728  1
  Co  Co117  1  0.00159118  0.49942195  0.24313933  1
  Co  Co118  1  0.37996760  0.62468223  0.87425078  1
  Co  Co119  1  0.49848590  0.49731619  0.74698331  1
  Co  Co120  1  0.50388396  0.75247929  -0.00287865  1
  Co  Co121  1  0.37188351  0.87334136  0.62166201  1
  Co  Co122  1  0.37424202  0.87860562  0.88009304  1
  Co  Co123  1  0.25077802  0.00086364  0.49975583  1
  Co  Co124  1  0.25033125  0.50450265  -0.00236605  1
  Co  Co125  1  0.37251100  0.37444934  0.12216095  1
  Co  Co126  1  0.74925181  0.00312380  0.74995031  1
  Co  Co127  1  0.25212291  0.24607812  -0.00357913  1
