# generated using pymatgen
data_Fe45Co19
_symmetry_space_group_name_H-M   'P 1'
_cell_length_a   11.41577983
_cell_length_b   11.41522246
_cell_length_c   11.41521485
_cell_angle_alpha   90.01303739
_cell_angle_beta   90.00128457
_cell_angle_gamma   90.00414808
_symmetry_Int_Tables_number   1
_chemical_formula_structural   Fe45Co19
_chemical_formula_sum   'Fe90 Co38'
_cell_volume   1487.55845566
_cell_formula_units_Z   2
loop_
 _symmetry_equiv_pos_site_id
 _symmetry_equiv_pos_as_xyz
  1  'x, y, z'
loop_
 _atom_site_type_symbol
 _atom_site_label
 _atom_site_symmetry_multiplicity
 _atom_site_fract_x
 _atom_site_fract_y
 _atom_site_fract_z
 _atom_site_occupancy
  Fe  Fe0  1  0.87180547  0.87461417  0.12585468  1
  Fe  Fe1  1  0.25100444  0.49819671  0.49867492  1
  Fe  Fe2  1  -0.00086597  0.50187228  0.49948212  1
  Fe  Fe3  1  0.12538147  0.62520734  0.87654032  1
  Fe  Fe4  1  0.87482215  0.37503102  0.62485344  1
  Fe  Fe5  1  0.50234895  0.00330042  0.24814779  1
  Fe  Fe6  1  0.00002204  0.24923178  0.24845640  1
  Fe  Fe7  1  0.87137957  0.62651061  0.62420795  1
  Fe  Fe8  1  0.37527245  0.62476651  0.62436886  1
  Fe  Fe9  1  0.87466551  0.37512330  0.12555211  1
  Fe  Fe10  1  0.12307075  0.87668891  0.87537944  1
  Fe  Fe11  1  0.50034605  0.74853957  0.24859300  1
  Fe  Fe12  1  0.50204871  0.74881179  0.50017747  1
  Fe  Fe13  1  0.00104215  0.50128187  0.00239149  1
  Fe  Fe14  1  0.75079028  0.49892916  0.49829359  1
  Fe  Fe15  1  0.12739843  0.12503877  0.12325329  1
  Fe  Fe16  1  0.12534153  0.87526521  0.62423819  1
  Fe  Fe17  1  0.12029392  0.37125010  0.87744322  1
  Fe  Fe18  1  0.87654092  0.62576047  0.37542629  1
  Fe  Fe19  1  0.25138264  0.75067920  -0.00018615  1
  Fe  Fe20  1  -0.00203575  0.74919086  0.00127255  1
  Fe  Fe21  1  0.25041619  0.75148602  0.49927666  1
  Fe  Fe22  1  0.37604211  0.87703734  0.37482929  1
  Fe  Fe23  1  -0.00124727  0.00110894  0.00048994  1
  Fe  Fe24  1  -0.00173992  0.50058543  0.75009657  1
  Fe  Fe25  1  0.62462620  0.12656371  0.87597021  1
  Fe  Fe26  1  0.12467399  0.87436983  0.37514494  1
  Fe  Fe27  1  0.74620737  0.74977061  0.75239772  1
  Fe  Fe28  1  0.62338013  0.87627247  0.37398475  1
  Fe  Fe29  1  0.50277218  0.00184386  0.00310428  1
  Fe  Fe30  1  0.24937934  0.49899667  0.75304374  1
  Fe  Fe31  1  0.37755862  0.37388030  0.87474800  1
  Fe  Fe32  1  0.62711238  0.37419976  0.62256061  1
  Fe  Fe33  1  0.24998115  -0.00000861  0.25137004  1
  Fe  Fe34  1  0.75107197  0.25012372  0.25467533  1
  Fe  Fe35  1  0.37405624  0.12755087  0.12830688  1
  Fe  Fe36  1  0.25177147  -0.00107549  0.74927481  1
  Fe  Fe37  1  0.50564060  0.74911596  0.00265674  1
  Fe  Fe38  1  0.50359410  0.74827675  0.74806043  1
  Fe  Fe39  1  0.37165150  0.62305085  0.12566653  1
  Fe  Fe40  1  0.37765894  0.62422164  0.87551901  1
  Fe  Fe41  1  0.49611932  0.00508167  0.50290031  1
  Fe  Fe42  1  0.74795831  -0.00254832  -0.00091683  1
  Fe  Fe43  1  0.87087434  0.62465250  0.87699482  1
  Fe  Fe44  1  0.12452335  0.12363506  0.37702155  1
  Fe  Fe45  1  -0.00136041  0.74939707  0.74974586  1
  Fe  Fe46  1  0.12481424  0.37540745  0.37491611  1
  Fe  Fe47  1  0.62663455  0.37332934  0.12682860  1
  Fe  Fe48  1  0.37603889  0.87550212  0.12588699  1
  Fe  Fe49  1  0.62533151  0.87625735  0.62363517  1
  Fe  Fe50  1  0.75181741  0.25445715  0.75457694  1
  Fe  Fe51  1  0.00240548  0.74600887  0.24754812  1
  Fe  Fe52  1  0.62869058  0.12864519  0.62334006  1
  Fe  Fe53  1  -0.00251629  -0.00204335  0.50033687  1
  Fe  Fe54  1  0.74769438  0.74805169  0.24845223  1
  Fe  Fe55  1  0.87518769  0.87346598  0.37300557  1
  Fe  Fe56  1  0.75065900  0.49985176  0.25147704  1
  Fe  Fe57  1  0.50088657  0.24976481  0.00306444  1
  Fe  Fe58  1  0.37577037  0.12521137  0.87373507  1
  Fe  Fe59  1  0.12559011  0.62488198  0.62372301  1
  Fe  Fe60  1  -0.00146482  0.00106670  0.24864192  1
  Fe  Fe61  1  0.25114571  0.00156027  -0.00149630  1
  Fe  Fe62  1  0.75095229  0.00034146  0.75265648  1
  Fe  Fe63  1  0.12669001  0.12480471  0.62405369  1
  Fe  Fe64  1  0.12449098  0.37493986  0.62475764  1
  Fe  Fe65  1  0.49900441  0.00095811  0.74636782  1
  Fe  Fe66  1  0.36974021  0.37344016  0.12761083  1
  Fe  Fe67  1  0.87030467  0.12526418  0.12541079  1
  Fe  Fe68  1  0.49851748  0.49614110  0.25118030  1
  Fe  Fe69  1  0.37942495  0.87483606  0.87486705  1
  Fe  Fe70  1  -0.00149968  0.25081205  0.49947451  1
  Fe  Fe71  1  0.50274329  0.50088920  0.74763239  1
  Fe  Fe72  1  0.37362242  0.37249708  0.62517746  1
  Fe  Fe73  1  0.00380381  0.50369049  0.24812829  1
  Fe  Fe74  1  0.62302975  0.12865170  0.37572752  1
  Fe  Fe75  1  0.24734140  0.25028866  0.75282594  1
  Fe  Fe76  1  0.12896010  0.37481067  0.12286535  1
  Fe  Fe77  1  0.74825845  0.49678751  -0.00235567  1
  Fe  Fe78  1  0.62390449  0.62220975  0.37461580  1
  Fe  Fe79  1  0.75123461  0.00044396  0.49632242  1
  Fe  Fe80  1  0.50002480  0.49869707  0.00235674  1
  Fe  Fe81  1  0.87253714  0.87326096  0.62481203  1
  Fe  Fe82  1  0.37295866  0.62352009  0.37385102  1
  Fe  Fe83  1  0.50169545  0.24947021  0.74788728  1
  Fe  Fe84  1  0.25104106  0.75011110  0.75062493  1
  Fe  Fe85  1  -0.00165548  0.00117912  0.75046870  1
  Fe  Fe86  1  0.87351116  0.12722965  0.62278088  1
  Fe  Fe87  1  0.12570764  0.87433500  0.12460057  1
  Fe  Fe88  1  0.87752638  0.12850852  0.87706718  1
  Fe  Fe89  1  0.49882131  0.49615551  0.49894679  1
  Co  Co90  1  0.74930540  0.00178532  0.25393494  1
  Co  Co91  1  0.12310621  0.12500576  0.87486868  1
  Co  Co92  1  0.74926570  0.25378186  -0.00315151  1
  Co  Co93  1  0.12580678  0.62588359  0.37772249  1
  Co  Co94  1  -0.00086291  0.75064716  0.50113851  1
  Co  Co95  1  0.37662650  0.87203638  0.62460098  1
  Co  Co96  1  0.24750733  0.50131852  0.25167865  1
  Co  Co97  1  0.25348390  -0.00018371  0.50015703  1
  Co  Co98  1  0.37215139  0.37127891  0.37219478  1
  Co  Co99  1  0.25093032  0.49822528  -0.00421863  1
  Co  Co100  1  0.75006782  0.49633585  0.75144089  1
  Co  Co101  1  0.62710530  0.62225846  0.62272204  1
  Co  Co102  1  0.62505705  0.62147227  0.87617117  1
  Co  Co103  1  0.74552274  0.75145136  0.00089896  1
  Co  Co104  1  0.49811523  0.25104757  0.50070093  1
  Co  Co105  1  0.88093989  0.37505893  0.87726494  1
  Co  Co106  1  0.25027130  0.75076037  0.24993212  1
  Co  Co107  1  0.13001188  0.62531048  0.12196848  1
  Co  Co108  1  0.25182908  0.24870018  -0.00213695  1
  Co  Co109  1  0.37585250  0.12743969  0.37220228  1
  Co  Co110  1  0.62618280  0.87687715  0.12806646  1
  Co  Co111  1  0.75324545  0.25166178  0.49569110  1
  Co  Co112  1  -0.00097872  0.24914425  0.74713481  1
  Co  Co113  1  0.74757364  0.75088427  0.49706727  1
  Co  Co114  1  0.24637231  0.24833582  0.25141469  1
  Co  Co115  1  0.62028571  0.37564248  0.87515298  1
  Co  Co116  1  0.62545143  0.37441252  0.37596606  1
  Co  Co117  1  0.62976730  0.12769434  0.12569909  1
  Co  Co118  1  0.87524409  0.87367112  0.87546891  1
  Co  Co119  1  0.87199668  0.62364760  0.12295354  1
  Co  Co120  1  0.25034340  0.24983472  0.49822915  1
  Co  Co121  1  0.50180137  0.25221490  0.24937212  1
  Co  Co122  1  0.87887706  0.37710263  0.37282681  1
  Co  Co123  1  -0.00060322  0.24787409  0.00549923  1
  Co  Co124  1  0.87844897  0.12524008  0.37484512  1
  Co  Co125  1  0.37091242  0.12965891  0.62632945  1
  Co  Co126  1  0.62187584  0.87715576  0.87414345  1
  Co  Co127  1  0.62495502  0.62076211  0.12631928  1
