# generated using pymatgen
data_Fe45Co19
_symmetry_space_group_name_H-M   'P 1'
_cell_length_a   11.41528637
_cell_length_b   11.41562340
_cell_length_c   11.41571940
_cell_angle_alpha   90.00460435
_cell_angle_beta   90.00128514
_cell_angle_gamma   90.01029649
_symmetry_Int_Tables_number   1
_chemical_formula_structural   Fe45Co19
_chemical_formula_sum   'Fe90 Co38'
_cell_volume   1487.61216322
_cell_formula_units_Z   2
loop_
 _symmetry_equiv_pos_site_id
 _symmetry_equiv_pos_as_xyz
  1  'x, y, z'
loop_
 _atom_site_type_symbol
 _atom_site_label
 _atom_site_symmetry_multiplicity
 _atom_site_fract_x
 _atom_site_fract_y
 _atom_site_fract_z
 _atom_site_occupancy
  Fe  Fe0  1  0.00155954  0.49958136  0.74897363  1
  Fe  Fe1  1  0.74819970  -0.00084764  0.49810185  1
  Fe  Fe2  1  0.24705127  0.49665057  -0.00158087  1
  Fe  Fe3  1  0.50248898  0.49942091  0.00233840  1
  Fe  Fe4  1  0.49632556  0.24391119  0.75044330  1
  Fe  Fe5  1  0.87495274  0.87652888  0.62502454  1
  Fe  Fe6  1  0.25101424  0.75374968  0.49870880  1
  Fe  Fe7  1  0.74769765  0.75234803  0.49899018  1
  Fe  Fe8  1  0.87253976  0.62185520  0.12202921  1
  Fe  Fe9  1  0.50024682  0.75232424  0.49993030  1
  Fe  Fe10  1  0.12870696  0.37809767  0.62408965  1
  Fe  Fe11  1  0.87496275  0.62288684  0.62306625  1
  Fe  Fe12  1  0.50115885  0.75081253  0.75149637  1
  Fe  Fe13  1  0.74953569  0.49780505  0.49974845  1
  Fe  Fe14  1  0.74820329  -0.00051828  -0.00023594  1
  Fe  Fe15  1  0.25102763  0.00213183  0.25107977  1
  Fe  Fe16  1  0.74784028  0.74921127  0.25080160  1
  Fe  Fe17  1  0.37475390  0.37647580  0.12841903  1
  Fe  Fe18  1  0.62180351  0.12805017  0.12061874  1
  Fe  Fe19  1  0.25255511  0.24789553  0.74809088  1
  Fe  Fe20  1  0.62243231  0.87278913  0.12163426  1
  Fe  Fe21  1  0.00120868  0.75309051  0.49903059  1
  Fe  Fe22  1  0.87437722  0.62145512  0.87903385  1
  Fe  Fe23  1  0.49544428  0.25072404  0.49957464  1
  Fe  Fe24  1  0.49675023  0.24658783  0.25131855  1
  Fe  Fe25  1  0.37562696  0.62487775  0.37483518  1
  Fe  Fe26  1  0.24989898  0.74813010  0.74963981  1
  Fe  Fe27  1  0.37454370  0.37555720  0.87183904  1
  Fe  Fe28  1  0.62661445  0.62877510  0.88118662  1
  Fe  Fe29  1  0.25705291  0.25302990  0.49837673  1
  Fe  Fe30  1  0.00124631  0.00071334  0.00091234  1
  Fe  Fe31  1  0.87584740  0.12608015  0.87589275  1
  Fe  Fe32  1  0.12426596  0.12738313  0.37652160  1
  Fe  Fe33  1  0.75054146  0.24975994  0.49977831  1
  Fe  Fe34  1  0.12526055  0.37193389  0.37331523  1
  Fe  Fe35  1  0.74590871  0.49970094  0.24917562  1
  Fe  Fe36  1  0.12673141  0.62661594  0.37615458  1
  Fe  Fe37  1  0.74944838  0.75037430  0.75047176  1
  Fe  Fe38  1  0.49731355  0.49813062  0.50106626  1
  Fe  Fe39  1  0.00211345  0.25312051  0.00309141  1
  Fe  Fe40  1  0.24996909  0.50093811  0.25250737  1
  Fe  Fe41  1  0.00087933  0.49971016  0.25018503  1
  Fe  Fe42  1  0.25248946  0.75110515  0.00158593  1
  Fe  Fe43  1  0.74683300  0.00261511  0.24944456  1
  Fe  Fe44  1  0.74502854  0.00018542  0.75297019  1
  Fe  Fe45  1  -0.00109448  0.75044886  0.00152329  1
  Fe  Fe46  1  0.12663184  0.62325035  0.62121480  1
  Fe  Fe47  1  0.00006471  0.74881652  0.24940776  1
  Fe  Fe48  1  0.74780451  0.49980445  0.75086460  1
  Fe  Fe49  1  0.87469681  0.37562203  0.12679970  1
  Fe  Fe50  1  0.62257007  0.12395204  0.62519101  1
  Fe  Fe51  1  0.00325816  0.00107255  0.74873919  1
  Fe  Fe52  1  0.87597006  0.37104680  0.37414887  1
  Fe  Fe53  1  0.24851069  -0.00389924  0.49894972  1
  Fe  Fe54  1  0.62247089  0.37159221  0.87426226  1
  Fe  Fe55  1  0.87520242  0.12290854  0.62264631  1
  Fe  Fe56  1  0.12658132  0.12437987  0.62146169  1
  Fe  Fe57  1  0.74970129  0.25338676  0.00117851  1
  Fe  Fe58  1  0.50367390  0.50457359  0.24685516  1
  Fe  Fe59  1  0.37395274  0.62319880  0.62461001  1
  Fe  Fe60  1  -0.00035891  0.74916732  0.74965372  1
  Fe  Fe61  1  0.25055172  -0.00158368  -0.00148680  1
  Fe  Fe62  1  0.12615087  0.87442332  0.87416900  1
  Fe  Fe63  1  0.62273410  0.37333684  0.62591918  1
  Fe  Fe64  1  0.12389662  0.62444409  0.87678316  1
  Fe  Fe65  1  0.37719183  0.87650680  0.37070794  1
  Fe  Fe66  1  0.12699134  0.12722427  0.12546113  1
  Fe  Fe67  1  0.62224643  0.37451612  0.37367883  1
  Fe  Fe68  1  0.12521379  0.12801567  0.87622333  1
  Fe  Fe69  1  0.12687925  0.62466413  0.12511707  1
  Fe  Fe70  1  0.87743458  0.37582410  0.87500150  1
  Fe  Fe71  1  0.37664994  0.87690095  0.12596123  1
  Fe  Fe72  1  0.87606593  0.87682200  0.12709275  1
  Fe  Fe73  1  0.50146243  -0.00243327  0.49960043  1
  Fe  Fe74  1  0.50064624  0.74604691  0.24723111  1
  Fe  Fe75  1  0.50104847  0.50235546  0.75000894  1
  Fe  Fe76  1  -0.00041385  0.25069489  0.74559735  1
  Fe  Fe77  1  0.62523821  0.62557252  0.62217493  1
  Fe  Fe78  1  0.37464726  0.62398400  0.87673895  1
  Fe  Fe79  1  0.87418136  0.62414959  0.37582769  1
  Fe  Fe80  1  0.87395235  0.12692471  0.12543970  1
  Fe  Fe81  1  0.37588635  0.87986030  0.63134378  1
  Fe  Fe82  1  0.25034942  0.25368571  0.00104239  1
  Fe  Fe83  1  0.00033457  0.00412311  0.25120518  1
  Fe  Fe84  1  0.62314043  0.12492658  0.37485885  1
  Fe  Fe85  1  0.37593848  0.12423347  0.12204619  1
  Fe  Fe86  1  0.75097652  0.24975839  0.74877551  1
  Fe  Fe87  1  0.87527356  0.87792880  0.37381564  1
  Fe  Fe88  1  0.87589226  0.87749509  0.87447227  1
  Fe  Fe89  1  0.12538873  0.87465073  0.12805902  1
  Co  Co90  1  0.37575389  0.12024985  0.37760142  1
  Co  Co91  1  0.37573236  0.11919282  0.62306919  1
  Co  Co92  1  0.49337313  0.74936930  0.00149890  1
  Co  Co93  1  0.37805984  0.37779663  0.36920526  1
  Co  Co94  1  0.37567471  0.37725632  0.62956835  1
  Co  Co95  1  0.74861832  0.24776249  0.25143440  1
  Co  Co96  1  0.12473954  0.37224960  0.87081328  1
  Co  Co97  1  0.25271568  0.74981892  0.24976569  1
  Co  Co98  1  0.37061569  0.12476530  0.87724696  1
  Co  Co99  1  0.62191219  0.37024072  0.12790636  1
  Co  Co100  1  0.49987042  -0.00026562  -0.00599373  1
  Co  Co101  1  0.24754722  0.00345429  0.75154386  1
  Co  Co102  1  0.00056962  0.49797366  0.49792770  1
  Co  Co103  1  0.87318271  0.37749146  0.62535721  1
  Co  Co104  1  0.62333661  0.87624530  0.62675921  1
  Co  Co105  1  0.62952752  0.62892550  0.11935720  1
  Co  Co106  1  0.12454320  0.87480087  0.36976537  1
  Co  Co107  1  -0.00118436  0.25200798  0.50302708  1
  Co  Co108  1  0.00381554  0.49718196  0.00165710  1
  Co  Co109  1  0.25371833  0.49752125  0.49732175  1
  Co  Co110  1  0.62440095  0.87066734  0.87874511  1
  Co  Co111  1  0.50326169  0.00333876  0.75805787  1
  Co  Co112  1  0.12608781  0.87385020  0.62811935  1
  Co  Co113  1  0.49553816  0.25191522  -0.00082191  1
  Co  Co114  1  -0.00025380  0.24786197  0.24808746  1
  Co  Co115  1  0.50191374  0.00279296  0.24739590  1
  Co  Co116  1  0.75614840  0.75392009  -0.00006665  1
  Co  Co117  1  0.00225789  -0.00245649  0.49973992  1
  Co  Co118  1  0.74558232  0.49388659  0.00012531  1
  Co  Co119  1  0.24958356  0.50264064  0.75154630  1
  Co  Co120  1  0.87656664  0.12532867  0.37679876  1
  Co  Co121  1  0.37265834  0.87524973  0.87140765  1
  Co  Co122  1  0.37091954  0.62118933  0.12450789  1
  Co  Co123  1  0.12809419  0.37432882  0.13052067  1
  Co  Co124  1  0.25459265  0.24649521  0.25162248  1
  Co  Co125  1  0.62719501  0.12997904  0.87876535  1
  Co  Co126  1  0.62419083  0.62435959  0.37843175  1
  Co  Co127  1  0.62310416  0.87448650  0.37213505  1
