# generated using pymatgen
data_Fe45Co19
_symmetry_space_group_name_H-M   'P 1'
_cell_length_a   11.41585815
_cell_length_b   11.41602282
_cell_length_c   11.41626360
_cell_angle_alpha   89.98925032
_cell_angle_beta   90.01177623
_cell_angle_gamma   90.00201133
_symmetry_Int_Tables_number   1
_chemical_formula_structural   Fe45Co19
_chemical_formula_sum   'Fe90 Co38'
_cell_volume   1487.80962131
_cell_formula_units_Z   2
loop_
 _symmetry_equiv_pos_site_id
 _symmetry_equiv_pos_as_xyz
  1  'x, y, z'
loop_
 _atom_site_type_symbol
 _atom_site_label
 _atom_site_symmetry_multiplicity
 _atom_site_fract_x
 _atom_site_fract_y
 _atom_site_fract_z
 _atom_site_occupancy
  Fe  Fe0  1  -0.00390127  0.50221838  0.00043436  1
  Fe  Fe1  1  0.49629632  -0.00081345  0.49871017  1
  Fe  Fe2  1  0.37336267  0.62147441  0.12814124  1
  Fe  Fe3  1  0.74477832  0.50187053  0.24786872  1
  Fe  Fe4  1  -0.00070012  0.49954629  0.74888872  1
  Fe  Fe5  1  0.62462855  0.12617870  0.12441617  1
  Fe  Fe6  1  0.25271055  0.49962399  0.50067209  1
  Fe  Fe7  1  0.25357698  0.74914678  -0.00248677  1
  Fe  Fe8  1  0.49999329  0.25206051  0.00063792  1
  Fe  Fe9  1  0.74951825  0.25160715  0.00119116  1
  Fe  Fe10  1  -0.00194483  0.49911819  0.50157781  1
  Fe  Fe11  1  0.50034101  0.74687678  0.25102694  1
  Fe  Fe12  1  0.87521462  0.12573472  0.87711139  1
  Fe  Fe13  1  0.37644622  0.37917681  0.12846934  1
  Fe  Fe14  1  0.75415490  0.50020809  0.75243454  1
  Fe  Fe15  1  0.49701834  0.49951450  0.50451183  1
  Fe  Fe16  1  0.75094324  -0.00232537  0.00046886  1
  Fe  Fe17  1  0.12426509  0.37649923  0.87643526  1
  Fe  Fe18  1  0.12439850  0.12409518  0.87918659  1
  Fe  Fe19  1  0.75166106  -0.00228198  0.49899062  1
  Fe  Fe20  1  0.62303987  0.37518395  0.37513869  1
  Fe  Fe21  1  0.37659218  0.37671610  0.37236798  1
  Fe  Fe22  1  0.49731760  0.75188964  0.74994376  1
  Fe  Fe23  1  0.12801706  0.37848882  0.12344877  1
  Fe  Fe24  1  0.87645575  0.37650107  0.37223167  1
  Fe  Fe25  1  0.62283765  0.87074365  0.87845205  1
  Fe  Fe26  1  0.87382224  0.12493632  0.62504605  1
  Fe  Fe27  1  0.75144360  0.74460646  0.00175303  1
  Fe  Fe28  1  0.12789264  0.12610492  0.62373177  1
  Fe  Fe29  1  0.12699275  0.87461345  0.62473021  1
  Fe  Fe30  1  0.25475695  0.74996001  0.49939944  1
  Fe  Fe31  1  0.12314839  0.87382062  0.37353200  1
  Fe  Fe32  1  0.37465061  0.12653278  0.12590394  1
  Fe  Fe33  1  0.74873107  -0.00121716  0.75129500  1
  Fe  Fe34  1  0.49673912  0.74939670  0.50146974  1
  Fe  Fe35  1  0.87574918  0.62677777  0.37165928  1
  Fe  Fe36  1  0.62321455  0.12553928  0.37539690  1
  Fe  Fe37  1  0.25292525  -0.00083109  0.49701702  1
  Fe  Fe38  1  -0.00029834  -0.00067038  0.75073036  1
  Fe  Fe39  1  0.49934064  0.00070294  0.25021637  1
  Fe  Fe40  1  0.50252808  0.25249765  0.74669238  1
  Fe  Fe41  1  0.49934982  -0.00178264  0.00106224  1
  Fe  Fe42  1  -0.00396639  0.75182782  0.49982976  1
  Fe  Fe43  1  0.00048554  0.74947330  0.74801594  1
  Fe  Fe44  1  0.50011007  -0.00128992  0.74992404  1
  Fe  Fe45  1  0.00082364  0.24806330  0.24620895  1
  Fe  Fe46  1  0.62663581  0.37830361  0.87546157  1
  Fe  Fe47  1  0.87772869  0.87246636  0.13079422  1
  Fe  Fe48  1  0.00071144  0.25063933  0.74979199  1
  Fe  Fe49  1  0.62522269  0.62289387  0.62690760  1
  Fe  Fe50  1  0.37666203  0.12494069  0.87520516  1
  Fe  Fe51  1  0.87253473  0.37884901  0.12431246  1
  Fe  Fe52  1  0.62416197  0.12493652  0.87552118  1
  Fe  Fe53  1  0.12539756  0.12566927  0.37402957  1
  Fe  Fe54  1  0.25069677  0.00107018  0.25171389  1
  Fe  Fe55  1  0.25014796  0.25157948  0.25053145  1
  Fe  Fe56  1  -0.00190657  -0.00125293  0.49892461  1
  Fe  Fe57  1  0.37483218  0.62258658  0.86951895  1
  Fe  Fe58  1  0.75246427  0.50013764  0.49921043  1
  Fe  Fe59  1  -0.00044698  0.24817766  0.00348050  1
  Fe  Fe60  1  0.74813072  0.25156670  0.24893860  1
  Fe  Fe61  1  0.62216193  0.87020550  0.12324452  1
  Fe  Fe62  1  0.50282871  0.50345827  -0.00033092  1
  Fe  Fe63  1  0.37462904  0.87257763  0.12701524  1
  Fe  Fe64  1  0.62318683  0.62534559  0.37609940  1
  Fe  Fe65  1  0.75209217  0.75167412  0.49934533  1
  Fe  Fe66  1  0.25152817  -0.00105847  0.00006456  1
  Fe  Fe67  1  0.37283188  0.12783726  0.62453497  1
  Fe  Fe68  1  0.12474361  0.87470119  0.87715797  1
  Fe  Fe69  1  0.50032339  0.25216108  0.50261833  1
  Fe  Fe70  1  0.74941505  0.25130392  0.50084736  1
  Fe  Fe71  1  0.62277666  0.87392832  0.37548902  1
  Fe  Fe72  1  -0.00022423  0.25065208  0.50032643  1
  Fe  Fe73  1  -0.00080981  0.74818873  0.00311643  1
  Fe  Fe74  1  0.87643066  0.87270751  0.87521888  1
  Fe  Fe75  1  0.87515312  0.12521922  0.37295908  1
  Fe  Fe76  1  0.00545456  0.50554627  0.24860675  1
  Fe  Fe77  1  0.25191668  0.25249055  -0.00105416  1
  Fe  Fe78  1  0.12485948  0.87546110  0.12546754  1
  Fe  Fe79  1  0.74907106  -0.00219139  0.25035573  1
  Fe  Fe80  1  0.12675431  0.62646937  0.62312694  1
  Fe  Fe81  1  0.75122183  0.74961293  0.74868573  1
  Fe  Fe82  1  0.37520852  0.37691575  0.87058409  1
  Fe  Fe83  1  0.24609867  0.74375083  0.25223755  1
  Fe  Fe84  1  0.25034145  -0.00054912  0.75152248  1
  Fe  Fe85  1  0.74873509  0.25100209  0.74820410  1
  Fe  Fe86  1  0.12562113  0.62412021  0.87660907  1
  Fe  Fe87  1  0.12410175  0.37633202  0.37500121  1
  Fe  Fe88  1  0.12828365  0.37251391  0.62480322  1
  Fe  Fe89  1  0.62425248  0.87585673  0.62400748  1
  Co  Co90  1  0.12951739  0.12471861  0.12349448  1
  Co  Co91  1  0.24819031  0.24932390  0.75506603  1
  Co  Co92  1  0.00092424  0.00346733  0.24834809  1
  Co  Co93  1  0.24921284  0.75063733  0.75231390  1
  Co  Co94  1  0.87729902  0.62669649  0.87418288  1
  Co  Co95  1  0.24585930  0.50050626  0.74896698  1
  Co  Co96  1  0.87119918  0.12434367  0.12502324  1
  Co  Co97  1  0.00681715  0.74392896  0.24886226  1
  Co  Co98  1  0.25422079  0.49857788  -0.00328837  1
  Co  Co99  1  0.87443251  0.37407968  0.62449465  1
  Co  Co100  1  0.62908251  0.37936627  0.62449969  1
  Co  Co101  1  0.37625878  0.12761635  0.37467093  1
  Co  Co102  1  0.50014188  0.49717002  0.74671447  1
  Co  Co103  1  0.87798608  0.87330095  0.36966125  1
  Co  Co104  1  0.37418105  0.62558078  0.62890724  1
  Co  Co105  1  0.87526233  0.37354491  0.87699531  1
  Co  Co106  1  0.37489799  0.87191193  0.37123593  1
  Co  Co107  1  0.87445180  0.87609292  0.62681090  1
  Co  Co108  1  0.37353146  0.87548373  0.62607114  1
  Co  Co109  1  0.37543117  0.87683984  0.87493741  1
  Co  Co110  1  0.62315419  0.62798305  0.12411728  1
  Co  Co111  1  0.49435758  0.74545617  -0.00095565  1
  Co  Co112  1  0.24564439  0.50215393  0.25402580  1
  Co  Co113  1  0.87480581  0.62465458  0.62464178  1
  Co  Co114  1  0.37002322  0.37204112  0.62756986  1
  Co  Co115  1  0.74630322  0.75014113  0.25107523  1
  Co  Co116  1  -0.00207650  -0.00054084  0.00261638  1
  Co  Co117  1  0.12447601  0.62504440  0.38324715  1
  Co  Co118  1  0.12954843  0.62225576  0.11744442  1
  Co  Co119  1  0.62451769  0.37551008  0.12273661  1
  Co  Co120  1  0.62362091  0.62648729  0.87110792  1
  Co  Co121  1  0.50137944  0.25029941  0.24917937  1
  Co  Co122  1  0.74835330  0.50511178  -0.00075781  1
  Co  Co123  1  0.24994352  0.25182558  0.49531258  1
  Co  Co124  1  0.50462463  0.50136449  0.24973498  1
  Co  Co125  1  0.37633018  0.62298987  0.37357847  1
  Co  Co126  1  0.62461162  0.12265576  0.62354914  1
  Co  Co127  1  0.87406220  0.62446669  0.12971728  1
