# generated using pymatgen
data_Fe45Co19
_symmetry_space_group_name_H-M   'P 1'
_cell_length_a   11.41604250
_cell_length_b   11.41499759
_cell_length_c   11.41625064
_cell_angle_alpha   89.98984461
_cell_angle_beta   90.00950971
_cell_angle_gamma   89.99366118
_symmetry_Int_Tables_number   1
_chemical_formula_structural   Fe45Co19
_chemical_formula_sum   'Fe90 Co38'
_cell_volume   1487.69834868
_cell_formula_units_Z   2
loop_
 _symmetry_equiv_pos_site_id
 _symmetry_equiv_pos_as_xyz
  1  'x, y, z'
loop_
 _atom_site_type_symbol
 _atom_site_label
 _atom_site_symmetry_multiplicity
 _atom_site_fract_x
 _atom_site_fract_y
 _atom_site_fract_z
 _atom_site_occupancy
  Fe  Fe0  1  0.24795862  -0.00063195  0.49888060  1
  Fe  Fe1  1  0.74860496  0.00158691  -0.00323353  1
  Fe  Fe2  1  0.62500506  0.37748092  0.62806476  1
  Fe  Fe3  1  0.62699714  0.87720494  0.12740013  1
  Fe  Fe4  1  0.62807312  0.87745221  0.62815760  1
  Fe  Fe5  1  0.24859303  0.24983018  0.50004923  1
  Fe  Fe6  1  -0.00423716  0.75343017  0.49563035  1
  Fe  Fe7  1  0.62461313  0.62650764  0.12372145  1
  Fe  Fe8  1  0.37657611  0.37434084  0.37418637  1
  Fe  Fe9  1  -0.00754829  0.25041142  0.24776538  1
  Fe  Fe10  1  0.37178119  0.87448976  0.37334775  1
  Fe  Fe11  1  0.25136229  0.50118059  0.75190582  1
  Fe  Fe12  1  0.74938165  0.00810277  0.25182263  1
  Fe  Fe13  1  0.37560818  0.87796738  0.62768214  1
  Fe  Fe14  1  0.12355649  0.12358755  0.62407427  1
  Fe  Fe15  1  0.87541761  0.62495721  0.62403807  1
  Fe  Fe16  1  0.62450607  0.12206574  0.62719188  1
  Fe  Fe17  1  0.50231684  0.49999572  0.25104062  1
  Fe  Fe18  1  0.25087283  0.75210397  0.74884896  1
  Fe  Fe19  1  0.12248947  0.87484575  0.12538340  1
  Fe  Fe20  1  0.62922650  0.37154041  0.37416924  1
  Fe  Fe21  1  0.87636199  0.62593287  0.12365775  1
  Fe  Fe22  1  0.24957516  0.50136200  0.24998659  1
  Fe  Fe23  1  0.75149176  0.00236269  0.50050567  1
  Fe  Fe24  1  0.37369931  0.37350268  0.87630362  1
  Fe  Fe25  1  0.12372666  0.37561243  0.12479256  1
  Fe  Fe26  1  0.62897676  0.37138182  0.12494108  1
  Fe  Fe27  1  0.12359997  0.37293935  0.37346963  1
  Fe  Fe28  1  0.12129584  0.12197096  0.12412396  1
  Fe  Fe29  1  -0.00123213  -0.00202006  0.25367770  1
  Fe  Fe30  1  0.37806213  0.62223225  0.62378914  1
  Fe  Fe31  1  0.12460730  0.62807227  0.87456233  1
  Fe  Fe32  1  0.87403438  0.37413992  0.87550978  1
  Fe  Fe33  1  0.87428176  0.87714521  0.12481698  1
  Fe  Fe34  1  0.62626715  0.87039645  0.87090256  1
  Fe  Fe35  1  0.62602939  0.62676146  0.37528323  1
  Fe  Fe36  1  0.25052079  0.75421005  -0.00053832  1
  Fe  Fe37  1  0.12206637  0.12665197  0.37495542  1
  Fe  Fe38  1  -0.00344191  0.50009388  0.25233195  1
  Fe  Fe39  1  0.37469113  0.37739580  0.62438499  1
  Fe  Fe40  1  0.37806556  0.12101378  0.12574364  1
  Fe  Fe41  1  0.50304683  0.49992199  -0.00169983  1
  Fe  Fe42  1  0.12491963  0.12202487  0.87597474  1
  Fe  Fe43  1  -0.00181748  -0.00163587  0.75089078  1
  Fe  Fe44  1  0.49903356  0.24872575  0.74987075  1
  Fe  Fe45  1  0.12504869  0.63031959  0.37489508  1
  Fe  Fe46  1  0.50154350  0.75120040  0.50196921  1
  Fe  Fe47  1  0.37347757  0.11974143  0.87326597  1
  Fe  Fe48  1  0.37664024  0.12343510  0.37422133  1
  Fe  Fe49  1  0.37508755  0.87853231  0.12705956  1
  Fe  Fe50  1  0.50269271  -0.00206604  -0.00350906  1
  Fe  Fe51  1  0.87250966  0.62802612  0.87610906  1
  Fe  Fe52  1  0.37975850  0.62946487  0.87663833  1
  Fe  Fe53  1  0.50209697  0.25046401  0.50141965  1
  Fe  Fe54  1  0.12590828  0.37432504  0.87546480  1
  Fe  Fe55  1  0.75067578  0.75041206  0.50239287  1
  Fe  Fe56  1  0.50033229  0.75126996  0.24935088  1
  Fe  Fe57  1  0.75313667  0.74838891  0.24931793  1
  Fe  Fe58  1  0.24887411  0.50044229  0.49783914  1
  Fe  Fe59  1  0.50094695  -0.00130186  0.49844197  1
  Fe  Fe60  1  0.87324721  0.87279742  0.87522957  1
  Fe  Fe61  1  0.50334681  0.24723102  0.24998153  1
  Fe  Fe62  1  -0.00289951  0.75189031  0.75125144  1
  Fe  Fe63  1  -0.00242299  0.25030554  0.00172240  1
  Fe  Fe64  1  0.24933130  0.24654125  0.00254557  1
  Fe  Fe65  1  0.37695559  0.62456715  0.12391091  1
  Fe  Fe66  1  0.50096731  0.24802928  -0.00173624  1
  Fe  Fe67  1  0.12279400  0.87392808  0.62440467  1
  Fe  Fe68  1  0.74853030  0.50183947  -0.00263710  1
  Fe  Fe69  1  0.25015475  0.24739396  0.24810267  1
  Fe  Fe70  1  0.75030008  0.49892283  0.50100243  1
  Fe  Fe71  1  0.24925354  0.50054259  0.00015747  1
  Fe  Fe72  1  0.87667789  0.12546885  0.62260630  1
  Fe  Fe73  1  0.37601565  0.62729196  0.37556184  1
  Fe  Fe74  1  0.87540507  0.12557197  0.87601150  1
  Fe  Fe75  1  0.12361091  0.62606176  0.62443324  1
  Fe  Fe76  1  0.75247231  0.50006096  0.25105773  1
  Fe  Fe77  1  0.75091314  0.24853488  0.74889952  1
  Fe  Fe78  1  0.12219802  0.62780498  0.12541082  1
  Fe  Fe79  1  0.62663528  0.37306570  0.87405974  1
  Fe  Fe80  1  0.00152605  0.25194320  0.74727320  1
  Fe  Fe81  1  -0.00064230  0.49599302  0.50011169  1
  Fe  Fe82  1  0.37585256  0.37508089  0.12512170  1
  Fe  Fe83  1  -0.00097429  -0.00374589  0.49633974  1
  Fe  Fe84  1  0.62380277  0.62190815  0.62909942  1
  Fe  Fe85  1  -0.00165763  0.49841831  0.74919641  1
  Fe  Fe86  1  0.24870424  0.24855332  0.74862352  1
  Fe  Fe87  1  0.62807832  0.87530875  0.37445359  1
  Fe  Fe88  1  0.00000254  0.50093375  -0.00146236  1
  Fe  Fe89  1  0.37522399  0.12207295  0.62607029  1
  Co  Co90  1  0.24667149  0.00205023  0.25020820  1
  Co  Co91  1  0.75208861  0.50172978  0.75223480  1
  Co  Co92  1  -0.00126414  -0.00247361  -0.00270659  1
  Co  Co93  1  0.86863848  0.87670234  0.37376403  1
  Co  Co94  1  0.37528270  0.87657714  0.87140805  1
  Co  Co95  1  0.62378367  0.12492347  0.37703532  1
  Co  Co96  1  0.87234666  0.37373090  0.62441791  1
  Co  Co97  1  0.74944728  0.75079779  0.00273847  1
  Co  Co98  1  -0.00111524  0.75154453  -0.00049525  1
  Co  Co99  1  0.25086670  0.74921910  0.24615195  1
  Co  Co100  1  0.74642975  0.24751297  0.50308092  1
  Co  Co101  1  0.87265924  0.37796365  0.12340688  1
  Co  Co102  1  0.12904796  0.87076948  0.37472474  1
  Co  Co103  1  0.50342609  0.00003842  0.75205415  1
  Co  Co104  1  0.87468413  0.87607628  0.62446861  1
  Co  Co105  1  0.75172292  0.74887736  0.74659243  1
  Co  Co106  1  0.50252080  0.49902122  0.49703120  1
  Co  Co107  1  -0.00435306  0.75228629  0.25223598  1
  Co  Co108  1  0.49924012  0.49962318  0.75478654  1
  Co  Co109  1  0.75220279  0.24743219  0.00141961  1
  Co  Co110  1  0.24884716  -0.00159339  0.00094568  1
  Co  Co111  1  0.00275587  0.25436153  0.50397353  1
  Co  Co112  1  0.87363873  0.62439542  0.37749946  1
  Co  Co113  1  0.62313366  0.12457323  0.12203903  1
  Co  Co114  1  0.12468414  0.87566726  0.87403833  1
  Co  Co115  1  0.75317053  0.00081496  0.75141446  1
  Co  Co116  1  0.50095020  0.75483019  0.00311794  1
  Co  Co117  1  0.50240188  -0.00093633  0.25279641  1
  Co  Co118  1  0.24591693  -0.00165729  0.74820965  1
  Co  Co119  1  0.87715897  0.12842407  0.38015723  1
  Co  Co120  1  0.87211863  0.37075203  0.37774167  1
  Co  Co121  1  0.25220256  0.75041909  0.50430338  1
  Co  Co122  1  0.50009590  0.75106594  0.74564915  1
  Co  Co123  1  0.75294637  0.24385577  0.24753522  1
  Co  Co124  1  0.62368977  0.63050377  0.87394834  1
  Co  Co125  1  0.87568146  0.12023208  0.12143192  1
  Co  Co126  1  0.62629312  0.12661303  0.87359693  1
  Co  Co127  1  0.12883799  0.37766064  0.62699999  1
