# generated using pymatgen
data_Fe45Co19
_symmetry_space_group_name_H-M   'P 1'
_cell_length_a   11.41457524
_cell_length_b   11.41423368
_cell_length_c   11.41422372
_cell_angle_alpha   89.99666752
_cell_angle_beta   90.00020202
_cell_angle_gamma   89.99400806
_symmetry_Int_Tables_number   1
_chemical_formula_structural   Fe45Co19
_chemical_formula_sum   'Fe90 Co38'
_cell_volume   1487.14355079
_cell_formula_units_Z   2
loop_
 _symmetry_equiv_pos_site_id
 _symmetry_equiv_pos_as_xyz
  1  'x, y, z'
loop_
 _atom_site_type_symbol
 _atom_site_label
 _atom_site_symmetry_multiplicity
 _atom_site_fract_x
 _atom_site_fract_y
 _atom_site_fract_z
 _atom_site_occupancy
  Fe  Fe0  1  0.87162551  0.37737705  0.37512018  1
  Fe  Fe1  1  0.50248299  0.74953790  -0.00894705  1
  Fe  Fe2  1  0.37536107  0.37684937  0.62692933  1
  Fe  Fe3  1  0.49700789  0.24773665  0.75252593  1
  Fe  Fe4  1  0.49942106  0.25237013  0.49913573  1
  Fe  Fe5  1  0.37564893  0.62131888  0.11900088  1
  Fe  Fe6  1  0.87337551  0.12622019  0.87332776  1
  Fe  Fe7  1  0.49582583  0.50593075  0.75475293  1
  Fe  Fe8  1  0.62227317  0.87445814  0.62698936  1
  Fe  Fe9  1  0.37231839  0.12203429  0.87767830  1
  Fe  Fe10  1  0.62218197  0.62345725  0.62524930  1
  Fe  Fe11  1  0.50276641  0.50041791  0.25118828  1
  Fe  Fe12  1  0.49854252  0.25123074  0.25189068  1
  Fe  Fe13  1  0.50234571  -0.00093473  0.24982528  1
  Fe  Fe14  1  0.37222180  0.12554725  0.37671048  1
  Fe  Fe15  1  0.87503166  0.62393621  0.12466011  1
  Fe  Fe16  1  -0.00095741  0.75165917  -0.00197526  1
  Fe  Fe17  1  0.74973448  -0.00015567  0.50117300  1
  Fe  Fe18  1  0.74943930  0.49853279  0.00019808  1
  Fe  Fe19  1  0.74880057  0.75002353  0.50151748  1
  Fe  Fe20  1  0.87363696  0.62533626  0.87419945  1
  Fe  Fe21  1  0.88146415  0.37302215  0.62849648  1
  Fe  Fe22  1  0.00122927  0.49956744  -0.00245818  1
  Fe  Fe23  1  0.49917786  0.74863063  0.49960488  1
  Fe  Fe24  1  0.37258402  0.37543456  0.37425856  1
  Fe  Fe25  1  0.87670634  0.37416078  0.12410889  1
  Fe  Fe26  1  0.87734848  0.87419579  0.62592711  1
  Fe  Fe27  1  0.12727456  0.37300408  0.37564659  1
  Fe  Fe28  1  0.74860048  0.74895443  0.24936618  1
  Fe  Fe29  1  0.24977940  0.49920074  0.50353071  1
  Fe  Fe30  1  -0.00002378  0.50100252  0.50232854  1
  Fe  Fe31  1  0.25387760  0.25586653  0.00424537  1
  Fe  Fe32  1  0.87205863  0.87664116  0.87650753  1
  Fe  Fe33  1  0.87438763  0.87515257  0.37427275  1
  Fe  Fe34  1  0.37538209  0.12229812  0.62323184  1
  Fe  Fe35  1  0.75328047  0.50008068  0.74702907  1
  Fe  Fe36  1  0.37563200  0.87404500  0.37302714  1
  Fe  Fe37  1  0.12519282  0.62331745  0.12272617  1
  Fe  Fe38  1  0.49983932  -0.00119782  0.49821414  1
  Fe  Fe39  1  0.12899010  0.12449511  0.37832540  1
  Fe  Fe40  1  0.00225280  0.75217715  0.49891104  1
  Fe  Fe41  1  0.00092157  0.00140915  0.74981236  1
  Fe  Fe42  1  0.74725779  0.00096873  0.24894605  1
  Fe  Fe43  1  0.25090949  0.75361636  0.75229962  1
  Fe  Fe44  1  0.37301644  0.62351767  0.37554189  1
  Fe  Fe45  1  0.12672921  0.62545194  0.37379093  1
  Fe  Fe46  1  0.37686732  0.87418788  0.62845757  1
  Fe  Fe47  1  0.25070103  0.00000883  0.24863662  1
  Fe  Fe48  1  0.62222273  0.37139614  0.12149723  1
  Fe  Fe49  1  0.62786171  0.62056885  0.37854242  1
  Fe  Fe50  1  0.12933161  0.12430573  0.87788450  1
  Fe  Fe51  1  0.74909320  0.00194597  0.74836098  1
  Fe  Fe52  1  0.62324747  0.12483565  0.62573121  1
  Fe  Fe53  1  0.87699452  0.37274207  0.87250074  1
  Fe  Fe54  1  0.37918117  0.87575394  0.12058711  1
  Fe  Fe55  1  0.25138605  0.74993329  0.24719524  1
  Fe  Fe56  1  0.00111002  0.00093903  -0.00001061  1
  Fe  Fe57  1  0.62439356  0.37311623  0.87491379  1
  Fe  Fe58  1  -0.00021501  0.24920590  0.25133388  1
  Fe  Fe59  1  0.74861131  0.25232745  0.50347134  1
  Fe  Fe60  1  0.62035954  0.37757056  0.62668260  1
  Fe  Fe61  1  0.75007265  0.24966414  0.74832060  1
  Fe  Fe62  1  0.12312483  0.87479237  0.12632893  1
  Fe  Fe63  1  0.62494577  0.87359109  0.12196436  1
  Fe  Fe64  1  0.50076501  -0.00112405  0.75584179  1
  Fe  Fe65  1  0.12353080  0.62741694  0.62763813  1
  Fe  Fe66  1  0.87423373  0.12449300  0.37731097  1
  Fe  Fe67  1  0.12498371  0.12782778  0.12480649  1
  Fe  Fe68  1  0.24874543  0.75383402  0.50027810  1
  Fe  Fe69  1  0.87153295  0.62212914  0.37568484  1
  Fe  Fe70  1  0.24854040  0.49743318  0.24551603  1
  Fe  Fe71  1  -0.00149275  0.24886536  -0.00133070  1
  Fe  Fe72  1  0.24956156  0.50086138  0.75047713  1
  Fe  Fe73  1  0.74542258  0.00630694  0.00131534  1
  Fe  Fe74  1  -0.00087022  0.74904537  0.25001649  1
  Fe  Fe75  1  0.74961148  0.74903739  0.74966206  1
  Fe  Fe76  1  0.00048297  0.49976085  0.25040828  1
  Fe  Fe77  1  0.87325181  0.87667039  0.12388501  1
  Fe  Fe78  1  0.12665488  0.12052158  0.62102519  1
  Fe  Fe79  1  0.00074713  0.00157817  0.25116856  1
  Fe  Fe80  1  0.37790813  0.12373187  0.12314032  1
  Fe  Fe81  1  0.12437248  0.37295994  0.87182413  1
  Fe  Fe82  1  0.24844005  0.75388200  -0.00040355  1
  Fe  Fe83  1  0.24941852  0.24802472  0.74678918  1
  Fe  Fe84  1  0.62524136  0.12617984  0.37535148  1
  Fe  Fe85  1  0.75084537  0.24979052  0.24783480  1
  Fe  Fe86  1  0.00114017  0.24931974  0.50196414  1
  Fe  Fe87  1  0.62417926  0.62473925  0.12062849  1
  Fe  Fe88  1  0.50153848  0.74770186  0.25072983  1
  Fe  Fe89  1  0.12614448  0.62594615  0.87555895  1
  Co  Co90  1  -0.00087608  -0.00256618  0.50006507  1
  Co  Co91  1  0.25020735  0.00073466  0.74881672  1
  Co  Co92  1  0.62575428  0.12959662  0.87284729  1
  Co  Co93  1  0.49691535  0.49884459  0.49856550  1
  Co  Co94  1  0.25161680  0.25229192  0.50458257  1
  Co  Co95  1  0.87775722  0.62831430  0.62492084  1
  Co  Co96  1  0.12372884  0.87599519  0.62842494  1
  Co  Co97  1  0.62994280  0.87513238  0.87491073  1
  Co  Co98  1  0.12055753  0.37370900  0.12505390  1
  Co  Co99  1  0.75225247  0.49682680  0.50704065  1
  Co  Co100  1  0.62973145  0.62286139  0.87316293  1
  Co  Co101  1  0.62795793  0.37611331  0.37533538  1
  Co  Co102  1  0.50531900  0.00158718  -0.00382777  1
  Co  Co103  1  0.38036406  0.37920350  0.12568955  1
  Co  Co104  1  0.12544486  0.87831620  0.87441973  1
  Co  Co105  1  0.50042976  0.49949142  -0.00592218  1
  Co  Co106  1  0.37332986  0.87840719  0.87721380  1
  Co  Co107  1  0.25120552  0.25030067  0.24630658  1
  Co  Co108  1  0.87648609  0.12449297  0.12550782  1
  Co  Co109  1  -0.00107410  0.75193948  0.75466902  1
  Co  Co110  1  0.37385280  0.37486892  0.87200192  1
  Co  Co111  1  0.24849799  -0.00199979  0.00434433  1
  Co  Co112  1  0.74744092  0.49975191  0.24504155  1
  Co  Co113  1  0.49956220  0.74844254  0.75577046  1
  Co  Co114  1  0.25235928  -0.00567528  0.49969041  1
  Co  Co115  1  0.87492326  0.12590747  0.62461230  1
  Co  Co116  1  0.49639355  0.24951035  -0.00345479  1
  Co  Co117  1  0.75187299  0.24831866  -0.00038586  1
  Co  Co118  1  0.24821191  0.49430510  -0.00023118  1
  Co  Co119  1  0.12582631  0.87554144  0.37123247  1
  Co  Co120  1  -0.00028463  0.50380569  0.75142259  1
  Co  Co121  1  0.62114791  0.12946697  0.12594982  1
  Co  Co122  1  0.12260697  0.37614479  0.62838059  1
  Co  Co123  1  0.37409999  0.62738855  0.62543546  1
  Co  Co124  1  0.36956078  0.62573377  0.87885217  1
  Co  Co125  1  0.00401137  0.24292495  0.74961083  1
  Co  Co126  1  0.62458603  0.87442945  0.37569163  1
  Co  Co127  1  0.75110712  0.74782653  -0.00010902  1
