# generated using pymatgen
data_Fe45Co19
_symmetry_space_group_name_H-M   'P 1'
_cell_length_a   11.41522149
_cell_length_b   11.41520881
_cell_length_c   11.41526566
_cell_angle_alpha   89.99381301
_cell_angle_beta   89.99861665
_cell_angle_gamma   90.00078826
_symmetry_Int_Tables_number   1
_chemical_formula_structural   Fe45Co19
_chemical_formula_sum   'Fe90 Co38'
_cell_volume   1487.49057636
_cell_formula_units_Z   2
loop_
 _symmetry_equiv_pos_site_id
 _symmetry_equiv_pos_as_xyz
  1  'x, y, z'
loop_
 _atom_site_type_symbol
 _atom_site_label
 _atom_site_symmetry_multiplicity
 _atom_site_fract_x
 _atom_site_fract_y
 _atom_site_fract_z
 _atom_site_occupancy
  Fe  Fe0  1  0.62092437  0.87679456  0.62613354  1
  Fe  Fe1  1  0.74806110  0.49535993  0.75108839  1
  Fe  Fe2  1  -0.00130035  0.74979065  0.24833413  1
  Fe  Fe3  1  0.75335854  0.25240416  0.50012136  1
  Fe  Fe4  1  0.74948106  0.49632010  0.49932056  1
  Fe  Fe5  1  0.25175627  0.75064515  0.50238374  1
  Fe  Fe6  1  -0.00017936  0.49932215  0.25211981  1
  Fe  Fe7  1  0.12689809  0.12917836  0.87570850  1
  Fe  Fe8  1  0.24724273  0.49673382  0.50247468  1
  Fe  Fe9  1  0.00118587  0.00052084  0.75062085  1
  Fe  Fe10  1  0.75072377  0.00108884  -0.00236358  1
  Fe  Fe11  1  0.00599519  0.50146875  0.75671213  1
  Fe  Fe12  1  0.74824588  0.49871789  -0.00265747  1
  Fe  Fe13  1  0.87501552  0.62176261  0.62857335  1
  Fe  Fe14  1  0.62312801  0.12748783  0.62341366  1
  Fe  Fe15  1  0.12107524  0.37219049  0.37865041  1
  Fe  Fe16  1  0.25176636  0.00263815  0.75093698  1
  Fe  Fe17  1  0.62667738  0.62519002  0.37597353  1
  Fe  Fe18  1  0.50057639  0.00223324  -0.00343843  1
  Fe  Fe19  1  0.87474498  0.12538881  0.37436453  1
  Fe  Fe20  1  0.74763679  0.00069494  0.25233574  1
  Fe  Fe21  1  0.25312772  0.75063248  0.00162797  1
  Fe  Fe22  1  0.49775999  0.24947667  0.75005357  1
  Fe  Fe23  1  -0.00168178  0.74839839  0.50332757  1
  Fe  Fe24  1  0.50169366  0.49629442  0.49669696  1
  Fe  Fe25  1  0.49845017  0.25054248  0.00084187  1
  Fe  Fe26  1  0.00328436  -0.00043763  0.25362111  1
  Fe  Fe27  1  0.75101390  0.74969131  0.24814366  1
  Fe  Fe28  1  0.11879311  0.37522425  0.11969179  1
  Fe  Fe29  1  0.62580544  0.87259139  0.37581719  1
  Fe  Fe30  1  0.25143896  0.25221701  0.74641489  1
  Fe  Fe31  1  0.62431578  0.87529093  0.12352473  1
  Fe  Fe32  1  0.12436398  0.62548643  0.12091583  1
  Fe  Fe33  1  0.87561325  0.62034698  0.12298672  1
  Fe  Fe34  1  0.24653772  0.00015844  0.25378622  1
  Fe  Fe35  1  0.00038978  0.24973501  0.74946164  1
  Fe  Fe36  1  0.37753236  0.88127295  0.62518222  1
  Fe  Fe37  1  0.24705362  0.49942706  0.24780442  1
  Fe  Fe38  1  0.12576187  0.62475313  0.62670534  1
  Fe  Fe39  1  0.75168942  0.25255822  0.74683028  1
  Fe  Fe40  1  0.25099944  0.25154641  0.00288620  1
  Fe  Fe41  1  0.75052500  0.49555937  0.25266112  1
  Fe  Fe42  1  0.25098167  0.74956957  0.24835480  1
  Fe  Fe43  1  0.87427998  0.62439508  0.37557430  1
  Fe  Fe44  1  0.87554196  0.87819301  0.12485263  1
  Fe  Fe45  1  0.37234386  0.62053440  0.87434704  1
  Fe  Fe46  1  0.25184977  0.25159213  0.24924042  1
  Fe  Fe47  1  0.12524346  0.87476592  0.62517158  1
  Fe  Fe48  1  0.37317967  0.87794327  0.37669087  1
  Fe  Fe49  1  -0.00507677  0.25144757  0.24715837  1
  Fe  Fe50  1  0.74663026  -0.00141182  0.75030283  1
  Fe  Fe51  1  0.37610100  0.61939721  0.62623327  1
  Fe  Fe52  1  0.74980214  0.75253181  0.74729013  1
  Fe  Fe53  1  0.62412357  0.37369834  0.12766939  1
  Fe  Fe54  1  0.87328354  0.12093097  0.62537740  1
  Fe  Fe55  1  0.87695040  0.37278343  0.87726865  1
  Fe  Fe56  1  0.12358648  0.87509297  0.12365470  1
  Fe  Fe57  1  0.62449898  0.62252855  0.62529050  1
  Fe  Fe58  1  0.87630473  0.87294513  0.87324156  1
  Fe  Fe59  1  0.12738478  0.12635771  0.62427459  1
  Fe  Fe60  1  0.50099593  0.00192490  0.25178681  1
  Fe  Fe61  1  0.87491294  0.87482698  0.37773159  1
  Fe  Fe62  1  0.62747723  0.12939208  0.87543463  1
  Fe  Fe63  1  0.00396796  0.00187238  0.49829513  1
  Fe  Fe64  1  0.88064374  0.37843421  0.62329565  1
  Fe  Fe65  1  0.25289363  0.74949978  0.74828884  1
  Fe  Fe66  1  -0.00091148  0.00371257  -0.00245835  1
  Fe  Fe67  1  0.37840352  0.38047461  0.12644765  1
  Fe  Fe68  1  0.50326788  0.49635561  0.75245537  1
  Fe  Fe69  1  0.25263582  0.25112697  0.50101973  1
  Fe  Fe70  1  0.12379458  0.87145880  0.87459495  1
  Fe  Fe71  1  0.37598122  0.87674166  0.12611188  1
  Fe  Fe72  1  0.49898525  0.74777110  -0.00102883  1
  Fe  Fe73  1  0.37425096  0.12305344  0.12576511  1
  Fe  Fe74  1  0.12445100  0.12494180  0.12558875  1
  Fe  Fe75  1  0.49479065  0.25256704  0.49717726  1
  Fe  Fe76  1  0.62588139  0.12745272  0.12700748  1
  Fe  Fe77  1  0.37261973  0.62173481  0.37481210  1
  Fe  Fe78  1  0.49832615  0.74798376  0.25102629  1
  Fe  Fe79  1  0.75138374  0.75062643  0.50389001  1
  Fe  Fe80  1  0.62664057  0.62686274  0.87317926  1
  Fe  Fe81  1  0.12577260  0.62739256  0.37568678  1
  Fe  Fe82  1  0.25031653  0.00038263  -0.00201493  1
  Fe  Fe83  1  0.37269659  0.37613656  0.87470960  1
  Fe  Fe84  1  0.62310633  0.62316717  0.12576904  1
  Fe  Fe85  1  0.75593930  0.24797444  0.00432068  1
  Fe  Fe86  1  0.62521640  0.13099386  0.37378416  1
  Fe  Fe87  1  0.75133661  0.75004426  0.00086971  1
  Fe  Fe88  1  0.49852531  0.74999858  0.50102991  1
  Fe  Fe89  1  0.37852907  0.87627799  0.87231271  1
  Co  Co90  1  0.87703770  0.38060779  0.12003162  1
  Co  Co91  1  0.12474502  0.86921539  0.37649681  1
  Co  Co92  1  0.62296965  0.37295271  0.62316668  1
  Co  Co93  1  -0.00303926  0.24468083  0.50349279  1
  Co  Co94  1  0.24401997  0.49714804  0.74963363  1
  Co  Co95  1  0.87340053  0.12558205  0.86995391  1
  Co  Co96  1  0.49853928  0.74698422  0.74879990  1
  Co  Co97  1  0.37269773  0.12833922  0.87619810  1
  Co  Co98  1  0.37646956  0.37803472  0.62683087  1
  Co  Co99  1  0.00201315  0.50382502  -0.00777892  1
  Co  Co100  1  0.12525098  0.13290247  0.37376553  1
  Co  Co101  1  0.62383707  0.87269256  0.87485341  1
  Co  Co102  1  0.50349798  0.00123260  0.49738905  1
  Co  Co103  1  0.74659206  0.00132223  0.49918699  1
  Co  Co104  1  0.13091529  0.63051218  0.87712275  1
  Co  Co105  1  0.37215594  0.37927128  0.37249165  1
  Co  Co106  1  0.62704040  0.36917387  0.87653284  1
  Co  Co107  1  0.00026458  0.74797942  0.74853760  1
  Co  Co108  1  0.87946248  0.37528465  0.37947292  1
  Co  Co109  1  0.12092759  0.37401965  0.62246035  1
  Co  Co110  1  0.12566246  0.36886118  0.87804891  1
  Co  Co111  1  0.24805406  0.49803861  0.00164229  1
  Co  Co112  1  0.37268193  0.12245973  0.37575975  1
  Co  Co113  1  -0.00288813  0.74781051  0.00042433  1
  Co  Co114  1  0.00199419  0.50492424  0.49982401  1
  Co  Co115  1  0.49463959  0.24928845  0.25076272  1
  Co  Co116  1  0.50268603  0.49932053  -0.00301959  1
  Co  Co117  1  0.50194641  0.00589554  0.75340162  1
  Co  Co118  1  0.62511829  0.37092446  0.37249812  1
  Co  Co119  1  0.87647573  0.87925630  0.62403197  1
  Co  Co120  1  0.50224892  0.50160878  0.25269367  1
  Co  Co121  1  -0.00410979  0.24433948  0.00131292  1
  Co  Co122  1  0.37560289  0.12181237  0.62220892  1
  Co  Co123  1  0.87551645  0.11936076  0.12928980  1
  Co  Co124  1  0.87111257  0.62652372  0.87238369  1
  Co  Co125  1  0.24461805  0.00129536  0.49793751  1
  Co  Co126  1  0.75630082  0.25354823  0.24862768  1
  Co  Co127  1  0.37621967  0.62179614  0.12486355  1
