# generated using pymatgen
data_Fe45Co19
_symmetry_space_group_name_H-M   'P 1'
_cell_length_a   11.41655643
_cell_length_b   11.41383874
_cell_length_c   11.41512574
_cell_angle_alpha   90.00396137
_cell_angle_beta   90.00345950
_cell_angle_gamma   90.00545355
_symmetry_Int_Tables_number   1
_chemical_formula_structural   Fe45Co19
_chemical_formula_sum   'Fe90 Co38'
_cell_volume   1487.46774108
_cell_formula_units_Z   2
loop_
 _symmetry_equiv_pos_site_id
 _symmetry_equiv_pos_as_xyz
  1  'x, y, z'
loop_
 _atom_site_type_symbol
 _atom_site_label
 _atom_site_symmetry_multiplicity
 _atom_site_fract_x
 _atom_site_fract_y
 _atom_site_fract_z
 _atom_site_occupancy
  Fe  Fe0  1  0.62253803  0.62653299  0.62213753  1
  Fe  Fe1  1  0.62719592  0.37323623  0.37055416  1
  Fe  Fe2  1  0.00043309  0.50214869  0.25235469  1
  Fe  Fe3  1  0.75158340  0.25065120  0.00199604  1
  Fe  Fe4  1  -0.00159712  0.25019451  0.49913559  1
  Fe  Fe5  1  0.75054569  -0.00152670  0.49915241  1
  Fe  Fe6  1  0.62324556  0.62740582  0.12264614  1
  Fe  Fe7  1  0.24962489  0.00133113  0.24926765  1
  Fe  Fe8  1  -0.00092999  0.74921763  0.49797460  1
  Fe  Fe9  1  0.12248424  0.12503337  0.12495579  1
  Fe  Fe10  1  0.87748940  0.37576043  0.87569339  1
  Fe  Fe11  1  0.87535889  0.37669831  0.62353450  1
  Fe  Fe12  1  0.62631633  0.37591832  0.87540064  1
  Fe  Fe13  1  0.24441644  0.25334461  0.00140638  1
  Fe  Fe14  1  0.75167297  0.75379736  -0.00046372  1
  Fe  Fe15  1  0.87708297  0.12219763  0.12281950  1
  Fe  Fe16  1  0.25019609  0.74692516  0.25029043  1
  Fe  Fe17  1  -0.00046956  0.75022147  0.75083815  1
  Fe  Fe18  1  0.74981395  0.50191563  0.49948566  1
  Fe  Fe19  1  0.12449196  0.37376459  0.37235189  1
  Fe  Fe20  1  0.50030444  -0.00418491  0.00357469  1
  Fe  Fe21  1  0.12522693  0.12771352  0.62499655  1
  Fe  Fe22  1  0.37563401  0.62444625  0.87635657  1
  Fe  Fe23  1  0.37417278  0.87471470  0.37295942  1
  Fe  Fe24  1  0.49928885  -0.00203286  0.24740361  1
  Fe  Fe25  1  0.25234633  0.74787857  0.49990487  1
  Fe  Fe26  1  0.75132900  0.00075462  0.75055639  1
  Fe  Fe27  1  0.37689523  0.12726554  0.87779095  1
  Fe  Fe28  1  0.24988948  0.00105598  0.49999745  1
  Fe  Fe29  1  0.37251083  0.87609023  0.87488112  1
  Fe  Fe30  1  0.37433642  0.37280148  0.37134959  1
  Fe  Fe31  1  0.87474150  0.62628130  0.87441895  1
  Fe  Fe32  1  0.12473561  0.37179250  0.62790231  1
  Fe  Fe33  1  0.75057887  0.50319070  0.74881542  1
  Fe  Fe34  1  0.37736464  0.62291210  0.37716372  1
  Fe  Fe35  1  -0.00218886  0.00082860  0.74723841  1
  Fe  Fe36  1  0.25003839  0.75064078  -0.00072668  1
  Fe  Fe37  1  0.24923081  0.50083962  0.75019569  1
  Fe  Fe38  1  0.75124357  0.50118194  0.24943168  1
  Fe  Fe39  1  0.37449066  0.12741331  0.37318948  1
  Fe  Fe40  1  0.62464272  0.62494061  0.87789572  1
  Fe  Fe41  1  0.62090024  0.62575299  0.37672570  1
  Fe  Fe42  1  0.24884840  0.50036051  0.24880665  1
  Fe  Fe43  1  0.62631971  0.87520502  0.87411083  1
  Fe  Fe44  1  0.50016711  0.00175006  0.74897618  1
  Fe  Fe45  1  0.50033919  0.25106189  0.49915844  1
  Fe  Fe46  1  0.87848642  0.37418819  0.12725431  1
  Fe  Fe47  1  0.12491043  0.12523762  0.37601689  1
  Fe  Fe48  1  0.12201628  0.12615473  0.87425110  1
  Fe  Fe49  1  0.50199849  0.25494773  0.00364032  1
  Fe  Fe50  1  0.00012991  -0.00249327  0.25066837  1
  Fe  Fe51  1  0.75250789  0.75063481  0.25259336  1
  Fe  Fe52  1  0.62426846  0.12569211  0.87624922  1
  Fe  Fe53  1  0.62409479  0.87306271  0.37472406  1
  Fe  Fe54  1  0.37353086  0.12668195  0.12459603  1
  Fe  Fe55  1  0.87630739  0.12261895  0.87753243  1
  Fe  Fe56  1  0.62686390  0.87249814  0.62371987  1
  Fe  Fe57  1  0.75107354  -0.00140202  0.24927055  1
  Fe  Fe58  1  0.24893927  0.49889649  0.50012865  1
  Fe  Fe59  1  0.12570911  0.87661263  0.87431863  1
  Fe  Fe60  1  0.12553942  0.62558350  0.62397709  1
  Fe  Fe61  1  0.12497874  0.87369852  0.37536268  1
  Fe  Fe62  1  -0.00071669  0.50131263  0.74956972  1
  Fe  Fe63  1  0.37437059  0.37337750  0.62628754  1
  Fe  Fe64  1  0.87841502  0.62354721  0.37694876  1
  Fe  Fe65  1  0.12666227  0.87385658  0.62471653  1
  Fe  Fe66  1  0.50114461  0.49842074  0.24679538  1
  Fe  Fe67  1  0.50064857  0.50002299  0.74978357  1
  Fe  Fe68  1  0.37248944  0.87406242  0.62742470  1
  Fe  Fe69  1  0.62626978  0.37396163  0.62569239  1
  Fe  Fe70  1  0.37771954  0.62546202  0.12237528  1
  Fe  Fe71  1  0.75177579  0.25002715  0.49736928  1
  Fe  Fe72  1  0.75177885  0.49974182  0.00185913  1
  Fe  Fe73  1  -0.00105891  0.75252276  0.00046079  1
  Fe  Fe74  1  0.12437190  0.62368243  0.87655413  1
  Fe  Fe75  1  0.12275350  0.62448619  0.12489339  1
  Fe  Fe76  1  0.37418672  0.12804174  0.62536921  1
  Fe  Fe77  1  0.62653975  0.12636505  0.62506671  1
  Fe  Fe78  1  0.62431741  0.12599739  0.37286432  1
  Fe  Fe79  1  0.75252728  0.24926980  0.75093053  1
  Fe  Fe80  1  0.87722804  0.62696430  0.12559972  1
  Fe  Fe81  1  0.49901005  -0.00073195  0.50071696  1
  Fe  Fe82  1  0.24708728  0.49681722  0.00143720  1
  Fe  Fe83  1  0.62663160  0.12566913  0.12563747  1
  Fe  Fe84  1  0.87588389  0.12212574  0.37620025  1
  Fe  Fe85  1  0.49879274  0.74899522  0.74988740  1
  Fe  Fe86  1  0.12631278  0.87472767  0.12509873  1
  Fe  Fe87  1  0.24987015  0.00372966  0.75144640  1
  Fe  Fe88  1  0.37498341  0.37474758  0.87536152  1
  Fe  Fe89  1  0.87337134  0.87257248  0.62399510  1
  Co  Co90  1  0.49859748  0.74993746  0.24965875  1
  Co  Co91  1  0.50065949  0.25045460  0.24727889  1
  Co  Co92  1  0.87678185  0.87598954  0.37583557  1
  Co  Co93  1  0.74789201  -0.00164210  0.00019612  1
  Co  Co94  1  0.75436253  0.24790318  0.24928025  1
  Co  Co95  1  0.12467332  0.62567091  0.37581376  1
  Co  Co96  1  0.25027190  0.24941398  0.75401721  1
  Co  Co97  1  0.87479007  0.37770740  0.37489689  1
  Co  Co98  1  0.37307739  0.37517068  0.12608067  1
  Co  Co99  1  0.24980184  0.25033328  0.49840884  1
  Co  Co100  1  0.87499949  0.87670163  0.12519155  1
  Co  Co101  1  0.49722566  0.75275526  0.50043204  1
  Co  Co102  1  0.50034570  0.49472999  0.49945086  1
  Co  Co103  1  0.75171712  0.74709957  0.49694027  1
  Co  Co104  1  0.49895996  0.75446547  -0.00087252  1
  Co  Co105  1  0.87696389  0.62515128  0.62383935  1
  Co  Co106  1  0.24909840  0.00166838  -0.00034799  1
  Co  Co107  1  0.87476148  0.87655046  0.87395226  1
  Co  Co108  1  0.62917007  0.37544434  0.12712369  1
  Co  Co109  1  -0.00355116  0.24911704  0.74972922  1
  Co  Co110  1  -0.00179276  0.24774574  0.25268398  1
  Co  Co111  1  0.00177476  -0.00277274  -0.00031669  1
  Co  Co112  1  -0.00033615  0.75083950  0.24994440  1
  Co  Co113  1  0.50088205  0.25056372  0.74964910  1
  Co  Co114  1  0.11945411  0.37732070  0.12805222  1
  Co  Co115  1  -0.00164487  0.50123281  -0.00011742  1
  Co  Co116  1  0.62742255  0.87221157  0.12744859  1
  Co  Co117  1  0.37552202  0.62340274  0.62368400  1
  Co  Co118  1  0.50123691  0.49695408  0.00115236  1
  Co  Co119  1  0.00322217  0.49868588  0.50000939  1
  Co  Co120  1  0.87300557  0.12499588  0.62265870  1
  Co  Co121  1  0.12172541  0.37653805  0.87302611  1
  Co  Co122  1  0.24694516  0.24965157  0.24685690  1
  Co  Co123  1  0.74951382  0.74773961  0.75000035  1
  Co  Co124  1  0.00090965  -0.00051377  0.50213831  1
  Co  Co125  1  0.37083751  0.87411642  0.12590436  1
  Co  Co126  1  0.24945355  0.74758055  0.75135358  1
  Co  Co127  1  0.00166852  0.25127396  -0.00028478  1
