# generated using pymatgen
data_Fe45Co19
_symmetry_space_group_name_H-M   'P 1'
_cell_length_a   11.41378505
_cell_length_b   11.41619786
_cell_length_c   11.41512042
_cell_angle_alpha   90.00739043
_cell_angle_beta   90.00797169
_cell_angle_gamma   89.99131978
_symmetry_Int_Tables_number   1
_chemical_formula_structural   Fe45Co19
_chemical_formula_sum   'Fe90 Co38'
_cell_volume   1487.41330203
_cell_formula_units_Z   2
loop_
 _symmetry_equiv_pos_site_id
 _symmetry_equiv_pos_as_xyz
  1  'x, y, z'
loop_
 _atom_site_type_symbol
 _atom_site_label
 _atom_site_symmetry_multiplicity
 _atom_site_fract_x
 _atom_site_fract_y
 _atom_site_fract_z
 _atom_site_occupancy
  Fe  Fe0  1  0.37533860  0.87632023  0.37478473  1
  Fe  Fe1  1  0.74947223  0.49666257  0.49908008  1
  Fe  Fe2  1  0.62382286  0.87259910  0.62364749  1
  Fe  Fe3  1  0.87364535  0.12582030  0.12482422  1
  Fe  Fe4  1  0.25367957  0.25045030  0.50003623  1
  Fe  Fe5  1  0.24862168  0.49773644  0.75171449  1
  Fe  Fe6  1  0.12586135  0.12761083  0.12378417  1
  Fe  Fe7  1  0.49760056  0.25135418  0.00034947  1
  Fe  Fe8  1  0.00230019  0.49927542  0.00063336  1
  Fe  Fe9  1  0.12295285  0.87467363  0.37794697  1
  Fe  Fe10  1  0.00188056  0.49814157  0.24981247  1
  Fe  Fe11  1  0.37724911  0.62416154  0.62682334  1
  Fe  Fe12  1  0.24987586  0.00167624  0.75244534  1
  Fe  Fe13  1  0.87715163  0.37733036  0.62847048  1
  Fe  Fe14  1  0.74988456  0.00146086  0.50053810  1
  Fe  Fe15  1  0.37553845  0.87591132  0.62536815  1
  Fe  Fe16  1  0.12385482  0.62085128  0.62413936  1
  Fe  Fe17  1  0.62641565  0.87260826  0.87506221  1
  Fe  Fe18  1  0.74620241  0.50175851  0.00129720  1
  Fe  Fe19  1  -0.00035090  0.00053522  0.25004186  1
  Fe  Fe20  1  0.24898870  0.00008775  0.24970232  1
  Fe  Fe21  1  0.87467995  0.12714527  0.37517843  1
  Fe  Fe22  1  0.25120204  0.74803646  -0.00025859  1
  Fe  Fe23  1  0.25285694  0.25070386  0.75147966  1
  Fe  Fe24  1  0.12455655  0.62598318  0.87384343  1
  Fe  Fe25  1  0.74933533  0.25132588  0.25125707  1
  Fe  Fe26  1  0.74528127  0.49831645  0.24958537  1
  Fe  Fe27  1  0.74952383  -0.00031804  0.25181365  1
  Fe  Fe28  1  0.75141586  0.00003056  -0.00303341  1
  Fe  Fe29  1  0.62390455  0.62586771  0.87251226  1
  Fe  Fe30  1  -0.00115697  0.00173590  -0.00079557  1
  Fe  Fe31  1  0.62358139  0.62588482  0.37616352  1
  Fe  Fe32  1  0.12352323  0.87320278  0.87444703  1
  Fe  Fe33  1  0.75403852  0.25066369  -0.00478685  1
  Fe  Fe34  1  0.49772808  0.24983991  0.75012453  1
  Fe  Fe35  1  0.61956849  0.37123525  0.37708079  1
  Fe  Fe36  1  0.87069795  0.12703776  0.62911900  1
  Fe  Fe37  1  0.75182050  0.75074138  0.25341633  1
  Fe  Fe38  1  0.12625025  0.12790452  0.62542247  1
  Fe  Fe39  1  0.87549919  0.62252414  0.37829179  1
  Fe  Fe40  1  0.74821802  0.49805410  0.74973200  1
  Fe  Fe41  1  0.62785169  0.12788874  0.62688518  1
  Fe  Fe42  1  0.37271611  0.61954799  0.12694068  1
  Fe  Fe43  1  0.87235854  0.62463913  0.12583207  1
  Fe  Fe44  1  0.37741806  0.61959313  0.87412256  1
  Fe  Fe45  1  0.49946599  0.74658386  -0.00029525  1
  Fe  Fe46  1  0.75418734  0.75179485  0.74732865  1
  Fe  Fe47  1  0.12426005  0.12732969  0.37464530  1
  Fe  Fe48  1  -0.00114915  0.74837576  0.00098227  1
  Fe  Fe49  1  0.37458465  0.12291018  0.12377014  1
  Fe  Fe50  1  0.12489622  0.12734703  0.87692951  1
  Fe  Fe51  1  0.62305684  0.37202240  0.62299718  1
  Fe  Fe52  1  0.62192645  0.37592615  0.87660850  1
  Fe  Fe53  1  0.37635686  0.62068242  0.37218207  1
  Fe  Fe54  1  -0.00286089  0.25182772  0.50240718  1
  Fe  Fe55  1  0.25064663  0.49795379  0.49894483  1
  Fe  Fe56  1  0.00017051  0.74943323  0.25059707  1
  Fe  Fe57  1  0.87816471  0.87493353  0.38118813  1
  Fe  Fe58  1  0.12351901  0.87631879  0.62292351  1
  Fe  Fe59  1  0.62249269  0.12872060  0.37460434  1
  Fe  Fe60  1  0.62685992  0.87196536  0.12465153  1
  Fe  Fe61  1  0.49821891  0.74988187  0.25018140  1
  Fe  Fe62  1  0.12878531  0.62298120  0.12681555  1
  Fe  Fe63  1  0.25059072  0.74923935  0.74929278  1
  Fe  Fe64  1  -0.00081762  0.25186090  0.24762924  1
  Fe  Fe65  1  0.24991945  0.00248877  0.49941755  1
  Fe  Fe66  1  0.12488073  0.62470598  0.37523746  1
  Fe  Fe67  1  0.12426162  0.37367256  0.37648725  1
  Fe  Fe68  1  0.50015720  0.00260156  0.50104289  1
  Fe  Fe69  1  0.37398917  0.87619866  0.12466426  1
  Fe  Fe70  1  0.12184615  0.37324671  0.87425892  1
  Fe  Fe71  1  0.25302215  0.25407615  0.25017070  1
  Fe  Fe72  1  0.37807315  0.12581742  0.37284433  1
  Fe  Fe73  1  0.37420121  0.87624520  0.87541913  1
  Fe  Fe74  1  0.62427570  0.62778242  0.62407288  1
  Fe  Fe75  1  -0.00322896  0.74769744  0.74540957  1
  Fe  Fe76  1  0.37489083  0.38144600  0.12437959  1
  Fe  Fe77  1  0.62326009  0.87428408  0.37637151  1
  Fe  Fe78  1  0.37577087  0.37601730  0.62496467  1
  Fe  Fe79  1  0.50117260  0.00046981  0.00012317  1
  Fe  Fe80  1  0.62581742  0.12692570  0.12542344  1
  Fe  Fe81  1  0.87355657  0.37622995  0.12436194  1
  Fe  Fe82  1  0.25197423  0.25363239  -0.00137585  1
  Fe  Fe83  1  0.87456304  0.62280108  0.87392525  1
  Fe  Fe84  1  0.87318748  0.87354534  0.12345550  1
  Fe  Fe85  1  0.50032906  0.00075904  0.75073477  1
  Fe  Fe86  1  0.12641791  0.87423954  0.12490554  1
  Fe  Fe87  1  0.62639688  0.12591957  0.87270377  1
  Fe  Fe88  1  -0.00194975  0.00087395  0.74897590  1
  Fe  Fe89  1  0.25091901  0.74859595  0.50015712  1
  Co  Co90  1  0.50109305  0.50166958  0.50205094  1
  Co  Co91  1  0.00002560  0.49638180  0.49889247  1
  Co  Co92  1  0.75054064  0.74784204  -0.00281084  1
  Co  Co93  1  0.87644742  0.37969188  0.87534779  1
  Co  Co94  1  0.62766078  0.37038362  0.12261010  1
  Co  Co95  1  0.00240210  0.50075798  0.75123643  1
  Co  Co96  1  0.37904844  0.37926812  0.87455948  1
  Co  Co97  1  -0.00067609  0.00665081  0.50150661  1
  Co  Co98  1  0.74974401  -0.00476774  0.74957489  1
  Co  Co99  1  0.49870414  0.75057081  0.75113853  1
  Co  Co100  1  0.87668410  0.87653065  0.62046469  1
  Co  Co101  1  0.49798943  0.25278422  0.24600970  1
  Co  Co102  1  0.87678724  0.87393170  0.87521358  1
  Co  Co103  1  0.00114079  0.74560183  0.50338223  1
  Co  Co104  1  0.12589666  0.37452249  0.62510988  1
  Co  Co105  1  0.87321210  0.12406825  0.87043300  1
  Co  Co106  1  0.49684769  0.74871122  0.49892185  1
  Co  Co107  1  0.87521975  0.37605855  0.37152559  1
  Co  Co108  1  0.49665723  0.24735513  0.50357147  1
  Co  Co109  1  0.37989472  0.37676517  0.37652932  1
  Co  Co110  1  0.50177854  0.00018894  0.24808523  1
  Co  Co111  1  0.24755560  0.49557774  0.25362897  1
  Co  Co112  1  0.50511010  0.50242656  0.00393419  1
  Co  Co113  1  0.50292491  0.49846972  0.74682379  1
  Co  Co114  1  0.75291716  0.25259589  0.49992437  1
  Co  Co115  1  0.74973388  0.25584243  0.75323048  1
  Co  Co116  1  -0.00095416  0.24997418  0.75036960  1
  Co  Co117  1  0.37518657  0.12422983  0.87632170  1
  Co  Co118  1  0.37406975  0.12312455  0.62734159  1
  Co  Co119  1  0.75122519  0.74933093  0.50082922  1
  Co  Co120  1  0.87395128  0.61903208  0.62276288  1
  Co  Co121  1  0.50557178  0.49763776  0.24689147  1
  Co  Co122  1  0.24629798  0.49872292  -0.00438636  1
  Co  Co123  1  0.62641810  0.63061479  0.12789706  1
  Co  Co124  1  0.24767966  -0.00061191  -0.00087609  1
  Co  Co125  1  -0.00384814  0.24982048  -0.00045468  1
  Co  Co126  1  0.12500996  0.37439052  0.12412070  1
  Co  Co127  1  0.25013765  0.75088276  0.25089758  1
