# generated using pymatgen
data_Fe45Co19
_symmetry_space_group_name_H-M   'P 1'
_cell_length_a   11.41505539
_cell_length_b   11.41536092
_cell_length_c   11.41494156
_cell_angle_alpha   89.99044787
_cell_angle_beta   90.00064352
_cell_angle_gamma   90.00210641
_symmetry_Int_Tables_number   1
_chemical_formula_structural   Fe45Co19
_chemical_formula_sum   'Fe90 Co38'
_cell_volume   1487.44650781
_cell_formula_units_Z   2
loop_
 _symmetry_equiv_pos_site_id
 _symmetry_equiv_pos_as_xyz
  1  'x, y, z'
loop_
 _atom_site_type_symbol
 _atom_site_label
 _atom_site_symmetry_multiplicity
 _atom_site_fract_x
 _atom_site_fract_y
 _atom_site_fract_z
 _atom_site_occupancy
  Fe  Fe0  1  0.87425499  0.87436198  0.87504992  1
  Fe  Fe1  1  0.00672381  0.25352832  0.49966012  1
  Fe  Fe2  1  0.25242782  0.00087566  0.74833109  1
  Fe  Fe3  1  0.37635649  0.63137713  0.37367530  1
  Fe  Fe4  1  0.25611664  0.50134839  0.74269955  1
  Fe  Fe5  1  0.87754103  0.12617365  0.87480485  1
  Fe  Fe6  1  0.25086423  -0.00054727  0.50062041  1
  Fe  Fe7  1  0.87575940  0.12630972  0.37651513  1
  Fe  Fe8  1  0.37349471  0.12701938  0.37588166  1
  Fe  Fe9  1  -0.00201165  0.50064776  0.25175945  1
  Fe  Fe10  1  0.74884122  0.50096557  0.24828187  1
  Fe  Fe11  1  0.00154252  -0.00202323  0.75042244  1
  Fe  Fe12  1  0.49889639  0.25033654  0.74989286  1
  Fe  Fe13  1  0.00125917  -0.00151347  0.50071314  1
  Fe  Fe14  1  0.00107404  0.74902641  -0.00261723  1
  Fe  Fe15  1  0.62297737  0.12323198  0.62523377  1
  Fe  Fe16  1  0.25148268  -0.00461896  0.25286364  1
  Fe  Fe17  1  0.12480665  0.87480135  0.37737368  1
  Fe  Fe18  1  0.62428363  0.37772691  0.37593525  1
  Fe  Fe19  1  0.62501017  0.62446911  0.87391855  1
  Fe  Fe20  1  0.75012761  -0.00069396  0.50133651  1
  Fe  Fe21  1  0.87418921  0.62658342  0.87181489  1
  Fe  Fe22  1  0.25328384  0.50413355  0.24973591  1
  Fe  Fe23  1  0.49639110  0.50262205  0.00072171  1
  Fe  Fe24  1  0.74856839  0.24995262  0.74862335  1
  Fe  Fe25  1  0.24882440  0.74602528  0.00072992  1
  Fe  Fe26  1  0.12994088  0.37683708  0.87359832  1
  Fe  Fe27  1  0.00318488  0.25163529  0.00111544  1
  Fe  Fe28  1  0.87517694  0.87405699  0.62526134  1
  Fe  Fe29  1  -0.00093884  0.50057628  -0.00233530  1
  Fe  Fe30  1  0.12613125  0.37838064  0.12654775  1
  Fe  Fe31  1  0.25257390  0.00129289  -0.00067379  1
  Fe  Fe32  1  0.24659648  0.74779514  0.50175133  1
  Fe  Fe33  1  0.49452281  0.24837688  0.00338328  1
  Fe  Fe34  1  0.12759434  0.12586960  0.87472711  1
  Fe  Fe35  1  0.74846819  0.24933857  0.00154701  1
  Fe  Fe36  1  0.87279751  0.87241993  0.37555420  1
  Fe  Fe37  1  0.12754683  0.87414933  0.87285522  1
  Fe  Fe38  1  0.62155791  0.37717847  0.62430237  1
  Fe  Fe39  1  0.37259723  0.37339473  0.87468103  1
  Fe  Fe40  1  0.00283711  0.74857854  0.25085479  1
  Fe  Fe41  1  0.25305490  0.50280162  0.00321096  1
  Fe  Fe42  1  0.37731319  0.87091258  0.62403068  1
  Fe  Fe43  1  0.75022299  0.49803344  0.74903889  1
  Fe  Fe44  1  0.00139031  0.74900477  0.50275356  1
  Fe  Fe45  1  0.50836475  0.75134831  0.49751782  1
  Fe  Fe46  1  0.49870216  -0.00101035  0.49743481  1
  Fe  Fe47  1  0.74685150  0.25171147  0.50135493  1
  Fe  Fe48  1  0.12477636  0.87435454  0.12407053  1
  Fe  Fe49  1  0.25089453  0.74734182  0.74722630  1
  Fe  Fe50  1  0.74923818  0.00077573  0.75077963  1
  Fe  Fe51  1  0.12555952  0.62290263  0.87060501  1
  Fe  Fe52  1  0.87397581  0.37280916  0.87600178  1
  Fe  Fe53  1  0.12552228  0.62173654  0.37694933  1
  Fe  Fe54  1  0.87052862  0.62592107  0.37894361  1
  Fe  Fe55  1  0.00500560  0.25307539  0.74852591  1
  Fe  Fe56  1  0.49764890  0.74897543  -0.00442417  1
  Fe  Fe57  1  0.75103145  0.00028930  0.24791308  1
  Fe  Fe58  1  0.62578898  0.12317808  0.37363135  1
  Fe  Fe59  1  0.62247802  0.37524190  0.87593697  1
  Fe  Fe60  1  0.62492378  0.87249011  0.12146667  1
  Fe  Fe61  1  0.75022560  0.50066770  0.00007403  1
  Fe  Fe62  1  0.49708205  -0.00308683  0.75312038  1
  Fe  Fe63  1  0.37344241  0.86880703  0.12774307  1
  Fe  Fe64  1  0.74895847  0.25017903  0.24805055  1
  Fe  Fe65  1  0.37488896  0.12956059  0.62353710  1
  Fe  Fe66  1  0.49950461  0.50357200  0.24937913  1
  Fe  Fe67  1  0.87643715  0.87274052  0.12457634  1
  Fe  Fe68  1  0.87544756  0.62513110  0.12428908  1
  Fe  Fe69  1  0.12695051  0.12300661  0.12504407  1
  Fe  Fe70  1  0.49910129  0.24944282  0.24905869  1
  Fe  Fe71  1  0.87717111  0.12504078  0.12344916  1
  Fe  Fe72  1  0.12604384  0.12453614  0.37504498  1
  Fe  Fe73  1  0.87800442  0.37599809  0.62407819  1
  Fe  Fe74  1  0.49555166  -0.00038322  -0.00043372  1
  Fe  Fe75  1  0.49711785  0.50127861  0.50092106  1
  Fe  Fe76  1  -0.00026307  -0.00126919  0.25036620  1
  Fe  Fe77  1  0.75045823  0.00083879  -0.00016471  1
  Fe  Fe78  1  0.62320136  0.37623702  0.12406289  1
  Fe  Fe79  1  0.49607364  0.50209804  0.74813787  1
  Fe  Fe80  1  0.37311619  0.37320432  0.37817911  1
  Fe  Fe81  1  0.87811021  0.12614047  0.62446277  1
  Fe  Fe82  1  0.49828256  -0.00421467  0.25093580  1
  Fe  Fe83  1  0.87410335  0.37467066  0.37536165  1
  Fe  Fe84  1  0.74552280  0.75170337  0.74770449  1
  Fe  Fe85  1  0.74489757  0.74802721  0.25026710  1
  Fe  Fe86  1  0.25080630  0.25110125  0.24844225  1
  Fe  Fe87  1  0.00083281  0.25147141  0.24941017  1
  Fe  Fe88  1  0.62228715  0.12462847  0.87672748  1
  Fe  Fe89  1  0.87596844  0.62397434  0.62507815  1
  Co  Co90  1  0.62351618  0.62263638  0.62633770  1
  Co  Co91  1  0.24472940  0.25129765  0.50204738  1
  Co  Co92  1  0.87502584  0.37606787  0.12422609  1
  Co  Co93  1  0.12879382  0.37948019  0.37254351  1
  Co  Co94  1  0.37387529  0.86896573  0.37634039  1
  Co  Co95  1  0.62266830  0.62569544  0.12147915  1
  Co  Co96  1  0.00113841  -0.00180229  -0.00136195  1
  Co  Co97  1  0.12101080  0.62002453  0.62650755  1
  Co  Co98  1  0.12407797  0.12210110  0.62524994  1
  Co  Co99  1  0.24470422  0.74930503  0.25129029  1
  Co  Co100  1  0.37283356  0.62436806  0.87395275  1
  Co  Co101  1  0.25562094  0.50357026  0.50194069  1
  Co  Co102  1  0.37361866  0.12821602  0.87300164  1
  Co  Co103  1  0.12710590  0.87485363  0.62620531  1
  Co  Co104  1  0.50185558  0.75063426  0.75414987  1
  Co  Co105  1  0.38009478  0.63247163  0.62239617  1
  Co  Co106  1  0.62752100  0.62047929  0.37814134  1
  Co  Co107  1  0.12314935  0.62236304  0.12538111  1
  Co  Co108  1  0.37296640  0.12170211  0.12881018  1
  Co  Co109  1  0.50355974  0.24891343  0.49777919  1
  Co  Co110  1  0.75186727  0.74858113  -0.00090044  1
  Co  Co111  1  0.25176999  0.25008068  0.00254112  1
  Co  Co112  1  0.24800571  0.25140458  0.74558765  1
  Co  Co113  1  0.00084012  0.75131347  0.74987577  1
  Co  Co114  1  0.12572010  0.38388507  0.62402770  1
  Co  Co115  1  0.62262586  0.12388101  0.12535646  1
  Co  Co116  1  0.62573240  0.87576054  0.87705254  1
  Co  Co117  1  0.37111467  0.87249231  0.87431288  1
  Co  Co118  1  -0.00115023  0.49952247  0.49675581  1
  Co  Co119  1  0.37594795  0.37009658  0.62126883  1
  Co  Co120  1  0.50711183  0.75085453  0.25388865  1
  Co  Co121  1  0.75045587  0.49750071  0.50340386  1
  Co  Co122  1  0.62906771  0.87890044  0.37549158  1
  Co  Co123  1  0.37658979  0.63067286  0.12867958  1
  Co  Co124  1  -0.00284909  0.49823437  0.75316436  1
  Co  Co125  1  0.74611531  0.75070007  0.50356682  1
  Co  Co126  1  0.37499752  0.37755000  0.12595652  1
  Co  Co127  1  0.62190098  0.87822951  0.62653313  1
