# generated using pymatgen
data_Fe45Co19
_symmetry_space_group_name_H-M   'P 1'
_cell_length_a   11.41473563
_cell_length_b   11.41599619
_cell_length_c   11.41520233
_cell_angle_alpha   89.99956184
_cell_angle_beta   90.00761531
_cell_angle_gamma   90.01237830
_symmetry_Int_Tables_number   1
_chemical_formula_structural   Fe45Co19
_chemical_formula_sum   'Fe90 Co38'
_cell_volume   1487.52157070
_cell_formula_units_Z   2
loop_
 _symmetry_equiv_pos_site_id
 _symmetry_equiv_pos_as_xyz
  1  'x, y, z'
loop_
 _atom_site_type_symbol
 _atom_site_label
 _atom_site_symmetry_multiplicity
 _atom_site_fract_x
 _atom_site_fract_y
 _atom_site_fract_z
 _atom_site_occupancy
  Fe  Fe0  1  0.87854944  0.62892505  0.12522649  1
  Fe  Fe1  1  0.37605487  0.87646266  0.37411848  1
  Fe  Fe2  1  0.75590091  0.75573543  0.24965375  1
  Fe  Fe3  1  0.50118688  0.24934712  0.49931888  1
  Fe  Fe4  1  -0.00281910  0.24930318  0.75007387  1
  Fe  Fe5  1  0.00086189  -0.00150093  0.25132708  1
  Fe  Fe6  1  0.50092184  0.50309729  0.75214690  1
  Fe  Fe7  1  0.37485122  0.37687862  0.87562889  1
  Fe  Fe8  1  0.50108260  0.74677575  0.75076705  1
  Fe  Fe9  1  0.00059355  0.24890195  0.49811921  1
  Fe  Fe10  1  0.24615719  -0.00152689  0.74629009  1
  Fe  Fe11  1  0.50245972  0.75190184  0.50136042  1
  Fe  Fe12  1  0.37852730  0.37703637  0.12780961  1
  Fe  Fe13  1  0.75001474  0.25170692  0.49919010  1
  Fe  Fe14  1  0.37291936  0.62494263  0.37597257  1
  Fe  Fe15  1  0.37727906  0.87453076  0.12508165  1
  Fe  Fe16  1  0.37459246  0.87525442  0.87337116  1
  Fe  Fe17  1  0.12322055  0.37431787  0.62435028  1
  Fe  Fe18  1  0.50019468  0.24920988  0.74992344  1
  Fe  Fe19  1  0.87311348  0.62553207  0.87686280  1
  Fe  Fe20  1  0.62758962  0.37774236  0.87497654  1
  Fe  Fe21  1  0.12128885  0.37421184  0.12475082  1
  Fe  Fe22  1  0.37488393  0.12304741  0.12360827  1
  Fe  Fe23  1  0.87622543  0.37585194  0.87682058  1
  Fe  Fe24  1  -0.00551449  0.74752700  0.49189778  1
  Fe  Fe25  1  0.37555524  0.12380440  0.62566071  1
  Fe  Fe26  1  0.37378065  0.12323306  0.37651303  1
  Fe  Fe27  1  0.37504071  0.62511776  0.62399498  1
  Fe  Fe28  1  0.50439906  -0.00060264  0.00067326  1
  Fe  Fe29  1  0.87397895  0.12210824  0.12342995  1
  Fe  Fe30  1  -0.00132544  0.50270285  0.74864064  1
  Fe  Fe31  1  0.24964182  0.75181566  0.25144615  1
  Fe  Fe32  1  0.12511340  0.87509354  0.87343298  1
  Fe  Fe33  1  0.24760746  -0.00127644  0.24940071  1
  Fe  Fe34  1  0.87222207  0.12143691  0.37629192  1
  Fe  Fe35  1  0.24852526  0.50021230  0.00155209  1
  Fe  Fe36  1  0.62760847  0.87298555  0.87430375  1
  Fe  Fe37  1  0.12184826  0.37566094  0.87701938  1
  Fe  Fe38  1  0.37457313  0.62504273  0.12424706  1
  Fe  Fe39  1  0.87732286  0.37849056  0.37591417  1
  Fe  Fe40  1  -0.00175205  0.00034957  -0.00318567  1
  Fe  Fe41  1  0.62530343  0.37833079  0.62683263  1
  Fe  Fe42  1  0.87524525  0.38003304  0.62267330  1
  Fe  Fe43  1  0.12017753  0.87263657  0.12614187  1
  Fe  Fe44  1  0.24814439  0.24987018  0.00168556  1
  Fe  Fe45  1  0.75088601  0.25025486  0.00217232  1
  Fe  Fe46  1  0.62656170  0.62765421  0.12576919  1
  Fe  Fe47  1  0.24569982  -0.00271183  0.50307215  1
  Fe  Fe48  1  0.49909421  0.74871794  0.25110347  1
  Fe  Fe49  1  0.12171871  0.62976836  0.12560783  1
  Fe  Fe50  1  0.50392622  0.00210600  0.24957132  1
  Fe  Fe51  1  0.24900698  0.50222580  0.74917120  1
  Fe  Fe52  1  0.62530682  0.12398900  0.62583511  1
  Fe  Fe53  1  0.24803314  0.50089697  0.25014177  1
  Fe  Fe54  1  0.87676491  0.87420718  0.62404496  1
  Fe  Fe55  1  0.00172341  0.50396701  0.25279786  1
  Fe  Fe56  1  0.75142910  0.25113320  0.74853027  1
  Fe  Fe57  1  0.63028252  0.62923333  0.37593177  1
  Fe  Fe58  1  0.74977721  0.74529918  0.74494926  1
  Fe  Fe59  1  0.50026308  0.74893356  -0.00201225  1
  Fe  Fe60  1  0.24792180  0.24992361  0.49952236  1
  Fe  Fe61  1  0.74711684  -0.00343559  0.24652409  1
  Fe  Fe62  1  0.00415105  0.00009340  0.50193063  1
  Fe  Fe63  1  0.75090220  0.50133358  0.00210594  1
  Fe  Fe64  1  0.12546869  0.62499709  0.87614812  1
  Fe  Fe65  1  0.24841329  -0.00120806  0.00157243  1
  Fe  Fe66  1  0.62448930  0.37102281  0.36885640  1
  Fe  Fe67  1  0.75196774  0.00011486  0.74985952  1
  Fe  Fe68  1  0.50376103  -0.00176525  0.49998253  1
  Fe  Fe69  1  0.50237623  0.50160361  0.00156219  1
  Fe  Fe70  1  -0.00162267  0.74972314  0.75126783  1
  Fe  Fe71  1  0.25032480  0.25015688  0.75040264  1
  Fe  Fe72  1  0.37569397  0.37501253  0.37192513  1
  Fe  Fe73  1  0.24972706  0.75091564  -0.00077115  1
  Fe  Fe74  1  0.74566707  -0.00397691  0.50081411  1
  Fe  Fe75  1  0.50302149  0.49978622  0.49540958  1
  Fe  Fe76  1  0.37610796  0.87415564  0.62816925  1
  Fe  Fe77  1  0.87774290  0.37556083  0.12414712  1
  Fe  Fe78  1  0.62762913  0.12451645  0.87492990  1
  Fe  Fe79  1  0.37484006  0.12338943  0.87487142  1
  Fe  Fe80  1  0.87129626  0.87411457  0.87729159  1
  Fe  Fe81  1  0.12257884  0.12526232  0.87315601  1
  Fe  Fe82  1  0.50130369  0.25033234  0.00182831  1
  Fe  Fe83  1  -0.00114179  0.24683986  0.25074936  1
  Fe  Fe84  1  0.87535274  0.12394446  0.62463740  1
  Fe  Fe85  1  0.74953250  0.49847390  0.24849197  1
  Fe  Fe86  1  0.37587530  0.37651059  0.62525280  1
  Fe  Fe87  1  0.24891542  0.24811530  0.24918428  1
  Fe  Fe88  1  0.12449897  0.63060173  0.62156647  1
  Fe  Fe89  1  0.24710732  0.49916866  0.49904434  1
  Co  Co90  1  0.87958109  0.87511989  0.12215752  1
  Co  Co91  1  0.62774570  0.12872679  0.12689943  1
  Co  Co92  1  0.62831410  0.12603751  0.37442964  1
  Co  Co93  1  0.74759789  -0.00132873  0.00258128  1
  Co  Co94  1  0.87388004  0.62249924  0.61936973  1
  Co  Co95  1  0.50096197  0.00042212  0.75151304  1
  Co  Co96  1  -0.00122657  -0.00262682  0.75005733  1
  Co  Co97  1  0.12118181  0.86757480  0.62280053  1
  Co  Co98  1  0.75329979  0.50178554  0.75055930  1
  Co  Co99  1  0.75104368  0.75428879  0.50186946  1
  Co  Co100  1  0.00005041  0.75095892  -0.00339023  1
  Co  Co101  1  0.74623924  0.49585271  0.49776031  1
  Co  Co102  1  0.12283992  0.12765903  0.62688274  1
  Co  Co103  1  -0.00096500  0.24640846  0.00124124  1
  Co  Co104  1  0.49682705  0.24488247  0.24945792  1
  Co  Co105  1  0.75118815  0.75000838  0.00350292  1
  Co  Co106  1  0.12853629  0.62787059  0.37563746  1
  Co  Co107  1  0.62530456  0.87226602  0.37227074  1
  Co  Co108  1  -0.00124257  0.50343526  0.00033095  1
  Co  Co109  1  0.00391590  0.50281147  0.49788096  1
  Co  Co110  1  0.62887368  0.62527273  0.87624895  1
  Co  Co111  1  0.12334653  0.37342844  0.37318102  1
  Co  Co112  1  0.75578202  0.25074336  0.25018839  1
  Co  Co113  1  0.12319336  0.12309128  0.12512174  1
  Co  Co114  1  0.12557218  0.12428749  0.37469331  1
  Co  Co115  1  0.87351380  0.12523387  0.87517409  1
  Co  Co116  1  0.62365017  0.37395278  0.12819745  1
  Co  Co117  1  0.86829589  0.62064959  0.37594060  1
  Co  Co118  1  0.12490147  0.87400771  0.37592941  1
  Co  Co119  1  0.62625370  0.62189351  0.62245433  1
  Co  Co120  1  0.24988920  0.74947313  0.75108824  1
  Co  Co121  1  0.62520925  0.87488416  0.62946443  1
  Co  Co122  1  -0.00403226  0.75059174  0.25726817  1
  Co  Co123  1  0.25420658  0.75372176  0.49856837  1
  Co  Co124  1  0.62247576  0.87084831  0.12512597  1
  Co  Co125  1  0.50214497  0.50479386  0.25189869  1
  Co  Co126  1  0.87366335  0.88131633  0.37678354  1
  Co  Co127  1  0.37334736  0.62394095  0.87642702  1
