# generated using pymatgen
data_Fe45Co19
_symmetry_space_group_name_H-M   'P 1'
_cell_length_a   11.41480594
_cell_length_b   11.41392515
_cell_length_c   11.41531783
_cell_angle_alpha   90.00060118
_cell_angle_beta   90.00005516
_cell_angle_gamma   90.00687326
_symmetry_Int_Tables_number   1
_chemical_formula_structural   Fe45Co19
_chemical_formula_sum   'Fe90 Co38'
_cell_volume   1487.27595757
_cell_formula_units_Z   2
loop_
 _symmetry_equiv_pos_site_id
 _symmetry_equiv_pos_as_xyz
  1  'x, y, z'
loop_
 _atom_site_type_symbol
 _atom_site_label
 _atom_site_symmetry_multiplicity
 _atom_site_fract_x
 _atom_site_fract_y
 _atom_site_fract_z
 _atom_site_occupancy
  Fe  Fe0  1  0.49925024  0.50084879  0.25169225  1
  Fe  Fe1  1  0.12520578  0.37514787  0.62543469  1
  Fe  Fe2  1  0.25148909  0.25330355  0.74842027  1
  Fe  Fe3  1  0.37461677  0.37727983  0.12609875  1
  Fe  Fe4  1  0.74907091  0.50159154  0.49990352  1
  Fe  Fe5  1  0.12411899  0.12771898  0.37425392  1
  Fe  Fe6  1  0.75038205  0.50160780  -0.00505286  1
  Fe  Fe7  1  0.37217413  0.62245098  0.62539672  1
  Fe  Fe8  1  0.49993583  0.74986993  0.25038801  1
  Fe  Fe9  1  0.62521666  0.62467064  0.62877189  1
  Fe  Fe10  1  0.62401094  0.87446803  0.87563015  1
  Fe  Fe11  1  -0.00008734  0.74947122  0.50319693  1
  Fe  Fe12  1  0.00199036  0.00146607  0.24680572  1
  Fe  Fe13  1  0.37463755  0.62597776  0.37486017  1
  Fe  Fe14  1  0.62613548  0.12565283  0.37304165  1
  Fe  Fe15  1  0.37634484  0.12909385  0.87519919  1
  Fe  Fe16  1  0.87611781  0.37761128  0.62685207  1
  Fe  Fe17  1  0.87428252  0.12327710  0.12273847  1
  Fe  Fe18  1  0.75121952  -0.00237614  0.24852531  1
  Fe  Fe19  1  0.00005051  0.00072524  0.50200857  1
  Fe  Fe20  1  0.37217098  0.62271284  0.12518285  1
  Fe  Fe21  1  0.00135095  0.24915525  0.50217274  1
  Fe  Fe22  1  0.37173706  0.12403174  0.12666493  1
  Fe  Fe23  1  0.49768985  0.49941213  -0.00043522  1
  Fe  Fe24  1  0.75088798  0.74946039  0.24714054  1
  Fe  Fe25  1  0.75039390  0.25086732  0.49970821  1
  Fe  Fe26  1  0.12719919  0.87850786  0.62682055  1
  Fe  Fe27  1  0.00077566  0.75054317  0.75005835  1
  Fe  Fe28  1  0.87891545  0.37396409  0.37379005  1
  Fe  Fe29  1  0.74933979  0.25052238  0.00032295  1
  Fe  Fe30  1  0.62452234  0.62450222  0.12405104  1
  Fe  Fe31  1  0.12402622  0.87416283  0.37542895  1
  Fe  Fe32  1  0.87696365  0.37560262  0.87479948  1
  Fe  Fe33  1  0.74896231  0.74838477  0.75333788  1
  Fe  Fe34  1  0.49896868  -0.00137237  0.25100646  1
  Fe  Fe35  1  0.50195019  0.74869454  0.50279985  1
  Fe  Fe36  1  0.87334563  0.12407503  0.62574595  1
  Fe  Fe37  1  0.25134928  0.75102262  0.00065462  1
  Fe  Fe38  1  0.12660676  0.12536989  0.87548301  1
  Fe  Fe39  1  0.24859262  0.74959361  0.25001556  1
  Fe  Fe40  1  -0.00077634  0.00019513  0.75142119  1
  Fe  Fe41  1  0.25048645  0.25448649  0.00114191  1
  Fe  Fe42  1  0.87269476  0.87563294  0.87982407  1
  Fe  Fe43  1  0.49874753  0.74776827  -0.00140830  1
  Fe  Fe44  1  0.62198851  0.37557741  0.62245728  1
  Fe  Fe45  1  0.00522901  0.50156419  0.75527216  1
  Fe  Fe46  1  0.62498296  0.12477715  0.12544137  1
  Fe  Fe47  1  0.12743281  0.62295850  0.62527026  1
  Fe  Fe48  1  0.00175538  0.74781446  0.24828872  1
  Fe  Fe49  1  0.87586203  0.12531699  0.37495100  1
  Fe  Fe50  1  0.62011032  0.37283124  0.87592936  1
  Fe  Fe51  1  0.00069527  0.25080928  0.00329825  1
  Fe  Fe52  1  0.50216627  -0.00025794  0.50154691  1
  Fe  Fe53  1  0.62181191  0.37551691  0.37675603  1
  Fe  Fe54  1  0.12009375  0.37973654  0.12915556  1
  Fe  Fe55  1  0.87453979  0.62737874  0.37627712  1
  Fe  Fe56  1  0.24862268  0.75046402  0.50068742  1
  Fe  Fe57  1  0.37269409  0.12790494  0.62327649  1
  Fe  Fe58  1  0.49789419  0.00167969  0.00150214  1
  Fe  Fe59  1  0.37510840  0.87494419  0.87296504  1
  Fe  Fe60  1  0.24831010  0.25374944  0.25211475  1
  Fe  Fe61  1  0.37414760  0.12764372  0.37506717  1
  Fe  Fe62  1  0.25038086  0.49419747  0.49455493  1
  Fe  Fe63  1  0.87507236  0.87357541  0.37547555  1
  Fe  Fe64  1  0.62528760  0.87378392  0.12224187  1
  Fe  Fe65  1  0.62798586  0.87248125  0.37761442  1
  Fe  Fe66  1  0.62853945  0.12360968  0.62592595  1
  Fe  Fe67  1  0.37401701  0.87492855  0.37678023  1
  Fe  Fe68  1  0.12690736  0.87872984  0.12340011  1
  Fe  Fe69  1  0.87463537  0.12480418  0.87660023  1
  Fe  Fe70  1  0.75168662  0.49965340  0.25127729  1
  Fe  Fe71  1  0.62268599  0.12588143  0.87516393  1
  Fe  Fe72  1  0.12768892  0.87618876  0.87426031  1
  Fe  Fe73  1  0.87547258  0.62301979  0.12100331  1
  Fe  Fe74  1  -0.00024892  0.24923105  0.74894653  1
  Fe  Fe75  1  0.86981022  0.87646451  0.62463004  1
  Fe  Fe76  1  0.74919829  0.25236785  0.74989663  1
  Fe  Fe77  1  0.75258096  0.25283724  0.24858038  1
  Fe  Fe78  1  0.49717870  0.49780245  0.74922265  1
  Fe  Fe79  1  0.49920314  -0.00176086  0.74646344  1
  Fe  Fe80  1  0.62605672  0.37626557  0.12376213  1
  Fe  Fe81  1  0.37384593  0.87641044  0.12634135  1
  Fe  Fe82  1  0.87455094  0.62204039  0.63009389  1
  Fe  Fe83  1  0.12763546  0.62049927  0.12384412  1
  Fe  Fe84  1  0.24816063  0.00211571  0.50046551  1
  Fe  Fe85  1  0.00040042  0.74891913  -0.00083378  1
  Fe  Fe86  1  0.37197336  0.62253972  0.87438415  1
  Fe  Fe87  1  0.50035577  0.25061721  0.24804152  1
  Fe  Fe88  1  0.00155378  0.50155288  0.49789249  1
  Fe  Fe89  1  0.25104452  0.75044808  0.74836282  1
  Co  Co90  1  0.62046397  0.62418236  0.87331105  1
  Co  Co91  1  0.50093073  0.24990078  0.74622964  1
  Co  Co92  1  0.24777981  0.49518682  -0.00337183  1
  Co  Co93  1  0.25125001  0.49809127  0.25538776  1
  Co  Co94  1  0.37875268  0.37302880  0.87464700  1
  Co  Co95  1  0.11781705  0.37400460  0.37091634  1
  Co  Co96  1  -0.00130601  0.24622718  0.24485155  1
  Co  Co97  1  0.87662502  0.62418092  0.87226939  1
  Co  Co98  1  0.24887425  -0.00064824  0.25272955  1
  Co  Co99  1  0.62543358  0.62570813  0.37255841  1
  Co  Co100  1  0.25261411  -0.00024065  -0.00269803  1
  Co  Co101  1  0.87714592  0.37897564  0.12299229  1
  Co  Co102  1  0.75005612  0.00153680  0.49835990  1
  Co  Co103  1  0.75013560  0.00045893  0.75326052  1
  Co  Co104  1  0.50275126  0.24512407  0.50114556  1
  Co  Co105  1  0.74693143  0.49662429  0.75269013  1
  Co  Co106  1  0.38133149  0.37178326  0.37773580  1
  Co  Co107  1  0.87605214  0.87495514  0.12287806  1
  Co  Co108  1  0.49876077  0.24971002  0.00489825  1
  Co  Co109  1  0.37656171  0.37388559  0.62132552  1
  Co  Co110  1  0.24623916  0.25331528  0.49872127  1
  Co  Co111  1  0.24945700  0.49546972  0.75261620  1
  Co  Co112  1  0.12913066  0.62909970  0.87544213  1
  Co  Co113  1  0.00208040  0.00055546  -0.00045121  1
  Co  Co114  1  0.75044891  0.74517810  0.50272173  1
  Co  Co115  1  0.12975362  0.12429576  0.12252854  1
  Co  Co116  1  0.74782377  0.00123070  0.00061946  1
  Co  Co117  1  0.37301046  0.87541902  0.62280779  1
  Co  Co118  1  0.12557045  0.12496405  0.62820163  1
  Co  Co119  1  0.25281661  0.00214038  0.75058013  1
  Co  Co120  1  0.49745154  0.75054342  0.74846525  1
  Co  Co121  1  0.12320820  0.37062831  0.87430630  1
  Co  Co122  1  0.62858645  0.87363579  0.62522870  1
  Co  Co123  1  0.00281236  0.50138475  -0.00531244  1
  Co  Co124  1  0.49991832  0.50479308  0.49957076  1
  Co  Co125  1  -0.00261518  0.50553181  0.25248888  1
  Co  Co126  1  0.74892961  0.74641542  -0.00159760  1
  Co  Co127  1  0.12624750  0.62595683  0.37640363  1
