# generated using pymatgen
data_Fe45Co19
_symmetry_space_group_name_H-M   'P 1'
_cell_length_a   11.41552704
_cell_length_b   11.41524292
_cell_length_c   11.41489726
_cell_angle_alpha   90.01719539
_cell_angle_beta   90.00124201
_cell_angle_gamma   89.99691954
_symmetry_Int_Tables_number   1
_chemical_formula_structural   Fe45Co19
_chemical_formula_sum   'Fe90 Co38'
_cell_volume   1487.48677021
_cell_formula_units_Z   2
loop_
 _symmetry_equiv_pos_site_id
 _symmetry_equiv_pos_as_xyz
  1  'x, y, z'
loop_
 _atom_site_type_symbol
 _atom_site_label
 _atom_site_symmetry_multiplicity
 _atom_site_fract_x
 _atom_site_fract_y
 _atom_site_fract_z
 _atom_site_occupancy
  Fe  Fe0  1  0.24880914  0.74422491  0.74646749  1
  Fe  Fe1  1  0.74948683  0.75128950  -0.00124250  1
  Fe  Fe2  1  0.75078070  0.00163255  0.24953168  1
  Fe  Fe3  1  0.62326343  0.62436627  0.87417196  1
  Fe  Fe4  1  0.50058127  0.49991632  0.25049731  1
  Fe  Fe5  1  0.37548492  0.87130755  0.62459084  1
  Fe  Fe6  1  0.37471833  0.87369779  0.12544881  1
  Fe  Fe7  1  0.00012650  0.25161645  0.75119994  1
  Fe  Fe8  1  0.75085391  0.50013579  0.50151250  1
  Fe  Fe9  1  0.37176555  0.37721771  0.37481601  1
  Fe  Fe10  1  0.00043110  0.75169437  0.75173547  1
  Fe  Fe11  1  0.25125925  0.00318010  0.74503751  1
  Fe  Fe12  1  0.24912619  0.24829911  0.50021040  1
  Fe  Fe13  1  0.87435416  0.62267782  0.37327848  1
  Fe  Fe14  1  -0.00008842  -0.00091363  0.49894430  1
  Fe  Fe15  1  0.87351868  0.37414478  0.87539736  1
  Fe  Fe16  1  0.37508236  0.12536740  0.12634700  1
  Fe  Fe17  1  0.00131869  -0.00154120  0.25183814  1
  Fe  Fe18  1  -0.00052849  0.25358859  0.25167413  1
  Fe  Fe19  1  0.62372132  0.12562096  0.62448901  1
  Fe  Fe20  1  0.50088662  0.49764194  0.50181804  1
  Fe  Fe21  1  -0.00300192  0.49630002  0.49783626  1
  Fe  Fe22  1  0.74752821  0.75204001  0.75034176  1
  Fe  Fe23  1  0.62117062  0.62724198  0.12480022  1
  Fe  Fe24  1  0.12705162  0.37602357  0.87496628  1
  Fe  Fe25  1  0.87708572  0.62489432  0.62622577  1
  Fe  Fe26  1  0.75104045  -0.00035629  0.00038091  1
  Fe  Fe27  1  0.12611381  0.37770537  0.12778405  1
  Fe  Fe28  1  0.62703045  0.37367604  0.12677564  1
  Fe  Fe29  1  0.37482793  0.12537319  0.87261358  1
  Fe  Fe30  1  0.62309320  0.62625059  0.37673189  1
  Fe  Fe31  1  0.62309466  0.87465916  0.12477105  1
  Fe  Fe32  1  0.62388422  0.12515980  0.87520201  1
  Fe  Fe33  1  0.00233328  -0.00442661  -0.00213783  1
  Fe  Fe34  1  0.87249439  0.87348437  0.62305818  1
  Fe  Fe35  1  0.00009891  0.74907215  0.25079014  1
  Fe  Fe36  1  0.37275230  0.12231819  0.37631769  1
  Fe  Fe37  1  0.49973339  -0.00294402  0.25237677  1
  Fe  Fe38  1  0.12958994  0.87573397  0.37670198  1
  Fe  Fe39  1  0.25144951  0.50344281  0.00310260  1
  Fe  Fe40  1  0.87756008  0.12427046  0.87647225  1
  Fe  Fe41  1  0.00026017  0.75251306  -0.00248828  1
  Fe  Fe42  1  0.12305078  0.12629510  0.62254987  1
  Fe  Fe43  1  0.00096046  0.49982179  0.75139076  1
  Fe  Fe44  1  0.75072812  0.50125363  0.00259991  1
  Fe  Fe45  1  0.74782807  -0.00156069  0.74987176  1
  Fe  Fe46  1  0.74884703  0.49939574  0.75046532  1
  Fe  Fe47  1  0.12537514  0.87274611  0.62328429  1
  Fe  Fe48  1  0.12536967  0.37622919  0.62513389  1
  Fe  Fe49  1  0.49974680  -0.00363644  0.50043354  1
  Fe  Fe50  1  0.12785056  0.87171033  0.12460754  1
  Fe  Fe51  1  0.37278979  0.37590690  0.62799385  1
  Fe  Fe52  1  0.24875195  0.24982926  -0.00002598  1
  Fe  Fe53  1  0.49776732  -0.00023879  -0.00161893  1
  Fe  Fe54  1  -0.00059026  0.74974909  0.49781203  1
  Fe  Fe55  1  0.87455057  0.62660930  0.87522096  1
  Fe  Fe56  1  0.37013152  0.87459880  0.37542260  1
  Fe  Fe57  1  0.49969932  0.24962165  0.25202511  1
  Fe  Fe58  1  0.37732720  0.62188670  0.87101535  1
  Fe  Fe59  1  0.37167310  0.37688373  0.87145867  1
  Fe  Fe60  1  0.24880898  0.24823927  0.25212580  1
  Fe  Fe61  1  0.25195874  0.74471180  0.24759911  1
  Fe  Fe62  1  0.00009946  -0.00286616  0.74986453  1
  Fe  Fe63  1  -0.00224593  0.25509077  0.49699689  1
  Fe  Fe64  1  0.49879997  0.25204067  -0.00069982  1
  Fe  Fe65  1  0.87088687  0.87496937  0.37695815  1
  Fe  Fe66  1  0.12468875  0.12431599  0.87468605  1
  Fe  Fe67  1  0.87472806  0.12669336  0.37550321  1
  Fe  Fe68  1  0.12234106  0.12516265  0.12591209  1
  Fe  Fe69  1  0.37726719  0.62486525  0.37694616  1
  Fe  Fe70  1  0.63016090  0.37421093  0.37239948  1
  Fe  Fe71  1  0.37290226  0.87546259  0.87220172  1
  Fe  Fe72  1  0.74807789  0.74874587  0.25093032  1
  Fe  Fe73  1  0.24988948  0.50439879  0.50410457  1
  Fe  Fe74  1  0.12486872  0.62606434  0.87742952  1
  Fe  Fe75  1  0.50082195  0.49674200  -0.00144084  1
  Fe  Fe76  1  0.62229376  0.12397521  0.12504675  1
  Fe  Fe77  1  0.87435345  0.12694550  0.62475623  1
  Fe  Fe78  1  0.49771911  0.75091374  -0.00320850  1
  Fe  Fe79  1  0.62800044  0.37263014  0.62650741  1
  Fe  Fe80  1  0.62593972  0.12469496  0.37663256  1
  Fe  Fe81  1  0.50020008  0.25227902  0.49853592  1
  Fe  Fe82  1  0.75303882  0.24779364  0.00297407  1
  Fe  Fe83  1  0.62114058  0.62788959  0.62481403  1
  Fe  Fe84  1  0.50056566  0.25244256  0.75190709  1
  Fe  Fe85  1  -0.00296463  0.49993208  0.00368472  1
  Fe  Fe86  1  0.12454214  0.62173506  0.37425190  1
  Fe  Fe87  1  0.24931739  -0.00004324  0.00099345  1
  Fe  Fe88  1  0.87502214  0.87413842  0.12483496  1
  Fe  Fe89  1  0.37448026  0.37550030  0.12748089  1
  Co  Co90  1  0.87326287  0.87547951  0.87466274  1
  Co  Co91  1  0.75052395  0.24409016  0.24701873  1
  Co  Co92  1  0.25216076  0.50501103  0.24763921  1
  Co  Co93  1  0.49982238  0.75367948  0.49715106  1
  Co  Co94  1  0.37966629  0.12802462  0.62410083  1
  Co  Co95  1  0.75148058  0.25124833  0.50083789  1
  Co  Co96  1  0.62362732  0.87668277  0.87733468  1
  Co  Co97  1  0.24825048  0.24770242  0.74935618  1
  Co  Co98  1  0.74829233  0.50590600  0.24697637  1
  Co  Co99  1  0.87175534  0.37577035  0.12834740  1
  Co  Co100  1  0.62904361  0.37304284  0.87714324  1
  Co  Co101  1  0.12445598  0.12403444  0.37634928  1
  Co  Co102  1  0.87453054  0.37598237  0.62784530  1
  Co  Co103  1  0.12186035  0.62615718  0.12346896  1
  Co  Co104  1  0.12856556  0.37886918  0.37415124  1
  Co  Co105  1  0.87610352  0.62902637  0.12472523  1
  Co  Co106  1  0.50415839  0.49557836  0.74961204  1
  Co  Co107  1  0.75123111  0.24823179  0.75106211  1
  Co  Co108  1  0.50134257  -0.00172877  0.74834995  1
  Co  Co109  1  0.50272352  0.75283764  0.75142059  1
  Co  Co110  1  0.24941116  0.74503926  0.50190295  1
  Co  Co111  1  0.62718524  0.87345103  0.62123655  1
  Co  Co112  1  0.38104556  0.62446340  0.12450560  1
  Co  Co113  1  -0.00166747  0.49918168  0.24815812  1
  Co  Co114  1  0.49995940  0.75244595  0.25326945  1
  Co  Co115  1  0.75084125  0.00292716  0.50103504  1
  Co  Co116  1  0.75151136  0.74583675  0.50010151  1
  Co  Co117  1  0.88089760  0.12260596  0.12401232  1
  Co  Co118  1  0.38250585  0.62504355  0.62624398  1
  Co  Co119  1  0.62983195  0.87526509  0.37747867  1
  Co  Co120  1  0.25357178  0.74716213  -0.00041662  1
  Co  Co121  1  0.25023086  0.00149222  0.50398891  1
  Co  Co122  1  0.00073714  0.25323729  0.00075296  1
  Co  Co123  1  0.24858928  0.00093821  0.24760444  1
  Co  Co124  1  0.86799644  0.37635260  0.37028688  1
  Co  Co125  1  0.13064745  0.87436777  0.87216602  1
  Co  Co126  1  0.11761633  0.62482780  0.62270012  1
  Co  Co127  1  0.24652798  0.50536299  0.74666432  1
