# generated using pymatgen
data_Fe45Co19
_symmetry_space_group_name_H-M   'P 1'
_cell_length_a   11.41507456
_cell_length_b   11.41446690
_cell_length_c   11.41512671
_cell_angle_alpha   89.98613681
_cell_angle_beta   90.00241085
_cell_angle_gamma   89.99886924
_symmetry_Int_Tables_number   1
_chemical_formula_structural   Fe45Co19
_chemical_formula_sum   'Fe90 Co38'
_cell_volume   1487.35661327
_cell_formula_units_Z   2
loop_
 _symmetry_equiv_pos_site_id
 _symmetry_equiv_pos_as_xyz
  1  'x, y, z'
loop_
 _atom_site_type_symbol
 _atom_site_label
 _atom_site_symmetry_multiplicity
 _atom_site_fract_x
 _atom_site_fract_y
 _atom_site_fract_z
 _atom_site_occupancy
  Fe  Fe0  1  -0.00152670  0.75033936  0.24990492  1
  Fe  Fe1  1  0.24855051  0.50380800  0.74947974  1
  Fe  Fe2  1  0.24579391  0.24748264  0.75073028  1
  Fe  Fe3  1  0.74963594  0.50169585  0.75018369  1
  Fe  Fe4  1  0.75383429  0.75081152  0.49894188  1
  Fe  Fe5  1  0.12386310  0.37694331  0.37564787  1
  Fe  Fe6  1  -0.00233840  0.75636027  0.75744552  1
  Fe  Fe7  1  0.49875886  0.25064150  0.74964843  1
  Fe  Fe8  1  0.49924745  0.50057748  0.74937986  1
  Fe  Fe9  1  0.37415565  0.87441995  0.12614028  1
  Fe  Fe10  1  0.12424717  0.87189709  0.37638188  1
  Fe  Fe11  1  0.87678136  0.62466042  0.37329827  1
  Fe  Fe12  1  0.87772807  0.12279915  0.37654183  1
  Fe  Fe13  1  0.75075088  0.00273415  0.00042586  1
  Fe  Fe14  1  0.49766350  -0.00007238  0.00156649  1
  Fe  Fe15  1  0.50181044  0.25190433  -0.00212370  1
  Fe  Fe16  1  0.75137132  -0.00179582  0.50064764  1
  Fe  Fe17  1  0.49959555  0.50049889  0.50128746  1
  Fe  Fe18  1  0.87253181  0.37367053  0.11945879  1
  Fe  Fe19  1  0.24777337  0.24914170  -0.00199649  1
  Fe  Fe20  1  0.62595909  0.37208332  0.62523245  1
  Fe  Fe21  1  0.37463924  0.87553871  0.37350272  1
  Fe  Fe22  1  0.12313171  0.37942542  0.87403293  1
  Fe  Fe23  1  0.24706490  -0.00242320  0.50307321  1
  Fe  Fe24  1  0.75038212  -0.00019925  0.24889899  1
  Fe  Fe25  1  0.62374600  0.12680555  0.12506080  1
  Fe  Fe26  1  0.00024034  0.50185128  0.50398769  1
  Fe  Fe27  1  0.50015293  0.75014574  0.24974161  1
  Fe  Fe28  1  0.00372866  0.25030254  0.75144936  1
  Fe  Fe29  1  0.49866350  0.75119154  -0.00268624  1
  Fe  Fe30  1  0.62613438  0.12705534  0.62467205  1
  Fe  Fe31  1  0.25014405  0.74698208  0.25263187  1
  Fe  Fe32  1  0.12424625  0.37353059  0.12491480  1
  Fe  Fe33  1  0.24665865  0.50230382  -0.00067091  1
  Fe  Fe34  1  0.75171298  0.24940685  0.75254563  1
  Fe  Fe35  1  0.50480048  0.49727021  0.00052324  1
  Fe  Fe36  1  0.37625701  0.62392822  0.12358466  1
  Fe  Fe37  1  0.12314704  0.63110406  0.62603157  1
  Fe  Fe38  1  0.24830084  0.24824773  0.25039513  1
  Fe  Fe39  1  0.12207290  0.62670522  0.12505535  1
  Fe  Fe40  1  0.37582982  0.12215214  0.37488398  1
  Fe  Fe41  1  0.75012842  -0.00237186  0.75132614  1
  Fe  Fe42  1  0.24893914  0.00119477  0.24689145  1
  Fe  Fe43  1  0.75285396  0.24918093  0.25139871  1
  Fe  Fe44  1  -0.00098265  0.49891804  0.24666133  1
  Fe  Fe45  1  0.37470336  0.37777839  0.37447038  1
  Fe  Fe46  1  0.62650015  0.87479483  0.12216451  1
  Fe  Fe47  1  0.62754419  0.87143594  0.62830218  1
  Fe  Fe48  1  0.87655075  0.12380573  0.62591313  1
  Fe  Fe49  1  0.87484865  0.87251453  0.12236549  1
  Fe  Fe50  1  0.87439480  0.37378973  0.62600736  1
  Fe  Fe51  1  0.74961748  0.49956051  0.24785325  1
  Fe  Fe52  1  0.62390121  0.12386309  0.87397805  1
  Fe  Fe53  1  0.37358051  0.37728763  0.87449359  1
  Fe  Fe54  1  0.50104181  -0.00079029  0.50170737  1
  Fe  Fe55  1  0.87504057  0.38001301  0.87716940  1
  Fe  Fe56  1  0.00025274  0.25169566  0.50147850  1
  Fe  Fe57  1  0.49893900  0.25094477  0.25062791  1
  Fe  Fe58  1  0.62465007  0.12576939  0.37667050  1
  Fe  Fe59  1  0.12471111  0.87318311  0.12148329  1
  Fe  Fe60  1  0.62547842  0.37401203  0.37647120  1
  Fe  Fe61  1  0.87840590  0.12837528  0.12240229  1
  Fe  Fe62  1  0.25233373  0.74806841  0.75531304  1
  Fe  Fe63  1  0.00037939  -0.00679668  0.50545045  1
  Fe  Fe64  1  0.49770719  0.74921339  0.50056501  1
  Fe  Fe65  1  0.37224666  0.87210625  0.62556914  1
  Fe  Fe66  1  0.49985370  -0.00296103  0.74974229  1
  Fe  Fe67  1  0.24761879  0.74759276  -0.00342850  1
  Fe  Fe68  1  0.62273328  0.62652013  0.87263902  1
  Fe  Fe69  1  0.12212347  0.12391233  0.37650121  1
  Fe  Fe70  1  0.62495460  0.62906555  0.62776901  1
  Fe  Fe71  1  0.24827518  0.50652667  0.49926084  1
  Fe  Fe72  1  0.88019293  0.12228692  0.87515161  1
  Fe  Fe73  1  0.62528995  0.87541998  0.37470307  1
  Fe  Fe74  1  0.00046427  -0.00121919  0.24740750  1
  Fe  Fe75  1  0.37222323  0.12341946  0.87484989  1
  Fe  Fe76  1  0.24948134  0.50323446  0.25076152  1
  Fe  Fe77  1  0.62433938  0.62456048  0.37459420  1
  Fe  Fe78  1  0.37157209  0.37600831  0.62531126  1
  Fe  Fe79  1  0.75117265  0.75102458  0.25098633  1
  Fe  Fe80  1  0.37406539  0.12503356  0.62461976  1
  Fe  Fe81  1  0.37466098  0.37543726  0.12429428  1
  Fe  Fe82  1  0.75121416  0.50093169  0.50231224  1
  Fe  Fe83  1  0.24982479  0.24948600  0.49948055  1
  Fe  Fe84  1  0.37177209  0.87824971  0.87551800  1
  Fe  Fe85  1  0.75453283  0.74587833  -0.00556522  1
  Fe  Fe86  1  0.62601837  0.62610816  0.12519869  1
  Fe  Fe87  1  0.87599093  0.37560117  0.37624352  1
  Fe  Fe88  1  0.12264346  0.12669003  0.12161103  1
  Fe  Fe89  1  0.87570351  0.62956690  0.62922298  1
  Co  Co90  1  0.87472147  0.62605577  0.12551273  1
  Co  Co91  1  0.37635362  0.12824014  0.12493019  1
  Co  Co92  1  0.12794583  0.86688534  0.62637589  1
  Co  Co93  1  0.49680428  0.75211658  0.75249605  1
  Co  Co94  1  0.62885185  0.37173290  0.12532213  1
  Co  Co95  1  0.00313145  -0.00333787  0.74669838  1
  Co  Co96  1  0.12858000  0.37481752  0.62361553  1
  Co  Co97  1  0.87375240  0.88008900  0.87823363  1
  Co  Co98  1  0.25242701  0.00164854  0.00549991  1
  Co  Co99  1  0.37733702  0.62122564  0.87806516  1
  Co  Co100  1  0.12481515  0.11794362  0.87726836  1
  Co  Co101  1  0.62694610  0.37519298  0.87171440  1
  Co  Co102  1  0.87575410  0.87667702  0.37245431  1
  Co  Co103  1  0.75254704  0.75036082  0.75701013  1
  Co  Co104  1  0.50091270  -0.00087266  0.24854211  1
  Co  Co105  1  0.75239171  0.24984326  0.50002435  1
  Co  Co106  1  0.74700205  0.50338657  -0.00131613  1
  Co  Co107  1  0.24726987  0.00143491  0.74504742  1
  Co  Co108  1  0.11911906  0.62588071  0.37437340  1
  Co  Co109  1  0.87222884  0.87342577  0.62832514  1
  Co  Co110  1  -0.00040756  0.25098051  0.25038457  1
  Co  Co111  1  0.00034764  0.74964684  -0.00445717  1
  Co  Co112  1  0.74949405  0.24808240  -0.00440075  1
  Co  Co113  1  0.37491991  0.62585598  0.62661356  1
  Co  Co114  1  0.37858326  0.62406401  0.37269494  1
  Co  Co115  1  0.00271036  0.25222485  -0.00461738  1
  Co  Co116  1  0.25188531  0.74668326  0.49644345  1
  Co  Co117  1  0.00004504  -0.00268275  0.00149006  1
  Co  Co118  1  0.11985608  0.62239028  0.87239933  1
  Co  Co119  1  0.12886541  0.88105929  0.87742155  1
  Co  Co120  1  0.50226861  0.49929544  0.24741189  1
  Co  Co121  1  -0.00439498  0.75224625  0.49926696  1
  Co  Co122  1  0.62598349  0.87588445  0.87757555  1
  Co  Co123  1  0.00144543  0.50213786  0.00429621  1
  Co  Co124  1  0.00135025  0.49728775  0.74438410  1
  Co  Co125  1  0.87995542  0.61766227  0.87303612  1
  Co  Co126  1  0.49780091  0.25064340  0.50078644  1
  Co  Co127  1  0.12267089  0.12594467  0.62330732  1
