# generated using pymatgen
data_Fe45Co19
_symmetry_space_group_name_H-M   'P 1'
_cell_length_a   11.41699819
_cell_length_b   11.41540475
_cell_length_c   11.41548283
_cell_angle_alpha   89.99449453
_cell_angle_beta   89.99791642
_cell_angle_gamma   89.99731851
_symmetry_Int_Tables_number   1
_chemical_formula_structural   Fe45Co19
_chemical_formula_sum   'Fe90 Co38'
_cell_volume   1487.77593355
_cell_formula_units_Z   2
loop_
 _symmetry_equiv_pos_site_id
 _symmetry_equiv_pos_as_xyz
  1  'x, y, z'
loop_
 _atom_site_type_symbol
 _atom_site_label
 _atom_site_symmetry_multiplicity
 _atom_site_fract_x
 _atom_site_fract_y
 _atom_site_fract_z
 _atom_site_occupancy
  Fe  Fe0  1  0.62615249  0.62272066  0.12470239  1
  Fe  Fe1  1  0.87529008  0.87196530  0.62762227  1
  Fe  Fe2  1  0.62437792  0.11963687  0.62540528  1
  Fe  Fe3  1  0.50187458  0.49936678  0.50286008  1
  Fe  Fe4  1  0.12417175  0.37410162  0.62201579  1
  Fe  Fe5  1  0.75187342  0.25152556  0.74645069  1
  Fe  Fe6  1  0.75130005  0.25182856  0.25155091  1
  Fe  Fe7  1  0.50211521  0.24894937  0.50102329  1
  Fe  Fe8  1  0.62595878  0.12379484  0.12570723  1
  Fe  Fe9  1  0.25061894  0.25146958  0.74771032  1
  Fe  Fe10  1  0.87646048  0.87170601  0.87518153  1
  Fe  Fe11  1  0.12310548  0.87574827  0.37450893  1
  Fe  Fe12  1  0.62445653  0.62484289  0.37510108  1
  Fe  Fe13  1  0.75177050  0.49801342  0.25093962  1
  Fe  Fe14  1  -0.00238783  0.25217757  0.25159596  1
  Fe  Fe15  1  0.25360199  0.49901866  0.74987055  1
  Fe  Fe16  1  0.25025703  0.25294018  0.25030622  1
  Fe  Fe17  1  0.12533034  0.87214024  0.87870501  1
  Fe  Fe18  1  0.62447995  0.12510689  0.87289753  1
  Fe  Fe19  1  0.87601692  0.12806656  0.87635692  1
  Fe  Fe20  1  0.62517533  0.62623293  0.62793919  1
  Fe  Fe21  1  0.24852605  0.25232653  0.00021553  1
  Fe  Fe22  1  0.87478495  0.87499420  0.37430135  1
  Fe  Fe23  1  0.62478006  0.87773482  0.12709195  1
  Fe  Fe24  1  0.62371109  0.37717878  0.87131166  1
  Fe  Fe25  1  0.62464368  0.87536495  0.87382775  1
  Fe  Fe26  1  0.87515076  0.13059559  0.12005023  1
  Fe  Fe27  1  0.62836016  0.11859638  0.37553032  1
  Fe  Fe28  1  0.12284041  0.37442964  0.37825992  1
  Fe  Fe29  1  0.12422533  0.12494242  0.62404705  1
  Fe  Fe30  1  0.12526108  0.87484543  0.62473642  1
  Fe  Fe31  1  0.50256111  0.75524889  0.50030579  1
  Fe  Fe32  1  0.49773130  0.49996477  -0.00307423  1
  Fe  Fe33  1  0.87391657  0.62820292  0.87279090  1
  Fe  Fe34  1  0.12608454  0.62514251  0.37237887  1
  Fe  Fe35  1  0.75193867  0.50010714  0.74662012  1
  Fe  Fe36  1  0.25053817  -0.00103798  0.24795447  1
  Fe  Fe37  1  0.00005054  0.74679333  0.24703259  1
  Fe  Fe38  1  0.49953479  0.49801129  0.25113392  1
  Fe  Fe39  1  0.24974755  0.75084346  0.24788132  1
  Fe  Fe40  1  0.37370488  0.62277346  0.12744919  1
  Fe  Fe41  1  0.12459607  0.37655613  0.87433000  1
  Fe  Fe42  1  0.87275504  0.12402412  0.37797851  1
  Fe  Fe43  1  0.62568901  0.37567510  0.12461330  1
  Fe  Fe44  1  0.37449398  0.12408802  0.37549051  1
  Fe  Fe45  1  0.12415469  0.12370736  0.12314226  1
  Fe  Fe46  1  0.12591381  0.62642335  0.62626612  1
  Fe  Fe47  1  0.25133889  -0.00113102  0.50007875  1
  Fe  Fe48  1  0.00052297  -0.00120853  0.75188705  1
  Fe  Fe49  1  -0.00304209  0.00106037  0.24741983  1
  Fe  Fe50  1  0.12653279  0.62677373  0.87474863  1
  Fe  Fe51  1  0.37440429  0.12809671  0.87489777  1
  Fe  Fe52  1  0.24930399  0.50043842  0.49904305  1
  Fe  Fe53  1  0.50006104  0.74790261  0.00032135  1
  Fe  Fe54  1  0.12493131  0.12451203  0.37587739  1
  Fe  Fe55  1  0.50095404  0.74899508  0.75133813  1
  Fe  Fe56  1  0.74618140  0.75337356  0.50054118  1
  Fe  Fe57  1  0.25059397  -0.00128342  0.75103702  1
  Fe  Fe58  1  0.75124982  0.00119980  -0.00041064  1
  Fe  Fe59  1  0.50188705  0.25185538  -0.00036378  1
  Fe  Fe60  1  0.74820988  0.74982210  0.25096197  1
  Fe  Fe61  1  0.12441299  0.37840700  0.12561829  1
  Fe  Fe62  1  -0.00255894  0.50124673  0.74642614  1
  Fe  Fe63  1  0.37280614  0.87160957  0.87531079  1
  Fe  Fe64  1  0.87320835  0.62383222  0.37817401  1
  Fe  Fe65  1  0.25120850  0.75144703  0.50050334  1
  Fe  Fe66  1  -0.00116805  0.25113837  0.74770799  1
  Fe  Fe67  1  0.87565154  0.37287354  0.87670816  1
  Fe  Fe68  1  -0.00406168  0.49994315  0.24998358  1
  Fe  Fe69  1  0.75124248  0.49930447  -0.00077105  1
  Fe  Fe70  1  0.50134337  0.75088131  0.24952696  1
  Fe  Fe71  1  0.49893433  0.25223942  0.74716306  1
  Fe  Fe72  1  0.87557863  0.87239395  0.12295459  1
  Fe  Fe73  1  0.74809855  0.74849447  -0.00109909  1
  Fe  Fe74  1  0.12484586  0.12461348  0.87603856  1
  Fe  Fe75  1  0.37521816  0.37431555  0.37818378  1
  Fe  Fe76  1  0.25331110  0.50012316  -0.00130689  1
  Fe  Fe77  1  0.49796360  0.00011323  -0.00100227  1
  Fe  Fe78  1  0.37627759  0.87567554  0.37311419  1
  Fe  Fe79  1  0.75136513  -0.00085602  0.75073022  1
  Fe  Fe80  1  0.37502679  0.12602518  0.12436500  1
  Fe  Fe81  1  0.00108772  0.74774978  0.50103372  1
  Fe  Fe82  1  0.37597047  0.62516104  0.37503406  1
  Fe  Fe83  1  -0.00192679  0.00022107  0.50117993  1
  Fe  Fe84  1  -0.00253193  0.50298772  0.00197292  1
  Fe  Fe85  1  0.37593141  0.12248037  0.62398479  1
  Fe  Fe86  1  0.12368533  0.87544824  0.12122206  1
  Fe  Fe87  1  0.37492998  0.62620609  0.62589930  1
  Fe  Fe88  1  0.50130514  0.25026356  0.25121173  1
  Fe  Fe89  1  0.62836115  0.37541585  0.37907070  1
  Co  Co90  1  0.25034975  0.24927511  0.50044056  1
  Co  Co91  1  0.87415802  0.37718255  0.38276823  1
  Co  Co92  1  0.25083607  0.74714482  0.00322420  1
  Co  Co93  1  0.49780870  0.00160263  0.24934918  1
  Co  Co94  1  0.62332842  0.87803046  0.62964835  1
  Co  Co95  1  0.62576157  0.62225056  0.87441805  1
  Co  Co96  1  0.75102718  -0.00425735  0.50336020  1
  Co  Co97  1  0.37615351  0.87518519  0.12484215  1
  Co  Co98  1  0.87385380  0.62873515  0.62399572  1
  Co  Co99  1  0.12803792  0.62141164  0.12697454  1
  Co  Co100  1  0.50005825  -0.00324803  0.49824440  1
  Co  Co101  1  0.74508739  0.25141853  -0.00243744  1
  Co  Co102  1  0.00270714  0.74909662  0.75042792  1
  Co  Co103  1  0.25179997  0.49684292  0.25396756  1
  Co  Co104  1  0.87566606  0.37657617  0.61773185  1
  Co  Co105  1  0.37461694  0.37599673  0.62312296  1
  Co  Co106  1  0.87460739  0.37220005  0.12223715  1
  Co  Co107  1  0.00469232  0.25167486  -0.00144713  1
  Co  Co108  1  0.37610531  0.37458971  0.12456523  1
  Co  Co109  1  0.49775974  0.50065776  0.74918596  1
  Co  Co110  1  0.62561325  0.37546330  0.62619542  1
  Co  Co111  1  -0.00236837  0.00073448  -0.00153886  1
  Co  Co112  1  0.62619502  0.88015661  0.37022592  1
  Co  Co113  1  0.74835649  0.24666594  0.50309183  1
  Co  Co114  1  0.37584826  0.37261847  0.87354546  1
  Co  Co115  1  -0.00166301  0.24645996  0.50069523  1
  Co  Co116  1  0.87063220  0.62566538  0.12584154  1
  Co  Co117  1  0.74664168  0.50335275  0.50352319  1
  Co  Co118  1  0.25235274  0.00024198  -0.00117590  1
  Co  Co119  1  0.87558005  0.12324074  0.62648865  1
  Co  Co120  1  0.75514689  0.00117548  0.24609570  1
  Co  Co121  1  0.74724367  0.74980557  0.75067508  1
  Co  Co122  1  0.49714929  -0.00052688  0.75391993  1
  Co  Co123  1  0.37643295  0.87540763  0.62765354  1
  Co  Co124  1  0.00286472  0.50471439  0.50128590  1
  Co  Co125  1  0.00043710  0.74499310  0.00137887  1
  Co  Co126  1  0.37412867  0.62740705  0.87245827  1
  Co  Co127  1  0.24865246  0.75101071  0.74858766  1
