# generated using pymatgen
data_Fe45Co19
_symmetry_space_group_name_H-M   'P 1'
_cell_length_a   11.41409542
_cell_length_b   11.41565029
_cell_length_c   11.41417287
_cell_angle_alpha   90.00443435
_cell_angle_beta   89.99797597
_cell_angle_gamma   90.00248907
_symmetry_Int_Tables_number   1
_chemical_formula_structural   Fe45Co19
_chemical_formula_sum   'Fe90 Co38'
_cell_volume   1487.25897632
_cell_formula_units_Z   2
loop_
 _symmetry_equiv_pos_site_id
 _symmetry_equiv_pos_as_xyz
  1  'x, y, z'
loop_
 _atom_site_type_symbol
 _atom_site_label
 _atom_site_symmetry_multiplicity
 _atom_site_fract_x
 _atom_site_fract_y
 _atom_site_fract_z
 _atom_site_occupancy
  Fe  Fe0  1  0.87541398  0.87606457  0.62382160  1
  Fe  Fe1  1  0.75112096  0.75138492  0.75024156  1
  Fe  Fe2  1  0.00112919  0.75181554  0.49762774  1
  Fe  Fe3  1  0.12455924  0.37603722  0.87533221  1
  Fe  Fe4  1  0.62615496  0.62493379  0.62440965  1
  Fe  Fe5  1  0.37540112  0.87185600  0.87571607  1
  Fe  Fe6  1  0.75081711  -0.00125669  0.25057784  1
  Fe  Fe7  1  0.37284772  0.12750670  0.87545164  1
  Fe  Fe8  1  0.24821278  0.74815743  0.75000130  1
  Fe  Fe9  1  0.12264756  0.87768203  0.12637939  1
  Fe  Fe10  1  0.11935562  0.62034067  0.12207797  1
  Fe  Fe11  1  0.87950437  0.87652682  0.12270507  1
  Fe  Fe12  1  0.62360480  0.37400489  0.87627863  1
  Fe  Fe13  1  0.75303234  0.49967295  0.75321726  1
  Fe  Fe14  1  0.87466855  0.12513963  0.37415287  1
  Fe  Fe15  1  0.25102979  0.50235557  0.49997335  1
  Fe  Fe16  1  0.87564049  0.12388222  0.12486375  1
  Fe  Fe17  1  0.62180178  0.87671916  0.12698704  1
  Fe  Fe18  1  0.49982064  0.24985430  0.50010426  1
  Fe  Fe19  1  0.00037138  0.24972055  0.49918931  1
  Fe  Fe20  1  0.25010464  -0.00295065  0.49904190  1
  Fe  Fe21  1  0.00181392  -0.00093445  0.49672746  1
  Fe  Fe22  1  0.49708272  -0.00000915  0.00135327  1
  Fe  Fe23  1  -0.00128458  0.74857549  0.25015421  1
  Fe  Fe24  1  0.12617625  0.62641441  0.37717173  1
  Fe  Fe25  1  0.12558682  0.87368722  0.62580821  1
  Fe  Fe26  1  0.74882666  -0.00035093  0.75031658  1
  Fe  Fe27  1  0.87529818  0.62561727  0.62338623  1
  Fe  Fe28  1  0.12239013  0.87532887  0.87647246  1
  Fe  Fe29  1  0.50036284  0.50014232  0.49754362  1
  Fe  Fe30  1  0.75323311  0.75037612  0.24843706  1
  Fe  Fe31  1  0.75179789  -0.00264601  -0.00035975  1
  Fe  Fe32  1  0.75118809  0.49981999  0.49649107  1
  Fe  Fe33  1  0.25393598  0.00116487  0.24849317  1
  Fe  Fe34  1  0.49652116  0.24657140  0.24686459  1
  Fe  Fe35  1  0.87393605  0.37284754  0.62584370  1
  Fe  Fe36  1  0.12510147  0.37473352  0.37446077  1
  Fe  Fe37  1  0.37492978  0.37541175  0.62682119  1
  Fe  Fe38  1  0.12833530  0.12683349  0.87611415  1
  Fe  Fe39  1  0.24963808  0.74815501  0.24842693  1
  Fe  Fe40  1  -0.00252467  0.25182546  0.00198332  1
  Fe  Fe41  1  0.50007109  -0.00046930  0.49798426  1
  Fe  Fe42  1  0.63175968  0.62281340  0.12135300  1
  Fe  Fe43  1  0.62813307  0.62869100  0.37602612  1
  Fe  Fe44  1  0.74884310  0.24889681  0.49983052  1
  Fe  Fe45  1  0.24942040  0.25037290  0.49996207  1
  Fe  Fe46  1  0.74699894  -0.00210975  0.49801546  1
  Fe  Fe47  1  0.62740583  0.37277536  0.37145555  1
  Fe  Fe48  1  0.63016668  0.62545852  0.87846026  1
  Fe  Fe49  1  0.37445205  0.62370456  0.87835954  1
  Fe  Fe50  1  0.87367109  0.12659792  0.87418703  1
  Fe  Fe51  1  0.37538333  0.87276988  0.62795018  1
  Fe  Fe52  1  0.12119260  0.37853162  0.12568871  1
  Fe  Fe53  1  0.25055913  -0.00237186  0.00035782  1
  Fe  Fe54  1  0.24834197  0.50039724  0.24914095  1
  Fe  Fe55  1  0.12270921  0.62240167  0.87836828  1
  Fe  Fe56  1  0.12736596  0.12433793  0.37230432  1
  Fe  Fe57  1  0.00274821  0.24865918  0.74817786  1
  Fe  Fe58  1  0.12469566  0.37764899  0.62510454  1
  Fe  Fe59  1  0.37472137  0.62227541  0.12350205  1
  Fe  Fe60  1  0.49933637  0.74911838  0.49888134  1
  Fe  Fe61  1  0.62302705  0.87347587  0.62535707  1
  Fe  Fe62  1  -0.00261407  0.49921398  0.49687518  1
  Fe  Fe63  1  0.87312261  0.12472686  0.62547721  1
  Fe  Fe64  1  -0.00029194  0.24974770  0.25059832  1
  Fe  Fe65  1  0.75163907  0.25378719  0.00273253  1
  Fe  Fe66  1  -0.00110129  0.74862885  0.75183695  1
  Fe  Fe67  1  0.37482075  0.62578360  0.62486555  1
  Fe  Fe68  1  0.50292120  0.50320115  0.25069565  1
  Fe  Fe69  1  0.37296929  0.12484829  0.62627669  1
  Fe  Fe70  1  0.62409082  0.12348509  0.12389274  1
  Fe  Fe71  1  0.12788193  0.12356262  0.62629571  1
  Fe  Fe72  1  0.37449035  0.37495232  0.37181365  1
  Fe  Fe73  1  0.62549160  0.37625351  0.12632877  1
  Fe  Fe74  1  0.50110742  0.24889308  0.74955016  1
  Fe  Fe75  1  0.62551785  0.12630907  0.87750345  1
  Fe  Fe76  1  0.50177424  0.74806648  0.00110888  1
  Fe  Fe77  1  0.25455254  0.25729956  0.00256437  1
  Fe  Fe78  1  0.37554513  0.87291943  0.37182258  1
  Fe  Fe79  1  0.12664258  0.12475285  0.12499892  1
  Fe  Fe80  1  0.49977884  0.00117997  0.75091215  1
  Fe  Fe81  1  0.62335091  0.12391143  0.37281541  1
  Fe  Fe82  1  -0.00318651  0.50168456  0.75268502  1
  Fe  Fe83  1  0.62620880  0.37551333  0.62543589  1
  Fe  Fe84  1  0.00112438  0.00124702  0.75217721  1
  Fe  Fe85  1  0.24719434  0.74922225  0.00241773  1
  Fe  Fe86  1  0.50094809  0.50249607  0.75175456  1
  Fe  Fe87  1  0.24984605  0.50060531  0.75069556  1
  Fe  Fe88  1  0.50006883  0.74767995  0.24847195  1
  Fe  Fe89  1  0.62430501  0.87403591  0.87535895  1
  Co  Co90  1  0.75015632  0.75585241  0.00253623  1
  Co  Co91  1  0.87273732  0.62951538  0.88081791  1
  Co  Co92  1  0.62356016  0.87301579  0.37175972  1
  Co  Co93  1  0.87560368  0.36862076  0.87042096  1
  Co  Co94  1  0.87520441  0.37894735  0.13244349  1
  Co  Co95  1  0.37347497  0.12638929  0.37628372  1
  Co  Co96  1  0.74586775  0.24875159  0.74909156  1
  Co  Co97  1  0.49867238  0.25099876  0.00224095  1
  Co  Co98  1  -0.00729592  0.49598900  -0.00338301  1
  Co  Co99  1  0.74993508  0.24641779  0.24742372  1
  Co  Co100  1  0.87540670  0.62281756  0.12116060  1
  Co  Co101  1  0.87456863  0.87462604  0.37569094  1
  Co  Co102  1  0.75471397  0.49331836  -0.00197077  1
  Co  Co103  1  0.25060106  0.75087234  0.50007075  1
  Co  Co104  1  0.87389281  0.62809512  0.37649950  1
  Co  Co105  1  0.37244038  0.12539848  0.12197206  1
  Co  Co106  1  0.87237850  0.37178112  0.37259549  1
  Co  Co107  1  0.00080804  0.00314028  -0.00125915  1
  Co  Co108  1  0.24989080  -0.00258790  0.75166816  1
  Co  Co109  1  0.75116524  0.50350025  0.25278766  1
  Co  Co110  1  0.37612442  0.87233559  0.12447168  1
  Co  Co111  1  0.00123132  0.75076629  0.00087777  1
  Co  Co112  1  0.24941478  0.25315144  0.75002397  1
  Co  Co113  1  0.74959048  0.75137122  0.50151295  1
  Co  Co114  1  0.37415988  0.62442754  0.37382652  1
  Co  Co115  1  0.37898669  0.38071476  0.12783635  1
  Co  Co116  1  0.50140679  0.74666944  0.75213316  1
  Co  Co117  1  0.12305727  0.62460898  0.62327923  1
  Co  Co118  1  -0.00168473  0.50193270  0.25546104  1
  Co  Co119  1  0.25019415  0.49744104  0.00116864  1
  Co  Co120  1  0.62475001  0.12431655  0.62377771  1
  Co  Co121  1  0.50258994  0.50165760  0.00045310  1
  Co  Co122  1  0.37800277  0.37694057  0.87394124  1
  Co  Co123  1  -0.00130891  0.00141743  0.25097263  1
  Co  Co124  1  0.25021557  0.25274042  0.24701953  1
  Co  Co125  1  0.87697021  0.87554143  0.87561012  1
  Co  Co126  1  0.12673166  0.87494078  0.37084029  1
  Co  Co127  1  0.49699954  0.00257151  0.24885452  1
