# generated using pymatgen
data_Fe45Co19
_symmetry_space_group_name_H-M   'P 1'
_cell_length_a   11.41567509
_cell_length_b   11.41484661
_cell_length_c   11.41518174
_cell_angle_alpha   90.01250465
_cell_angle_beta   90.00627845
_cell_angle_gamma   90.00744413
_symmetry_Int_Tables_number   1
_chemical_formula_structural   Fe45Co19
_chemical_formula_sum   'Fe90 Co38'
_cell_volume   1487.49150148
_cell_formula_units_Z   2
loop_
 _symmetry_equiv_pos_site_id
 _symmetry_equiv_pos_as_xyz
  1  'x, y, z'
loop_
 _atom_site_type_symbol
 _atom_site_label
 _atom_site_symmetry_multiplicity
 _atom_site_fract_x
 _atom_site_fract_y
 _atom_site_fract_z
 _atom_site_occupancy
  Fe  Fe0  1  0.75082582  0.24975488  0.49985243  1
  Fe  Fe1  1  0.12703888  0.87350230  0.37543552  1
  Fe  Fe2  1  0.12624849  0.37467077  0.87510195  1
  Fe  Fe3  1  0.74927918  -0.00006647  0.50187980  1
  Fe  Fe4  1  0.37872087  0.87659633  0.62853185  1
  Fe  Fe5  1  0.50024186  0.25178682  0.49636480  1
  Fe  Fe6  1  0.37467482  0.12197344  0.87471124  1
  Fe  Fe7  1  0.50190277  -0.00344734  0.24863873  1
  Fe  Fe8  1  0.24958763  -0.00090562  -0.00127793  1
  Fe  Fe9  1  0.74833345  0.74796753  0.74850345  1
  Fe  Fe10  1  0.62311877  0.62652483  0.87545235  1
  Fe  Fe11  1  0.62270789  0.37663572  0.62303036  1
  Fe  Fe12  1  -0.00285907  0.24713356  0.75357658  1
  Fe  Fe13  1  -0.00049360  0.24816820  -0.00268111  1
  Fe  Fe14  1  0.62650978  0.12442147  0.37266196  1
  Fe  Fe15  1  0.62375038  0.87400917  0.87372293  1
  Fe  Fe16  1  0.37779451  0.12419169  0.12575748  1
  Fe  Fe17  1  0.12261879  0.87605252  0.62653290  1
  Fe  Fe18  1  0.12724252  0.62575794  0.87587066  1
  Fe  Fe19  1  0.87669955  0.37631950  0.62510041  1
  Fe  Fe20  1  0.49692243  0.49884616  0.49323493  1
  Fe  Fe21  1  0.87201910  0.87783342  0.87927926  1
  Fe  Fe22  1  0.50062534  0.00056832  0.49890526  1
  Fe  Fe23  1  0.12469821  0.87469724  0.87685446  1
  Fe  Fe24  1  0.00114691  0.50107957  0.24816103  1
  Fe  Fe25  1  0.62451031  0.37536862  0.87607087  1
  Fe  Fe26  1  0.62759070  0.12476575  0.87508874  1
  Fe  Fe27  1  0.12344087  0.12477823  0.62572517  1
  Fe  Fe28  1  -0.00219080  0.00394903  0.75414279  1
  Fe  Fe29  1  0.37410571  0.12474491  0.37453378  1
  Fe  Fe30  1  0.87342532  0.62789875  0.12628327  1
  Fe  Fe31  1  0.50023591  0.49976456  0.00195602  1
  Fe  Fe32  1  0.00049440  0.75016406  0.25034572  1
  Fe  Fe33  1  0.12227655  0.37286501  0.12436976  1
  Fe  Fe34  1  0.50066165  0.50085522  0.75009792  1
  Fe  Fe35  1  0.25324598  0.25108222  -0.00062469  1
  Fe  Fe36  1  0.75135413  0.50274970  0.50001080  1
  Fe  Fe37  1  0.62528503  0.87295913  0.37362886  1
  Fe  Fe38  1  0.75192462  0.24924656  0.74856550  1
  Fe  Fe39  1  0.49997937  0.25271659  0.25384147  1
  Fe  Fe40  1  0.37399303  0.62328376  0.87614275  1
  Fe  Fe41  1  0.75226546  0.25193917  0.24937944  1
  Fe  Fe42  1  0.87529013  0.37820478  0.37262729  1
  Fe  Fe43  1  0.87559596  0.87566943  0.37622252  1
  Fe  Fe44  1  0.25332022  0.75262778  0.75170547  1
  Fe  Fe45  1  0.62659531  0.62534836  0.37083696  1
  Fe  Fe46  1  0.12677018  0.87230478  0.12214993  1
  Fe  Fe47  1  -0.00134714  0.24931608  0.49794516  1
  Fe  Fe48  1  0.62281294  0.37395499  0.12717118  1
  Fe  Fe49  1  0.37583157  0.12397475  0.62571931  1
  Fe  Fe50  1  0.49808974  0.74795857  0.49707326  1
  Fe  Fe51  1  0.87324471  0.87315732  0.12084661  1
  Fe  Fe52  1  0.24874307  -0.00013817  0.24991420  1
  Fe  Fe53  1  0.12771100  0.62917032  0.12277149  1
  Fe  Fe54  1  0.12389222  0.12571696  0.12367706  1
  Fe  Fe55  1  0.13249308  0.62543830  0.37623488  1
  Fe  Fe56  1  0.87399092  0.62483827  0.87475185  1
  Fe  Fe57  1  0.37532662  0.62445972  0.62258614  1
  Fe  Fe58  1  0.00157333  0.50196800  0.50094738  1
  Fe  Fe59  1  0.12616242  0.62644212  0.62540424  1
  Fe  Fe60  1  0.24976738  -0.00189721  0.50236487  1
  Fe  Fe61  1  0.74890428  0.50168469  0.00332752  1
  Fe  Fe62  1  -0.00167397  0.74936388  0.75261835  1
  Fe  Fe63  1  0.25057970  0.25355466  0.50251151  1
  Fe  Fe64  1  0.25028284  0.49897252  0.00242630  1
  Fe  Fe65  1  0.49959313  0.25006138  0.75264067  1
  Fe  Fe66  1  0.74814107  -0.00210993  0.24603513  1
  Fe  Fe67  1  0.74827458  0.24974305  0.00287354  1
  Fe  Fe68  1  0.50463244  -0.00034307  0.00301744  1
  Fe  Fe69  1  0.49535734  0.75168145  0.00140750  1
  Fe  Fe70  1  0.00031052  0.50010310  0.75109680  1
  Fe  Fe71  1  0.62518656  0.12502062  0.62476665  1
  Fe  Fe72  1  0.87281392  0.37618146  0.87731243  1
  Fe  Fe73  1  0.25176440  0.25225302  0.74944139  1
  Fe  Fe74  1  0.12711510  0.37622958  0.37374724  1
  Fe  Fe75  1  -0.00063885  0.50172914  0.00010976  1
  Fe  Fe76  1  0.87525023  0.12163866  0.37415519  1
  Fe  Fe77  1  0.00156411  -0.00135217  0.24826933  1
  Fe  Fe78  1  0.62286696  0.87338162  0.62614569  1
  Fe  Fe79  1  0.62360779  0.62954612  0.12921152  1
  Fe  Fe80  1  0.37273711  0.87416988  0.37389937  1
  Fe  Fe81  1  0.87636460  0.12427146  0.12349096  1
  Fe  Fe82  1  0.87614416  0.87577230  0.62431607  1
  Fe  Fe83  1  0.24889380  0.24974195  0.24865135  1
  Fe  Fe84  1  0.74798937  0.50205858  0.74830644  1
  Fe  Fe85  1  0.00008357  0.74796089  0.49889657  1
  Fe  Fe86  1  0.37722040  0.37519419  0.12629150  1
  Fe  Fe87  1  0.12528779  0.12432127  0.37564197  1
  Fe  Fe88  1  0.25070143  0.49682502  0.74657390  1
  Fe  Fe89  1  0.75157617  0.74693578  0.50007124  1
  Co  Co90  1  0.37526761  0.37809786  0.87515889  1
  Co  Co91  1  -0.00104832  0.74802604  -0.00151962  1
  Co  Co92  1  0.12898461  0.12658176  0.87561815  1
  Co  Co93  1  0.49885141  0.24979691  -0.00292992  1
  Co  Co94  1  0.00220488  0.00103572  -0.00059946  1
  Co  Co95  1  0.49904795  0.50038583  0.25285394  1
  Co  Co96  1  0.25031477  0.49494090  0.50491541  1
  Co  Co97  1  0.37315928  0.87827886  0.12510406  1
  Co  Co98  1  0.62188917  0.62367016  0.62180701  1
  Co  Co99  1  0.37481833  0.62363322  0.12591367  1
  Co  Co100  1  0.62176443  0.12939610  0.12877594  1
  Co  Co101  1  0.87684293  0.62519117  0.62674457  1
  Co  Co102  1  0.25437764  0.75152277  -0.00289471  1
  Co  Co103  1  0.38099505  0.37482379  0.62573583  1
  Co  Co104  1  0.25259148  0.75053683  0.24694856  1
  Co  Co105  1  0.62620414  0.86755953  0.12654438  1
  Co  Co106  1  0.12019750  0.37299603  0.62696076  1
  Co  Co107  1  0.24855238  0.49957097  0.24522688  1
  Co  Co108  1  0.49876247  0.74674307  0.75012261  1
  Co  Co109  1  0.25118457  0.75415308  0.50416847  1
  Co  Co110  1  0.50364979  0.00295157  0.74984597  1
  Co  Co111  1  0.74286245  0.00044676  0.00481450  1
  Co  Co112  1  0.37892539  0.87932338  0.87354649  1
  Co  Co113  1  0.00192590  -0.00008543  0.49873146  1
  Co  Co114  1  0.86944230  0.12253787  0.88018053  1
  Co  Co115  1  0.75031270  0.49917147  0.24574042  1
  Co  Co116  1  -0.00021323  0.24922561  0.25190059  1
  Co  Co117  1  0.49418094  0.75027030  0.25099881  1
  Co  Co118  1  0.87617672  0.12350116  0.62315098  1
  Co  Co119  1  0.87749230  0.37406675  0.12340867  1
  Co  Co120  1  0.75279023  0.75132583  0.25286115  1
  Co  Co121  1  0.36733518  0.62441816  0.37501065  1
  Co  Co122  1  0.74862039  0.74742005  -0.00267405  1
  Co  Co123  1  0.24797763  -0.00164860  0.74935228  1
  Co  Co124  1  0.87570547  0.62347761  0.37250102  1
  Co  Co125  1  0.75055088  -0.00116854  0.74843567  1
  Co  Co126  1  0.36916552  0.37527779  0.37203804  1
  Co  Co127  1  0.62938940  0.37623814  0.37453885  1
