# generated using pymatgen
data_Fe45Co19
_symmetry_space_group_name_H-M   'P 1'
_cell_length_a   11.41459483
_cell_length_b   11.41549016
_cell_length_c   11.41484722
_cell_angle_alpha   89.99516121
_cell_angle_beta   89.99220409
_cell_angle_gamma   90.00005248
_symmetry_Int_Tables_number   1
_chemical_formula_structural   Fe45Co19
_chemical_formula_sum   'Fe90 Co38'
_cell_volume   1487.39104274
_cell_formula_units_Z   2
loop_
 _symmetry_equiv_pos_site_id
 _symmetry_equiv_pos_as_xyz
  1  'x, y, z'
loop_
 _atom_site_type_symbol
 _atom_site_label
 _atom_site_symmetry_multiplicity
 _atom_site_fract_x
 _atom_site_fract_y
 _atom_site_fract_z
 _atom_site_occupancy
  Fe  Fe0  1  0.87398276  0.37431393  0.62817109  1
  Fe  Fe1  1  0.49963991  0.74828585  0.24820294  1
  Fe  Fe2  1  0.49801573  -0.00225193  0.49793897  1
  Fe  Fe3  1  0.87683942  0.12508950  0.87771879  1
  Fe  Fe4  1  0.24840177  -0.00283750  0.25351615  1
  Fe  Fe5  1  0.37266858  0.87453575  0.12629081  1
  Fe  Fe6  1  0.49989317  0.50096880  0.50187755  1
  Fe  Fe7  1  0.62407047  0.12274368  0.87843824  1
  Fe  Fe8  1  0.00123014  0.24847155  0.24836277  1
  Fe  Fe9  1  0.24819474  -0.00159095  0.75049815  1
  Fe  Fe10  1  0.87605999  0.37377012  0.37369501  1
  Fe  Fe11  1  0.62556394  0.87214202  0.37297423  1
  Fe  Fe12  1  0.37407591  0.62620708  0.37447747  1
  Fe  Fe13  1  0.12122606  0.87254395  0.87391923  1
  Fe  Fe14  1  0.87565104  0.12284354  0.37218246  1
  Fe  Fe15  1  0.00081903  0.50021144  0.25142077  1
  Fe  Fe16  1  0.36996192  0.37695712  0.87148229  1
  Fe  Fe17  1  0.62562166  0.12623866  0.37475218  1
  Fe  Fe18  1  0.75279305  0.50021171  -0.00108522  1
  Fe  Fe19  1  0.12469398  0.12434607  0.37703064  1
  Fe  Fe20  1  0.62621750  0.12394814  0.62453671  1
  Fe  Fe21  1  0.62743096  0.37699021  0.87145951  1
  Fe  Fe22  1  0.75455246  0.75221391  0.49856005  1
  Fe  Fe23  1  0.74994788  0.00014222  0.75332693  1
  Fe  Fe24  1  0.62727826  0.62448591  0.62692905  1
  Fe  Fe25  1  0.75151623  0.75326051  0.00055064  1
  Fe  Fe26  1  0.62454984  0.37636953  0.12625361  1
  Fe  Fe27  1  0.12569380  0.37383910  0.62639033  1
  Fe  Fe28  1  0.87504806  0.12145002  0.12542118  1
  Fe  Fe29  1  0.62577007  0.62368797  0.12312276  1
  Fe  Fe30  1  0.24905787  -0.00207934  -0.00161163  1
  Fe  Fe31  1  0.49760473  0.49873953  -0.00135080  1
  Fe  Fe32  1  0.12612025  0.12312075  0.12330308  1
  Fe  Fe33  1  0.75307952  -0.00324539  0.49727186  1
  Fe  Fe34  1  0.87627456  0.87897015  0.12767523  1
  Fe  Fe35  1  0.62566439  0.87685470  0.12309405  1
  Fe  Fe36  1  0.62636318  0.87459896  0.62616910  1
  Fe  Fe37  1  0.12414366  0.12623928  0.87714029  1
  Fe  Fe38  1  0.37286523  0.62524016  0.87378586  1
  Fe  Fe39  1  0.00306970  0.50266140  0.74971985  1
  Fe  Fe40  1  0.25084914  0.75518446  0.50148190  1
  Fe  Fe41  1  0.00070880  0.49915472  0.49986619  1
  Fe  Fe42  1  0.49829907  0.25059727  0.50035131  1
  Fe  Fe43  1  0.37498396  0.87288070  0.87446441  1
  Fe  Fe44  1  0.24999457  0.49990457  0.25055237  1
  Fe  Fe45  1  0.12512926  0.12144942  0.62231261  1
  Fe  Fe46  1  0.62832487  0.37644262  0.62870889  1
  Fe  Fe47  1  0.37159844  0.62558891  0.62764747  1
  Fe  Fe48  1  0.00416204  0.75237134  0.24689466  1
  Fe  Fe49  1  0.24993967  0.25304366  0.25195427  1
  Fe  Fe50  1  0.75103401  0.25040982  0.49961101  1
  Fe  Fe51  1  0.75171486  0.50258455  0.25144039  1
  Fe  Fe52  1  0.37362909  0.62354295  0.12449368  1
  Fe  Fe53  1  0.87767136  0.62783142  0.87683466  1
  Fe  Fe54  1  0.49906310  0.00072437  0.25002523  1
  Fe  Fe55  1  0.87569707  0.37484186  0.12511114  1
  Fe  Fe56  1  0.88019020  0.87414969  0.87261590  1
  Fe  Fe57  1  0.12396782  0.37785294  0.12174404  1
  Fe  Fe58  1  0.37279963  0.12503288  0.12483108  1
  Fe  Fe59  1  0.62448203  0.37613996  0.37350065  1
  Fe  Fe60  1  0.75092310  0.25015775  0.00057121  1
  Fe  Fe61  1  0.37432607  0.12270914  0.62494900  1
  Fe  Fe62  1  0.87727250  0.62559240  0.12514177  1
  Fe  Fe63  1  0.49794254  0.25167863  -0.00097637  1
  Fe  Fe64  1  0.37430701  0.12450746  0.87536761  1
  Fe  Fe65  1  0.49766910  0.25040410  0.25098537  1
  Fe  Fe66  1  0.50036280  -0.00164105  0.75141537  1
  Fe  Fe67  1  0.75230837  0.50114577  0.49806176  1
  Fe  Fe68  1  -0.00052537  0.24890103  0.50025401  1
  Fe  Fe69  1  0.87618208  0.62532792  0.62390091  1
  Fe  Fe70  1  0.49981611  0.74969985  0.74963547  1
  Fe  Fe71  1  0.37208831  0.37603176  0.62773315  1
  Fe  Fe72  1  -0.00287038  0.75663783  0.50166105  1
  Fe  Fe73  1  0.49994529  0.75110858  0.00033141  1
  Fe  Fe74  1  0.62560544  0.12351748  0.12236997  1
  Fe  Fe75  1  0.49977568  0.24956285  0.74975444  1
  Fe  Fe76  1  0.62599014  0.62582262  0.37412488  1
  Fe  Fe77  1  0.25117640  -0.00476968  0.49859908  1
  Fe  Fe78  1  0.75107475  0.74973793  0.75051018  1
  Fe  Fe79  1  0.49839237  0.75044900  0.50165502  1
  Fe  Fe80  1  0.24949821  0.25255942  -0.00073925  1
  Fe  Fe81  1  0.87469051  0.12231041  0.62484311  1
  Fe  Fe82  1  0.24811937  0.49909302  0.49919638  1
  Fe  Fe83  1  0.12336840  0.62591399  0.87928536  1
  Fe  Fe84  1  0.00241658  0.24712902  0.74974396  1
  Fe  Fe85  1  0.87713052  0.37322091  0.87356654  1
  Fe  Fe86  1  0.12350378  0.62791169  0.37637615  1
  Fe  Fe87  1  0.25138806  0.25093264  0.49875645  1
  Fe  Fe88  1  0.62537114  0.62468537  0.87534681  1
  Fe  Fe89  1  0.24634007  0.74900724  0.00291514  1
  Co  Co90  1  0.24813015  0.24671712  0.74971480  1
  Co  Co91  1  0.37447503  0.37476074  0.12507391  1
  Co  Co92  1  0.12321941  0.37405327  0.37545020  1
  Co  Co93  1  0.24677346  0.74969522  0.74959572  1
  Co  Co94  1  0.75407767  0.50374213  0.75106668  1
  Co  Co95  1  0.00118797  0.75227144  0.00510364  1
  Co  Co96  1  0.12533555  0.62829591  0.61911469  1
  Co  Co97  1  0.12218042  0.87697075  0.62715689  1
  Co  Co98  1  0.12429879  0.87284347  0.37632223  1
  Co  Co99  1  0.37563864  0.87551160  0.62807388  1
  Co  Co100  1  0.87584393  0.87724379  0.63073728  1
  Co  Co101  1  0.74987211  0.24599253  0.75116514  1
  Co  Co102  1  0.75297260  -0.00248016  -0.00171891  1
  Co  Co103  1  0.24728904  0.74871656  0.24831913  1
  Co  Co104  1  0.87544697  0.87579730  0.36841168  1
  Co  Co105  1  0.12374221  0.62103183  0.12497588  1
  Co  Co106  1  0.75011435  0.24949496  0.24904106  1
  Co  Co107  1  0.24385660  0.50414268  0.74982641  1
  Co  Co108  1  0.74660840  0.00039996  0.25085080  1
  Co  Co109  1  0.00054838  0.24890389  0.00210925  1
  Co  Co110  1  0.49825595  0.50133183  0.74932171  1
  Co  Co111  1  0.49613718  -0.00129322  0.00137620  1
  Co  Co112  1  0.00483287  0.00085514  0.25037960  1
  Co  Co113  1  0.00182546  0.00392837  0.75135082  1
  Co  Co114  1  0.12699782  0.87761345  0.12426785  1
  Co  Co115  1  0.37334047  0.12487385  0.37486634  1
  Co  Co116  1  0.62350413  0.87452652  0.87554495  1
  Co  Co117  1  -0.00255351  -0.00315316  0.49814661  1
  Co  Co118  1  0.00228115  0.74555671  0.74699367  1
  Co  Co119  1  -0.00181732  0.49998534  -0.00138185  1
  Co  Co120  1  0.75005045  0.74910057  0.24768013  1
  Co  Co121  1  0.37656553  0.87253286  0.37209760  1
  Co  Co122  1  0.87887284  0.62775857  0.37421344  1
  Co  Co123  1  0.00147281  -0.00073517  0.00023738  1
  Co  Co124  1  0.49855815  0.50194261  0.24967959  1
  Co  Co125  1  0.25025969  0.50038873  -0.00022416  1
  Co  Co126  1  0.12420014  0.37445705  0.87580138  1
  Co  Co127  1  0.37612520  0.37646368  0.37586837  1
