# generated using pymatgen
data_Fe45Co19
_symmetry_space_group_name_H-M   'P 1'
_cell_length_a   11.41390476
_cell_length_b   11.41273680
_cell_length_c   11.41464132
_cell_angle_alpha   89.98654195
_cell_angle_beta   89.99898986
_cell_angle_gamma   90.01584698
_symmetry_Int_Tables_number   1
_chemical_formula_structural   Fe45Co19
_chemical_formula_sum   'Fe90 Co38'
_cell_volume   1486.91549394
_cell_formula_units_Z   2
loop_
 _symmetry_equiv_pos_site_id
 _symmetry_equiv_pos_as_xyz
  1  'x, y, z'
loop_
 _atom_site_type_symbol
 _atom_site_label
 _atom_site_symmetry_multiplicity
 _atom_site_fract_x
 _atom_site_fract_y
 _atom_site_fract_z
 _atom_site_occupancy
  Fe  Fe0  1  0.49970884  0.50063279  -0.00000674  1
  Fe  Fe1  1  0.87238242  0.12255541  0.37532852  1
  Fe  Fe2  1  0.25285723  -0.00048151  0.74732179  1
  Fe  Fe3  1  0.12536359  0.87639731  0.12486077  1
  Fe  Fe4  1  0.25003382  0.75327706  0.25124900  1
  Fe  Fe5  1  0.00043090  0.24904001  0.49852414  1
  Fe  Fe6  1  0.75065417  0.75384557  0.25125742  1
  Fe  Fe7  1  0.87379945  0.87479761  0.62468907  1
  Fe  Fe8  1  0.12939053  0.12176407  0.37596442  1
  Fe  Fe9  1  -0.00196188  0.00235776  0.74870668  1
  Fe  Fe10  1  0.61970335  0.87361128  0.87406261  1
  Fe  Fe11  1  0.37762438  0.62876521  0.87215799  1
  Fe  Fe12  1  0.25077032  0.25022114  0.25206960  1
  Fe  Fe13  1  0.62521312  0.87540062  0.62411968  1
  Fe  Fe14  1  0.37646459  0.37444726  0.87417877  1
  Fe  Fe15  1  0.37550296  0.62380018  0.12844526  1
  Fe  Fe16  1  0.74952524  0.49817154  0.00036012  1
  Fe  Fe17  1  0.49752895  0.25235689  0.49706878  1
  Fe  Fe18  1  0.87545824  0.87588906  0.87482441  1
  Fe  Fe19  1  0.74749101  0.74908043  -0.00084438  1
  Fe  Fe20  1  0.37749368  0.37448805  0.12912221  1
  Fe  Fe21  1  0.50150246  0.74264219  0.50385015  1
  Fe  Fe22  1  0.37073613  0.12276063  0.37871674  1
  Fe  Fe23  1  0.12620155  0.62669166  0.12544391  1
  Fe  Fe24  1  0.12310593  0.87386032  0.62518131  1
  Fe  Fe25  1  0.62368338  0.87543657  0.37713951  1
  Fe  Fe26  1  0.62310631  0.87599601  0.12502304  1
  Fe  Fe27  1  0.87697588  0.37537553  0.62428427  1
  Fe  Fe28  1  0.62538231  0.38209887  0.62159940  1
  Fe  Fe29  1  0.00195096  0.24648527  0.00277951  1
  Fe  Fe30  1  0.50065747  0.25149537  0.74763861  1
  Fe  Fe31  1  0.00090826  0.49954274  0.00092703  1
  Fe  Fe32  1  0.24886063  0.49815083  0.75115677  1
  Fe  Fe33  1  0.87836902  0.37210979  0.87469687  1
  Fe  Fe34  1  0.87476602  0.87725130  0.12475325  1
  Fe  Fe35  1  0.12421335  0.37434002  0.37438405  1
  Fe  Fe36  1  0.12533474  0.62523367  0.87575559  1
  Fe  Fe37  1  0.25240285  0.75118258  -0.00143362  1
  Fe  Fe38  1  0.87469253  0.62590247  0.37164108  1
  Fe  Fe39  1  0.37540793  0.12585331  0.12624053  1
  Fe  Fe40  1  0.12145761  0.87565300  0.37480484  1
  Fe  Fe41  1  0.87222660  0.62327140  0.62617183  1
  Fe  Fe42  1  0.12459534  0.12537941  0.87510444  1
  Fe  Fe43  1  0.49871979  0.00125651  0.25228821  1
  Fe  Fe44  1  0.74628078  0.74746258  0.75116533  1
  Fe  Fe45  1  0.75186474  0.25132279  0.50067890  1
  Fe  Fe46  1  0.62563877  0.62442705  0.12680033  1
  Fe  Fe47  1  0.87354841  0.62471166  0.12636161  1
  Fe  Fe48  1  0.12553046  0.37331838  0.12602842  1
  Fe  Fe49  1  0.25150333  -0.00005275  -0.00132397  1
  Fe  Fe50  1  0.25194074  0.25097068  0.00055015  1
  Fe  Fe51  1  0.75147040  0.74947504  0.49849747  1
  Fe  Fe52  1  -0.00093092  0.00370086  0.24637220  1
  Fe  Fe53  1  -0.00010254  0.75124367  0.00073064  1
  Fe  Fe54  1  0.62346165  0.12558435  0.87365142  1
  Fe  Fe55  1  0.12656507  0.12581955  0.62296435  1
  Fe  Fe56  1  0.62279959  0.37805820  0.87318470  1
  Fe  Fe57  1  0.62636330  0.12379628  0.37687127  1
  Fe  Fe58  1  0.12418561  0.87649390  0.87452420  1
  Fe  Fe59  1  0.24873962  0.75292045  0.49928903  1
  Fe  Fe60  1  0.87664618  0.37242007  0.12838512  1
  Fe  Fe61  1  0.24702281  0.25283947  0.74705826  1
  Fe  Fe62  1  0.37495743  0.37703275  0.62140815  1
  Fe  Fe63  1  0.49987310  0.75044318  0.25075206  1
  Fe  Fe64  1  0.87540901  0.12635083  0.87494148  1
  Fe  Fe65  1  0.00070829  0.74824392  0.74850166  1
  Fe  Fe66  1  0.87476598  0.62479871  0.87591920  1
  Fe  Fe67  1  0.74886708  0.00212166  0.74774715  1
  Fe  Fe68  1  0.75009494  0.25110104  0.74788077  1
  Fe  Fe69  1  0.50291029  0.49836784  0.25710544  1
  Fe  Fe70  1  0.37643455  0.12620024  0.87147237  1
  Fe  Fe71  1  0.74717938  0.25127673  -0.00010675  1
  Fe  Fe72  1  0.37617511  0.87548988  0.12462552  1
  Fe  Fe73  1  0.12400030  0.62746714  0.37422229  1
  Fe  Fe74  1  0.24970723  0.49846155  0.49711007  1
  Fe  Fe75  1  0.49757194  0.00091589  0.50281792  1
  Fe  Fe76  1  0.62363366  0.12636848  0.12617532  1
  Fe  Fe77  1  0.74944009  0.25047244  0.25176233  1
  Fe  Fe78  1  0.49857720  0.00145387  -0.00176294  1
  Fe  Fe79  1  0.74934831  0.00088428  0.00016322  1
  Fe  Fe80  1  0.62155016  0.37269052  0.12781929  1
  Fe  Fe81  1  0.37663116  0.87142255  0.62706963  1
  Fe  Fe82  1  -0.00107526  0.50199029  0.49887381  1
  Fe  Fe83  1  0.00181722  0.49810300  0.75094649  1
  Fe  Fe84  1  0.12723123  0.62490831  0.62471552  1
  Fe  Fe85  1  0.00113251  0.50047677  0.24953841  1
  Fe  Fe86  1  0.37334338  0.62555087  0.37489834  1
  Fe  Fe87  1  0.25150498  0.49962152  0.00035839  1
  Fe  Fe88  1  0.62439679  0.12549815  0.62318458  1
  Fe  Fe89  1  -0.00220513  -0.00008687  0.50173645  1
  Co  Co90  1  0.24734991  0.49984068  0.25050010  1
  Co  Co91  1  0.12983472  0.12516908  0.12599337  1
  Co  Co92  1  0.24817866  0.75139662  0.75045528  1
  Co  Co93  1  0.50415920  0.74449168  0.74459488  1
  Co  Co94  1  -0.00085010  0.75071323  0.24819657  1
  Co  Co95  1  0.87699589  0.87771245  0.37490003  1
  Co  Co96  1  0.36894454  0.62389637  0.62389081  1
  Co  Co97  1  0.37405749  0.12839441  0.62380331  1
  Co  Co98  1  0.49725746  0.50273098  0.74690180  1
  Co  Co99  1  0.49857133  0.24794751  0.25616400  1
  Co  Co100  1  0.00267343  0.24988478  0.74768725  1
  Co  Co101  1  0.12432351  0.37373947  0.87819393  1
  Co  Co102  1  0.00136114  0.24555758  0.25224339  1
  Co  Co103  1  0.49920225  0.50331123  0.49654384  1
  Co  Co104  1  0.37904926  0.87360220  0.37831437  1
  Co  Co105  1  0.25238217  -0.00354497  0.25124331  1
  Co  Co106  1  0.49965913  0.25002187  -0.00187462  1
  Co  Co107  1  0.87099525  0.12679598  0.12444184  1
  Co  Co108  1  -0.00024576  0.00195962  0.00221838  1
  Co  Co109  1  0.75038373  -0.00114736  0.50147055  1
  Co  Co110  1  0.49989585  0.00157387  0.74697030  1
  Co  Co111  1  0.74840304  -0.00102448  0.25018663  1
  Co  Co112  1  0.87698395  0.37461921  0.37373915  1
  Co  Co113  1  0.62355147  0.62252468  0.87520315  1
  Co  Co114  1  0.49965068  0.74818757  0.00170602  1
  Co  Co115  1  0.25141273  -0.00514459  0.50343089  1
  Co  Co116  1  -0.00195358  0.74893634  0.50138034  1
  Co  Co117  1  0.37305489  0.37678811  0.37461454  1
  Co  Co118  1  0.74912282  0.49702846  0.25045958  1
  Co  Co119  1  0.75311329  0.49746739  0.75385464  1
  Co  Co120  1  0.12339673  0.37661996  0.62193476  1
  Co  Co121  1  0.37885661  0.87327729  0.87193723  1
  Co  Co122  1  0.62805387  0.62677547  0.37392354  1
  Co  Co123  1  0.75279429  0.50023441  0.49457909  1
  Co  Co124  1  0.24896232  0.25230575  0.49979366  1
  Co  Co125  1  0.63094879  0.61698346  0.62487533  1
  Co  Co126  1  0.62715754  0.37350095  0.37798854  1
  Co  Co127  1  0.87511062  0.12634777  0.62426718  1
