# generated using pymatgen
data_Fe45Co19
_symmetry_space_group_name_H-M   'P 1'
_cell_length_a   11.41484188
_cell_length_b   11.41621805
_cell_length_c   11.41583843
_cell_angle_alpha   89.99375432
_cell_angle_beta   90.00861668
_cell_angle_gamma   89.99654136
_symmetry_Int_Tables_number   1
_chemical_formula_structural   Fe45Co19
_chemical_formula_sum   'Fe90 Co38'
_cell_volume   1487.64723749
_cell_formula_units_Z   2
loop_
 _symmetry_equiv_pos_site_id
 _symmetry_equiv_pos_as_xyz
  1  'x, y, z'
loop_
 _atom_site_type_symbol
 _atom_site_label
 _atom_site_symmetry_multiplicity
 _atom_site_fract_x
 _atom_site_fract_y
 _atom_site_fract_z
 _atom_site_occupancy
  Fe  Fe0  1  0.87356940  0.62276172  0.87771087  1
  Fe  Fe1  1  0.25289744  0.24883422  0.25104494  1
  Fe  Fe2  1  0.62848767  0.37696474  0.62080939  1
  Fe  Fe3  1  0.49847125  0.50358658  0.25018512  1
  Fe  Fe4  1  -0.00080985  0.25088581  0.25179214  1
  Fe  Fe5  1  0.12267483  0.87246554  0.37545503  1
  Fe  Fe6  1  0.37765832  0.12318159  0.12398608  1
  Fe  Fe7  1  0.62392262  0.62583481  0.37453419  1
  Fe  Fe8  1  -0.00171895  0.50170999  0.49651919  1
  Fe  Fe9  1  0.12241395  0.12686578  0.87296165  1
  Fe  Fe10  1  0.37595915  0.37666536  0.12234738  1
  Fe  Fe11  1  0.50140439  0.50080432  0.74975929  1
  Fe  Fe12  1  0.12172253  0.87698421  0.62548188  1
  Fe  Fe13  1  0.74731774  -0.00074537  0.00013519  1
  Fe  Fe14  1  0.37563923  0.37721009  0.37533230  1
  Fe  Fe15  1  0.87524415  0.12647669  0.87442296  1
  Fe  Fe16  1  0.25151386  0.49884867  0.75003959  1
  Fe  Fe17  1  0.87550169  0.37309010  0.12744013  1
  Fe  Fe18  1  -0.00109662  -0.00234212  0.25325887  1
  Fe  Fe19  1  0.25066559  0.75074745  0.74913701  1
  Fe  Fe20  1  0.12524371  0.62518233  0.87603813  1
  Fe  Fe21  1  0.75146835  0.49782399  0.25337667  1
  Fe  Fe22  1  0.25181716  -0.00000431  0.25187214  1
  Fe  Fe23  1  0.37913369  0.87520249  0.12672157  1
  Fe  Fe24  1  0.37686119  0.87692812  0.87082375  1
  Fe  Fe25  1  0.25005069  0.75022347  0.50100832  1
  Fe  Fe26  1  0.87434136  0.12499600  0.12717826  1
  Fe  Fe27  1  0.87379853  0.87584656  0.87464882  1
  Fe  Fe28  1  0.25077351  0.25042785  0.50030161  1
  Fe  Fe29  1  -0.00008669  0.00095902  -0.00080758  1
  Fe  Fe30  1  0.12471989  0.87547367  0.87389068  1
  Fe  Fe31  1  0.25066229  0.75110114  0.00073452  1
  Fe  Fe32  1  0.62256834  0.12252594  0.12539233  1
  Fe  Fe33  1  0.12445861  0.12471663  0.37513822  1
  Fe  Fe34  1  0.37431808  0.62318652  0.87828967  1
  Fe  Fe35  1  0.62546635  0.62661769  0.62490464  1
  Fe  Fe36  1  0.75132271  0.75007448  0.49950120  1
  Fe  Fe37  1  0.50182661  0.25160540  0.74815536  1
  Fe  Fe38  1  0.74847140  0.25006848  0.00295601  1
  Fe  Fe39  1  0.37731935  0.12358668  0.37755744  1
  Fe  Fe40  1  0.12521333  0.87501234  0.12536041  1
  Fe  Fe41  1  0.49987581  0.50190712  0.49925186  1
  Fe  Fe42  1  0.24949766  0.50272863  0.24570452  1
  Fe  Fe43  1  0.12331780  0.62668370  0.37195913  1
  Fe  Fe44  1  0.87472492  0.37476498  0.87667364  1
  Fe  Fe45  1  0.87494169  0.62580659  0.12544393  1
  Fe  Fe46  1  0.74921937  0.75197940  0.24889899  1
  Fe  Fe47  1  -0.00105680  0.24924814  0.49961064  1
  Fe  Fe48  1  0.62470613  0.87498671  0.87302236  1
  Fe  Fe49  1  0.37841736  0.12336267  0.87315921  1
  Fe  Fe50  1  0.62362904  0.37644284  0.12620279  1
  Fe  Fe51  1  0.25053568  0.24962267  0.00048421  1
  Fe  Fe52  1  0.37635139  0.37653746  0.87721258  1
  Fe  Fe53  1  0.74840572  -0.00093364  0.74775647  1
  Fe  Fe54  1  0.62663041  0.37591059  0.87619628  1
  Fe  Fe55  1  0.12550683  0.37625055  0.37366565  1
  Fe  Fe56  1  0.87817413  0.62849670  0.37208058  1
  Fe  Fe57  1  0.62385393  0.12527640  0.87425888  1
  Fe  Fe58  1  0.37810325  0.87308149  0.37515121  1
  Fe  Fe59  1  0.12469807  0.12526657  0.12631689  1
  Fe  Fe60  1  0.87143441  0.37720782  0.61973492  1
  Fe  Fe61  1  0.25028088  -0.00189469  0.50107875  1
  Fe  Fe62  1  0.50214662  0.25042217  0.50008244  1
  Fe  Fe63  1  0.75160451  0.74888095  0.75073333  1
  Fe  Fe64  1  0.25071384  0.25059088  0.74831490  1
  Fe  Fe65  1  0.50093905  0.24889734  0.25155407  1
  Fe  Fe66  1  0.25108848  0.50055866  0.50048856  1
  Fe  Fe67  1  0.37592778  0.12424798  0.62610458  1
  Fe  Fe68  1  0.12428502  0.62403406  0.62574604  1
  Fe  Fe69  1  -0.00211311  0.75117403  0.00118560  1
  Fe  Fe70  1  0.50317178  0.75111920  0.00101269  1
  Fe  Fe71  1  0.62349061  0.87445118  0.37354202  1
  Fe  Fe72  1  -0.00214632  0.75063906  0.74908156  1
  Fe  Fe73  1  0.74919857  0.00076021  0.25246179  1
  Fe  Fe74  1  0.00270596  0.49859011  0.00416792  1
  Fe  Fe75  1  0.37630992  0.62704749  0.62447772  1
  Fe  Fe76  1  0.12227106  0.12284283  0.62568113  1
  Fe  Fe77  1  0.25294049  0.74800852  0.24909939  1
  Fe  Fe78  1  0.62873010  0.62375331  0.87732992  1
  Fe  Fe79  1  0.12331927  0.37253385  0.87517151  1
  Fe  Fe80  1  0.25089665  0.00071483  -0.00093000  1
  Fe  Fe81  1  0.87380886  0.62423103  0.62506683  1
  Fe  Fe82  1  0.74942342  0.00043374  0.49947695  1
  Fe  Fe83  1  0.12486695  0.37588142  0.62465610  1
  Fe  Fe84  1  -0.00189906  0.49863734  0.74949276  1
  Fe  Fe85  1  0.87533426  0.12277793  0.62462648  1
  Fe  Fe86  1  0.87262770  0.87612054  0.12512639  1
  Fe  Fe87  1  0.75105598  0.25197932  0.74804965  1
  Fe  Fe88  1  0.62702321  0.62502937  0.12343888  1
  Fe  Fe89  1  0.50285158  -0.00225022  0.50417462  1
  Co  Co90  1  0.49950875  0.74590602  0.24910396  1
  Co  Co91  1  0.62662526  0.87006923  0.62581351  1
  Co  Co92  1  0.62486747  0.37576666  0.37712862  1
  Co  Co93  1  0.62390878  0.12431742  0.37494939  1
  Co  Co94  1  0.74981335  0.49970588  0.75015237  1
  Co  Co95  1  0.87255234  0.37202389  0.37655886  1
  Co  Co96  1  0.87355024  0.87277888  0.37570991  1
  Co  Co97  1  0.74908800  0.24599734  0.49804345  1
  Co  Co98  1  0.75139318  0.49706256  0.00257728  1
  Co  Co99  1  -0.00243957  -0.00020677  0.49586854  1
  Co  Co100  1  0.50064813  -0.00225593  -0.00095703  1
  Co  Co101  1  0.62369090  0.87617054  0.12829831  1
  Co  Co102  1  0.87397563  0.12742504  0.37334351  1
  Co  Co103  1  0.62646270  0.12699346  0.62614756  1
  Co  Co104  1  -0.00060217  0.49832587  0.24948031  1
  Co  Co105  1  0.50012223  0.75002052  0.49829209  1
  Co  Co106  1  -0.00335498  0.25206074  0.74648889  1
  Co  Co107  1  0.74927138  0.75233201  0.00087032  1
  Co  Co108  1  0.37488547  0.62455489  0.11953970  1
  Co  Co109  1  -0.00155581  0.75355298  0.24766676  1
  Co  Co110  1  0.50065829  0.74749709  0.75228608  1
  Co  Co111  1  0.12413617  0.62897038  0.12531762  1
  Co  Co112  1  -0.00065083  -0.00086712  0.75218593  1
  Co  Co113  1  0.37612493  0.87303442  0.62680740  1
  Co  Co114  1  -0.00094717  0.74908941  0.50226088  1
  Co  Co115  1  0.24502641  0.49825680  0.00175904  1
  Co  Co116  1  0.37625115  0.37546905  0.62401615  1
  Co  Co117  1  0.37342659  0.62491461  0.37710428  1
  Co  Co118  1  0.87442569  0.87672708  0.62464835  1
  Co  Co119  1  0.24913614  0.00082972  0.74917856  1
  Co  Co120  1  -0.00175539  0.24885268  0.00174878  1
  Co  Co121  1  0.50282291  -0.00067040  0.74591472  1
  Co  Co122  1  0.75106265  0.50509876  0.49492655  1
  Co  Co123  1  0.50294633  0.50093307  -0.00059573  1
  Co  Co124  1  0.50130565  0.24999651  0.00044335  1
  Co  Co125  1  0.74555819  0.25031604  0.24972686  1
  Co  Co126  1  0.12556637  0.37035408  0.12686822  1
  Co  Co127  1  0.49948690  0.00137206  0.25165397  1
