# generated using pymatgen
data_Fe45Co19
_symmetry_space_group_name_H-M   'P 1'
_cell_length_a   11.41517634
_cell_length_b   11.41548897
_cell_length_c   11.41686077
_cell_angle_alpha   89.99427844
_cell_angle_beta   90.00328918
_cell_angle_gamma   90.01111638
_symmetry_Int_Tables_number   1
_chemical_formula_structural   Fe45Co19
_chemical_formula_sum   'Fe90 Co38'
_cell_volume   1487.72902821
_cell_formula_units_Z   2
loop_
 _symmetry_equiv_pos_site_id
 _symmetry_equiv_pos_as_xyz
  1  'x, y, z'
loop_
 _atom_site_type_symbol
 _atom_site_label
 _atom_site_symmetry_multiplicity
 _atom_site_fract_x
 _atom_site_fract_y
 _atom_site_fract_z
 _atom_site_occupancy
  Fe  Fe0  1  0.12570718  0.62713496  0.62519272  1
  Fe  Fe1  1  0.37566569  0.12477269  0.62653655  1
  Fe  Fe2  1  -0.00391096  0.74850137  0.49715108  1
  Fe  Fe3  1  0.25042989  0.25080660  0.75276348  1
  Fe  Fe4  1  0.62565463  0.87143083  0.62152692  1
  Fe  Fe5  1  -0.00162134  0.74835122  0.25126584  1
  Fe  Fe6  1  0.37655571  0.63096985  0.62707172  1
  Fe  Fe7  1  0.00326020  0.24869623  0.75306364  1
  Fe  Fe8  1  0.24704871  0.49729198  0.25007150  1
  Fe  Fe9  1  0.75100375  0.75084826  0.25385867  1
  Fe  Fe10  1  0.87420014  0.37576897  0.87383636  1
  Fe  Fe11  1  0.62158807  0.87499801  0.87931864  1
  Fe  Fe12  1  0.50030676  0.24895231  0.50133814  1
  Fe  Fe13  1  0.24761585  0.25185568  -0.00395723  1
  Fe  Fe14  1  0.87177205  0.62800825  0.62573367  1
  Fe  Fe15  1  0.75253829  0.00123189  0.00291773  1
  Fe  Fe16  1  0.25008688  0.25020231  0.49921234  1
  Fe  Fe17  1  0.12102466  0.61991243  0.37614730  1
  Fe  Fe18  1  0.24737706  0.25239362  0.25161544  1
  Fe  Fe19  1  -0.00042089  0.24994881  0.49973098  1
  Fe  Fe20  1  0.49899657  0.00217670  0.24527688  1
  Fe  Fe21  1  0.75117293  0.75039826  -0.00196398  1
  Fe  Fe22  1  0.12415545  0.12370048  0.37449997  1
  Fe  Fe23  1  0.37851984  0.37791636  0.87420450  1
  Fe  Fe24  1  0.12546146  0.12661156  0.12326156  1
  Fe  Fe25  1  0.75335278  0.00417132  0.50120698  1
  Fe  Fe26  1  0.49838393  0.50178796  0.50143369  1
  Fe  Fe27  1  0.25243182  0.50079838  0.50094371  1
  Fe  Fe28  1  0.87454005  0.62534570  0.87548616  1
  Fe  Fe29  1  0.74618252  0.24718224  0.74969677  1
  Fe  Fe30  1  -0.00183770  -0.00206296  0.00119150  1
  Fe  Fe31  1  0.74968244  -0.00097599  0.74884352  1
  Fe  Fe32  1  0.12702393  0.37600047  0.62514778  1
  Fe  Fe33  1  0.87553669  0.12305570  0.87452622  1
  Fe  Fe34  1  0.62444479  0.62931949  0.62536129  1
  Fe  Fe35  1  0.25169540  -0.00499438  0.74958457  1
  Fe  Fe36  1  0.62428005  0.37565988  0.37577193  1
  Fe  Fe37  1  0.75383271  0.00150809  0.24700892  1
  Fe  Fe38  1  0.25380441  0.74879408  0.00157934  1
  Fe  Fe39  1  0.62272362  0.12174971  0.87558233  1
  Fe  Fe40  1  0.87325119  0.37241839  0.62673828  1
  Fe  Fe41  1  -0.00296145  0.00010535  0.24787776  1
  Fe  Fe42  1  0.12382408  0.87183963  0.12501558  1
  Fe  Fe43  1  0.00190783  0.25294267  0.25036138  1
  Fe  Fe44  1  0.37492653  0.12557923  0.37252353  1
  Fe  Fe45  1  0.74902784  0.24881802  -0.00128101  1
  Fe  Fe46  1  0.62375576  0.87449422  0.12285618  1
  Fe  Fe47  1  0.37536713  0.12248433  0.87571824  1
  Fe  Fe48  1  0.74985777  0.50037342  0.50157789  1
  Fe  Fe49  1  0.25110518  0.74932041  0.49562180  1
  Fe  Fe50  1  0.62376407  0.62347305  0.37366743  1
  Fe  Fe51  1  0.62206960  0.37452155  0.62632913  1
  Fe  Fe52  1  0.62345701  0.62576886  0.87519378  1
  Fe  Fe53  1  0.62657827  0.12531049  0.37465985  1
  Fe  Fe54  1  0.12236654  0.87592948  0.37562580  1
  Fe  Fe55  1  0.50038520  0.25019716  0.24767462  1
  Fe  Fe56  1  0.87531694  0.37447610  0.12217997  1
  Fe  Fe57  1  0.49859631  -0.00401300  0.74900111  1
  Fe  Fe58  1  0.25359181  -0.00230062  0.00343491  1
  Fe  Fe59  1  0.00358477  0.25093991  -0.00396617  1
  Fe  Fe60  1  0.74805417  0.50128956  0.75109856  1
  Fe  Fe61  1  -0.00267862  0.00124899  0.50082163  1
  Fe  Fe62  1  0.25161873  -0.00098103  0.49917556  1
  Fe  Fe63  1  0.87309178  0.62600188  0.12401060  1
  Fe  Fe64  1  0.12571103  0.12404381  0.62669439  1
  Fe  Fe65  1  0.37334371  0.37567491  0.12411140  1
  Fe  Fe66  1  0.62578601  0.37607541  0.12307831  1
  Fe  Fe67  1  0.50057829  0.24667523  0.00124156  1
  Fe  Fe68  1  0.12647943  0.62379759  0.12340078  1
  Fe  Fe69  1  0.00041484  0.49949760  0.00031532  1
  Fe  Fe70  1  0.12628790  0.87221236  0.62254993  1
  Fe  Fe71  1  0.37622122  0.37622218  0.37527915  1
  Fe  Fe72  1  0.25009667  -0.00097235  0.24789528  1
  Fe  Fe73  1  -0.00012041  -0.00249846  0.75040240  1
  Fe  Fe74  1  0.12661687  0.87398759  0.87741278  1
  Fe  Fe75  1  0.62199206  0.37766461  0.87525132  1
  Fe  Fe76  1  0.75132581  0.25013412  0.24992184  1
  Fe  Fe77  1  0.25251739  0.49989600  0.74884555  1
  Fe  Fe78  1  0.37754106  0.62580786  0.36835952  1
  Fe  Fe79  1  0.37590350  0.87225876  0.37054167  1
  Fe  Fe80  1  0.87711500  0.37849878  0.37672172  1
  Fe  Fe81  1  0.37640106  0.62759963  0.87198198  1
  Fe  Fe82  1  -0.00068287  0.50099956  0.74801941  1
  Fe  Fe83  1  0.49738513  -0.00121410  0.50021994  1
  Fe  Fe84  1  0.00009117  0.75129478  0.75337677  1
  Fe  Fe85  1  0.49899162  0.50605203  0.00573870  1
  Fe  Fe86  1  0.62567261  0.87647647  0.37625289  1
  Fe  Fe87  1  0.87303068  0.87166819  0.62513442  1
  Fe  Fe88  1  0.75023752  0.49900576  0.24857848  1
  Fe  Fe89  1  0.12622111  0.62384870  0.87502980  1
  Co  Co90  1  0.24391517  0.75077031  0.25224867  1
  Co  Co91  1  0.87621047  0.12670160  0.62783821  1
  Co  Co92  1  0.87476718  0.87718613  0.37502626  1
  Co  Co93  1  -0.00248437  0.50014619  0.50619537  1
  Co  Co94  1  0.87383284  0.87610909  0.87571364  1
  Co  Co95  1  0.37698895  0.87041522  0.12837298  1
  Co  Co96  1  0.24873985  0.75249141  0.75175781  1
  Co  Co97  1  0.12730339  0.37575193  0.12134865  1
  Co  Co98  1  0.75103396  0.74787603  0.49470212  1
  Co  Co99  1  0.50048575  0.50260964  0.74853325  1
  Co  Co100  1  0.37396144  0.87056376  0.62331995  1
  Co  Co101  1  0.50197050  0.75454423  0.75061576  1
  Co  Co102  1  0.87490073  0.12609008  0.37390378  1
  Co  Co103  1  0.62705742  0.12563250  0.12612839  1
  Co  Co104  1  0.37602784  0.37368081  0.62596692  1
  Co  Co105  1  0.74960356  0.49972365  -0.00153366  1
  Co  Co106  1  0.74880107  0.75143537  0.75397819  1
  Co  Co107  1  0.87459324  0.87083589  0.12502829  1
  Co  Co108  1  0.49881382  0.74975068  0.49641685  1
  Co  Co109  1  0.37198407  0.62683906  0.13346030  1
  Co  Co110  1  0.50211740  0.49850851  0.24614760  1
  Co  Co111  1  0.37764584  0.87343042  0.87896434  1
  Co  Co112  1  0.62217573  0.12325327  0.62435057  1
  Co  Co113  1  0.50054970  0.24804579  0.75125521  1
  Co  Co114  1  0.63049343  0.62646473  0.12590350  1
  Co  Co115  1  0.00003228  0.74978647  -0.00177665  1
  Co  Co116  1  0.00059622  0.49975557  0.24426792  1
  Co  Co117  1  0.50594776  0.75020989  0.24825091  1
  Co  Co118  1  0.12666316  0.11922448  0.87552072  1
  Co  Co119  1  0.49777985  0.74449778  0.00376957  1
  Co  Co120  1  0.12272780  0.37915272  0.37892144  1
  Co  Co121  1  0.74924811  0.24967785  0.50072051  1
  Co  Co122  1  0.25384287  0.50238359  -0.00089065  1
  Co  Co123  1  0.49661545  0.00241834  0.00498655  1
  Co  Co124  1  0.37114987  0.12892025  0.12523864  1
  Co  Co125  1  0.12562430  0.38166425  0.87268681  1
  Co  Co126  1  0.87709378  0.12874937  0.12337263  1
  Co  Co127  1  0.87590669  0.61953872  0.37397783  1
