# generated using pymatgen
data_Fe45Co19
_symmetry_space_group_name_H-M   'P 1'
_cell_length_a   11.41503878
_cell_length_b   11.41579134
_cell_length_c   11.41509693
_cell_angle_alpha   90.00114549
_cell_angle_beta   89.99838835
_cell_angle_gamma   90.00439465
_symmetry_Int_Tables_number   1
_chemical_formula_structural   Fe45Co19
_chemical_formula_sum   'Fe90 Co38'
_cell_volume   1487.52069202
_cell_formula_units_Z   2
loop_
 _symmetry_equiv_pos_site_id
 _symmetry_equiv_pos_as_xyz
  1  'x, y, z'
loop_
 _atom_site_type_symbol
 _atom_site_label
 _atom_site_symmetry_multiplicity
 _atom_site_fract_x
 _atom_site_fract_y
 _atom_site_fract_z
 _atom_site_occupancy
  Fe  Fe0  1  -0.00143609  0.25192781  0.74912130  1
  Fe  Fe1  1  0.24858235  0.49857820  0.25305742  1
  Fe  Fe2  1  0.75035009  0.75040017  0.75122297  1
  Fe  Fe3  1  0.25172045  0.75246227  0.49594826  1
  Fe  Fe4  1  0.87875589  0.87476664  0.87457442  1
  Fe  Fe5  1  0.49774306  0.74834986  -0.00045916  1
  Fe  Fe6  1  0.12233724  0.62592365  0.37608455  1
  Fe  Fe7  1  0.74802989  0.49947565  -0.00071516  1
  Fe  Fe8  1  0.24861459  0.75207880  0.25170943  1
  Fe  Fe9  1  0.62373320  0.12780913  0.87778212  1
  Fe  Fe10  1  0.00214087  0.74960319  0.74867480  1
  Fe  Fe11  1  0.62613383  0.62699473  0.12399984  1
  Fe  Fe12  1  0.62619586  0.37531102  0.62397333  1
  Fe  Fe13  1  0.12587533  0.62508113  0.62254309  1
  Fe  Fe14  1  0.50278025  0.24530573  0.24769057  1
  Fe  Fe15  1  0.74458333  -0.00394368  0.25052627  1
  Fe  Fe16  1  0.62609533  0.62786416  0.37520951  1
  Fe  Fe17  1  0.24804781  0.75271628  0.75237265  1
  Fe  Fe18  1  0.12423917  0.12303475  0.87602716  1
  Fe  Fe19  1  0.37785527  0.37269827  0.87589336  1
  Fe  Fe20  1  0.62478596  0.37333148  0.12474439  1
  Fe  Fe21  1  0.75091287  -0.00249178  0.00014665  1
  Fe  Fe22  1  0.25333923  0.24870202  0.00025939  1
  Fe  Fe23  1  0.12585641  0.12395751  0.12559440  1
  Fe  Fe24  1  0.74893431  -0.00018733  0.75150617  1
  Fe  Fe25  1  0.25267239  0.25066541  0.49788954  1
  Fe  Fe26  1  0.75131609  0.25230942  -0.00070651  1
  Fe  Fe27  1  0.49913417  0.50080949  0.49843078  1
  Fe  Fe28  1  0.00320280  0.50275251  0.00295109  1
  Fe  Fe29  1  0.62770529  0.12621971  0.62206308  1
  Fe  Fe30  1  0.37305069  0.87607094  0.62473561  1
  Fe  Fe31  1  0.37277146  0.12318787  0.62465605  1
  Fe  Fe32  1  0.87614240  0.62371976  0.87579659  1
  Fe  Fe33  1  0.25127549  0.00006866  -0.00151043  1
  Fe  Fe34  1  0.37279727  0.62525281  0.62450537  1
  Fe  Fe35  1  0.50021440  0.24886294  0.74804274  1
  Fe  Fe36  1  0.12483922  0.12374967  0.62197873  1
  Fe  Fe37  1  -0.00251441  0.25241037  0.49861395  1
  Fe  Fe38  1  0.87644072  0.62420532  0.37223141  1
  Fe  Fe39  1  0.49682412  0.75029023  0.49960904  1
  Fe  Fe40  1  0.62279294  0.37357492  0.37486666  1
  Fe  Fe41  1  0.75266628  0.25250736  0.75179194  1
  Fe  Fe42  1  0.50098328  0.75047337  0.24997627  1
  Fe  Fe43  1  -0.00094372  0.24764230  0.00298916  1
  Fe  Fe44  1  0.25154556  0.49771945  0.49571875  1
  Fe  Fe45  1  0.37545060  0.37598453  0.62385366  1
  Fe  Fe46  1  0.75474055  0.75207678  0.49818140  1
  Fe  Fe47  1  -0.00017286  0.49837412  0.74808936  1
  Fe  Fe48  1  0.24955596  0.49831853  0.75132600  1
  Fe  Fe49  1  0.87567316  0.37623520  0.12763799  1
  Fe  Fe50  1  0.87462655  0.62254032  0.62353244  1
  Fe  Fe51  1  0.50104685  0.50255448  0.25063590  1
  Fe  Fe52  1  0.24716859  -0.00124142  0.25474231  1
  Fe  Fe53  1  0.12544561  0.37458962  0.12588019  1
  Fe  Fe54  1  0.50553033  0.00140760  0.24953236  1
  Fe  Fe55  1  0.87707568  0.87452764  0.12890299  1
  Fe  Fe56  1  0.12572397  0.87632164  0.62127676  1
  Fe  Fe57  1  0.87237377  0.12410466  0.12863388  1
  Fe  Fe58  1  0.87383425  0.12303456  0.37152721  1
  Fe  Fe59  1  0.49999195  0.50082633  -0.00114260  1
  Fe  Fe60  1  -0.00338210  -0.00401267  0.49791458  1
  Fe  Fe61  1  0.12245402  0.12561543  0.37654368  1
  Fe  Fe62  1  0.75093175  0.75085351  0.00112479  1
  Fe  Fe63  1  0.50095220  0.00022567  0.74872937  1
  Fe  Fe64  1  0.50036036  -0.00017734  0.49915704  1
  Fe  Fe65  1  0.62572001  0.87264777  0.62466898  1
  Fe  Fe66  1  0.87737504  0.37972563  0.37245897  1
  Fe  Fe67  1  0.24918882  0.24851183  0.75009153  1
  Fe  Fe68  1  0.37503055  0.87621533  0.12746940  1
  Fe  Fe69  1  0.62619714  0.62668703  0.62503668  1
  Fe  Fe70  1  0.00411473  0.74788018  0.00196322  1
  Fe  Fe71  1  0.24810289  0.25004310  0.25268066  1
  Fe  Fe72  1  0.12490224  0.37470083  0.62179096  1
  Fe  Fe73  1  0.50134779  0.50347716  0.75155073  1
  Fe  Fe74  1  0.75149336  0.25172689  0.49741948  1
  Fe  Fe75  1  0.75190508  -0.00377714  0.49829116  1
  Fe  Fe76  1  0.87391766  0.62492638  0.12893123  1
  Fe  Fe77  1  0.12319767  0.37556772  0.87665857  1
  Fe  Fe78  1  0.12379685  0.87645857  0.12501962  1
  Fe  Fe79  1  0.74974837  0.49777949  0.75250586  1
  Fe  Fe80  1  0.49875635  0.00467627  0.00317445  1
  Fe  Fe81  1  0.37507467  0.37479735  0.12766804  1
  Fe  Fe82  1  0.37042747  0.62567998  0.87650332  1
  Fe  Fe83  1  0.87452161  0.12480750  0.62510504  1
  Fe  Fe84  1  0.37702558  0.12470033  0.37437974  1
  Fe  Fe85  1  0.87657808  0.12449003  0.87513888  1
  Fe  Fe86  1  0.37030731  0.62495395  0.12474085  1
  Fe  Fe87  1  0.37553984  0.87634757  0.87411501  1
  Fe  Fe88  1  0.00116091  -0.00059375  0.74889626  1
  Fe  Fe89  1  0.62281774  0.87287733  0.87659663  1
  Co  Co90  1  0.87688223  0.87358796  0.36788337  1
  Co  Co91  1  -0.00457169  0.75175172  0.50091061  1
  Co  Co92  1  -0.00203634  0.00129430  0.00301573  1
  Co  Co93  1  0.00227633  0.00172998  0.25041467  1
  Co  Co94  1  0.25072318  0.00023287  0.49600407  1
  Co  Co95  1  -0.00064701  0.24947477  0.24950965  1
  Co  Co96  1  0.00341710  0.50149594  0.24749886  1
  Co  Co97  1  0.37563396  0.12525437  0.87270682  1
  Co  Co98  1  0.74767311  0.75088007  0.24907709  1
  Co  Co99  1  0.63094683  0.12659854  0.12270468  1
  Co  Co100  1  0.87833378  0.37692795  0.87830129  1
  Co  Co101  1  0.37457849  0.62583735  0.37293204  1
  Co  Co102  1  0.37781559  0.87692491  0.37234190  1
  Co  Co103  1  0.62695441  0.62726027  0.87580813  1
  Co  Co104  1  0.13173024  0.62460365  0.12514502  1
  Co  Co105  1  0.37121196  0.12290392  0.13030848  1
  Co  Co106  1  0.62267586  0.87317481  0.12190074  1
  Co  Co107  1  0.12149251  0.87760766  0.87655835  1
  Co  Co108  1  0.87317469  0.37593887  0.62273097  1
  Co  Co109  1  0.12136834  0.87304738  0.37671805  1
  Co  Co110  1  0.62230274  0.37264409  0.87618933  1
  Co  Co111  1  0.12614695  0.62310923  0.87459653  1
  Co  Co112  1  0.62632853  0.12563878  0.37773690  1
  Co  Co113  1  0.75041214  0.25242348  0.25220698  1
  Co  Co114  1  0.74714609  0.50072104  0.24996211  1
  Co  Co115  1  0.87420573  0.87601158  0.62865745  1
  Co  Co116  1  0.12249025  0.37479755  0.37562937  1
  Co  Co117  1  0.49654632  0.24649304  0.00491285  1
  Co  Co118  1  0.49862746  0.24961699  0.50155476  1
  Co  Co119  1  0.24812466  0.75381627  -0.00076178  1
  Co  Co120  1  0.00047180  0.50027489  0.50092234  1
  Co  Co121  1  0.24830307  0.00002147  0.75057859  1
  Co  Co122  1  0.25068757  0.49666277  -0.00023447  1
  Co  Co123  1  0.49765664  0.74854422  0.74998162  1
  Co  Co124  1  0.00337794  0.74751665  0.24769579  1
  Co  Co125  1  0.37853720  0.37277993  0.37207232  1
  Co  Co126  1  0.62401835  0.87220746  0.37745157  1
  Co  Co127  1  0.74823108  0.50048459  0.49732505  1
