# generated using pymatgen
data_Fe45Co19
_symmetry_space_group_name_H-M   'P 1'
_cell_length_a   11.41579167
_cell_length_b   11.41482924
_cell_length_c   11.41544312
_cell_angle_alpha   89.99848534
_cell_angle_beta   90.00141193
_cell_angle_gamma   89.99834235
_symmetry_Int_Tables_number   1
_chemical_formula_structural   Fe45Co19
_chemical_formula_sum   'Fe90 Co38'
_cell_volume   1487.53854433
_cell_formula_units_Z   2
loop_
 _symmetry_equiv_pos_site_id
 _symmetry_equiv_pos_as_xyz
  1  'x, y, z'
loop_
 _atom_site_type_symbol
 _atom_site_label
 _atom_site_symmetry_multiplicity
 _atom_site_fract_x
 _atom_site_fract_y
 _atom_site_fract_z
 _atom_site_occupancy
  Fe  Fe0  1  0.74886663  0.49940298  0.74841354  1
  Fe  Fe1  1  0.00179219  0.74783969  -0.00014544  1
  Fe  Fe2  1  0.37438340  0.87510743  0.12515670  1
  Fe  Fe3  1  0.24756330  0.24954074  0.00137940  1
  Fe  Fe4  1  0.49948076  0.00264021  0.25097862  1
  Fe  Fe5  1  0.50150558  -0.00085178  0.49860564  1
  Fe  Fe6  1  0.87718357  0.87637571  0.12653595  1
  Fe  Fe7  1  0.87431488  0.62301888  0.62153824  1
  Fe  Fe8  1  0.24863827  0.75309447  0.49966889  1
  Fe  Fe9  1  0.74868384  0.25102444  0.00206449  1
  Fe  Fe10  1  0.37656744  0.37747641  0.12628445  1
  Fe  Fe11  1  0.24533405  0.74937287  -0.00015369  1
  Fe  Fe12  1  0.12355270  0.87659767  0.12808389  1
  Fe  Fe13  1  0.87456133  0.12139189  0.62138135  1
  Fe  Fe14  1  -0.00175744  0.24616182  0.74818509  1
  Fe  Fe15  1  0.24542688  0.49740486  0.50004030  1
  Fe  Fe16  1  0.12105590  0.37724539  0.12611604  1
  Fe  Fe17  1  0.25084648  0.75112033  0.74901693  1
  Fe  Fe18  1  0.87522241  0.87333535  0.37547497  1
  Fe  Fe19  1  0.62450148  0.87242872  0.37264550  1
  Fe  Fe20  1  0.00144864  0.75343452  0.50337159  1
  Fe  Fe21  1  0.75100228  0.49906949  -0.00081870  1
  Fe  Fe22  1  0.62496320  0.12741843  0.62535584  1
  Fe  Fe23  1  0.37439910  0.12431800  0.12519662  1
  Fe  Fe24  1  0.00047470  0.49949985  0.74959399  1
  Fe  Fe25  1  0.37458323  0.12707275  0.87690873  1
  Fe  Fe26  1  0.50230789  0.00020041  -0.00023997  1
  Fe  Fe27  1  0.62744133  0.62506736  0.37467196  1
  Fe  Fe28  1  0.00207071  0.24730672  0.00060161  1
  Fe  Fe29  1  0.24623104  0.50138323  -0.00314524  1
  Fe  Fe30  1  0.62713964  0.62569296  0.12298025  1
  Fe  Fe31  1  0.62794332  0.12738622  0.87401967  1
  Fe  Fe32  1  0.12397057  0.87713167  0.87025386  1
  Fe  Fe33  1  0.87735397  0.62308582  0.12345880  1
  Fe  Fe34  1  0.24702062  -0.00477785  0.49594486  1
  Fe  Fe35  1  0.87843916  0.37484666  0.37779237  1
  Fe  Fe36  1  0.49812951  0.25080031  0.74954774  1
  Fe  Fe37  1  0.62451280  0.62176484  0.62506561  1
  Fe  Fe38  1  0.75183658  0.00060539  0.75066754  1
  Fe  Fe39  1  -0.00214319  0.75289310  0.74629076  1
  Fe  Fe40  1  0.75366325  0.24981598  0.24842242  1
  Fe  Fe41  1  0.12406698  0.37342209  0.87335036  1
  Fe  Fe42  1  0.49943690  0.50192124  -0.00361674  1
  Fe  Fe43  1  0.37681757  0.37763895  0.62492749  1
  Fe  Fe44  1  0.37552839  0.87286917  0.87628520  1
  Fe  Fe45  1  0.50015065  0.25389855  0.49505486  1
  Fe  Fe46  1  0.12221638  0.62633880  0.37569258  1
  Fe  Fe47  1  0.75423535  0.50226071  0.25272232  1
  Fe  Fe48  1  0.37523263  0.12339771  0.62098579  1
  Fe  Fe49  1  0.37394651  0.62326179  0.37699892  1
  Fe  Fe50  1  0.24823613  0.00102872  0.25436614  1
  Fe  Fe51  1  0.50088316  0.74673050  0.75162610  1
  Fe  Fe52  1  0.62536011  0.37473754  0.87189660  1
  Fe  Fe53  1  0.75016026  0.74993876  0.50051476  1
  Fe  Fe54  1  0.25123720  0.24900946  0.74796556  1
  Fe  Fe55  1  0.24706124  0.50049180  0.25123652  1
  Fe  Fe56  1  0.00197254  0.00302194  -0.00316959  1
  Fe  Fe57  1  0.37556166  0.87506417  0.62398889  1
  Fe  Fe58  1  0.12435367  0.11900357  0.62561448  1
  Fe  Fe59  1  0.62609356  0.12853110  0.37265640  1
  Fe  Fe60  1  0.87442037  0.62500362  0.87447237  1
  Fe  Fe61  1  0.74840037  0.25404995  0.50166747  1
  Fe  Fe62  1  0.25073454  0.24943483  0.25015851  1
  Fe  Fe63  1  0.75107917  0.00062156  0.25083309  1
  Fe  Fe64  1  0.87581894  0.37679732  0.62300917  1
  Fe  Fe65  1  0.87488319  0.12403943  0.12298358  1
  Fe  Fe66  1  0.12057974  0.37189554  0.37501934  1
  Fe  Fe67  1  0.87911783  0.37702186  0.12400126  1
  Fe  Fe68  1  0.62701070  0.87392611  0.62661640  1
  Fe  Fe69  1  0.62608308  0.87246422  0.12541524  1
  Fe  Fe70  1  0.74847402  -0.00062806  0.49735502  1
  Fe  Fe71  1  0.62256243  0.37629988  0.13023992  1
  Fe  Fe72  1  0.74934031  -0.00058981  0.00058944  1
  Fe  Fe73  1  0.24771617  0.00091581  -0.00180644  1
  Fe  Fe74  1  0.24917966  0.25280874  0.50170118  1
  Fe  Fe75  1  0.37565942  0.62249825  0.62390054  1
  Fe  Fe76  1  0.25054299  0.74953752  0.25078472  1
  Fe  Fe77  1  0.12560735  0.62438068  0.62707728  1
  Fe  Fe78  1  0.49994392  0.75022701  0.49966646  1
  Fe  Fe79  1  -0.00203308  0.74575640  0.24915187  1
  Fe  Fe80  1  0.49853256  0.74723381  0.24905467  1
  Fe  Fe81  1  0.49936651  0.00006482  0.75059370  1
  Fe  Fe82  1  0.87583371  0.37327571  0.87536631  1
  Fe  Fe83  1  0.25221794  0.49897999  0.75225647  1
  Fe  Fe84  1  0.50177907  0.24977386  0.00243553  1
  Fe  Fe85  1  0.00091406  0.00657735  0.25586004  1
  Fe  Fe86  1  0.62819811  0.87011478  0.87536116  1
  Fe  Fe87  1  0.50306694  0.49604049  0.49636137  1
  Fe  Fe88  1  0.87370046  0.87337295  0.87452754  1
  Fe  Fe89  1  0.37262372  0.62430391  0.12263767  1
  Co  Co90  1  0.50013158  0.74912247  0.00086246  1
  Co  Co91  1  0.37251820  0.62765322  0.87645674  1
  Co  Co92  1  0.74770229  0.49693778  0.49907375  1
  Co  Co93  1  0.00191406  0.50183578  -0.00241391  1
  Co  Co94  1  0.49835573  0.50121052  0.75416448  1
  Co  Co95  1  0.62714787  0.37374711  0.36852305  1
  Co  Co96  1  0.12602971  0.12499623  0.87104568  1
  Co  Co97  1  0.25573415  0.00079737  0.75113671  1
  Co  Co98  1  0.62614555  0.12578870  0.12724227  1
  Co  Co99  1  0.12560881  0.87972548  0.62883570  1
  Co  Co100  1  0.37784190  0.87438323  0.37423478  1
  Co  Co101  1  0.00177848  -0.00221365  0.49620047  1
  Co  Co102  1  -0.00147754  0.50110453  0.25284346  1
  Co  Co103  1  0.12368753  0.62592509  0.87004648  1
  Co  Co104  1  0.87233631  0.12749582  0.87789070  1
  Co  Co105  1  0.12140049  0.87107490  0.37090548  1
  Co  Co106  1  0.37396374  0.37227692  0.87692133  1
  Co  Co107  1  0.62910608  0.62605002  0.87632687  1
  Co  Co108  1  0.62269999  0.37518845  0.62827690  1
  Co  Co109  1  -0.00154405  0.24744226  0.24786441  1
  Co  Co110  1  0.00092142  0.24958459  0.50542085  1
  Co  Co111  1  0.87695686  0.62547694  0.38089440  1
  Co  Co112  1  0.00389676  0.49973969  0.50098106  1
  Co  Co113  1  0.49980516  0.50407974  0.25123648  1
  Co  Co114  1  0.12420952  0.37562849  0.62886878  1
  Co  Co115  1  0.75272393  0.74828345  0.24936811  1
  Co  Co116  1  0.75435485  0.75001450  0.00292425  1
  Co  Co117  1  0.12553002  0.12353867  0.12656318  1
  Co  Co118  1  0.87389595  0.12857756  0.37891053  1
  Co  Co119  1  0.12531418  0.13043887  0.37875745  1
  Co  Co120  1  0.12414501  0.62390643  0.12651501  1
  Co  Co121  1  0.75311105  0.25043561  0.74696739  1
  Co  Co122  1  0.75143753  0.74780506  0.74662005  1
  Co  Co123  1  0.87223729  0.87812697  0.62207552  1
  Co  Co124  1  -0.00562635  0.00084032  0.75126507  1
  Co  Co125  1  0.49575169  0.24834079  0.25143346  1
  Co  Co126  1  0.37297875  0.12467491  0.37798700  1
  Co  Co127  1  0.37285840  0.37745614  0.37317492  1
