# generated using pymatgen
data_Fe45Co19
_symmetry_space_group_name_H-M   'P 1'
_cell_length_a   11.40798376
_cell_length_b   11.40862371
_cell_length_c   11.40560207
_cell_angle_alpha   90.00305763
_cell_angle_beta   90.00214145
_cell_angle_gamma   90.00125693
_symmetry_Int_Tables_number   1
_chemical_formula_structural   Fe45Co19
_chemical_formula_sum   'Fe90 Co38'
_cell_volume   1484.43219434
_cell_formula_units_Z   2
loop_
 _symmetry_equiv_pos_site_id
 _symmetry_equiv_pos_as_xyz
  1  'x, y, z'
loop_
 _atom_site_type_symbol
 _atom_site_label
 _atom_site_symmetry_multiplicity
 _atom_site_fract_x
 _atom_site_fract_y
 _atom_site_fract_z
 _atom_site_occupancy
  Fe  Fe0  1  0.49896559  0.50233225  0.50406864  1
  Fe  Fe1  1  0.37492788  0.12237978  0.87018513  1
  Fe  Fe2  1  0.37541245  0.37945928  0.37552004  1
  Fe  Fe3  1  0.62574273  0.37807766  0.87581148  1
  Fe  Fe4  1  0.49971358  0.00093346  0.00098172  1
  Fe  Fe5  1  0.37591893  0.62853527  0.12581736  1
  Fe  Fe6  1  0.87505310  0.87659058  0.37586030  1
  Fe  Fe7  1  0.37492068  0.63176836  0.62965316  1
  Fe  Fe8  1  0.37815432  0.12234999  0.38009403  1
  Fe  Fe9  1  0.87411937  0.62218537  0.87368860  1
  Fe  Fe10  1  0.87510210  0.37278564  0.12309711  1
  Fe  Fe11  1  0.49856397  0.75073053  -0.00403586  1
  Fe  Fe12  1  0.62506056  0.12598615  0.12535375  1
  Fe  Fe13  1  0.25349397  0.75192679  0.25484264  1
  Fe  Fe14  1  0.12838299  0.87698447  0.37948789  1
  Fe  Fe15  1  0.74946015  0.75138196  0.25211223  1
  Fe  Fe16  1  0.12484454  0.62958551  0.62657443  1
  Fe  Fe17  1  0.49671525  0.75269524  0.25534414  1
  Fe  Fe18  1  0.74782290  0.50101524  0.00579629  1
  Fe  Fe19  1  0.37438965  0.12626305  0.12475720  1
  Fe  Fe20  1  0.12509968  0.62240421  0.37501959  1
  Fe  Fe21  1  0.87868117  0.88001623  0.87490748  1
  Fe  Fe22  1  0.25083306  0.24926075  0.49898783  1
  Fe  Fe23  1  0.87544009  0.62257871  0.37297027  1
  Fe  Fe24  1  0.24683469  0.24962398  0.75139530  1
  Fe  Fe25  1  0.62581583  0.37841436  0.37421013  1
  Fe  Fe26  1  0.00008572  0.25154048  0.49907839  1
  Fe  Fe27  1  0.62611387  0.62185615  0.87357708  1
  Fe  Fe28  1  0.00059486  0.75234676  -0.00270925  1
  Fe  Fe29  1  0.24924891  0.25074589  0.25236213  1
  Fe  Fe30  1  0.49728421  -0.00215469  0.74303425  1
  Fe  Fe31  1  0.62325076  0.87662846  0.37956403  1
  Fe  Fe32  1  0.50103569  0.25300443  0.75193763  1
  Fe  Fe33  1  0.00145249  0.49797302  0.24571675  1
  Fe  Fe34  1  0.24784423  0.49760831  0.24430725  1
  Fe  Fe35  1  0.87399418  0.62824705  0.62815102  1
  Fe  Fe36  1  0.62384056  0.87278759  0.12383681  1
  Fe  Fe37  1  0.12437458  0.37866453  0.37851570  1
  Fe  Fe38  1  0.50019172  0.24981373  0.25349544  1
  Fe  Fe39  1  0.62607363  0.62956352  0.62771337  1
  Fe  Fe40  1  0.12310458  0.11915630  0.87234544  1
  Fe  Fe41  1  0.50356094  0.49906030  0.24417692  1
  Fe  Fe42  1  0.12644011  0.37883828  0.88126757  1
  Fe  Fe43  1  0.00119192  -0.00160709  0.24734705  1
  Fe  Fe44  1  0.87704971  0.11964698  0.87520949  1
  Fe  Fe45  1  0.12543827  0.12170588  0.37826984  1
  Fe  Fe46  1  0.49973303  0.24797915  -0.00319858  1
  Fe  Fe47  1  0.62168646  0.12823157  0.62358161  1
  Fe  Fe48  1  0.00001303  0.74921525  0.49787369  1
  Fe  Fe49  1  0.87583957  0.12853210  0.62544482  1
  Fe  Fe50  1  0.49859881  -0.00188840  0.25018672  1
  Fe  Fe51  1  0.25203740  -0.00056887  0.24986655  1
  Fe  Fe52  1  0.25371925  -0.00098360  0.51211445  1
  Fe  Fe53  1  0.37272759  0.37842084  0.87535281  1
  Fe  Fe54  1  0.25005254  0.75016400  -0.00454412  1
  Fe  Fe55  1  0.24934915  0.00060157  0.00025497  1
  Fe  Fe56  1  0.12771240  0.87316397  0.12374873  1
  Fe  Fe57  1  0.75220203  0.50169763  0.50288387  1
  Fe  Fe58  1  0.87566458  0.37860353  0.37585003  1
  Fe  Fe59  1  0.12574862  0.12832545  0.12370298  1
  Fe  Fe60  1  0.87519609  0.87036716  0.62657753  1
  Fe  Fe61  1  0.62212687  0.86761536  0.62227294  1
  Fe  Fe62  1  0.00085952  0.75253730  0.25114729  1
  Fe  Fe63  1  0.62572320  0.62273148  0.37357230  1
  Fe  Fe64  1  0.12528589  0.62676214  0.12386898  1
  Fe  Fe65  1  0.00143545  0.25278612  0.75137740  1
  Fe  Fe66  1  0.87572936  0.12276959  0.37528763  1
  Fe  Fe67  1  0.37332959  0.37340930  0.62646060  1
  Fe  Fe68  1  0.62488733  0.87926849  0.87414347  1
  Fe  Fe69  1  0.37333373  0.37121310  0.12227178  1
  Fe  Fe70  1  0.12432212  0.62093209  0.87521441  1
  Fe  Fe71  1  0.75068003  0.75246171  -0.00299998  1
  Fe  Fe72  1  0.87434573  0.37740520  0.87620562  1
  Fe  Fe73  1  0.74898954  0.24610212  -0.00296203  1
  Fe  Fe74  1  0.37201588  0.87772971  0.87073047  1
  Fe  Fe75  1  0.87529429  0.12370692  0.12353858  1
  Fe  Fe76  1  0.74915340  -0.00027101  0.74693282  1
  Fe  Fe77  1  0.62730601  0.37536234  0.62543940  1
  Fe  Fe78  1  0.00206368  0.25127623  0.25033787  1
  Fe  Fe79  1  0.87405336  0.62823935  0.12600354  1
  Fe  Fe80  1  0.74917315  -0.00098558  0.24879074  1
  Fe  Fe81  1  0.25085520  0.50329896  0.50389523  1
  Fe  Fe82  1  0.37456721  0.62158256  0.87191285  1
  Fe  Fe83  1  0.74970008  0.24991281  0.75260340  1
  Fe  Fe84  1  0.50083928  0.50046365  0.00350746  1
  Fe  Fe85  1  0.74859432  0.00071670  0.50192329  1
  Fe  Fe86  1  0.74943563  0.24973869  0.25250384  1
  Fe  Fe87  1  0.00089808  -0.00090275  0.50540919  1
  Fe  Fe88  1  0.00056497  0.49719661  0.74603635  1
  Fe  Fe89  1  0.74835625  0.24936234  0.49704266  1
  Co  Co90  1  0.87378514  0.87327869  0.12448025  1
  Co  Co91  1  0.75136757  0.74843301  0.49701549  1
  Co  Co92  1  0.25253580  0.74702395  0.49566177  1
  Co  Co93  1  0.62402903  0.63235294  0.12505270  1
  Co  Co94  1  0.12611230  0.37143430  0.11900274  1
  Co  Co95  1  0.12274982  0.12964503  0.62524087  1
  Co  Co96  1  0.74897166  0.49960754  0.24519974  1
  Co  Co97  1  0.74832325  0.00035094  0.00123073  1
  Co  Co98  1  0.75069662  0.49944831  0.74761517  1
  Co  Co99  1  0.62292981  0.12127597  0.87175972  1
  Co  Co100  1  0.49664028  0.74468088  0.49375176  1
  Co  Co101  1  0.12413613  0.88140703  0.87199715  1
  Co  Co102  1  0.50132228  0.25405258  0.49686772  1
  Co  Co103  1  0.50010899  0.49983124  0.74767750  1
  Co  Co104  1  0.12540721  0.86785500  0.62556425  1
  Co  Co105  1  -0.00049641  0.24770636  -0.00279560  1
  Co  Co106  1  0.00227108  -0.00115936  0.00538994  1
  Co  Co107  1  0.74999173  0.75266013  0.75491681  1
  Co  Co108  1  0.37444834  0.87347287  0.12245048  1
  Co  Co109  1  0.87413441  0.37186458  0.62446687  1
  Co  Co110  1  0.37608758  0.86361023  0.62618107  1
  Co  Co111  1  0.37876760  0.13302635  0.62561131  1
  Co  Co112  1  0.12602956  0.37328316  0.62230984  1
  Co  Co113  1  0.00123941  -0.00055186  0.74286896  1
  Co  Co114  1  0.25292587  0.50291932  0.00397294  1
  Co  Co115  1  0.25128899  -0.00031368  0.74037372  1
  Co  Co116  1  0.24676515  0.75084643  0.75612182  1
  Co  Co117  1  0.25071466  0.24563385  -0.00412835  1
  Co  Co118  1  0.49795012  -0.00123704  0.50650559  1
  Co  Co119  1  0.37348797  0.88012589  0.38059377  1
  Co  Co120  1  0.50286318  0.74949819  0.75575388  1
  Co  Co121  1  -0.00148614  0.50203753  0.50441122  1
  Co  Co122  1  -0.00175811  0.50156675  0.00336322  1
  Co  Co123  1  0.37430573  0.61797483  0.37049020  1
  Co  Co124  1  -0.00028229  0.74952575  0.75462906  1
  Co  Co125  1  0.62272759  0.12172726  0.37610844  1
  Co  Co126  1  0.62529178  0.36898262  0.12295255  1
  Co  Co127  1  0.24777641  0.50014883  0.74747275  1
