# generated using pymatgen
data_Fe45Co19
_symmetry_space_group_name_H-M   'P 1'
_cell_length_a   11.40721482
_cell_length_b   11.40804347
_cell_length_c   11.40656068
_cell_angle_alpha   90.00216677
_cell_angle_beta   89.99565682
_cell_angle_gamma   89.99799532
_symmetry_Int_Tables_number   1
_chemical_formula_structural   Fe45Co19
_chemical_formula_sum   'Fe90 Co38'
_cell_volume   1484.38138995
_cell_formula_units_Z   2
loop_
 _symmetry_equiv_pos_site_id
 _symmetry_equiv_pos_as_xyz
  1  'x, y, z'
loop_
 _atom_site_type_symbol
 _atom_site_label
 _atom_site_symmetry_multiplicity
 _atom_site_fract_x
 _atom_site_fract_y
 _atom_site_fract_z
 _atom_site_occupancy
  Fe  Fe0  1  0.74849087  0.74839153  0.24999937  1
  Fe  Fe1  1  0.74110326  0.25177907  0.00005921  1
  Fe  Fe2  1  -0.00104822  0.00268914  0.75099916  1
  Fe  Fe3  1  0.12173623  0.12545272  0.12629443  1
  Fe  Fe4  1  0.62069289  0.62255732  0.87637673  1
  Fe  Fe5  1  0.12195134  0.62449411  0.87900347  1
  Fe  Fe6  1  0.12999161  0.37768910  0.62595900  1
  Fe  Fe7  1  0.12203132  0.87837054  0.37219464  1
  Fe  Fe8  1  0.62678628  0.87732495  0.12610959  1
  Fe  Fe9  1  0.24939378  0.24874842  0.75273420  1
  Fe  Fe10  1  0.24961916  0.74692731  0.75132011  1
  Fe  Fe11  1  0.62627840  0.12499215  0.62651799  1
  Fe  Fe12  1  0.88347639  0.12714424  0.37823035  1
  Fe  Fe13  1  0.24925957  0.00471428  0.25114797  1
  Fe  Fe14  1  0.75491216  0.00442027  0.25196147  1
  Fe  Fe15  1  0.62618725  0.87689184  0.37455355  1
  Fe  Fe16  1  0.75283363  0.00147079  0.50096257  1
  Fe  Fe17  1  0.00149114  0.25313039  0.74943616  1
  Fe  Fe18  1  0.25095488  0.24875342  0.00282468  1
  Fe  Fe19  1  0.87717570  0.12982554  0.87841021  1
  Fe  Fe20  1  0.62920302  0.87804571  0.63182419  1
  Fe  Fe21  1  0.37451985  0.87630163  0.12348262  1
  Fe  Fe22  1  0.00077894  0.49667099  0.24626630  1
  Fe  Fe23  1  0.37815486  0.12880780  0.37498650  1
  Fe  Fe24  1  0.74672712  0.74973944  -0.00179621  1
  Fe  Fe25  1  0.12530267  0.62367347  0.37393558  1
  Fe  Fe26  1  -0.00023696  0.75093054  0.24731919  1
  Fe  Fe27  1  0.49595168  0.50136388  0.25256641  1
  Fe  Fe28  1  0.74838499  0.49993913  0.25275494  1
  Fe  Fe29  1  0.00079503  0.74590125  0.74840396  1
  Fe  Fe30  1  0.87263158  0.87374418  0.62811113  1
  Fe  Fe31  1  0.24818277  0.75281539  -0.00134400  1
  Fe  Fe32  1  0.50014590  0.25118252  0.74567185  1
  Fe  Fe33  1  0.49857782  0.49670025  0.74572641  1
  Fe  Fe34  1  0.87206588  0.37481486  0.62323339  1
  Fe  Fe35  1  0.12376370  0.12552843  0.62260524  1
  Fe  Fe36  1  0.37579318  0.87399057  0.37486886  1
  Fe  Fe37  1  0.74776256  0.49703960  -0.00226480  1
  Fe  Fe38  1  0.24849159  0.00262422  0.75456598  1
  Fe  Fe39  1  0.25495051  0.49810300  0.49395551  1
  Fe  Fe40  1  0.25206881  0.49927583  0.00252943  1
  Fe  Fe41  1  0.24527224  -0.00088485  -0.00264136  1
  Fe  Fe42  1  0.74884981  0.00144761  -0.00550016  1
  Fe  Fe43  1  0.74665978  0.49897194  0.49767722  1
  Fe  Fe44  1  0.62328222  0.62316835  0.62439093  1
  Fe  Fe45  1  0.87494457  0.62393781  0.12329693  1
  Fe  Fe46  1  0.25010748  0.25022903  0.49755683  1
  Fe  Fe47  1  0.50105263  0.75297490  0.50160008  1
  Fe  Fe48  1  0.74883464  0.25087001  0.75228498  1
  Fe  Fe49  1  0.74942810  0.49876063  0.75237894  1
  Fe  Fe50  1  0.74909610  0.24683897  0.24935400  1
  Fe  Fe51  1  0.87331302  0.87214397  0.87178604  1
  Fe  Fe52  1  0.37834352  0.62978835  0.12401002  1
  Fe  Fe53  1  0.87489445  0.37310438  0.37541220  1
  Fe  Fe54  1  0.49863088  0.00084172  0.24932235  1
  Fe  Fe55  1  0.87658211  0.87441578  0.37528820  1
  Fe  Fe56  1  0.62224136  0.12604597  0.37658946  1
  Fe  Fe57  1  0.00240237  0.75041062  0.50236512  1
  Fe  Fe58  1  0.74915812  0.75000697  0.50066327  1
  Fe  Fe59  1  0.37895991  0.37238922  0.87726518  1
  Fe  Fe60  1  0.12586309  0.37591682  0.87808256  1
  Fe  Fe61  1  0.12595597  0.87592053  0.62816044  1
  Fe  Fe62  1  0.87053758  0.37450501  0.12411268  1
  Fe  Fe63  1  0.62038511  0.62620585  0.37588658  1
  Fe  Fe64  1  0.00142755  -0.00429539  0.00021109  1
  Fe  Fe65  1  0.50359864  -0.00349646  -0.00563572  1
  Fe  Fe66  1  0.87670982  0.62493799  0.37548373  1
  Fe  Fe67  1  0.61869365  0.37071774  0.37620796  1
  Fe  Fe68  1  0.00164567  0.25543048  0.00389482  1
  Fe  Fe69  1  0.37912486  0.62602242  0.87867025  1
  Fe  Fe70  1  0.87544052  0.62183399  0.62228806  1
  Fe  Fe71  1  0.87772670  0.62386372  0.87863376  1
  Fe  Fe72  1  0.24785042  0.75045736  0.49987483  1
  Fe  Fe73  1  0.37499529  0.37221424  0.12952832  1
  Fe  Fe74  1  0.25089218  0.74915830  0.25045347  1
  Fe  Fe75  1  0.37279654  0.87638078  0.62752218  1
  Fe  Fe76  1  0.49945634  0.00013598  0.50307286  1
  Fe  Fe77  1  0.12983718  0.37154770  0.36618435  1
  Fe  Fe78  1  0.24795719  0.00151768  0.49726922  1
  Fe  Fe79  1  0.25178893  0.50198412  0.75383951  1
  Fe  Fe80  1  0.87283899  0.87532950  0.12494330  1
  Fe  Fe81  1  0.49975830  0.75327196  0.75291020  1
  Fe  Fe82  1  0.37475044  0.62454884  0.62225809  1
  Fe  Fe83  1  0.37891302  0.12608087  0.87782081  1
  Fe  Fe84  1  0.00323107  0.49607691  0.49866827  1
  Fe  Fe85  1  0.37278370  0.12427821  0.62595843  1
  Fe  Fe86  1  0.12382403  0.62486026  0.12309952  1
  Fe  Fe87  1  -0.00028270  0.49834315  0.75156840  1
  Fe  Fe88  1  0.87821384  0.12970970  0.62111831  1
  Fe  Fe89  1  0.62207519  0.62365478  0.12440758  1
  Co  Co90  1  0.37153282  0.87653275  0.87532691  1
  Co  Co91  1  -0.00012954  0.75456344  0.00168284  1
  Co  Co92  1  0.61958592  0.37606986  0.87376515  1
  Co  Co93  1  0.75057936  0.74271645  0.75094140  1
  Co  Co94  1  0.50383777  0.75679178  -0.00223693  1
  Co  Co95  1  0.12352133  0.87262154  0.87010164  1
  Co  Co96  1  0.62491750  0.37926971  0.12942738  1
  Co  Co97  1  0.50119799  0.75245289  0.24849526  1
  Co  Co98  1  0.49727191  -0.00065803  0.75122855  1
  Co  Co99  1  0.12158003  0.12801597  0.87760752  1
  Co  Co100  1  0.00021265  0.49531046  0.00277284  1
  Co  Co101  1  0.50138678  0.24487366  0.24273999  1
  Co  Co102  1  0.50397474  0.25035589  0.00629585  1
  Co  Co103  1  0.37695559  0.36866675  0.36966058  1
  Co  Co104  1  0.63083170  0.87662454  0.86744857  1
  Co  Co105  1  0.36965401  0.37557956  0.62602945  1
  Co  Co106  1  0.62137716  0.12664623  0.87244515  1
  Co  Co107  1  0.87422753  0.12680350  0.11918944  1
  Co  Co108  1  0.25420503  0.50419045  0.24851193  1
  Co  Co109  1  0.25197365  0.24140000  0.24734802  1
  Co  Co110  1  0.75626075  0.00811164  0.75107020  1
  Co  Co111  1  0.49695765  0.49657006  0.00362956  1
  Co  Co112  1  0.62702315  0.11847250  0.12472815  1
  Co  Co113  1  0.49672463  0.25058344  0.50579432  1
  Co  Co114  1  0.12702571  0.87563238  0.12869006  1
  Co  Co115  1  -0.00298410  0.25094793  0.24631629  1
  Co  Co116  1  0.37680625  0.11953164  0.11954290  1
  Co  Co117  1  0.00501337  0.25724200  0.50101286  1
  Co  Co118  1  0.11878010  0.12605149  0.37443227  1
  Co  Co119  1  0.62883897  0.37389595  0.62261579  1
  Co  Co120  1  0.12714565  0.62039261  0.62334037  1
  Co  Co121  1  0.37747744  0.62929323  0.37729054  1
  Co  Co122  1  0.74951752  0.24813237  0.49716228  1
  Co  Co123  1  0.00035519  -0.00368785  0.50299423  1
  Co  Co124  1  -0.00309098  0.00151608  0.24599289  1
  Co  Co125  1  0.12993188  0.37422529  0.12787968  1
  Co  Co126  1  0.49675467  0.49607168  0.49985892  1
  Co  Co127  1  0.87459260  0.37265594  0.87677570  1
