# generated using pymatgen
data_Fe45Co19
_symmetry_space_group_name_H-M   'P 1'
_cell_length_a   11.41325783
_cell_length_b   11.41466262
_cell_length_c   11.41441026
_cell_angle_alpha   90.00675529
_cell_angle_beta   89.99744252
_cell_angle_gamma   89.99777835
_symmetry_Int_Tables_number   1
_chemical_formula_structural   Fe45Co19
_chemical_formula_sum   'Fe90 Co38'
_cell_volume   1487.05209166
_cell_formula_units_Z   2
loop_
 _symmetry_equiv_pos_site_id
 _symmetry_equiv_pos_as_xyz
  1  'x, y, z'
loop_
 _atom_site_type_symbol
 _atom_site_label
 _atom_site_symmetry_multiplicity
 _atom_site_fract_x
 _atom_site_fract_y
 _atom_site_fract_z
 _atom_site_occupancy
  Fe  Fe0  1  0.62470289  0.37552009  0.87325309  1
  Fe  Fe1  1  0.37229441  0.62514259  0.37610188  1
  Fe  Fe2  1  0.00151305  0.50163455  0.50218951  1
  Fe  Fe3  1  -0.00130940  0.00100350  0.25002275  1
  Fe  Fe4  1  0.74997080  0.50079601  0.49933695  1
  Fe  Fe5  1  0.87593243  0.62837817  0.62446920  1
  Fe  Fe6  1  0.75197693  0.49958758  0.74810935  1
  Fe  Fe7  1  0.49614628  0.00208546  0.24922497  1
  Fe  Fe8  1  0.50020926  0.75167845  0.00086091  1
  Fe  Fe9  1  0.75109683  0.50318410  0.25280930  1
  Fe  Fe10  1  0.00033121  0.24699258  0.00116963  1
  Fe  Fe11  1  0.75032496  0.24894844  -0.00083720  1
  Fe  Fe12  1  0.13216235  0.62211043  0.62729887  1
  Fe  Fe13  1  0.24909146  0.24882121  0.00002514  1
  Fe  Fe14  1  0.37349157  0.87277378  0.37524857  1
  Fe  Fe15  1  0.87703929  0.62696421  0.12412046  1
  Fe  Fe16  1  0.74993670  0.24889843  0.25314063  1
  Fe  Fe17  1  0.37267958  0.37198409  0.62197910  1
  Fe  Fe18  1  0.87703298  0.87364109  0.37713488  1
  Fe  Fe19  1  0.12742677  0.37686508  0.62635721  1
  Fe  Fe20  1  0.37227999  0.12826357  0.37698814  1
  Fe  Fe21  1  0.49506217  -0.00072457  0.50164641  1
  Fe  Fe22  1  0.75060239  -0.00006887  0.00116114  1
  Fe  Fe23  1  0.62352260  0.37266189  0.12725929  1
  Fe  Fe24  1  0.25194802  0.00152558  0.00236193  1
  Fe  Fe25  1  0.49704771  0.74979003  0.74809275  1
  Fe  Fe26  1  0.12702281  0.12253407  0.12884101  1
  Fe  Fe27  1  0.62280106  0.12320912  0.87437246  1
  Fe  Fe28  1  0.49417646  0.00232008  0.74578406  1
  Fe  Fe29  1  0.37166705  0.62631728  0.12347368  1
  Fe  Fe30  1  0.00534924  0.75156778  0.00097869  1
  Fe  Fe31  1  0.62636760  0.12217890  0.37792912  1
  Fe  Fe32  1  0.74999115  -0.00082221  0.25040235  1
  Fe  Fe33  1  0.00361017  0.75000104  0.24937216  1
  Fe  Fe34  1  0.12763432  0.88068063  0.37576956  1
  Fe  Fe35  1  0.00088817  0.24737200  0.25220988  1
  Fe  Fe36  1  0.87712370  0.12185480  0.87204974  1
  Fe  Fe37  1  0.87474507  0.37350168  0.12568765  1
  Fe  Fe38  1  0.37305740  0.87316614  0.12572976  1
  Fe  Fe39  1  0.12558899  0.12221958  0.87400856  1
  Fe  Fe40  1  -0.00080276  0.50138856  0.24877409  1
  Fe  Fe41  1  0.24953320  0.49751633  -0.00052861  1
  Fe  Fe42  1  0.87778106  0.87801738  0.87297334  1
  Fe  Fe43  1  0.74840288  0.75058674  0.49824263  1
  Fe  Fe44  1  0.49605952  0.49981145  0.74813734  1
  Fe  Fe45  1  0.62419336  0.62434527  0.62520171  1
  Fe  Fe46  1  0.49993805  0.24882768  0.74944281  1
  Fe  Fe47  1  0.87767606  0.37428397  0.87361590  1
  Fe  Fe48  1  0.12645159  0.62089165  0.37326464  1
  Fe  Fe49  1  0.87458417  0.12373252  0.37989161  1
  Fe  Fe50  1  0.00485762  0.75124190  0.50101580  1
  Fe  Fe51  1  0.62338737  0.37692833  0.37533429  1
  Fe  Fe52  1  0.24981817  0.24827442  0.75056230  1
  Fe  Fe53  1  0.37283257  0.62703786  0.87489863  1
  Fe  Fe54  1  0.50246955  0.25078020  0.49904873  1
  Fe  Fe55  1  0.74860755  0.75223909  -0.00002693  1
  Fe  Fe56  1  0.24799077  0.25187196  0.25660032  1
  Fe  Fe57  1  0.37721098  0.36980064  0.12722831  1
  Fe  Fe58  1  0.62320017  0.62741831  0.12660667  1
  Fe  Fe59  1  0.12491314  0.37494646  0.12672369  1
  Fe  Fe60  1  0.62150337  0.87407341  0.37299092  1
  Fe  Fe61  1  0.00171992  0.49862473  -0.00110713  1
  Fe  Fe62  1  0.37327597  0.87566632  0.87382776  1
  Fe  Fe63  1  0.49740150  0.74866682  0.50161365  1
  Fe  Fe64  1  0.49953547  0.49837506  0.00005256  1
  Fe  Fe65  1  0.62411782  0.87613007  0.62516404  1
  Fe  Fe66  1  0.12712579  0.62238524  0.87314246  1
  Fe  Fe67  1  0.00183193  0.24753206  0.74779889  1
  Fe  Fe68  1  0.74936360  0.74920286  0.25114904  1
  Fe  Fe69  1  0.62290602  0.87816953  0.87404344  1
  Fe  Fe70  1  0.87796878  0.37559682  0.37635588  1
  Fe  Fe71  1  0.49715760  0.50134289  0.25106540  1
  Fe  Fe72  1  0.12923927  0.12128111  0.62106377  1
  Fe  Fe73  1  0.49740001  0.50134561  0.50139714  1
  Fe  Fe74  1  0.74923697  0.75220766  0.75087432  1
  Fe  Fe75  1  0.12632345  0.88030672  0.87388759  1
  Fe  Fe76  1  0.49664047  0.00198949  0.00334884  1
  Fe  Fe77  1  0.24732464  0.75042087  0.24874167  1
  Fe  Fe78  1  0.37455232  0.37078726  0.87575026  1
  Fe  Fe79  1  0.62767452  0.12428154  0.62233723  1
  Fe  Fe80  1  0.74936077  0.50047029  0.00034886  1
  Fe  Fe81  1  0.87725589  0.62578128  0.87392501  1
  Fe  Fe82  1  0.87626186  0.37285835  0.62384988  1
  Fe  Fe83  1  0.62373181  0.62464688  0.87392377  1
  Fe  Fe84  1  0.00418402  0.75215961  0.74786564  1
  Fe  Fe85  1  0.87705860  0.87582253  0.12429030  1
  Fe  Fe86  1  0.00425603  0.24788295  0.49844669  1
  Fe  Fe87  1  0.13171189  0.87857659  0.62347393  1
  Fe  Fe88  1  0.62325345  0.12623858  0.12532652  1
  Fe  Fe89  1  0.74968604  0.24915451  0.74790011  1
  Co  Co90  1  0.62186816  0.62637240  0.37527645  1
  Co  Co91  1  0.24438117  0.25280506  0.49483111  1
  Co  Co92  1  0.62325111  0.87546085  0.12739936  1
  Co  Co93  1  0.24607837  0.75154279  -0.00008810  1
  Co  Co94  1  0.87400099  0.12494878  0.12653023  1
  Co  Co95  1  0.62383185  0.37550826  0.62489604  1
  Co  Co96  1  0.12587774  0.11840826  0.37593200  1
  Co  Co97  1  0.37485092  0.12577990  0.87568730  1
  Co  Co98  1  0.12556847  0.87967996  0.12653308  1
  Co  Co99  1  0.50150802  0.24973796  -0.00195564  1
  Co  Co100  1  0.49637020  0.74892331  0.24936897  1
  Co  Co101  1  0.25051354  0.49659312  0.49734953  1
  Co  Co102  1  0.00040663  0.00261809  0.00195856  1
  Co  Co103  1  0.24905204  0.75184280  0.75171209  1
  Co  Co104  1  0.37420984  0.13121652  0.12704834  1
  Co  Co105  1  0.36946365  0.62557452  0.62512118  1
  Co  Co106  1  0.24759661  0.74950314  0.49741560  1
  Co  Co107  1  0.12395469  0.37267485  0.87432333  1
  Co  Co108  1  0.50179000  0.24727939  0.25507942  1
  Co  Co109  1  0.75103893  -0.00454041  0.50036796  1
  Co  Co110  1  0.25512379  0.00063273  0.25027295  1
  Co  Co111  1  0.87261599  0.12625924  0.62168150  1
  Co  Co112  1  0.37150796  0.87144706  0.62462829  1
  Co  Co113  1  0.25457190  0.00245070  0.74795504  1
  Co  Co114  1  0.25290086  0.49703191  0.24977092  1
  Co  Co115  1  0.25604541  0.00057631  0.49958108  1
  Co  Co116  1  0.74894304  0.25286426  0.49848779  1
  Co  Co117  1  0.12101916  0.37960874  0.37378156  1
  Co  Co118  1  0.12623425  0.62190219  0.12566649  1
  Co  Co119  1  0.75081330  0.00016885  0.74777697  1
  Co  Co120  1  0.37717427  0.37341272  0.37713657  1
  Co  Co121  1  0.87389697  0.87200128  0.62496386  1
  Co  Co122  1  0.00002685  0.49990040  0.74918319  1
  Co  Co123  1  -0.00182402  -0.00109008  0.50327573  1
  Co  Co124  1  0.25310727  0.49674162  0.75283085  1
  Co  Co125  1  0.37258433  0.13109861  0.62126113  1
  Co  Co126  1  0.87860069  0.62671582  0.37713820  1
  Co  Co127  1  0.00034387  -0.00012864  0.74383182  1
