# generated using pymatgen
data_Fe45Co19
_symmetry_space_group_name_H-M   'P 1'
_cell_length_a   11.41509963
_cell_length_b   11.41440031
_cell_length_c   11.41616177
_cell_angle_alpha   90.00469665
_cell_angle_beta   89.99722579
_cell_angle_gamma   90.00496134
_symmetry_Int_Tables_number   1
_chemical_formula_structural   Fe45Co19
_chemical_formula_sum   'Fe90 Co38'
_cell_volume   1487.48610161
_cell_formula_units_Z   2
loop_
 _symmetry_equiv_pos_site_id
 _symmetry_equiv_pos_as_xyz
  1  'x, y, z'
loop_
 _atom_site_type_symbol
 _atom_site_label
 _atom_site_symmetry_multiplicity
 _atom_site_fract_x
 _atom_site_fract_y
 _atom_site_fract_z
 _atom_site_occupancy
  Fe  Fe0  1  0.50177157  0.49971457  0.50295395  1
  Fe  Fe1  1  -0.00140342  0.74878218  -0.00140754  1
  Fe  Fe2  1  0.62558190  0.12691473  0.87699539  1
  Fe  Fe3  1  0.37219636  0.12470021  0.62595934  1
  Fe  Fe4  1  0.50053793  0.49917175  0.24850850  1
  Fe  Fe5  1  0.12447743  0.87642124  0.87593600  1
  Fe  Fe6  1  0.49820538  -0.00301355  0.50120457  1
  Fe  Fe7  1  0.62403046  0.37401172  0.37617145  1
  Fe  Fe8  1  0.37128227  0.11947761  0.37507392  1
  Fe  Fe9  1  0.74943871  -0.00033144  0.75058023  1
  Fe  Fe10  1  0.49936364  0.24966118  0.25090790  1
  Fe  Fe11  1  0.12653075  0.12735741  0.62383932  1
  Fe  Fe12  1  0.50342857  0.49886019  0.74423225  1
  Fe  Fe13  1  0.24944550  0.75171029  0.25114204  1
  Fe  Fe14  1  0.87389491  0.12597293  0.62640318  1
  Fe  Fe15  1  0.49548668  0.25085371  0.50073942  1
  Fe  Fe16  1  0.75004768  0.25442849  0.75460384  1
  Fe  Fe17  1  0.00054992  0.00118878  0.50058302  1
  Fe  Fe18  1  0.37075086  0.37418602  0.12409950  1
  Fe  Fe19  1  0.74794653  0.00088718  0.25084347  1
  Fe  Fe20  1  0.25055783  0.74777385  -0.00126266  1
  Fe  Fe21  1  0.75277404  0.74962037  0.49702916  1
  Fe  Fe22  1  0.12414848  0.87344982  0.12473827  1
  Fe  Fe23  1  0.87679336  0.37547094  0.37250956  1
  Fe  Fe24  1  0.87551176  0.87752462  0.37413461  1
  Fe  Fe25  1  0.00330704  0.50097819  0.74709536  1
  Fe  Fe26  1  0.00021778  0.25018435  0.75040067  1
  Fe  Fe27  1  0.24711850  0.49929919  0.24779920  1
  Fe  Fe28  1  0.12382295  0.37062345  0.37421827  1
  Fe  Fe29  1  -0.00105788  0.00212820  0.00203232  1
  Fe  Fe30  1  0.87552131  0.87586044  0.87549102  1
  Fe  Fe31  1  0.37487654  0.37703299  0.37492448  1
  Fe  Fe32  1  0.00257715  0.49796686  0.00508768  1
  Fe  Fe33  1  0.50028874  0.25243751  0.74776908  1
  Fe  Fe34  1  -0.00061350  0.00074453  0.75081662  1
  Fe  Fe35  1  0.87412200  0.61919387  0.87458013  1
  Fe  Fe36  1  0.12378730  0.62580363  0.37547988  1
  Fe  Fe37  1  0.63037231  0.12929003  0.12195542  1
  Fe  Fe38  1  0.62621820  0.62087885  0.87540579  1
  Fe  Fe39  1  0.12769235  0.37103093  0.62390252  1
  Fe  Fe40  1  0.24931658  0.75413287  0.49864138  1
  Fe  Fe41  1  0.12345427  0.62423254  0.87604289  1
  Fe  Fe42  1  0.50165096  -0.00048532  0.24911418  1
  Fe  Fe43  1  0.37474666  0.87458314  0.12326916  1
  Fe  Fe44  1  0.87401965  0.12439018  0.87744466  1
  Fe  Fe45  1  0.74768121  0.49854590  0.24925214  1
  Fe  Fe46  1  0.25072782  0.00373806  -0.00221994  1
  Fe  Fe47  1  0.24822032  0.49979062  0.75000516  1
  Fe  Fe48  1  0.24951272  0.74939436  0.75122124  1
  Fe  Fe49  1  0.75001679  0.74862384  0.00035650  1
  Fe  Fe50  1  0.62681799  0.87364524  0.12497927  1
  Fe  Fe51  1  0.12512430  0.37226154  0.87860470  1
  Fe  Fe52  1  0.62591470  0.62599781  0.37459110  1
  Fe  Fe53  1  0.37682454  0.62381417  0.87528591  1
  Fe  Fe54  1  0.62672037  0.87453048  0.62275323  1
  Fe  Fe55  1  0.00422201  0.49861612  0.24698257  1
  Fe  Fe56  1  0.25005165  0.00245022  0.75327059  1
  Fe  Fe57  1  0.49988277  0.49978388  0.00266949  1
  Fe  Fe58  1  0.75096067  0.74823862  0.75093670  1
  Fe  Fe59  1  -0.00187076  0.74862030  0.25223317  1
  Fe  Fe60  1  0.50063477  -0.00092779  -0.00087606  1
  Fe  Fe61  1  0.87785136  0.62634561  0.62550512  1
  Fe  Fe62  1  0.37464344  0.37536178  0.87447699  1
  Fe  Fe63  1  0.37443205  0.62413363  0.37473459  1
  Fe  Fe64  1  0.87434111  0.62290952  0.12599398  1
  Fe  Fe65  1  0.37450377  0.12546445  0.12536563  1
  Fe  Fe66  1  0.12173462  0.87256562  0.62632871  1
  Fe  Fe67  1  0.74903915  0.50061210  0.50283422  1
  Fe  Fe68  1  0.87690209  0.87373403  0.62538567  1
  Fe  Fe69  1  0.24862687  0.49918858  0.50084732  1
  Fe  Fe70  1  0.00172397  0.00310884  0.24744543  1
  Fe  Fe71  1  0.62677192  0.12586757  0.62385987  1
  Fe  Fe72  1  0.75277129  0.24933562  0.49764744  1
  Fe  Fe73  1  0.87478763  0.37404720  0.62575319  1
  Fe  Fe74  1  0.37429986  0.62542643  0.62388753  1
  Fe  Fe75  1  0.12751678  0.12975403  0.12461166  1
  Fe  Fe76  1  0.50045190  0.75168221  0.25131778  1
  Fe  Fe77  1  -0.00588098  0.25117344  0.00426471  1
  Fe  Fe78  1  0.49928346  0.75099738  0.75090748  1
  Fe  Fe79  1  0.62597824  0.62484921  0.12505347  1
  Fe  Fe80  1  0.62463132  0.12359762  0.37780402  1
  Fe  Fe81  1  0.62471972  0.87395236  0.87639216  1
  Fe  Fe82  1  0.50000022  -0.00217003  0.75053907  1
  Fe  Fe83  1  0.50012053  0.25228794  0.00046127  1
  Fe  Fe84  1  0.49804008  0.75277475  0.49732690  1
  Fe  Fe85  1  0.87376518  0.87655969  0.12543449  1
  Fe  Fe86  1  0.87659827  0.12552912  0.37285996  1
  Fe  Fe87  1  0.00119779  0.50033420  0.50111896  1
  Fe  Fe88  1  0.37388566  0.62562423  0.12570764  1
  Fe  Fe89  1  0.12758464  0.12586232  0.37563882  1
  Co  Co90  1  -0.00134086  0.24893677  0.49988841  1
  Co  Co91  1  0.62209611  0.37855665  0.87489884  1
  Co  Co92  1  0.38069024  0.12538605  0.87288246  1
  Co  Co93  1  0.62609795  0.87589198  0.37592653  1
  Co  Co94  1  0.12977429  0.36947279  0.12259284  1
  Co  Co95  1  0.62718255  0.37026306  0.62196371  1
  Co  Co96  1  0.87512886  0.61998520  0.37339612  1
  Co  Co97  1  0.37407963  0.87493559  0.62779602  1
  Co  Co98  1  0.75299440  0.25770869  -0.00430402  1
  Co  Co99  1  0.12344806  0.87683348  0.37277532  1
  Co  Co100  1  0.75297822  0.00087518  0.50055910  1
  Co  Co101  1  0.24786004  -0.00372122  0.50253878  1
  Co  Co102  1  0.62551935  0.37202732  0.12657955  1
  Co  Co103  1  0.11943474  0.12669655  0.87672489  1
  Co  Co104  1  0.75160924  0.75009719  0.25031452  1
  Co  Co105  1  0.62426432  0.62974473  0.62372366  1
  Co  Co106  1  0.87322265  0.37496046  0.13107518  1
  Co  Co107  1  0.25336705  0.25094374  0.49824800  1
  Co  Co108  1  0.74795869  0.49931802  0.74557977  1
  Co  Co109  1  0.74857465  0.24933407  0.25393498  1
  Co  Co110  1  0.37239326  0.37602195  0.62648473  1
  Co  Co111  1  0.74895155  -0.00216217  -0.00186639  1
  Co  Co112  1  0.87947545  0.38073958  0.87286179  1
  Co  Co113  1  -0.00037357  0.74846192  0.75383906  1
  Co  Co114  1  0.75014620  0.49524487  0.00174454  1
  Co  Co115  1  0.24900263  0.50259290  0.00025143  1
  Co  Co116  1  0.37401529  0.87538544  0.87715427  1
  Co  Co117  1  0.24806479  0.00015269  0.24590297  1
  Co  Co118  1  0.86792290  0.12514496  0.12404358  1
  Co  Co119  1  0.37343378  0.87904334  0.37179587  1
  Co  Co120  1  -0.00001788  0.24812054  0.24691934  1
  Co  Co121  1  0.12517758  0.62820852  0.62295119  1
  Co  Co122  1  0.25330943  0.24610413  -0.00476276  1
  Co  Co123  1  -0.00123902  0.74979013  0.49576800  1
  Co  Co124  1  0.12447649  0.62865471  0.12585843  1
  Co  Co125  1  0.24950700  0.24829938  0.75355180  1
  Co  Co126  1  0.25281189  0.25030294  0.25297937  1
  Co  Co127  1  0.50145029  0.74851384  -0.00011110  1
