# generated using pymatgen
data_Fe45Co19
_symmetry_space_group_name_H-M   'P 1'
_cell_length_a   11.41453360
_cell_length_b   11.41478952
_cell_length_c   11.41562990
_cell_angle_alpha   89.98998430
_cell_angle_beta   90.00065548
_cell_angle_gamma   90.00115369
_symmetry_Int_Tables_number   1
_chemical_formula_structural   Fe45Co19
_chemical_formula_sum   'Fe90 Co38'
_cell_volume   1487.39374900
_cell_formula_units_Z   2
loop_
 _symmetry_equiv_pos_site_id
 _symmetry_equiv_pos_as_xyz
  1  'x, y, z'
loop_
 _atom_site_type_symbol
 _atom_site_label
 _atom_site_symmetry_multiplicity
 _atom_site_fract_x
 _atom_site_fract_y
 _atom_site_fract_z
 _atom_site_occupancy
  Fe  Fe0  1  0.00208564  0.50166565  0.00024281  1
  Fe  Fe1  1  0.62574449  0.12514865  0.37425807  1
  Fe  Fe2  1  0.87474181  0.12283346  0.12823634  1
  Fe  Fe3  1  0.12375738  0.37022992  0.87890610  1
  Fe  Fe4  1  0.12387018  0.87474316  0.37552965  1
  Fe  Fe5  1  0.62348702  0.37681106  0.12429141  1
  Fe  Fe6  1  0.50186935  0.74941542  0.49984259  1
  Fe  Fe7  1  0.37436831  0.87513945  0.37493695  1
  Fe  Fe8  1  0.37587962  0.62396429  0.12481174  1
  Fe  Fe9  1  0.50181525  -0.00079573  0.50067192  1
  Fe  Fe10  1  0.00038917  -0.00007724  0.75043112  1
  Fe  Fe11  1  0.50235372  0.74832723  0.25149611  1
  Fe  Fe12  1  0.12654449  0.62787974  0.87276125  1
  Fe  Fe13  1  0.63117333  0.87183473  0.37709392  1
  Fe  Fe14  1  0.12677724  0.37412438  0.37730209  1
  Fe  Fe15  1  0.87517604  0.12547031  0.87475621  1
  Fe  Fe16  1  0.50224932  0.50202089  0.25142170  1
  Fe  Fe17  1  0.50013702  -0.00065195  0.75000983  1
  Fe  Fe18  1  0.24568111  0.49873554  0.74719026  1
  Fe  Fe19  1  0.12562724  0.12531141  0.62357283  1
  Fe  Fe20  1  0.50055464  -0.00175395  0.25111535  1
  Fe  Fe21  1  0.37353398  0.62347004  0.62529561  1
  Fe  Fe22  1  0.74897342  0.50033586  0.00050214  1
  Fe  Fe23  1  0.74831447  0.25149072  0.24888850  1
  Fe  Fe24  1  0.00117026  0.25096832  0.74979204  1
  Fe  Fe25  1  0.62576456  0.87328503  0.12408161  1
  Fe  Fe26  1  0.37462202  0.12430988  0.87436438  1
  Fe  Fe27  1  0.25133658  0.00099337  0.49819069  1
  Fe  Fe28  1  0.62383677  0.37621949  0.37708569  1
  Fe  Fe29  1  0.87375401  0.62355532  0.12639616  1
  Fe  Fe30  1  0.00068591  0.24800637  0.25131287  1
  Fe  Fe31  1  0.49699557  0.74828986  -0.00286740  1
  Fe  Fe32  1  0.24794574  0.74979265  0.50313202  1
  Fe  Fe33  1  0.37559115  0.37744181  0.62269735  1
  Fe  Fe34  1  0.87666132  0.37616525  0.12538044  1
  Fe  Fe35  1  0.75061806  0.75061937  0.74702140  1
  Fe  Fe36  1  0.87014883  0.62757464  0.37384721  1
  Fe  Fe37  1  0.00232280  0.75065882  0.74520642  1
  Fe  Fe38  1  0.87626697  0.62442526  0.87137484  1
  Fe  Fe39  1  0.24915460  -0.00051877  0.74867842  1
  Fe  Fe40  1  0.87386016  0.37440679  0.37387809  1
  Fe  Fe41  1  0.24843719  0.50053617  0.00207351  1
  Fe  Fe42  1  0.37520248  0.62378847  0.37721992  1
  Fe  Fe43  1  0.75122618  0.25023770  0.00120438  1
  Fe  Fe44  1  0.87377450  0.12399674  0.62512883  1
  Fe  Fe45  1  0.37531114  0.87529292  0.62549446  1
  Fe  Fe46  1  0.25065541  0.75011462  0.25048931  1
  Fe  Fe47  1  0.37580195  0.37923768  0.87558397  1
  Fe  Fe48  1  -0.00303339  0.75217729  0.24905243  1
  Fe  Fe49  1  0.49975197  -0.00101341  -0.00102001  1
  Fe  Fe50  1  0.49582070  0.74940113  0.75239578  1
  Fe  Fe51  1  0.75060151  0.25000538  0.50114567  1
  Fe  Fe52  1  0.25225165  0.74959806  -0.00082642  1
  Fe  Fe53  1  0.12477906  0.62636699  0.37598659  1
  Fe  Fe54  1  0.24937970  0.25083663  0.74902283  1
  Fe  Fe55  1  0.00108635  0.50064507  0.25206293  1
  Fe  Fe56  1  0.87865072  0.37915914  0.62542402  1
  Fe  Fe57  1  0.62344019  0.37491148  0.87561967  1
  Fe  Fe58  1  0.24955765  0.00095720  -0.00040733  1
  Fe  Fe59  1  0.62258106  0.62326743  0.87535633  1
  Fe  Fe60  1  0.87285591  0.87780372  0.62267310  1
  Fe  Fe61  1  0.49831417  0.25039467  0.50071829  1
  Fe  Fe62  1  0.49559659  0.25153157  0.00192354  1
  Fe  Fe63  1  0.74793740  0.49860616  0.74974135  1
  Fe  Fe64  1  0.87548035  0.87400153  0.87532761  1
  Fe  Fe65  1  -0.00260277  0.00306983  0.49410864  1
  Fe  Fe66  1  0.62606700  0.12449287  0.62660375  1
  Fe  Fe67  1  0.00202142  0.00185024  -0.00033455  1
  Fe  Fe68  1  0.25550202  0.24802917  0.25165547  1
  Fe  Fe69  1  0.24894154  0.50137994  0.25177063  1
  Fe  Fe70  1  0.62493614  0.12714858  0.87393200  1
  Fe  Fe71  1  0.74981367  0.50088667  0.50053110  1
  Fe  Fe72  1  0.49944654  0.25218846  0.74809297  1
  Fe  Fe73  1  0.12740559  0.12568730  0.12657268  1
  Fe  Fe74  1  0.75064749  0.74931218  0.00113027  1
  Fe  Fe75  1  0.25329861  0.24913885  0.49900582  1
  Fe  Fe76  1  0.62518390  0.87432601  0.87285456  1
  Fe  Fe77  1  0.75093335  0.25175979  0.74943655  1
  Fe  Fe78  1  -0.00013396  0.74848830  0.00100355  1
  Fe  Fe79  1  0.62415387  0.12432328  0.12562366  1
  Fe  Fe80  1  -0.00098045  0.24902810  0.49840641  1
  Fe  Fe81  1  0.37480690  0.87610341  0.12579561  1
  Fe  Fe82  1  0.62360966  0.62462227  0.62493150  1
  Fe  Fe83  1  0.12604536  0.37240128  0.12499023  1
  Fe  Fe84  1  -0.00210858  0.74767925  0.50278269  1
  Fe  Fe85  1  0.74956124  -0.00008494  -0.00111934  1
  Fe  Fe86  1  0.12626222  0.87365358  0.87334250  1
  Fe  Fe87  1  0.87712566  0.37500354  0.87663097  1
  Fe  Fe88  1  0.12440995  0.87455424  0.12688553  1
  Fe  Fe89  1  0.49653781  0.25056439  0.24948857  1
  Co  Co90  1  0.00518005  0.49771928  0.75394730  1
  Co  Co91  1  0.12233978  0.62123810  0.62344398  1
  Co  Co92  1  0.75049258  0.74793818  0.50657049  1
  Co  Co93  1  0.75033741  -0.00033835  0.75143448  1
  Co  Co94  1  0.74805792  0.49855555  0.25002170  1
  Co  Co95  1  0.37351235  0.37874287  0.12681672  1
  Co  Co96  1  0.25475102  0.24926098  -0.00018701  1
  Co  Co97  1  0.12577754  0.12679651  0.87347285  1
  Co  Co98  1  -0.00130444  0.50135552  0.49466680  1
  Co  Co99  1  0.87721885  0.61967222  0.62824481  1
  Co  Co100  1  0.37562768  0.12416002  0.62541942  1
  Co  Co101  1  0.37252547  0.87686936  0.87372566  1
  Co  Co102  1  0.75067338  -0.00296278  0.25084716  1
  Co  Co103  1  0.62375450  0.87518160  0.62716538  1
  Co  Co104  1  0.12785579  0.12680628  0.37542899  1
  Co  Co105  1  0.50037751  0.50040142  0.00173522  1
  Co  Co106  1  0.62489418  0.62635031  0.12442264  1
  Co  Co107  1  -0.00104487  0.24718104  0.00185915  1
  Co  Co108  1  0.87055124  0.12751458  0.37186123  1
  Co  Co109  1  0.24956731  0.50081625  0.49968670  1
  Co  Co110  1  0.24876280  0.75070917  0.74578911  1
  Co  Co111  1  0.87681823  0.87736413  0.12286910  1
  Co  Co112  1  0.37560184  0.12127657  0.12558028  1
  Co  Co113  1  0.24918530  -0.00064861  0.25218238  1
  Co  Co114  1  0.50101927  0.49906339  0.74694350  1
  Co  Co115  1  0.74899323  0.00166910  0.49932513  1
  Co  Co116  1  0.75069640  0.75244282  0.24574273  1
  Co  Co117  1  0.37803281  0.12263320  0.37480839  1
  Co  Co118  1  0.37623649  0.37770638  0.37546552  1
  Co  Co119  1  0.00011038  0.00007636  0.25367258  1
  Co  Co120  1  0.62919785  0.62648912  0.37573931  1
  Co  Co121  1  0.12243196  0.37465722  0.61964391  1
  Co  Co122  1  0.50117666  0.50142071  0.50024431  1
  Co  Co123  1  0.37241168  0.62000280  0.87366645  1
  Co  Co124  1  0.87192793  0.87178325  0.37771407  1
  Co  Co125  1  0.12357545  0.87915548  0.62155247  1
  Co  Co126  1  0.12487290  0.62721508  0.12676435  1
  Co  Co127  1  0.62561940  0.37439743  0.62306351  1
