# generated using pymatgen
data_Fe45Co19
_symmetry_space_group_name_H-M   'P 1'
_cell_length_a   11.41478796
_cell_length_b   11.41488913
_cell_length_c   11.41484173
_cell_angle_alpha   89.99998649
_cell_angle_beta   89.99345124
_cell_angle_gamma   90.00232207
_symmetry_Int_Tables_number   1
_chemical_formula_structural   Fe45Co19
_chemical_formula_sum   'Fe90 Co38'
_cell_volume   1487.33718889
_cell_formula_units_Z   2
loop_
 _symmetry_equiv_pos_site_id
 _symmetry_equiv_pos_as_xyz
  1  'x, y, z'
loop_
 _atom_site_type_symbol
 _atom_site_label
 _atom_site_symmetry_multiplicity
 _atom_site_fract_x
 _atom_site_fract_y
 _atom_site_fract_z
 _atom_site_occupancy
  Fe  Fe0  1  0.37426277  0.37318182  0.12612401  1
  Fe  Fe1  1  0.37375069  0.62543694  0.62478396  1
  Fe  Fe2  1  -0.00252242  0.24760275  0.00233635  1
  Fe  Fe3  1  0.00002769  0.50072147  0.50082742  1
  Fe  Fe4  1  0.88084048  0.12428159  0.37421664  1
  Fe  Fe5  1  0.24832114  -0.00000448  0.50233840  1
  Fe  Fe6  1  -0.00147354  0.49912651  0.00250794  1
  Fe  Fe7  1  0.12591591  0.12443178  0.12646465  1
  Fe  Fe8  1  0.12624671  0.37507050  0.12718512  1
  Fe  Fe9  1  0.24989942  0.74863969  0.49845938  1
  Fe  Fe10  1  0.24983202  0.25019566  -0.00207446  1
  Fe  Fe11  1  0.87631823  0.62404368  0.37432173  1
  Fe  Fe12  1  0.87740709  0.37422531  0.87334204  1
  Fe  Fe13  1  0.62004130  0.12371741  0.37510311  1
  Fe  Fe14  1  0.62284489  0.62330672  0.37455406  1
  Fe  Fe15  1  0.74886573  0.24881444  0.75170311  1
  Fe  Fe16  1  0.87171646  0.37105036  0.12820991  1
  Fe  Fe17  1  0.25276401  0.50221797  0.25313850  1
  Fe  Fe18  1  0.37361051  0.87472781  0.12529641  1
  Fe  Fe19  1  0.12517063  0.62422772  0.12729889  1
  Fe  Fe20  1  0.62510924  0.37306514  0.62293296  1
  Fe  Fe21  1  0.12143629  0.87518734  0.37840090  1
  Fe  Fe22  1  0.12409518  0.12517435  0.87419285  1
  Fe  Fe23  1  0.62374925  0.62542830  0.87597847  1
  Fe  Fe24  1  0.12182429  0.12548524  0.37510836  1
  Fe  Fe25  1  0.24899805  0.74935522  0.25277811  1
  Fe  Fe26  1  0.74930244  0.75138972  0.74957819  1
  Fe  Fe27  1  0.87482487  0.62371243  0.87487841  1
  Fe  Fe28  1  0.12605503  0.87528405  0.12383136  1
  Fe  Fe29  1  0.87163232  0.62641067  0.12645228  1
  Fe  Fe30  1  0.63078806  0.12512327  0.12475361  1
  Fe  Fe31  1  0.00125136  0.00127112  0.74512593  1
  Fe  Fe32  1  0.49861526  0.49753300  0.74793350  1
  Fe  Fe33  1  0.25009947  0.74950694  -0.00229859  1
  Fe  Fe34  1  0.24883507  -0.00014593  0.25135434  1
  Fe  Fe35  1  0.24929022  0.49840700  -0.00236787  1
  Fe  Fe36  1  0.62570551  0.87673332  0.87618015  1
  Fe  Fe37  1  0.87671853  0.37495799  0.37452585  1
  Fe  Fe38  1  0.12656199  0.37450839  0.62455160  1
  Fe  Fe39  1  0.24836407  -0.00076764  0.74733695  1
  Fe  Fe40  1  0.62672053  0.12346636  0.87615990  1
  Fe  Fe41  1  0.25092541  0.49677271  0.75326543  1
  Fe  Fe42  1  0.37591482  0.62630759  0.12519454  1
  Fe  Fe43  1  0.37764864  0.62459998  0.87607860  1
  Fe  Fe44  1  0.37695051  0.12431510  0.87448756  1
  Fe  Fe45  1  0.37728973  0.87619662  0.37509633  1
  Fe  Fe46  1  -0.00078126  0.75003631  0.00041699  1
  Fe  Fe47  1  0.50019620  -0.00140086  0.00347930  1
  Fe  Fe48  1  0.87313260  0.62362006  0.62483907  1
  Fe  Fe49  1  0.37758868  0.12430321  0.37518904  1
  Fe  Fe50  1  0.74890190  0.25017160  0.49504262  1
  Fe  Fe51  1  0.74748890  0.75124662  0.00081542  1
  Fe  Fe52  1  0.50171774  -0.00170053  0.74499729  1
  Fe  Fe53  1  0.37972595  0.37219774  0.37271471  1
  Fe  Fe54  1  0.12594105  0.62589099  0.62537311  1
  Fe  Fe55  1  0.62590939  0.62519222  0.62389246  1
  Fe  Fe56  1  0.87441151  0.87815493  0.87372376  1
  Fe  Fe57  1  0.62704325  0.37275617  0.12907179  1
  Fe  Fe58  1  0.75022662  0.74978708  0.49718621  1
  Fe  Fe59  1  0.25321538  0.25376660  0.75364351  1
  Fe  Fe60  1  -0.00017033  0.24975661  0.74732608  1
  Fe  Fe61  1  0.25044583  0.25091500  0.49727334  1
  Fe  Fe62  1  0.50181239  0.50001447  0.00355243  1
  Fe  Fe63  1  0.87318335  0.37537537  0.62395491  1
  Fe  Fe64  1  0.87234468  0.87486893  0.12762137  1
  Fe  Fe65  1  0.87206429  0.87760862  0.62170393  1
  Fe  Fe66  1  0.12225188  0.62370882  0.87428149  1
  Fe  Fe67  1  0.87290285  0.12474072  0.62303020  1
  Fe  Fe68  1  0.37485821  0.12775443  0.62425048  1
  Fe  Fe69  1  0.50320049  0.75008429  0.24638700  1
  Fe  Fe70  1  0.62233588  0.87800274  0.37547385  1
  Fe  Fe71  1  0.74872383  0.50009262  0.25247652  1
  Fe  Fe72  1  0.50021116  0.75286149  0.74784582  1
  Fe  Fe73  1  0.00022408  0.74966845  0.25086493  1
  Fe  Fe74  1  0.25237052  0.50096758  0.49615824  1
  Fe  Fe75  1  -0.00324298  0.00248115  0.00254058  1
  Fe  Fe76  1  0.12260063  0.37533580  0.37272386  1
  Fe  Fe77  1  0.87851514  0.87744067  0.37670221  1
  Fe  Fe78  1  0.37243678  0.12513967  0.12630869  1
  Fe  Fe79  1  0.74907260  0.49955912  0.75016121  1
  Fe  Fe80  1  0.75053736  0.00046288  0.25244265  1
  Fe  Fe81  1  0.37470849  0.87556280  0.87499179  1
  Fe  Fe82  1  -0.00094075  0.75065506  0.74813601  1
  Fe  Fe83  1  0.74976758  0.49790452  -0.00125712  1
  Fe  Fe84  1  0.50098276  0.24875856  0.00156970  1
  Fe  Fe85  1  0.62237508  0.37355873  0.87432379  1
  Fe  Fe86  1  0.62600441  0.12422761  0.62216384  1
  Fe  Fe87  1  0.50053059  0.75342158  0.50301449  1
  Fe  Fe88  1  0.12512866  0.87654540  0.87496040  1
  Fe  Fe89  1  0.49928290  0.49799478  0.49997794  1
  Co  Co90  1  0.12611468  0.87072675  0.62364406  1
  Co  Co91  1  -0.00229580  0.74767686  0.50116865  1
  Co  Co92  1  0.75144839  0.25103102  -0.00436318  1
  Co  Co93  1  0.50076569  0.25005564  0.50034615  1
  Co  Co94  1  0.74876290  0.00103796  0.74950894  1
  Co  Co95  1  0.50115110  0.75202246  0.00216217  1
  Co  Co96  1  0.87040204  0.12682146  0.12794246  1
  Co  Co97  1  0.87529380  0.12418921  0.87244721  1
  Co  Co98  1  0.00404155  0.00254781  0.50577841  1
  Co  Co99  1  0.62127758  0.37606238  0.37324032  1
  Co  Co100  1  0.00011546  0.49996020  0.74759221  1
  Co  Co101  1  0.37421505  0.37383503  0.62310987  1
  Co  Co102  1  0.74866437  0.75082819  0.25408407  1
  Co  Co103  1  0.12882694  0.13101412  0.62547492  1
  Co  Co104  1  0.12205238  0.62485284  0.37452989  1
  Co  Co105  1  0.25056735  0.00064153  -0.00008821  1
  Co  Co106  1  0.50069985  0.24872735  0.74892757  1
  Co  Co107  1  0.37976492  0.37451761  0.87796753  1
  Co  Co108  1  0.24968992  0.24884205  0.25160527  1
  Co  Co109  1  0.00069442  0.24975069  0.24809228  1
  Co  Co110  1  0.00117838  -0.00018046  0.24715674  1
  Co  Co111  1  0.63061574  0.87626138  0.62205293  1
  Co  Co112  1  0.49909843  0.00157748  0.24619093  1
  Co  Co113  1  0.37109863  0.87371704  0.62450605  1
  Co  Co114  1  0.49827826  0.50077866  0.24901194  1
  Co  Co115  1  0.74917728  0.49918440  0.49867472  1
  Co  Co116  1  -0.00027148  0.25109788  0.50050951  1
  Co  Co117  1  0.12055094  0.37348543  0.87597054  1
  Co  Co118  1  0.75388724  -0.00052074  0.00040346  1
  Co  Co119  1  0.62849096  0.87780289  0.12588332  1
  Co  Co120  1  0.50032375  0.24723436  0.24751940  1
  Co  Co121  1  0.49787427  -0.00126900  0.50459691  1
  Co  Co122  1  0.25041101  0.74897295  0.75319982  1
  Co  Co123  1  0.74897580  0.24800643  0.25732617  1
  Co  Co124  1  0.62794549  0.62382019  0.12558825  1
  Co  Co125  1  0.75010667  0.00246532  0.49527412  1
  Co  Co126  1  -0.00165550  0.50000407  0.24856983  1
  Co  Co127  1  0.37987944  0.62863598  0.37540194  1
