# generated using pymatgen
data_Fe45Co19
_symmetry_space_group_name_H-M   'P 1'
_cell_length_a   11.41588883
_cell_length_b   11.41463048
_cell_length_c   11.41489950
_cell_angle_alpha   90.00870637
_cell_angle_beta   89.99723462
_cell_angle_gamma   90.00058210
_symmetry_Int_Tables_number   1
_chemical_formula_structural   Fe45Co19
_chemical_formula_sum   'Fe90 Co38'
_cell_volume   1487.45444706
_cell_formula_units_Z   2
loop_
 _symmetry_equiv_pos_site_id
 _symmetry_equiv_pos_as_xyz
  1  'x, y, z'
loop_
 _atom_site_type_symbol
 _atom_site_label
 _atom_site_symmetry_multiplicity
 _atom_site_fract_x
 _atom_site_fract_y
 _atom_site_fract_z
 _atom_site_occupancy
  Fe  Fe0  1  0.87569856  0.37424586  0.87647679  1
  Fe  Fe1  1  0.75244784  0.74961096  0.00148589  1
  Fe  Fe2  1  0.62727826  0.12375532  0.62741087  1
  Fe  Fe3  1  0.37652288  0.87431293  0.63034644  1
  Fe  Fe4  1  0.37385530  0.62467423  0.62579003  1
  Fe  Fe5  1  0.49954106  0.24997952  0.24677454  1
  Fe  Fe6  1  0.00154772  0.50214288  0.75197458  1
  Fe  Fe7  1  0.00268653  0.24774557  0.00179745  1
  Fe  Fe8  1  0.62290753  0.87497785  0.37446059  1
  Fe  Fe9  1  0.00524851  0.75311349  0.24449080  1
  Fe  Fe10  1  0.12634645  0.12383902  0.37386364  1
  Fe  Fe11  1  0.87435590  0.12787112  0.87329125  1
  Fe  Fe12  1  0.50056981  0.75181781  0.00451289  1
  Fe  Fe13  1  0.37536652  0.37622645  0.62486070  1
  Fe  Fe14  1  0.75329244  0.49911910  0.49591932  1
  Fe  Fe15  1  0.87740180  0.87289068  0.37388259  1
  Fe  Fe16  1  0.24796620  0.75066713  0.50333851  1
  Fe  Fe17  1  0.25225417  0.50088256  0.49733100  1
  Fe  Fe18  1  0.74874026  0.49876254  0.75421837  1
  Fe  Fe19  1  0.62906676  0.62263872  0.12420054  1
  Fe  Fe20  1  0.12472107  0.37465964  0.37454112  1
  Fe  Fe21  1  0.24967198  0.50246635  0.75358420  1
  Fe  Fe22  1  0.24811979  0.25161016  0.75105009  1
  Fe  Fe23  1  0.75063412  0.75115402  0.50170401  1
  Fe  Fe24  1  0.00178944  -0.00148198  0.75379053  1
  Fe  Fe25  1  -0.00001564  0.49980725  0.24925343  1
  Fe  Fe26  1  0.49998352  -0.00176804  0.24913291  1
  Fe  Fe27  1  0.62571255  0.62200745  0.62257525  1
  Fe  Fe28  1  0.00360672  0.24860844  0.24649024  1
  Fe  Fe29  1  0.12567831  0.37825322  0.62438926  1
  Fe  Fe30  1  0.37498254  0.37314947  0.37322273  1
  Fe  Fe31  1  0.49583445  0.50177971  0.00067505  1
  Fe  Fe32  1  0.62603562  0.12148091  0.12416349  1
  Fe  Fe33  1  0.24915309  0.24989602  0.49971292  1
  Fe  Fe34  1  0.87348819  0.12476538  0.62778634  1
  Fe  Fe35  1  0.62334682  0.87642760  0.62798869  1
  Fe  Fe36  1  0.74909758  0.25152278  -0.00021283  1
  Fe  Fe37  1  0.37539011  0.12685146  0.37282307  1
  Fe  Fe38  1  0.37241344  0.12321590  0.62700999  1
  Fe  Fe39  1  0.87487404  0.12159150  0.12472327  1
  Fe  Fe40  1  0.74992400  -0.00069159  0.49896903  1
  Fe  Fe41  1  0.12990887  0.37797567  0.12147012  1
  Fe  Fe42  1  0.37437574  0.37393368  0.87809240  1
  Fe  Fe43  1  0.74833828  0.75194412  0.24757445  1
  Fe  Fe44  1  0.00157422  0.24932719  0.50121481  1
  Fe  Fe45  1  0.62543508  0.62533584  0.87701271  1
  Fe  Fe46  1  0.87416476  0.37463725  0.62548991  1
  Fe  Fe47  1  0.62286279  0.37568942  0.37599653  1
  Fe  Fe48  1  0.12702288  0.37523585  0.87891599  1
  Fe  Fe49  1  0.49776612  0.25002662  0.00293641  1
  Fe  Fe50  1  0.00210339  0.74951629  0.50428549  1
  Fe  Fe51  1  -0.00013986  0.00020353  0.49813411  1
  Fe  Fe52  1  0.00244793  0.25029022  0.74987847  1
  Fe  Fe53  1  0.12445425  0.62958972  0.87716592  1
  Fe  Fe54  1  0.49828185  0.00004199  0.49960881  1
  Fe  Fe55  1  0.87431566  0.62533473  0.62871078  1
  Fe  Fe56  1  0.49563324  -0.00275372  -0.00048538  1
  Fe  Fe57  1  0.12708472  0.12114864  0.62672209  1
  Fe  Fe58  1  0.37423231  0.12719992  0.87424616  1
  Fe  Fe59  1  0.87329317  0.37731414  0.12555900  1
  Fe  Fe60  1  0.62172698  0.87419216  0.87365990  1
  Fe  Fe61  1  0.74894385  0.25033963  0.49871228  1
  Fe  Fe62  1  0.62507101  0.12481569  0.87520977  1
  Fe  Fe63  1  0.87581013  0.87476246  0.62766412  1
  Fe  Fe64  1  0.49826863  0.50331137  0.25131010  1
  Fe  Fe65  1  0.12808518  0.11535112  0.12122088  1
  Fe  Fe66  1  0.50077087  0.24852952  0.50157252  1
  Fe  Fe67  1  0.24887555  -0.00538732  0.75749945  1
  Fe  Fe68  1  -0.00331940  0.50372899  0.00024956  1
  Fe  Fe69  1  -0.00217357  0.50067907  0.49843849  1
  Fe  Fe70  1  0.25091600  0.50204346  0.25022208  1
  Fe  Fe71  1  0.37008044  0.12133980  0.12572375  1
  Fe  Fe72  1  0.24886967  0.75563375  0.00503019  1
  Fe  Fe73  1  0.50055528  0.50045710  0.75092753  1
  Fe  Fe74  1  0.87505177  0.12723202  0.37402133  1
  Fe  Fe75  1  0.87777551  0.86831206  0.87213946  1
  Fe  Fe76  1  0.74837523  0.25084061  0.24996904  1
  Fe  Fe77  1  0.75068289  -0.00158726  0.25126201  1
  Fe  Fe78  1  0.25222701  -0.00278782  0.49649221  1
  Fe  Fe79  1  -0.00160834  0.74933398  0.00723779  1
  Fe  Fe80  1  0.37354924  0.63217300  0.87404424  1
  Fe  Fe81  1  0.50223814  0.25115981  0.74924107  1
  Fe  Fe82  1  0.12562752  0.62705720  0.37552726  1
  Fe  Fe83  1  0.87673856  0.62798249  0.37070899  1
  Fe  Fe84  1  0.37291149  0.62858157  0.12802259  1
  Fe  Fe85  1  0.49909251  0.74850913  0.50141845  1
  Fe  Fe86  1  0.37509952  0.86763356  0.36948573  1
  Fe  Fe87  1  0.75279137  -0.00263350  -0.00319059  1
  Fe  Fe88  1  0.62478683  0.62596158  0.37646262  1
  Fe  Fe89  1  0.62489520  0.37884334  0.12259780  1
  Co  Co90  1  0.12363932  0.87321830  0.37690137  1
  Co  Co91  1  0.37207371  0.37675764  0.12427704  1
  Co  Co92  1  0.87759697  0.37165168  0.37312636  1
  Co  Co93  1  0.87228266  0.62342979  0.12926727  1
  Co  Co94  1  0.24480326  0.75168275  0.74683475  1
  Co  Co95  1  0.24733473  0.24925937  0.24712507  1
  Co  Co96  1  0.37472265  0.87470034  0.12913891  1
  Co  Co97  1  0.49943708  0.00253343  0.75173555  1
  Co  Co98  1  0.12319665  0.88645338  0.12130697  1
  Co  Co99  1  -0.00134457  0.00040940  0.25351577  1
  Co  Co100  1  0.62533314  0.37698649  0.62271841  1
  Co  Co101  1  0.74649614  0.74958893  0.74926802  1
  Co  Co102  1  0.37967709  0.86719028  0.87079478  1
  Co  Co103  1  0.74832109  0.25284809  0.75221557  1
  Co  Co104  1  0.12590765  0.62084699  0.12262279  1
  Co  Co105  1  0.75372140  0.50166665  -0.00298897  1
  Co  Co106  1  0.12058942  0.86877633  0.87982220  1
  Co  Co107  1  0.74956660  0.49924048  0.25385151  1
  Co  Co108  1  0.49651081  0.50189709  0.49752839  1
  Co  Co109  1  0.00543033  0.74918671  0.74395738  1
  Co  Co110  1  0.12595500  0.12600311  0.87659694  1
  Co  Co111  1  0.12500298  0.88037711  0.62341622  1
  Co  Co112  1  0.25062537  -0.00374687  0.25453682  1
  Co  Co113  1  0.62382891  0.12336939  0.37378322  1
  Co  Co114  1  0.25371736  0.50480739  -0.00205798  1
  Co  Co115  1  0.75079426  -0.00275243  0.75297549  1
  Co  Co116  1  0.87594906  0.87807533  0.12598575  1
  Co  Co117  1  0.50392384  0.74534267  0.74700954  1
  Co  Co118  1  0.62610611  0.87790407  0.12324632  1
  Co  Co119  1  0.37184927  0.63171130  0.37204030  1
  Co  Co120  1  0.25594662  -0.00577749  -0.00810860  1
  Co  Co121  1  0.50527476  0.74804904  0.24700339  1
  Co  Co122  1  0.62194966  0.37555733  0.87978088  1
  Co  Co123  1  0.12626210  0.61997670  0.62349578  1
  Co  Co124  1  -0.00422291  0.00068958  -0.00657641  1
  Co  Co125  1  0.87735082  0.62941482  0.87247083  1
  Co  Co126  1  0.24119589  0.75237550  0.24432625  1
  Co  Co127  1  0.24978808  0.24732026  0.00184717  1
