# generated using pymatgen
data_Fe45Co19
_symmetry_space_group_name_H-M   'P 1'
_cell_length_a   11.41523192
_cell_length_b   11.41412136
_cell_length_c   11.41547275
_cell_angle_alpha   90.00620886
_cell_angle_beta   90.00892898
_cell_angle_gamma   89.98915356
_symmetry_Int_Tables_number   1
_chemical_formula_structural   Fe45Co19
_chemical_formula_sum   'Fe90 Co38'
_cell_volume   1487.37717046
_cell_formula_units_Z   2
loop_
 _symmetry_equiv_pos_site_id
 _symmetry_equiv_pos_as_xyz
  1  'x, y, z'
loop_
 _atom_site_type_symbol
 _atom_site_label
 _atom_site_symmetry_multiplicity
 _atom_site_fract_x
 _atom_site_fract_y
 _atom_site_fract_z
 _atom_site_occupancy
  Fe  Fe0  1  0.62523125  0.62235323  0.62878561  1
  Fe  Fe1  1  0.62151269  0.87878604  0.87714550  1
  Fe  Fe2  1  0.25028516  0.00094954  0.00240942  1
  Fe  Fe3  1  0.62289974  0.12341607  0.62681114  1
  Fe  Fe4  1  0.37528813  0.87248736  0.87729282  1
  Fe  Fe5  1  0.00309720  0.24974262  0.00113621  1
  Fe  Fe6  1  0.74814377  0.75002280  -0.00035615  1
  Fe  Fe7  1  0.62606002  0.37721116  0.12400432  1
  Fe  Fe8  1  0.12773855  0.87399032  0.87344236  1
  Fe  Fe9  1  0.50275738  0.74902140  0.49929031  1
  Fe  Fe10  1  0.37487168  0.12473395  0.62129512  1
  Fe  Fe11  1  0.62409643  0.87693075  0.62389179  1
  Fe  Fe12  1  0.12600878  0.37942573  0.12833527  1
  Fe  Fe13  1  0.75267005  -0.00043368  0.25096475  1
  Fe  Fe14  1  0.37596644  0.12659427  0.87628045  1
  Fe  Fe15  1  0.25052677  0.50355462  -0.00248885  1
  Fe  Fe16  1  0.87507740  0.12817819  0.37790092  1
  Fe  Fe17  1  -0.00055708  0.24781755  0.74767931  1
  Fe  Fe18  1  0.00117863  0.00198170  0.49995814  1
  Fe  Fe19  1  0.50052152  0.74747703  0.00402167  1
  Fe  Fe20  1  0.50056361  0.25134524  0.50017751  1
  Fe  Fe21  1  0.75112110  0.74928242  0.24939951  1
  Fe  Fe22  1  0.50118540  0.24844386  0.00187465  1
  Fe  Fe23  1  0.87606626  0.37297736  0.87570193  1
  Fe  Fe24  1  0.87428738  0.87364295  0.37738639  1
  Fe  Fe25  1  0.87513864  0.87609179  0.87651656  1
  Fe  Fe26  1  0.50077102  0.74873925  0.24918705  1
  Fe  Fe27  1  0.25364398  0.25187869  0.74908330  1
  Fe  Fe28  1  -0.00382624  0.49951488  0.74585495  1
  Fe  Fe29  1  0.87552422  0.62457387  0.12364454  1
  Fe  Fe30  1  0.49870336  0.49916014  0.25055565  1
  Fe  Fe31  1  0.37625280  0.37302565  0.37723891  1
  Fe  Fe32  1  0.37654920  0.62249586  0.62411275  1
  Fe  Fe33  1  0.12649993  0.12513867  0.87313155  1
  Fe  Fe34  1  0.00045554  0.00153028  0.74933482  1
  Fe  Fe35  1  0.87360955  0.62647872  0.87090661  1
  Fe  Fe36  1  0.62693308  0.62368110  0.37306336  1
  Fe  Fe37  1  0.25592374  0.49915068  0.75279105  1
  Fe  Fe38  1  0.37351198  0.37609551  0.12434209  1
  Fe  Fe39  1  0.75512052  0.49766715  0.24968361  1
  Fe  Fe40  1  0.74775127  0.74959990  0.50042483  1
  Fe  Fe41  1  0.87651773  0.12316525  0.12252996  1
  Fe  Fe42  1  0.00359953  0.24903185  0.50297890  1
  Fe  Fe43  1  0.00027182  0.74861449  0.24990072  1
  Fe  Fe44  1  0.12457900  0.87583256  0.37376598  1
  Fe  Fe45  1  0.75178853  0.25259867  0.24996927  1
  Fe  Fe46  1  0.00138112  0.50142999  -0.00036446  1
  Fe  Fe47  1  0.12766962  0.62420271  0.62721228  1
  Fe  Fe48  1  0.62269853  0.37794562  0.62595380  1
  Fe  Fe49  1  0.12857113  0.37319964  0.62503199  1
  Fe  Fe50  1  0.49906118  0.75102449  0.74783823  1
  Fe  Fe51  1  0.00113796  0.75082196  0.74819950  1
  Fe  Fe52  1  0.12556132  0.37548646  0.87331163  1
  Fe  Fe53  1  0.87297151  0.87535578  0.62429599  1
  Fe  Fe54  1  0.24841870  0.74875279  0.49981919  1
  Fe  Fe55  1  0.49718466  -0.00302909  0.25015513  1
  Fe  Fe56  1  0.87519685  0.12451301  0.87648798  1
  Fe  Fe57  1  0.00366696  0.74815430  -0.00102875  1
  Fe  Fe58  1  0.62488631  0.62374994  0.87153776  1
  Fe  Fe59  1  0.74848941  0.24793292  0.00038107  1
  Fe  Fe60  1  0.62668838  0.37573446  0.37573484  1
  Fe  Fe61  1  0.24733684  0.74557749  0.00177725  1
  Fe  Fe62  1  0.49819307  0.50149825  -0.00122330  1
  Fe  Fe63  1  0.25311457  -0.00028288  0.75027520  1
  Fe  Fe64  1  0.62551874  0.87636038  0.12548955  1
  Fe  Fe65  1  0.24792428  0.49882653  0.49586804  1
  Fe  Fe66  1  0.12751561  0.87801533  0.62467460  1
  Fe  Fe67  1  0.25004706  0.25008723  0.25433017  1
  Fe  Fe68  1  0.37565169  0.87446776  0.37581295  1
  Fe  Fe69  1  0.74683810  0.00115933  0.49809802  1
  Fe  Fe70  1  0.24883038  0.00585387  0.49387720  1
  Fe  Fe71  1  0.12459266  0.87775850  0.12747444  1
  Fe  Fe72  1  0.12284466  0.12152693  0.13059243  1
  Fe  Fe73  1  0.37483650  0.87700498  0.62119974  1
  Fe  Fe74  1  0.00254655  0.74802525  0.50216551  1
  Fe  Fe75  1  0.75198418  0.49972293  0.50372606  1
  Fe  Fe76  1  0.24919556  0.74863528  0.24930151  1
  Fe  Fe77  1  0.87630188  0.87677099  0.12195755  1
  Fe  Fe78  1  0.74878101  0.00026774  0.75186793  1
  Fe  Fe79  1  0.62176537  0.12544577  0.37252532  1
  Fe  Fe80  1  0.87829364  0.62285792  0.37858148  1
  Fe  Fe81  1  -0.00383652  0.25505483  0.24910295  1
  Fe  Fe82  1  0.37534070  0.12553161  0.12855052  1
  Fe  Fe83  1  0.24758974  0.24903123  0.00216978  1
  Fe  Fe84  1  0.49627983  0.25304235  0.74912360  1
  Fe  Fe85  1  0.62436799  0.12328349  0.12699067  1
  Fe  Fe86  1  0.62373362  0.37405528  0.87427403  1
  Fe  Fe87  1  0.75052868  0.50046460  -0.00199679  1
  Fe  Fe88  1  0.75081316  0.25046193  0.74828608  1
  Fe  Fe89  1  0.37500460  0.62565254  0.37498796  1
  Co  Co90  1  0.37444971  0.37152042  0.88052708  1
  Co  Co91  1  0.49656983  -0.00084207  0.75073785  1
  Co  Co92  1  0.37408655  0.62366404  0.12640454  1
  Co  Co93  1  0.50147773  -0.00060800  0.49785112  1
  Co  Co94  1  0.12291645  0.62348679  0.37303780  1
  Co  Co95  1  0.12511725  0.62419685  0.86962755  1
  Co  Co96  1  0.87225255  0.62943603  0.62647586  1
  Co  Co97  1  0.62496833  0.87382068  0.37249052  1
  Co  Co98  1  0.75255185  0.49603117  0.74905269  1
  Co  Co99  1  -0.00428463  -0.00208376  0.25229807  1
  Co  Co100  1  0.49761004  0.00289626  0.00175699  1
  Co  Co101  1  0.00159946  0.50137390  0.50504181  1
  Co  Co102  1  0.37366905  0.87328306  0.12424086  1
  Co  Co103  1  0.12101691  0.37516589  0.37502321  1
  Co  Co104  1  0.74826214  0.00151421  -0.00069390  1
  Co  Co105  1  0.25241356  0.00135735  0.25340619  1
  Co  Co106  1  0.87499101  0.37052448  0.62098859  1
  Co  Co107  1  0.37403640  0.37740942  0.61917532  1
  Co  Co108  1  0.00376540  0.00008789  -0.00190588  1
  Co  Co109  1  0.74428326  0.24920011  0.50096348  1
  Co  Co110  1  0.12852106  0.12493846  0.62667666  1
  Co  Co111  1  0.87582381  0.37398385  0.38227597  1
  Co  Co112  1  0.24938179  0.24783766  0.49558635  1
  Co  Co113  1  0.37610805  0.62996575  0.87469867  1
  Co  Co114  1  0.74692952  0.75415076  0.75154766  1
  Co  Co115  1  0.38115920  0.12690362  0.37385919  1
  Co  Co116  1  0.25218544  0.75032456  0.74693185  1
  Co  Co117  1  0.62253163  0.12608156  0.87259814  1
  Co  Co118  1  0.49572999  0.49753907  0.75329538  1
  Co  Co119  1  0.87256044  0.12372099  0.62340187  1
  Co  Co120  1  -0.00464878  0.49750288  0.25011454  1
  Co  Co121  1  0.11981273  0.12671077  0.37077244  1
  Co  Co122  1  0.87418975  0.37527151  0.11996212  1
  Co  Co123  1  0.12504680  0.62106763  0.12926901  1
  Co  Co124  1  0.62619959  0.62241638  0.12656913  1
  Co  Co125  1  0.25264701  0.49879232  0.25462185  1
  Co  Co126  1  0.50125221  0.25485140  0.24879005  1
  Co  Co127  1  0.50138169  0.50107622  0.49674620  1
