# generated using pymatgen
data_Fe45Co19
_symmetry_space_group_name_H-M   'P 1'
_cell_length_a   11.41503863
_cell_length_b   11.41485526
_cell_length_c   11.41557857
_cell_angle_alpha   89.99333165
_cell_angle_beta   90.01383714
_cell_angle_gamma   89.99931948
_symmetry_Int_Tables_number   1
_chemical_formula_structural   Fe45Co19
_chemical_formula_sum   'Fe90 Co38'
_cell_volume   1487.46140694
_cell_formula_units_Z   2
loop_
 _symmetry_equiv_pos_site_id
 _symmetry_equiv_pos_as_xyz
  1  'x, y, z'
loop_
 _atom_site_type_symbol
 _atom_site_label
 _atom_site_symmetry_multiplicity
 _atom_site_fract_x
 _atom_site_fract_y
 _atom_site_fract_z
 _atom_site_occupancy
  Fe  Fe0  1  0.00012290  0.49783184  -0.00174500  1
  Fe  Fe1  1  0.00180388  0.75030468  0.49991828  1
  Fe  Fe2  1  0.12575299  0.62558628  0.87591182  1
  Fe  Fe3  1  0.50011868  -0.00133675  0.49910737  1
  Fe  Fe4  1  0.25417349  0.24878468  0.24985464  1
  Fe  Fe5  1  0.62699351  0.12305870  0.62369465  1
  Fe  Fe6  1  0.00296761  0.49878356  0.50148099  1
  Fe  Fe7  1  0.49798469  0.25022937  0.49882030  1
  Fe  Fe8  1  0.49828772  0.25101010  0.00070592  1
  Fe  Fe9  1  0.37675283  0.37459395  0.62786107  1
  Fe  Fe10  1  0.74885482  0.49770962  0.50023836  1
  Fe  Fe11  1  0.24815502  -0.00118909  0.74957795  1
  Fe  Fe12  1  0.24833769  -0.00353486  0.50193635  1
  Fe  Fe13  1  0.49828857  0.50040354  0.50003036  1
  Fe  Fe14  1  0.62657891  0.62347440  0.87368757  1
  Fe  Fe15  1  0.75131309  0.50124048  0.24947492  1
  Fe  Fe16  1  0.87481332  0.62271013  0.87379181  1
  Fe  Fe17  1  0.75151737  0.75190335  0.49985067  1
  Fe  Fe18  1  0.74890301  -0.00293220  -0.00071045  1
  Fe  Fe19  1  0.50217645  -0.00026729  0.75307413  1
  Fe  Fe20  1  0.62387105  0.87325406  0.12533373  1
  Fe  Fe21  1  0.12883893  0.37616223  0.37561010  1
  Fe  Fe22  1  0.75259794  0.74816788  0.24958013  1
  Fe  Fe23  1  0.75188006  0.75141286  0.00005588  1
  Fe  Fe24  1  0.00060325  0.24971718  0.24905838  1
  Fe  Fe25  1  0.49885813  0.74812574  -0.00069299  1
  Fe  Fe26  1  0.62594894  0.62629721  0.37498744  1
  Fe  Fe27  1  0.75159322  0.25494520  0.00112775  1
  Fe  Fe28  1  0.87663216  0.87625521  0.87262601  1
  Fe  Fe29  1  0.37560797  0.87427345  0.87553607  1
  Fe  Fe30  1  0.25271311  0.25146230  0.49974828  1
  Fe  Fe31  1  0.24883524  0.75300601  0.50346290  1
  Fe  Fe32  1  0.12556408  0.12490760  0.62374762  1
  Fe  Fe33  1  0.12776927  0.62433298  0.37805936  1
  Fe  Fe34  1  0.62432192  0.37254886  0.37273065  1
  Fe  Fe35  1  0.87497843  0.12491320  0.12516375  1
  Fe  Fe36  1  0.50075914  0.74958026  0.74956782  1
  Fe  Fe37  1  0.37729560  0.87404837  0.12432785  1
  Fe  Fe38  1  -0.00165698  0.25235823  0.00123847  1
  Fe  Fe39  1  0.12742280  0.12487243  0.37465151  1
  Fe  Fe40  1  0.37388274  0.37800766  0.12568698  1
  Fe  Fe41  1  0.24679917  0.75342361  0.74712512  1
  Fe  Fe42  1  0.24891798  0.24949655  0.75091848  1
  Fe  Fe43  1  0.62642594  0.87627419  0.62558245  1
  Fe  Fe44  1  0.74601842  0.25462776  0.75045653  1
  Fe  Fe45  1  0.37531567  0.12410236  0.87732693  1
  Fe  Fe46  1  0.37343719  0.62416749  0.37460127  1
  Fe  Fe47  1  0.75121077  0.00053368  0.24971850  1
  Fe  Fe48  1  0.75154819  0.74995355  0.74984431  1
  Fe  Fe49  1  0.87774075  0.87522265  0.37204706  1
  Fe  Fe50  1  0.12688422  0.37761330  0.12400090  1
  Fe  Fe51  1  0.87502689  0.37520408  0.62647903  1
  Fe  Fe52  1  0.24971083  0.49732757  0.75266355  1
  Fe  Fe53  1  0.49877501  0.75010349  0.49975041  1
  Fe  Fe54  1  0.00128753  0.50275858  0.25180513  1
  Fe  Fe55  1  0.87858138  0.62645190  0.12383338  1
  Fe  Fe56  1  0.62399723  0.37541987  0.12593614  1
  Fe  Fe57  1  0.49735283  0.00237136  0.24838104  1
  Fe  Fe58  1  0.24919162  0.74587830  0.24695730  1
  Fe  Fe59  1  0.00118202  0.00034278  0.49828722  1
  Fe  Fe60  1  0.62472785  0.12668072  0.37339102  1
  Fe  Fe61  1  0.62477045  0.12662579  0.87729191  1
  Fe  Fe62  1  0.49469574  0.50213911  -0.00492316  1
  Fe  Fe63  1  0.62623434  0.62298125  0.62552952  1
  Fe  Fe64  1  0.49874682  0.50058882  0.25146028  1
  Fe  Fe65  1  0.00048770  0.25108243  0.50070944  1
  Fe  Fe66  1  0.00272179  0.49928176  0.74921766  1
  Fe  Fe67  1  0.87514931  0.62334915  0.62413275  1
  Fe  Fe68  1  0.87349595  0.12643712  0.87481216  1
  Fe  Fe69  1  0.87734902  0.87851429  0.62809295  1
  Fe  Fe70  1  0.62479120  0.87407033  0.37335305  1
  Fe  Fe71  1  0.24917947  0.00215737  0.24664698  1
  Fe  Fe72  1  0.25086650  0.25224540  -0.00027159  1
  Fe  Fe73  1  0.62383049  0.12642054  0.12552281  1
  Fe  Fe74  1  0.11808600  0.87143377  0.12868351  1
  Fe  Fe75  1  0.24786930  -0.00183994  0.00256341  1
  Fe  Fe76  1  0.75195794  0.49718255  -0.00069233  1
  Fe  Fe77  1  0.87455088  0.12619426  0.37410440  1
  Fe  Fe78  1  0.00008747  -0.00006736  0.00127507  1
  Fe  Fe79  1  0.62323176  0.62517634  0.12486267  1
  Fe  Fe80  1  0.00207741  0.24975607  0.74991633  1
  Fe  Fe81  1  0.87452549  0.37556465  0.37302053  1
  Fe  Fe82  1  0.12212149  0.87483276  0.87348396  1
  Fe  Fe83  1  0.12508723  0.12606192  0.87818267  1
  Fe  Fe84  1  0.37296844  0.87512509  0.37376070  1
  Fe  Fe85  1  0.37574158  0.12277105  0.62582087  1
  Fe  Fe86  1  0.74972715  0.25115434  0.49975918  1
  Fe  Fe87  1  0.37296520  0.62501999  0.62738082  1
  Fe  Fe88  1  0.24900417  0.74725957  0.00299782  1
  Fe  Fe89  1  0.87212629  0.12304975  0.62618296  1
  Co  Co90  1  0.87400447  0.62304487  0.37894906  1
  Co  Co91  1  -0.00049477  0.74677323  0.75020402  1
  Co  Co92  1  0.62255271  0.37712153  0.87719130  1
  Co  Co93  1  0.37742651  0.62393403  0.12603695  1
  Co  Co94  1  0.87779082  0.87402200  0.12666265  1
  Co  Co95  1  0.37628781  0.37118819  0.87264144  1
  Co  Co96  1  0.25191479  0.49872808  0.50275531  1
  Co  Co97  1  0.12511374  0.12812362  0.12380646  1
  Co  Co98  1  0.37152387  0.63006453  0.87120316  1
  Co  Co99  1  0.12681030  0.62435081  0.62497605  1
  Co  Co100  1  0.00132830  0.00383188  0.24981890  1
  Co  Co101  1  0.12467373  0.37410989  0.87673385  1
  Co  Co102  1  0.49896661  0.74906933  0.25111073  1
  Co  Co103  1  0.49512361  0.24888384  0.24966113  1
  Co  Co104  1  -0.00074519  0.75085685  -0.00342369  1
  Co  Co105  1  0.74858918  0.49720532  0.74974037  1
  Co  Co106  1  0.11927572  0.87640660  0.62693754  1
  Co  Co107  1  0.37755259  0.87600229  0.62611306  1
  Co  Co108  1  0.12621945  0.87469313  0.37125486  1
  Co  Co109  1  0.37455817  0.12421286  0.12008499  1
  Co  Co110  1  0.87651492  0.37683032  0.12814442  1
  Co  Co111  1  0.37351729  0.37776413  0.37419108  1
  Co  Co112  1  0.87612694  0.37470346  0.87200698  1
  Co  Co113  1  0.12106325  0.62340699  0.12139346  1
  Co  Co114  1  0.24921945  0.50377730  0.24772300  1
  Co  Co115  1  0.12695998  0.37359965  0.62477939  1
  Co  Co116  1  0.75119727  0.25014434  0.24860086  1
  Co  Co117  1  0.50200420  -0.00134257  -0.00076846  1
  Co  Co118  1  0.62382973  0.87107723  0.87527286  1
  Co  Co119  1  0.00177137  0.00514186  0.75184693  1
  Co  Co120  1  -0.00047801  0.74398740  0.25358097  1
  Co  Co121  1  0.37347530  0.12171952  0.37727360  1
  Co  Co122  1  0.62170509  0.37688277  0.62392191  1
  Co  Co123  1  0.75117861  -0.00079377  0.49721875  1
  Co  Co124  1  0.25316768  0.50210305  -0.00272907  1
  Co  Co125  1  0.49892812  0.50144286  0.75197265  1
  Co  Co126  1  0.50312103  0.24770374  0.74939929  1
  Co  Co127  1  0.74743370  -0.00030660  0.75356073  1
