# generated using pymatgen
data_Fe45Co19
_symmetry_space_group_name_H-M   'P 1'
_cell_length_a   11.42249588
_cell_length_b   11.42242198
_cell_length_c   11.42300109
_cell_angle_alpha   90.00100511
_cell_angle_beta   90.00383340
_cell_angle_gamma   90.00657046
_symmetry_Int_Tables_number   1
_chemical_formula_structural   Fe45Co19
_chemical_formula_sum   'Fe90 Co38'
_cell_volume   1490.38827422
_cell_formula_units_Z   2
loop_
 _symmetry_equiv_pos_site_id
 _symmetry_equiv_pos_as_xyz
  1  'x, y, z'
loop_
 _atom_site_type_symbol
 _atom_site_label
 _atom_site_symmetry_multiplicity
 _atom_site_fract_x
 _atom_site_fract_y
 _atom_site_fract_z
 _atom_site_occupancy
  Fe  Fe0  1  0.25484464  0.75023164  0.00218840  1
  Fe  Fe1  1  0.25215814  -0.00138860  -0.00385987  1
  Fe  Fe2  1  0.12518878  0.62731185  0.37376533  1
  Fe  Fe3  1  0.00139111  0.25447715  0.49994497  1
  Fe  Fe4  1  0.49902713  0.50165866  -0.00335121  1
  Fe  Fe5  1  0.49825446  0.24902640  0.25016206  1
  Fe  Fe6  1  0.75065700  0.74769818  -0.00221190  1
  Fe  Fe7  1  0.00277708  0.75274115  0.24614051  1
  Fe  Fe8  1  0.87696256  0.12473389  0.62608352  1
  Fe  Fe9  1  0.75056604  0.50160231  -0.00311013  1
  Fe  Fe10  1  0.49862667  0.00025021  0.49863925  1
  Fe  Fe11  1  0.75108846  0.00011614  -0.00050838  1
  Fe  Fe12  1  0.37339532  0.37207106  0.87536585  1
  Fe  Fe13  1  0.00188050  0.50273431  -0.00236992  1
  Fe  Fe14  1  0.24808921  0.75139194  0.75064202  1
  Fe  Fe15  1  0.37382517  0.62499811  0.62616016  1
  Fe  Fe16  1  0.75102188  0.24958153  0.50062460  1
  Fe  Fe17  1  -0.00120946  0.25338620  0.24891368  1
  Fe  Fe18  1  0.62746132  0.62525064  0.63075902  1
  Fe  Fe19  1  0.49998409  0.50116554  0.50212405  1
  Fe  Fe20  1  0.49788165  0.00189773  0.75553282  1
  Fe  Fe21  1  0.75079832  -0.00287116  0.75221260  1
  Fe  Fe22  1  0.49929036  0.75033458  0.50345725  1
  Fe  Fe23  1  0.87429805  0.87231870  0.62587028  1
  Fe  Fe24  1  0.62323228  0.87485641  0.12301036  1
  Fe  Fe25  1  0.75290247  0.25274434  0.24819376  1
  Fe  Fe26  1  0.62072055  0.87159272  0.87776192  1
  Fe  Fe27  1  0.62450819  0.12312088  0.62728560  1
  Fe  Fe28  1  0.12498705  0.37458714  0.87423334  1
  Fe  Fe29  1  0.24997749  0.50137404  0.75255947  1
  Fe  Fe30  1  0.87620690  0.12540333  0.87394116  1
  Fe  Fe31  1  0.12414356  0.12633299  0.87548868  1
  Fe  Fe32  1  0.49934972  0.00131201  0.25030117  1
  Fe  Fe33  1  0.49874777  0.50125039  0.25036976  1
  Fe  Fe34  1  0.62624802  0.87558193  0.62561618  1
  Fe  Fe35  1  0.24903945  0.74981911  0.49990637  1
  Fe  Fe36  1  0.12364756  0.62452794  0.62842140  1
  Fe  Fe37  1  0.24981138  0.24709868  0.50131240  1
  Fe  Fe38  1  -0.00002217  0.75049211  0.50158537  1
  Fe  Fe39  1  0.37286878  0.37542394  0.37560699  1
  Fe  Fe40  1  0.75180550  0.25238300  0.74992719  1
  Fe  Fe41  1  0.87737424  0.62501137  0.87031206  1
  Fe  Fe42  1  0.37409523  0.37518036  0.62596303  1
  Fe  Fe43  1  0.12245172  0.87091079  0.87935968  1
  Fe  Fe44  1  0.62572621  0.37552812  0.37502178  1
  Fe  Fe45  1  -0.00054809  0.25009487  0.00200487  1
  Fe  Fe46  1  0.37258991  0.87370774  0.37398268  1
  Fe  Fe47  1  0.62446339  0.37578281  0.62664312  1
  Fe  Fe48  1  0.12467260  0.12306905  0.12301085  1
  Fe  Fe49  1  0.00105405  -0.00239638  0.50164651  1
  Fe  Fe50  1  0.50101908  0.24755824  -0.00187005  1
  Fe  Fe51  1  0.87693572  0.12442899  0.37432233  1
  Fe  Fe52  1  0.24850561  0.50101323  0.49960413  1
  Fe  Fe53  1  0.24742845  -0.00279851  0.24846732  1
  Fe  Fe54  1  0.75258153  0.25131164  0.00048546  1
  Fe  Fe55  1  0.62312730  0.62660234  0.37529892  1
  Fe  Fe56  1  0.49811499  0.24771911  0.49946126  1
  Fe  Fe57  1  0.75073230  -0.00039509  0.49982120  1
  Fe  Fe58  1  0.75149695  -0.00178677  0.24875197  1
  Fe  Fe59  1  0.87511785  0.87331214  0.37488991  1
  Fe  Fe60  1  0.00347390  -0.00323533  0.75012951  1
  Fe  Fe61  1  0.25061463  0.50213075  0.25089878  1
  Fe  Fe62  1  0.00258167  0.49759755  0.50034993  1
  Fe  Fe63  1  0.62620866  0.12418794  0.12375702  1
  Fe  Fe64  1  0.62454602  0.62424971  0.12297491  1
  Fe  Fe65  1  0.62459777  0.37673222  0.12397825  1
  Fe  Fe66  1  0.62613057  0.12509548  0.37411974  1
  Fe  Fe67  1  0.87539210  0.62488203  0.62890997  1
  Fe  Fe68  1  0.12374830  0.12440271  0.37447963  1
  Fe  Fe69  1  0.87672589  0.62390286  0.37297968  1
  Fe  Fe70  1  0.12754349  0.62574916  0.12384959  1
  Fe  Fe71  1  0.87522792  0.62268154  0.12761150  1
  Fe  Fe72  1  -0.00014123  -0.00382266  0.24558481  1
  Fe  Fe73  1  0.62544243  0.37631012  0.87401880  1
  Fe  Fe74  1  0.25007182  0.24948705  0.24730416  1
  Fe  Fe75  1  0.37240934  0.87774331  0.62833149  1
  Fe  Fe76  1  0.24975333  0.50004462  -0.00327306  1
  Fe  Fe77  1  0.37529717  0.37588736  0.12275767  1
  Fe  Fe78  1  0.49982979  0.24833165  0.75200934  1
  Fe  Fe79  1  0.74972177  0.50251513  0.50020084  1
  Fe  Fe80  1  0.24930024  0.24727020  0.74819551  1
  Fe  Fe81  1  0.24801759  0.00193340  0.50161427  1
  Fe  Fe82  1  0.37422942  0.12398702  0.12156572  1
  Fe  Fe83  1  0.75003110  0.74961151  0.24967204  1
  Fe  Fe84  1  0.49523776  0.74758428  0.24702725  1
  Fe  Fe85  1  0.62448789  0.87236683  0.37512476  1
  Fe  Fe86  1  0.87889572  0.87380698  0.87806731  1
  Fe  Fe87  1  0.12443551  0.37802052  0.12477085  1
  Fe  Fe88  1  -0.00016166  0.25401479  0.74800518  1
  Fe  Fe89  1  0.37773405  0.62817582  0.87390535  1
  Co  Co90  1  0.00400131  0.49939027  0.25128114  1
  Co  Co91  1  0.37736474  0.87114921  0.87377685  1
  Co  Co92  1  0.87398296  0.37758885  0.62347675  1
  Co  Co93  1  0.87375447  0.87310457  0.12116928  1
  Co  Co94  1  0.00183759  0.49759672  0.75050812  1
  Co  Co95  1  -0.00253133  0.74456425  0.00229392  1
  Co  Co96  1  0.37208540  0.12348268  0.37380235  1
  Co  Co97  1  0.12615441  0.62836473  0.87504001  1
  Co  Co98  1  0.12546007  0.87358571  0.11801694  1
  Co  Co99  1  0.37643161  0.87880725  0.12533460  1
  Co  Co100  1  0.49738463  0.74794616  0.00413725  1
  Co  Co101  1  0.00163360  0.75180121  0.74987306  1
  Co  Co102  1  0.75150726  0.49776096  0.75223414  1
  Co  Co103  1  0.87469474  0.12484418  0.12487965  1
  Co  Co104  1  0.12887444  0.37401032  0.37396040  1
  Co  Co105  1  0.12519749  0.87488832  0.37624156  1
  Co  Co106  1  0.24604930  -0.00107147  0.75389578  1
  Co  Co107  1  0.87639127  0.38087840  0.12386878  1
  Co  Co108  1  0.75066102  0.74782269  0.50027015  1
  Co  Co109  1  0.74698157  0.50080075  0.25014460  1
  Co  Co110  1  0.49889092  0.00300950  -0.00329012  1
  Co  Co111  1  0.12906660  0.37626931  0.62679401  1
  Co  Co112  1  0.62236871  0.62629249  0.87256524  1
  Co  Co113  1  0.12205883  0.12553955  0.62525121  1
  Co  Co114  1  0.37609269  0.12213628  0.62778830  1
  Co  Co115  1  0.50044393  0.75050849  0.74607175  1
  Co  Co116  1  0.37050455  0.12825309  0.87681080  1
  Co  Co117  1  0.37491528  0.62591024  0.37757310  1
  Co  Co118  1  0.25000408  0.75019621  0.24817783  1
  Co  Co119  1  -0.00097615  0.00239937  0.00102751  1
  Co  Co120  1  0.87730191  0.37528942  0.87742276  1
  Co  Co121  1  0.87331302  0.37876216  0.37486961  1
  Co  Co122  1  0.75014865  0.75286984  0.75373793  1
  Co  Co123  1  0.62984890  0.12559660  0.87475384  1
  Co  Co124  1  0.49715466  0.49983988  0.75131532  1
  Co  Co125  1  0.12705370  0.87321426  0.62432893  1
  Co  Co126  1  0.24634947  0.25185521  0.00276826  1
  Co  Co127  1  0.37278868  0.62062459  0.12303451  1
