# generated using pymatgen
data_Fe45Co19
_symmetry_space_group_name_H-M   'P 1'
_cell_length_a   11.41417649
_cell_length_b   11.41597717
_cell_length_c   11.41455954
_cell_angle_alpha   90.00877489
_cell_angle_beta   89.98302598
_cell_angle_gamma   89.99711216
_symmetry_Int_Tables_number   1
_chemical_formula_structural   Fe45Co19
_chemical_formula_sum   'Fe90 Co38'
_cell_volume   1487.36243309
_cell_formula_units_Z   2
loop_
 _symmetry_equiv_pos_site_id
 _symmetry_equiv_pos_as_xyz
  1  'x, y, z'
loop_
 _atom_site_type_symbol
 _atom_site_label
 _atom_site_symmetry_multiplicity
 _atom_site_fract_x
 _atom_site_fract_y
 _atom_site_fract_z
 _atom_site_occupancy
  Fe  Fe0  1  -0.00145318  0.49985838  0.24960032  1
  Fe  Fe1  1  0.87708675  0.12501158  0.37380011  1
  Fe  Fe2  1  0.37995493  0.12417832  0.87184848  1
  Fe  Fe3  1  0.62995224  0.62697805  0.62814505  1
  Fe  Fe4  1  0.87369515  0.62833567  0.87662453  1
  Fe  Fe5  1  0.87210806  0.37570204  0.62235540  1
  Fe  Fe6  1  -0.00177713  0.75195051  0.00539275  1
  Fe  Fe7  1  0.75101002  0.49920950  0.75093543  1
  Fe  Fe8  1  0.12452446  0.62525892  0.12615368  1
  Fe  Fe9  1  0.25167719  0.50058320  0.25016688  1
  Fe  Fe10  1  0.25003162  0.50336205  -0.00069842  1
  Fe  Fe11  1  0.74441637  0.50707089  0.00075187  1
  Fe  Fe12  1  0.75507450  0.75047254  0.24842841  1
  Fe  Fe13  1  0.12491830  0.37364734  0.87569661  1
  Fe  Fe14  1  0.12626622  0.37506867  0.62651368  1
  Fe  Fe15  1  0.50145073  -0.00161598  -0.00007229  1
  Fe  Fe16  1  0.87252045  0.37648662  0.12226090  1
  Fe  Fe17  1  0.12556660  0.87743812  0.62544460  1
  Fe  Fe18  1  -0.00216556  0.25081829  0.74947375  1
  Fe  Fe19  1  0.25026042  0.24655433  -0.00098370  1
  Fe  Fe20  1  0.37761879  0.37633144  0.87664961  1
  Fe  Fe21  1  0.00110118  0.50094486  -0.00102676  1
  Fe  Fe22  1  0.62111704  0.12428874  0.37323717  1
  Fe  Fe23  1  0.74637517  0.25019481  0.75249282  1
  Fe  Fe24  1  0.37800592  0.62451183  0.87428121  1
  Fe  Fe25  1  0.74798729  -0.00048048  -0.00262116  1
  Fe  Fe26  1  0.62516973  0.37417768  0.37599342  1
  Fe  Fe27  1  0.62611386  0.87356908  0.62819781  1
  Fe  Fe28  1  0.62634815  0.87464736  0.12659896  1
  Fe  Fe29  1  0.87470427  0.87460939  0.87874431  1
  Fe  Fe30  1  0.37480797  0.62686477  0.37617344  1
  Fe  Fe31  1  0.74945431  0.24730761  0.49965026  1
  Fe  Fe32  1  0.50467946  0.74750750  -0.00113265  1
  Fe  Fe33  1  0.25132538  0.24898743  0.25191593  1
  Fe  Fe34  1  0.50277669  0.50072008  0.50160179  1
  Fe  Fe35  1  0.62537843  0.37594696  0.12316185  1
  Fe  Fe36  1  0.12605681  0.12236511  0.12750108  1
  Fe  Fe37  1  0.37664049  0.12268321  0.12572437  1
  Fe  Fe38  1  0.87629633  0.37384235  0.37730429  1
  Fe  Fe39  1  0.75010173  -0.00359112  0.75133606  1
  Fe  Fe40  1  0.25164743  -0.00140208  0.75168672  1
  Fe  Fe41  1  0.50376847  0.24903656  -0.00251092  1
  Fe  Fe42  1  0.49973301  0.25022190  0.24960865  1
  Fe  Fe43  1  0.87534590  0.12366865  0.87462162  1
  Fe  Fe44  1  0.12978932  0.87744752  0.12226288  1
  Fe  Fe45  1  0.24769769  0.24539976  0.49873643  1
  Fe  Fe46  1  -0.00544557  0.75158444  0.74396686  1
  Fe  Fe47  1  0.75087122  0.50120892  0.25222953  1
  Fe  Fe48  1  0.49881077  0.49961909  0.25027458  1
  Fe  Fe49  1  0.37677699  0.87398842  0.87856467  1
  Fe  Fe50  1  0.12311085  0.37378573  0.37364905  1
  Fe  Fe51  1  0.75113774  0.25068333  0.24989268  1
  Fe  Fe52  1  0.50111474  -0.00334366  0.49815053  1
  Fe  Fe53  1  0.24680836  0.50210350  0.49832569  1
  Fe  Fe54  1  0.25174302  0.75113183  0.75205157  1
  Fe  Fe55  1  0.00220646  0.50438978  0.50282138  1
  Fe  Fe56  1  0.12213530  0.62813599  0.87271012  1
  Fe  Fe57  1  -0.00229707  0.50054557  0.74900590  1
  Fe  Fe58  1  0.49676570  0.75489315  0.25103828  1
  Fe  Fe59  1  0.50105430  0.25222061  0.50388081  1
  Fe  Fe60  1  0.37578203  0.37494172  0.12189819  1
  Fe  Fe61  1  0.62284925  0.12335892  0.62902432  1
  Fe  Fe62  1  0.00190789  0.24626218  0.50126356  1
  Fe  Fe63  1  0.00400603  0.00287133  0.50160722  1
  Fe  Fe64  1  0.87340038  0.12318879  0.12543090  1
  Fe  Fe65  1  0.25031512  0.49970704  0.75182605  1
  Fe  Fe66  1  0.37586785  0.62722506  0.12453289  1
  Fe  Fe67  1  0.24981834  0.75228824  0.25111297  1
  Fe  Fe68  1  0.12358648  0.87456774  0.87689400  1
  Fe  Fe69  1  0.74981997  -0.00131555  0.25365387  1
  Fe  Fe70  1  -0.00149079  -0.00366806  0.24817929  1
  Fe  Fe71  1  0.87203429  0.37470818  0.87881091  1
  Fe  Fe72  1  0.37267632  0.87430140  0.62076179  1
  Fe  Fe73  1  0.25646540  -0.00266004  0.25479152  1
  Fe  Fe74  1  0.12556342  0.37444146  0.12433925  1
  Fe  Fe75  1  0.50076437  0.49656999  0.74650744  1
  Fe  Fe76  1  0.87899478  0.62945762  0.37759938  1
  Fe  Fe77  1  0.62586938  0.62860051  0.37300957  1
  Fe  Fe78  1  -0.00141511  0.24752570  0.00231891  1
  Fe  Fe79  1  0.87454374  0.12196520  0.62728792  1
  Fe  Fe80  1  0.37621299  0.12417276  0.62529594  1
  Fe  Fe81  1  0.37546171  0.37441415  0.37761973  1
  Fe  Fe82  1  0.87890689  0.87219865  0.37958607  1
  Fe  Fe83  1  0.74717127  -0.00118010  0.49796024  1
  Fe  Fe84  1  0.62540546  0.12273551  0.12648244  1
  Fe  Fe85  1  0.12272007  0.12348158  0.87283380  1
  Fe  Fe86  1  0.24354838  0.74852446  0.49774915  1
  Fe  Fe87  1  0.37237446  0.62522382  0.62406906  1
  Fe  Fe88  1  0.50329323  0.74942614  0.50118832  1
  Fe  Fe89  1  0.25216745  0.25021073  0.74996297  1
  Co  Co90  1  0.62538372  0.62764259  0.86730902  1
  Co  Co91  1  0.12575553  0.12383862  0.63039593  1
  Co  Co92  1  0.87573083  0.62310653  0.12384495  1
  Co  Co93  1  0.74676656  0.74783908  0.00087919  1
  Co  Co94  1  0.49726639  -0.00534516  0.74865208  1
  Co  Co95  1  0.74858098  0.50214531  0.49532667  1
  Co  Co96  1  0.62514511  0.37753183  0.87794365  1
  Co  Co97  1  0.63077157  0.37573596  0.62348600  1
  Co  Co98  1  0.62253376  0.12216078  0.87156216  1
  Co  Co99  1  0.12298980  0.12345532  0.36931596  1
  Co  Co100  1  0.24965773  0.74647433  -0.00193227  1
  Co  Co101  1  0.62624990  0.87223312  0.37251292  1
  Co  Co102  1  0.24784332  0.00347680  0.49800427  1
  Co  Co103  1  0.87555052  0.87947105  0.61958695  1
  Co  Co104  1  0.49615480  0.75100249  0.74778058  1
  Co  Co105  1  0.62330309  0.62804494  0.13134788  1
  Co  Co106  1  -0.00216460  0.25107571  0.24687290  1
  Co  Co107  1  0.25128090  0.00303884  -0.00357765  1
  Co  Co108  1  0.12805783  0.62478944  0.63132888  1
  Co  Co109  1  0.50224513  0.50448042  0.00158077  1
  Co  Co110  1  0.49708863  -0.00435969  0.25086622  1
  Co  Co111  1  0.75525186  0.75437558  0.74896672  1
  Co  Co112  1  0.62458348  0.87218588  0.87269040  1
  Co  Co113  1  0.12151421  0.62712304  0.36992865  1
  Co  Co114  1  -0.00053479  0.75406900  0.24410383  1
  Co  Co115  1  0.74886815  0.24651457  -0.00054258  1
  Co  Co116  1  0.37400501  0.87359219  0.11964143  1
  Co  Co117  1  0.37977330  0.12508779  0.37704508  1
  Co  Co118  1  -0.00073156  -0.00280595  0.75112163  1
  Co  Co119  1  0.12157872  0.87506013  0.37554363  1
  Co  Co120  1  0.50205861  0.25544879  0.74868121  1
  Co  Co121  1  0.00382245  0.74711868  0.50663300  1
  Co  Co122  1  0.37460030  0.87332678  0.38093517  1
  Co  Co123  1  0.37106478  0.37550311  0.62247566  1
  Co  Co124  1  0.74929915  0.75263413  0.50174556  1
  Co  Co125  1  0.00015404  0.00104990  0.00072917  1
  Co  Co126  1  0.87012827  0.87766833  0.12282287  1
  Co  Co127  1  0.86979961  0.62354790  0.62220507  1
