# generated using pymatgen
data_Fe45Co19
_symmetry_space_group_name_H-M   'P 1'
_cell_length_a   11.41499032
_cell_length_b   11.41528609
_cell_length_c   11.41573202
_cell_angle_alpha   89.98937129
_cell_angle_beta   90.00747207
_cell_angle_gamma   89.98993093
_symmetry_Int_Tables_number   1
_chemical_formula_structural   Fe45Co19
_chemical_formula_sum   'Fe90 Co38'
_cell_volume   1487.53124017
_cell_formula_units_Z   2
loop_
 _symmetry_equiv_pos_site_id
 _symmetry_equiv_pos_as_xyz
  1  'x, y, z'
loop_
 _atom_site_type_symbol
 _atom_site_label
 _atom_site_symmetry_multiplicity
 _atom_site_fract_x
 _atom_site_fract_y
 _atom_site_fract_z
 _atom_site_occupancy
  Fe  Fe0  1  0.87637073  0.87346716  0.87563008  1
  Fe  Fe1  1  0.37438975  0.12343098  0.12545208  1
  Fe  Fe2  1  0.37447063  0.12586808  0.87457016  1
  Fe  Fe3  1  0.74931052  0.74641298  0.24792258  1
  Fe  Fe4  1  0.12489231  0.87699000  0.62406398  1
  Fe  Fe5  1  0.37551546  0.12406454  0.37338666  1
  Fe  Fe6  1  0.37454638  0.62569450  0.86953207  1
  Fe  Fe7  1  0.37259391  0.37418553  0.37238417  1
  Fe  Fe8  1  0.62579626  0.12563041  0.62106505  1
  Fe  Fe9  1  0.49992435  0.75403024  0.74516346  1
  Fe  Fe10  1  0.12456034  0.62602252  0.37724189  1
  Fe  Fe11  1  -0.00027629  0.49860725  0.50030962  1
  Fe  Fe12  1  0.49989960  0.75197106  0.24782196  1
  Fe  Fe13  1  0.00261028  0.49988054  0.25120883  1
  Fe  Fe14  1  0.50330046  -0.00036332  0.24706786  1
  Fe  Fe15  1  0.49851167  0.49661251  0.50020496  1
  Fe  Fe16  1  0.25572770  0.49680605  -0.00265085  1
  Fe  Fe17  1  0.75274505  0.00238647  0.49906277  1
  Fe  Fe18  1  0.49881285  -0.00142979  0.50076061  1
  Fe  Fe19  1  0.24967893  0.50140063  0.50252439  1
  Fe  Fe20  1  0.25039024  -0.00059686  -0.00109806  1
  Fe  Fe21  1  0.62461862  0.62659373  0.87569670  1
  Fe  Fe22  1  0.87474797  0.87566675  0.37269356  1
  Fe  Fe23  1  0.87268559  0.37803727  0.12583957  1
  Fe  Fe24  1  0.00377676  -0.00284790  0.25070433  1
  Fe  Fe25  1  0.12353327  0.87461644  0.12168089  1
  Fe  Fe26  1  0.62732614  0.37133295  0.62301884  1
  Fe  Fe27  1  0.12473303  0.12546214  0.11954711  1
  Fe  Fe28  1  0.37192339  0.12509893  0.62739556  1
  Fe  Fe29  1  0.37181017  0.37521979  0.62902225  1
  Fe  Fe30  1  0.50260479  -0.00151291  0.74970744  1
  Fe  Fe31  1  0.24842077  0.50064916  0.24990381  1
  Fe  Fe32  1  0.62615497  0.87507115  0.37575155  1
  Fe  Fe33  1  0.87701651  0.12667399  0.37252275  1
  Fe  Fe34  1  0.62579180  0.37580462  0.12262729  1
  Fe  Fe35  1  0.87540518  0.37129093  0.63021511  1
  Fe  Fe36  1  0.00288892  0.75112874  0.75234286  1
  Fe  Fe37  1  0.87774394  0.62498324  0.62779946  1
  Fe  Fe38  1  0.24198655  0.25133215  0.75435881  1
  Fe  Fe39  1  0.24775622  0.24928824  0.24772009  1
  Fe  Fe40  1  0.12327254  0.12562072  0.37557119  1
  Fe  Fe41  1  -0.00111007  0.75236760  0.49887215  1
  Fe  Fe42  1  0.87597397  0.87755249  0.62669145  1
  Fe  Fe43  1  0.49919163  -0.00421763  0.00135563  1
  Fe  Fe44  1  0.24574647  0.00083075  0.75346348  1
  Fe  Fe45  1  0.00008067  0.24994224  0.50184698  1
  Fe  Fe46  1  0.74628421  0.00398714  0.24914410  1
  Fe  Fe47  1  0.50188412  0.49861485  0.74989212  1
  Fe  Fe48  1  0.62350443  0.12504122  0.87891636  1
  Fe  Fe49  1  0.62289955  0.62652321  0.37784814  1
  Fe  Fe50  1  0.37546372  0.62459478  0.12584286  1
  Fe  Fe51  1  0.50121947  0.49973313  0.25116240  1
  Fe  Fe52  1  0.12604622  0.37620391  0.12031888  1
  Fe  Fe53  1  0.25010049  0.24997907  0.49944237  1
  Fe  Fe54  1  0.50198590  0.24858994  0.74879003  1
  Fe  Fe55  1  0.24893663  0.00106465  0.49859122  1
  Fe  Fe56  1  0.87922885  0.12936195  0.87336092  1
  Fe  Fe57  1  0.00316825  0.49655634  0.75197426  1
  Fe  Fe58  1  0.37366839  0.87395143  0.87252113  1
  Fe  Fe59  1  0.00195472  0.25255047  0.24703794  1
  Fe  Fe60  1  0.50283895  0.24774374  0.24959641  1
  Fe  Fe61  1  0.62729343  0.36974429  0.37788514  1
  Fe  Fe62  1  0.75231677  0.49956922  0.50134113  1
  Fe  Fe63  1  0.37220844  0.87595593  0.37285686  1
  Fe  Fe64  1  0.75205989  -0.00016447  -0.00051549  1
  Fe  Fe65  1  0.49479165  0.25240006  0.00023740  1
  Fe  Fe66  1  0.87565453  0.12451735  0.12646567  1
  Fe  Fe67  1  0.49693927  0.49858619  -0.00088738  1
  Fe  Fe68  1  0.74851674  0.75158010  0.74839253  1
  Fe  Fe69  1  0.75244060  0.74525748  0.00147127  1
  Fe  Fe70  1  0.87748173  0.12572131  0.62811386  1
  Fe  Fe71  1  0.87689778  0.87228288  0.12547206  1
  Fe  Fe72  1  0.87441475  0.37320287  0.37294751  1
  Fe  Fe73  1  0.12323019  0.62403409  0.12255371  1
  Fe  Fe74  1  0.12688273  0.62443985  0.87377374  1
  Fe  Fe75  1  0.74746279  0.50163130  0.24961986  1
  Fe  Fe76  1  0.87682703  0.62441696  0.37323384  1
  Fe  Fe77  1  -0.00661223  0.50226427  -0.00369254  1
  Fe  Fe78  1  0.24992838  0.75038642  -0.00162954  1
  Fe  Fe79  1  0.24754191  0.75058385  0.24879995  1
  Fe  Fe80  1  0.75302453  0.25048990  0.00001265  1
  Fe  Fe81  1  0.25269765  0.74858425  0.50586503  1
  Fe  Fe82  1  0.49910228  0.75232543  0.00213158  1
  Fe  Fe83  1  0.75143591  0.74976097  0.50107548  1
  Fe  Fe84  1  0.74903805  0.49983844  0.75132265  1
  Fe  Fe85  1  0.62307252  0.62617062  0.62236518  1
  Fe  Fe86  1  0.37602828  0.62586987  0.37620783  1
  Fe  Fe87  1  0.00436374  0.00249316  0.75325993  1
  Fe  Fe88  1  0.74782651  0.00112474  0.75262155  1
  Fe  Fe89  1  0.62663939  0.37395760  0.87669219  1
  Co  Co90  1  -0.00058164  0.74678654  -0.00225690  1
  Co  Co91  1  0.87828509  0.62445893  0.12923437  1
  Co  Co92  1  0.62838153  0.87732580  0.62321284  1
  Co  Co93  1  0.24950755  0.75017230  0.74692151  1
  Co  Co94  1  0.12603138  0.12325514  0.62236762  1
  Co  Co95  1  0.62619011  0.87361300  0.87708904  1
  Co  Co96  1  0.62364347  0.12683054  0.37982309  1
  Co  Co97  1  -0.00509826  0.25147252  0.00282157  1
  Co  Co98  1  0.87461105  0.37132701  0.87033681  1
  Co  Co99  1  0.25595427  0.25276644  0.00006766  1
  Co  Co100  1  0.37517360  0.37432970  0.86815820  1
  Co  Co101  1  0.12563859  0.37423556  0.37637502  1
  Co  Co102  1  0.12288817  0.37382523  0.88267401  1
  Co  Co103  1  0.37121149  0.87586051  0.12606002  1
  Co  Co104  1  -0.00086173  0.00000308  0.49814568  1
  Co  Co105  1  0.75284993  0.50288298  -0.00236149  1
  Co  Co106  1  0.87375944  0.62655788  0.86941779  1
  Co  Co107  1  0.37541811  0.37547345  0.13068797  1
  Co  Co108  1  0.12081150  0.62525136  0.62560018  1
  Co  Co109  1  0.62911110  0.87446174  0.12358713  1
  Co  Co110  1  0.24570700  0.00120967  0.24914359  1
  Co  Co111  1  0.62440131  0.12548719  0.11920788  1
  Co  Co112  1  0.12801770  0.87376107  0.37823005  1
  Co  Co113  1  0.75535316  0.24816191  0.50066670  1
  Co  Co114  1  0.49721801  0.75395597  0.50177101  1
  Co  Co115  1  0.62223984  0.62328054  0.12320253  1
  Co  Co116  1  0.00323560  0.75123533  0.25106651  1
  Co  Co117  1  0.12552275  0.37553280  0.62197828  1
  Co  Co118  1  0.37186659  0.88014978  0.62686972  1
  Co  Co119  1  0.24585295  0.49902956  0.75034534  1
  Co  Co120  1  0.49499410  0.25127847  0.50194072  1
  Co  Co121  1  0.74599336  0.24651448  0.75123663  1
  Co  Co122  1  0.74792398  0.24764653  0.24861058  1
  Co  Co123  1  0.37789593  0.62101707  0.62784188  1
  Co  Co124  1  0.12461290  0.87496917  0.87683391  1
  Co  Co125  1  -0.00264936  -0.00042698  -0.00029450  1
  Co  Co126  1  0.12359931  0.12812636  0.88343325  1
  Co  Co127  1  0.00875004  0.24960357  0.74954783  1
