# generated using pymatgen
data_Fe45Co19
_symmetry_space_group_name_H-M   'P 1'
_cell_length_a   11.41551676
_cell_length_b   11.41509755
_cell_length_c   11.41613262
_cell_angle_alpha   90.00391977
_cell_angle_beta   90.00119067
_cell_angle_gamma   90.00326931
_symmetry_Int_Tables_number   1
_chemical_formula_structural   Fe45Co19
_chemical_formula_sum   'Fe90 Co38'
_cell_volume   1487.62752890
_cell_formula_units_Z   2
loop_
 _symmetry_equiv_pos_site_id
 _symmetry_equiv_pos_as_xyz
  1  'x, y, z'
loop_
 _atom_site_type_symbol
 _atom_site_label
 _atom_site_symmetry_multiplicity
 _atom_site_fract_x
 _atom_site_fract_y
 _atom_site_fract_z
 _atom_site_occupancy
  Fe  Fe0  1  0.25115932  0.49878698  0.74363920  1
  Fe  Fe1  1  0.62533322  0.87159680  0.12521388  1
  Fe  Fe2  1  0.37766950  0.12547843  0.37535861  1
  Fe  Fe3  1  0.50156220  0.25186934  0.75293820  1
  Fe  Fe4  1  0.12347882  0.37506087  0.87488870  1
  Fe  Fe5  1  0.62422468  0.37380038  0.12347907  1
  Fe  Fe6  1  -0.00165720  0.25191839  0.74765516  1
  Fe  Fe7  1  0.37800109  0.87105578  0.37654107  1
  Fe  Fe8  1  0.24805695  0.75077057  0.74910648  1
  Fe  Fe9  1  0.74995224  0.50072830  0.50141508  1
  Fe  Fe10  1  0.25039820  0.25061163  0.74731915  1
  Fe  Fe11  1  0.87367749  0.62476602  0.37508493  1
  Fe  Fe12  1  0.25166111  -0.00083373  0.25080085  1
  Fe  Fe13  1  -0.00098892  0.75123409  0.74882183  1
  Fe  Fe14  1  0.62393510  0.12872273  0.12375464  1
  Fe  Fe15  1  0.50322901  0.24830944  0.50031775  1
  Fe  Fe16  1  0.62858182  0.12048746  0.62800013  1
  Fe  Fe17  1  0.25065037  0.25013840  0.50027887  1
  Fe  Fe18  1  0.12278180  0.12717245  0.87516932  1
  Fe  Fe19  1  0.74948264  0.25101899  0.25055528  1
  Fe  Fe20  1  0.37331705  0.62523487  0.87396056  1
  Fe  Fe21  1  0.50221881  -0.00036558  0.25074867  1
  Fe  Fe22  1  0.75008493  0.75392678  0.75047237  1
  Fe  Fe23  1  0.12486559  0.12589327  0.12507671  1
  Fe  Fe24  1  0.00009662  -0.00067847  0.24950843  1
  Fe  Fe25  1  0.62502321  0.62572895  0.62740757  1
  Fe  Fe26  1  0.37622901  0.37662551  0.37615010  1
  Fe  Fe27  1  0.49911339  0.49834682  -0.00083435  1
  Fe  Fe28  1  0.74914100  0.49991241  0.24979059  1
  Fe  Fe29  1  0.24939280  0.75011730  0.25212551  1
  Fe  Fe30  1  0.49784932  0.50440671  0.50147937  1
  Fe  Fe31  1  0.12462000  0.62534615  0.12600193  1
  Fe  Fe32  1  0.24909962  0.50011332  0.25156481  1
  Fe  Fe33  1  0.62633873  0.62322948  0.87482228  1
  Fe  Fe34  1  0.50176764  -0.00092328  0.75350437  1
  Fe  Fe35  1  0.25069335  -0.00120541  0.49958823  1
  Fe  Fe36  1  0.24977697  0.00062824  -0.00043612  1
  Fe  Fe37  1  0.37494112  0.87268019  0.87785531  1
  Fe  Fe38  1  0.50172482  -0.00046528  -0.00129272  1
  Fe  Fe39  1  0.87422549  0.62812650  0.62371357  1
  Fe  Fe40  1  0.12406598  0.87489239  0.87691599  1
  Fe  Fe41  1  0.87285554  0.87451293  0.37503559  1
  Fe  Fe42  1  0.12558849  0.62369419  0.38205133  1
  Fe  Fe43  1  0.74853890  0.74734677  0.00166193  1
  Fe  Fe44  1  -0.00207532  0.24991471  0.24815710  1
  Fe  Fe45  1  0.75127841  0.49976915  0.00073959  1
  Fe  Fe46  1  0.25199908  0.25185858  0.00051046  1
  Fe  Fe47  1  0.25007737  0.49985957  0.00055643  1
  Fe  Fe48  1  -0.00134961  -0.00003118  0.49870949  1
  Fe  Fe49  1  0.50241650  0.75138183  0.75167641  1
  Fe  Fe50  1  0.62355910  0.37545811  0.37611077  1
  Fe  Fe51  1  0.37474682  0.62580316  0.12446685  1
  Fe  Fe52  1  0.49953951  0.49821937  0.75023317  1
  Fe  Fe53  1  0.00115704  0.74766566  0.00029338  1
  Fe  Fe54  1  0.12361559  0.37508621  0.12597233  1
  Fe  Fe55  1  0.37519502  0.12620031  0.87497400  1
  Fe  Fe56  1  0.62489768  0.62878632  0.37139202  1
  Fe  Fe57  1  0.87451932  0.87536316  0.12368099  1
  Fe  Fe58  1  0.87199082  0.12180327  0.62582979  1
  Fe  Fe59  1  0.12483085  0.62277454  0.87217820  1
  Fe  Fe60  1  -0.00018605  0.74910418  0.25257195  1
  Fe  Fe61  1  0.87671416  0.37641415  0.37551051  1
  Fe  Fe62  1  0.74684558  0.75321676  0.50073986  1
  Fe  Fe63  1  0.87545666  0.62265431  0.12718360  1
  Fe  Fe64  1  -0.00132523  0.49834928  0.00085678  1
  Fe  Fe65  1  0.12551817  0.87443048  0.12513890  1
  Fe  Fe66  1  0.37693446  0.12452362  0.62462952  1
  Fe  Fe67  1  0.12451820  0.12483136  0.37482659  1
  Fe  Fe68  1  0.75001688  0.24899759  0.49926533  1
  Fe  Fe69  1  0.50618189  -0.00065557  0.49756296  1
  Fe  Fe70  1  0.62623119  0.37681656  0.62570055  1
  Fe  Fe71  1  -0.00114506  0.00233838  -0.00002721  1
  Fe  Fe72  1  0.87364495  0.12436563  0.37412460  1
  Fe  Fe73  1  0.25020052  -0.00124173  0.74971124  1
  Fe  Fe74  1  0.37812160  0.12776071  0.12493533  1
  Fe  Fe75  1  0.37462863  0.87163804  0.12217652  1
  Fe  Fe76  1  -0.00296118  -0.00311537  0.75095273  1
  Fe  Fe77  1  0.87450319  0.62449100  0.87415375  1
  Fe  Fe78  1  0.25200168  0.25069392  0.25143505  1
  Fe  Fe79  1  0.12411641  0.12338677  0.62410200  1
  Fe  Fe80  1  0.12286243  0.37611600  0.61995199  1
  Fe  Fe81  1  0.12225836  0.37699076  0.37876286  1
  Fe  Fe82  1  0.12351531  0.87297419  0.62091999  1
  Fe  Fe83  1  0.75043950  0.00169321  -0.00421774  1
  Fe  Fe84  1  0.37866395  0.87325373  0.62336647  1
  Fe  Fe85  1  -0.00371578  0.49993995  0.74481064  1
  Fe  Fe86  1  0.74683798  -0.00019209  0.25152078  1
  Fe  Fe87  1  0.50054962  0.50078198  0.24908487  1
  Fe  Fe88  1  0.75026733  0.25140650  0.75287017  1
  Fe  Fe89  1  0.75464170  0.25081525  -0.00216496  1
  Co  Co90  1  -0.00395702  0.25135887  0.00307998  1
  Co  Co91  1  -0.00499670  0.50099522  0.50299098  1
  Co  Co92  1  0.75251862  0.74893776  0.24723968  1
  Co  Co93  1  0.37890988  0.37233267  0.62360380  1
  Co  Co94  1  0.87570554  0.37735868  0.87310890  1
  Co  Co95  1  0.37489149  0.62537262  0.37350960  1
  Co  Co96  1  0.75276431  -0.00375143  0.75582581  1
  Co  Co97  1  0.87318708  0.87699462  0.62231936  1
  Co  Co98  1  0.50236771  0.74714962  -0.00035803  1
  Co  Co99  1  -0.00205853  0.75064148  0.49807657  1
  Co  Co100  1  0.37539721  0.37642184  0.12761156  1
  Co  Co101  1  0.62479330  0.62349826  0.12629682  1
  Co  Co102  1  0.49825052  0.25413102  -0.00354600  1
  Co  Co103  1  0.62876622  0.37765225  0.87506724  1
  Co  Co104  1  0.87544799  0.87190033  0.87923490  1
  Co  Co105  1  0.62519352  0.87785913  0.62649741  1
  Co  Co106  1  0.25260399  0.74906446  0.50114554  1
  Co  Co107  1  -0.00275542  0.24775255  0.50072440  1
  Co  Co108  1  0.24746401  0.74808888  -0.00160304  1
  Co  Co109  1  0.87455864  0.37819014  0.12810335  1
  Co  Co110  1  0.50027261  0.25076407  0.25124560  1
  Co  Co111  1  0.00083161  0.50192661  0.25177768  1
  Co  Co112  1  0.87244861  0.12304165  0.12612940  1
  Co  Co113  1  0.12557290  0.87557620  0.37623405  1
  Co  Co114  1  0.87122894  0.37358580  0.62408244  1
  Co  Co115  1  0.75202344  0.50124406  0.74759095  1
  Co  Co116  1  0.25449628  0.50028752  0.50408186  1
  Co  Co117  1  0.74676096  -0.00112075  0.49621514  1
  Co  Co118  1  0.87796181  0.12655217  0.87270461  1
  Co  Co119  1  0.62482107  0.12591658  0.87561636  1
  Co  Co120  1  0.62559389  0.12719080  0.37318601  1
  Co  Co121  1  0.37608043  0.62889804  0.62773045  1
  Co  Co122  1  0.62466240  0.86939338  0.37186595  1
  Co  Co123  1  0.37139795  0.37632122  0.87274492  1
  Co  Co124  1  0.49856895  0.74905743  0.24702331  1
  Co  Co125  1  0.50293643  0.74712788  0.50097730  1
  Co  Co126  1  0.62602620  0.87365986  0.87658702  1
  Co  Co127  1  0.12377010  0.62611807  0.62213131  1
