# generated using pymatgen
data_Fe45Co19
_symmetry_space_group_name_H-M   'P 1'
_cell_length_a   11.41376119
_cell_length_b   11.41410655
_cell_length_c   11.41611617
_cell_angle_alpha   90.00314972
_cell_angle_beta   89.99895177
_cell_angle_gamma   89.99513220
_symmetry_Int_Tables_number   1
_chemical_formula_structural   Fe45Co19
_chemical_formula_sum   'Fe90 Co38'
_cell_volume   1487.26747684
_cell_formula_units_Z   2
loop_
 _symmetry_equiv_pos_site_id
 _symmetry_equiv_pos_as_xyz
  1  'x, y, z'
loop_
 _atom_site_type_symbol
 _atom_site_label
 _atom_site_symmetry_multiplicity
 _atom_site_fract_x
 _atom_site_fract_y
 _atom_site_fract_z
 _atom_site_occupancy
  Fe  Fe0  1  0.12069959  0.12750345  0.37489965  1
  Fe  Fe1  1  0.86982530  0.87371310  0.62558614  1
  Fe  Fe2  1  0.74917667  0.00304804  -0.00041187  1
  Fe  Fe3  1  0.12027468  0.12613227  0.12830653  1
  Fe  Fe4  1  0.37550993  0.62424853  0.62505878  1
  Fe  Fe5  1  0.50126455  0.75085046  0.74955435  1
  Fe  Fe6  1  0.62841813  0.37600005  0.37490131  1
  Fe  Fe7  1  0.12449637  0.62604749  0.37359798  1
  Fe  Fe8  1  0.62769642  0.62532671  0.62785944  1
  Fe  Fe9  1  0.50550786  -0.00233772  0.50099725  1
  Fe  Fe10  1  0.37404109  0.12515646  0.62314494  1
  Fe  Fe11  1  0.37563362  0.87425213  0.37550142  1
  Fe  Fe12  1  0.50166355  -0.00101568  0.24983645  1
  Fe  Fe13  1  0.12643961  0.87387839  0.12442541  1
  Fe  Fe14  1  0.24749127  0.00086529  -0.00196339  1
  Fe  Fe15  1  0.75074353  0.74749210  0.24834023  1
  Fe  Fe16  1  0.74974256  0.00143626  0.24882064  1
  Fe  Fe17  1  0.24993481  0.74999320  0.50039015  1
  Fe  Fe18  1  0.24856440  0.49816082  0.74792145  1
  Fe  Fe19  1  0.12094806  0.37191671  0.62284187  1
  Fe  Fe20  1  0.24976629  0.24966266  0.25052228  1
  Fe  Fe21  1  0.37610975  0.62508033  0.37622646  1
  Fe  Fe22  1  -0.00161187  0.49998074  0.25054908  1
  Fe  Fe23  1  0.62656555  0.12627819  0.37643087  1
  Fe  Fe24  1  0.25051369  0.25073580  0.74801746  1
  Fe  Fe25  1  0.50299002  0.49930933  0.50097516  1
  Fe  Fe26  1  -0.00064444  0.00069565  0.50208732  1
  Fe  Fe27  1  0.50403879  0.75080314  0.49972375  1
  Fe  Fe28  1  0.24683111  -0.00014453  0.25198128  1
  Fe  Fe29  1  -0.00170221  0.24937640  -0.00134525  1
  Fe  Fe30  1  0.37364603  0.62388600  0.87384577  1
  Fe  Fe31  1  0.00158529  0.75026879  0.00152434  1
  Fe  Fe32  1  0.25015927  0.75037644  0.24927786  1
  Fe  Fe33  1  0.37549769  0.12501800  0.12433659  1
  Fe  Fe34  1  0.24773623  -0.00176974  0.75039521  1
  Fe  Fe35  1  0.87437272  0.37911534  0.37750473  1
  Fe  Fe36  1  0.37585972  0.87421152  0.62472743  1
  Fe  Fe37  1  -0.00066361  0.75012778  0.24970713  1
  Fe  Fe38  1  0.24829291  0.24927709  -0.00008415  1
  Fe  Fe39  1  0.62639660  0.62277744  0.36983734  1
  Fe  Fe40  1  0.25064620  0.49963946  0.24954467  1
  Fe  Fe41  1  0.12440765  0.37528270  0.12549500  1
  Fe  Fe42  1  0.87436955  0.87678544  0.12498747  1
  Fe  Fe43  1  0.75419547  0.24827905  0.50218802  1
  Fe  Fe44  1  -0.00281613  0.74894531  0.75052929  1
  Fe  Fe45  1  0.37838899  0.62321946  0.12589414  1
  Fe  Fe46  1  0.25047825  0.50035345  0.00116748  1
  Fe  Fe47  1  0.37483483  0.87476724  0.87688500  1
  Fe  Fe48  1  0.75292196  0.24832873  -0.00177547  1
  Fe  Fe49  1  0.87749948  0.37953909  0.62384341  1
  Fe  Fe50  1  0.24668085  0.00090724  0.49982743  1
  Fe  Fe51  1  0.49847907  0.49789747  0.75072394  1
  Fe  Fe52  1  0.12371233  0.62528649  0.87658612  1
  Fe  Fe53  1  0.87522845  0.62248846  0.12243588  1
  Fe  Fe54  1  0.37434352  0.87580688  0.12361269  1
  Fe  Fe55  1  -0.00002296  -0.00027039  0.00068810  1
  Fe  Fe56  1  0.37655515  0.12551353  0.87663836  1
  Fe  Fe57  1  0.74811755  0.74831169  0.49863973  1
  Fe  Fe58  1  -0.00138592  0.74814094  0.49938157  1
  Fe  Fe59  1  0.49831380  0.25070675  0.74944907  1
  Fe  Fe60  1  0.62501665  0.87406883  0.12619871  1
  Fe  Fe61  1  0.87641325  0.12373034  0.37121129  1
  Fe  Fe62  1  0.62534329  0.62339247  0.87596300  1
  Fe  Fe63  1  0.24913955  0.75108475  0.75150608  1
  Fe  Fe64  1  0.12469756  0.87368445  0.62468385  1
  Fe  Fe65  1  0.87484799  0.87627596  0.87437202  1
  Fe  Fe66  1  0.87492689  0.37669895  0.12139356  1
  Fe  Fe67  1  0.11984677  0.12411568  0.86986707  1
  Fe  Fe68  1  0.49891759  0.25389575  -0.00056842  1
  Fe  Fe69  1  0.74846995  0.74790453  -0.00049808  1
  Fe  Fe70  1  0.50108534  0.74909621  0.00085003  1
  Fe  Fe71  1  0.75226377  0.25108977  0.24779782  1
  Fe  Fe72  1  0.49962727  0.25211094  0.50143281  1
  Fe  Fe73  1  0.62534534  0.38010131  0.12417233  1
  Fe  Fe74  1  0.62451546  0.12616290  0.12292640  1
  Fe  Fe75  1  0.75645718  0.50359329  0.75279551  1
  Fe  Fe76  1  0.62754057  0.37512748  0.87419942  1
  Fe  Fe77  1  0.75486159  0.24754690  0.75142825  1
  Fe  Fe78  1  0.62539104  0.87567337  0.87356216  1
  Fe  Fe79  1  0.12246034  0.37572193  0.87387555  1
  Fe  Fe80  1  0.62808162  0.37451105  0.62711361  1
  Fe  Fe81  1  0.12332940  0.62522575  0.62533181  1
  Fe  Fe82  1  0.87383897  0.87588165  0.37462772  1
  Fe  Fe83  1  0.74765917  0.00396502  0.74959205  1
  Fe  Fe84  1  0.24834721  0.49889780  0.50134538  1
  Fe  Fe85  1  0.37408458  0.37519722  0.37605639  1
  Fe  Fe86  1  0.37593999  0.12479374  0.37543334  1
  Fe  Fe87  1  0.50036717  0.25232572  0.24934705  1
  Fe  Fe88  1  0.12303176  0.37307476  0.37682552  1
  Fe  Fe89  1  0.50262481  0.00158348  0.74912413  1
  Co  Co90  1  0.87807956  0.12184113  0.87407678  1
  Co  Co91  1  0.49916931  0.49729340  0.25198836  1
  Co  Co92  1  0.12402748  0.12731764  0.62666880  1
  Co  Co93  1  -0.00371059  0.25485437  0.25016584  1
  Co  Co94  1  0.00171044  0.49905369  0.00024336  1
  Co  Co95  1  0.25089711  0.74776276  0.00087304  1
  Co  Co96  1  0.87733166  0.12286987  0.62831345  1
  Co  Co97  1  0.75304093  0.49959024  0.24795819  1
  Co  Co98  1  0.00074929  -0.00453187  0.74674704  1
  Co  Co99  1  0.74802393  0.50182618  0.50135238  1
  Co  Co100  1  -0.00445574  0.24795790  0.50018458  1
  Co  Co101  1  0.25025115  0.24937867  0.49963644  1
  Co  Co102  1  -0.00114426  0.50270003  0.75007560  1
  Co  Co103  1  0.49912977  0.49864055  -0.00305165  1
  Co  Co104  1  0.62545268  0.12859719  0.62310195  1
  Co  Co105  1  0.87432301  0.62539814  0.62232307  1
  Co  Co106  1  0.62843180  0.87514423  0.37278325  1
  Co  Co107  1  0.12377063  0.62396336  0.12639140  1
  Co  Co108  1  -0.00424177  0.25234928  0.74989663  1
  Co  Co109  1  0.37170539  0.37480759  0.87521651  1
  Co  Co110  1  0.62349645  0.62175514  0.12625771  1
  Co  Co111  1  0.62950817  0.87358021  0.62735503  1
  Co  Co112  1  0.75007958  0.00231589  0.50024058  1
  Co  Co113  1  0.87868206  0.62526752  0.88005521  1
  Co  Co114  1  0.00133682  0.50268464  0.49906418  1
  Co  Co115  1  0.12335180  0.87281528  0.87649978  1
  Co  Co116  1  0.12337567  0.87273470  0.37632342  1
  Co  Co117  1  0.37354695  0.37424382  0.12475100  1
  Co  Co118  1  0.62344612  0.12803142  0.87636711  1
  Co  Co119  1  0.74986911  0.50189108  -0.00209505  1
  Co  Co120  1  0.87673375  0.37641579  0.87657045  1
  Co  Co121  1  0.00126756  -0.00360813  0.24946355  1
  Co  Co122  1  0.87395178  0.62433952  0.37545744  1
  Co  Co123  1  0.37480983  0.37618868  0.62392591  1
  Co  Co124  1  0.75249647  0.74620568  0.75384942  1
  Co  Co125  1  0.50122289  -0.00149429  0.00048028  1
  Co  Co126  1  0.50014526  0.75112806  0.25000766  1
  Co  Co127  1  0.87690630  0.12449525  0.12592365  1
