# generated using pymatgen
data_Fe45Co19
_symmetry_space_group_name_H-M   'P 1'
_cell_length_a   11.41489026
_cell_length_b   11.41629929
_cell_length_c   11.41556240
_cell_angle_alpha   89.98948384
_cell_angle_beta   90.00359924
_cell_angle_gamma   89.99628783
_symmetry_Int_Tables_number   1
_chemical_formula_structural   Fe45Co19
_chemical_formula_sum   'Fe90 Co38'
_cell_volume   1487.62815568
_cell_formula_units_Z   2
loop_
 _symmetry_equiv_pos_site_id
 _symmetry_equiv_pos_as_xyz
  1  'x, y, z'
loop_
 _atom_site_type_symbol
 _atom_site_label
 _atom_site_symmetry_multiplicity
 _atom_site_fract_x
 _atom_site_fract_y
 _atom_site_fract_z
 _atom_site_occupancy
  Fe  Fe0  1  0.87371913  0.62522855  0.37347553  1
  Fe  Fe1  1  0.12482653  0.37504032  0.12316968  1
  Fe  Fe2  1  0.37675931  0.62298597  0.37350144  1
  Fe  Fe3  1  0.12532190  0.62633753  0.12409798  1
  Fe  Fe4  1  0.50157341  0.75359546  0.25195015  1
  Fe  Fe5  1  0.74843458  0.49913774  0.74999320  1
  Fe  Fe6  1  0.37537374  0.62566381  0.12330733  1
  Fe  Fe7  1  0.25446489  0.25240954  0.75461442  1
  Fe  Fe8  1  0.62279169  0.37273750  0.87827408  1
  Fe  Fe9  1  0.50217402  0.74687190  0.49946029  1
  Fe  Fe10  1  -0.00076441  0.25015270  0.75133248  1
  Fe  Fe11  1  0.62601838  0.11888312  0.37158676  1
  Fe  Fe12  1  0.62146842  0.12687097  0.87058036  1
  Fe  Fe13  1  0.00141583  0.74785979  -0.00110955  1
  Fe  Fe14  1  0.87479108  0.87331835  0.62499187  1
  Fe  Fe15  1  0.74566523  0.50388049  0.49957624  1
  Fe  Fe16  1  0.50029564  0.24940637  0.49815772  1
  Fe  Fe17  1  0.50125011  0.25118435  0.24717806  1
  Fe  Fe18  1  0.37951994  0.37720018  0.88419966  1
  Fe  Fe19  1  0.87467560  0.37547064  0.37623501  1
  Fe  Fe20  1  0.87432288  0.12478756  0.87453456  1
  Fe  Fe21  1  0.87444464  0.37545713  0.87674626  1
  Fe  Fe22  1  0.12370973  0.37622026  0.37489692  1
  Fe  Fe23  1  0.74795494  0.24663964  0.00106938  1
  Fe  Fe24  1  0.25178943  0.49863809  0.24649553  1
  Fe  Fe25  1  0.00123880  0.00127783  0.50124592  1
  Fe  Fe26  1  0.74758232  0.75475396  0.25183929  1
  Fe  Fe27  1  0.87087534  0.37357925  0.12339606  1
  Fe  Fe28  1  0.37803681  0.62127484  0.62856436  1
  Fe  Fe29  1  0.37585051  0.87627322  0.37747344  1
  Fe  Fe30  1  -0.00158360  -0.00186358  0.24821887  1
  Fe  Fe31  1  0.74829459  -0.00113031  0.74982602  1
  Fe  Fe32  1  0.49895409  0.74848881  -0.00425040  1
  Fe  Fe33  1  0.25101855  -0.00289091  0.24864772  1
  Fe  Fe34  1  0.74898433  0.24884825  0.49852805  1
  Fe  Fe35  1  0.87509844  0.87313817  0.12171673  1
  Fe  Fe36  1  0.25110581  0.24942607  0.49831637  1
  Fe  Fe37  1  0.62490451  0.87081961  0.62871873  1
  Fe  Fe38  1  0.37470755  0.87956266  0.87554212  1
  Fe  Fe39  1  0.12834169  0.62208118  0.87578649  1
  Fe  Fe40  1  0.87411668  0.12666264  0.62626870  1
  Fe  Fe41  1  0.24881946  0.74594217  0.49760962  1
  Fe  Fe42  1  0.00227426  0.50272897  0.50102456  1
  Fe  Fe43  1  0.87403423  0.62603302  0.62610981  1
  Fe  Fe44  1  0.00066038  0.50077074  0.74905594  1
  Fe  Fe45  1  0.12420232  0.37799973  0.87709415  1
  Fe  Fe46  1  0.00343256  0.74712564  0.49826501  1
  Fe  Fe47  1  0.00020404  -0.00000921  0.00069062  1
  Fe  Fe48  1  0.37312105  0.12716773  0.12320893  1
  Fe  Fe49  1  0.74820599  0.50353392  0.00100715  1
  Fe  Fe50  1  0.24832190  0.50222954  0.49974746  1
  Fe  Fe51  1  0.00073243  0.74992874  0.75160462  1
  Fe  Fe52  1  -0.00388768  0.50169366  0.24631256  1
  Fe  Fe53  1  0.87302793  0.87696335  0.37890216  1
  Fe  Fe54  1  0.87549115  0.62418318  0.87504869  1
  Fe  Fe55  1  0.62338925  0.12854238  0.62894478  1
  Fe  Fe56  1  0.37284012  0.87643448  0.62382421  1
  Fe  Fe57  1  0.24836797  0.75228725  0.25040230  1
  Fe  Fe58  1  -0.00276579  0.24900443  0.25011614  1
  Fe  Fe59  1  0.00139210  0.75164488  0.25123729  1
  Fe  Fe60  1  0.37510221  0.12440199  0.62871929  1
  Fe  Fe61  1  0.12786572  0.87558485  0.87777018  1
  Fe  Fe62  1  0.87368959  0.87551996  0.87506651  1
  Fe  Fe63  1  -0.00029912  0.25011808  -0.00019477  1
  Fe  Fe64  1  0.87155031  0.12228169  0.37506673  1
  Fe  Fe65  1  0.25255043  0.74936927  0.75216258  1
  Fe  Fe66  1  0.12517940  0.37345982  0.62496099  1
  Fe  Fe67  1  0.12573095  0.12403745  0.37482926  1
  Fe  Fe68  1  0.37676764  0.37727390  0.62203176  1
  Fe  Fe69  1  0.62726085  0.12188194  0.12939260  1
  Fe  Fe70  1  0.12715279  0.87372128  0.62255539  1
  Fe  Fe71  1  0.62183300  0.62810099  0.86833077  1
  Fe  Fe72  1  0.74792881  0.75030738  -0.00210368  1
  Fe  Fe73  1  0.12550187  0.12458148  0.12361386  1
  Fe  Fe74  1  0.50116304  0.00152864  -0.00010510  1
  Fe  Fe75  1  0.12741999  0.12705437  0.62597948  1
  Fe  Fe76  1  0.50048905  0.49828957  0.24608972  1
  Fe  Fe77  1  0.37617872  0.87368956  0.12238199  1
  Fe  Fe78  1  0.62640623  0.62765772  0.12830816  1
  Fe  Fe79  1  0.12850196  0.12428851  0.87638031  1
  Fe  Fe80  1  0.74521611  0.74749420  0.49917100  1
  Fe  Fe81  1  0.25079776  0.25245910  0.24846165  1
  Fe  Fe82  1  0.37629681  0.37652865  0.37491008  1
  Fe  Fe83  1  0.74817272  -0.00082375  -0.00004922  1
  Fe  Fe84  1  0.50109277  0.00025011  0.50249327  1
  Fe  Fe85  1  0.87491541  0.37396696  0.62353094  1
  Fe  Fe86  1  0.37607902  0.12417985  0.37338039  1
  Fe  Fe87  1  0.62302348  0.37458372  0.62525312  1
  Fe  Fe88  1  0.00193864  -0.00083006  0.75010737  1
  Fe  Fe89  1  0.62537349  0.37712611  0.37215524  1
  Co  Co90  1  0.50316102  0.50194904  0.49889616  1
  Co  Co91  1  0.49372135  0.75319487  0.75153532  1
  Co  Co92  1  0.24854585  -0.00104604  0.75020883  1
  Co  Co93  1  0.75295686  -0.00575384  0.24641064  1
  Co  Co94  1  0.37621593  0.12244277  0.87472178  1
  Co  Co95  1  0.62474790  0.87359040  0.87386875  1
  Co  Co96  1  0.87275380  0.63010066  0.12515870  1
  Co  Co97  1  0.12703152  0.62594678  0.62877430  1
  Co  Co98  1  0.37443201  0.62054297  0.87417310  1
  Co  Co99  1  0.75344848  0.75015074  0.75097664  1
  Co  Co100  1  0.49521477  0.25434450  0.75110529  1
  Co  Co101  1  0.62696864  0.37537818  0.12379933  1
  Co  Co102  1  0.50031290  0.49575725  0.75257889  1
  Co  Co103  1  0.50292400  0.24498370  0.00407227  1
  Co  Co104  1  0.25041504  0.50079478  0.00308648  1
  Co  Co105  1  0.25207296  0.74947934  -0.00096611  1
  Co  Co106  1  0.87442009  0.12548722  0.12370155  1
  Co  Co107  1  0.62299045  0.62388705  0.36995375  1
  Co  Co108  1  0.37851710  0.37385791  0.12018163  1
  Co  Co109  1  -0.00208598  0.50134099  0.00300805  1
  Co  Co110  1  -0.00055323  0.24808855  0.49905239  1
  Co  Co111  1  0.75024513  0.24948897  0.25140529  1
  Co  Co112  1  0.24952891  0.25127107  -0.00154099  1
  Co  Co113  1  0.50154517  -0.00268581  0.74887330  1
  Co  Co114  1  0.12526882  0.62238631  0.37086145  1
  Co  Co115  1  0.25108324  0.00261595  0.49905751  1
  Co  Co116  1  0.49596661  -0.00182476  0.24792769  1
  Co  Co117  1  0.25120382  -0.00068968  0.00271562  1
  Co  Co118  1  0.50519648  0.50565907  0.00251895  1
  Co  Co119  1  0.62177041  0.62620452  0.63128903  1
  Co  Co120  1  0.75183134  0.50039175  0.24868825  1
  Co  Co121  1  0.12406901  0.87409483  0.12308370  1
  Co  Co122  1  0.75108755  0.25203795  0.75063980  1
  Co  Co123  1  0.62307096  0.87976446  0.37572403  1
  Co  Co124  1  0.25195462  0.49618627  0.75095281  1
  Co  Co125  1  0.74704270  0.00027082  0.50528488  1
  Co  Co126  1  0.12630540  0.87703259  0.37662281  1
  Co  Co127  1  0.62235191  0.87471017  0.12258842  1
