# generated using pymatgen
data_Fe45Co19
_symmetry_space_group_name_H-M   'P 1'
_cell_length_a   11.41481154
_cell_length_b   11.41501883
_cell_length_c   11.41616633
_cell_angle_alpha   89.99816878
_cell_angle_beta   90.00090074
_cell_angle_gamma   89.98687204
_symmetry_Int_Tables_number   1
_chemical_formula_structural   Fe45Co19
_chemical_formula_sum   'Fe90 Co38'
_cell_volume   1487.52972800
_cell_formula_units_Z   2
loop_
 _symmetry_equiv_pos_site_id
 _symmetry_equiv_pos_as_xyz
  1  'x, y, z'
loop_
 _atom_site_type_symbol
 _atom_site_label
 _atom_site_symmetry_multiplicity
 _atom_site_fract_x
 _atom_site_fract_y
 _atom_site_fract_z
 _atom_site_occupancy
  Fe  Fe0  1  -0.00163330  0.49755983  0.25413105  1
  Fe  Fe1  1  -0.00273659  0.74929935  0.24915866  1
  Fe  Fe2  1  0.37536016  0.62144351  0.62578071  1
  Fe  Fe3  1  0.62378169  0.62485761  0.62724572  1
  Fe  Fe4  1  0.50350702  0.49925057  0.49795393  1
  Fe  Fe5  1  0.62406042  0.87550071  0.62607977  1
  Fe  Fe6  1  0.37477498  0.37859430  0.12030566  1
  Fe  Fe7  1  0.75092488  0.74829947  0.24866716  1
  Fe  Fe8  1  0.62514697  0.87481859  0.37561535  1
  Fe  Fe9  1  0.37704685  0.12564808  0.62463835  1
  Fe  Fe10  1  0.50061204  0.25127065  0.25116722  1
  Fe  Fe11  1  0.25236568  0.75005830  0.24799081  1
  Fe  Fe12  1  0.25294491  0.25227469  0.24944978  1
  Fe  Fe13  1  -0.00069399  0.25099351  -0.00066177  1
  Fe  Fe14  1  0.50256914  0.49895427  0.25044167  1
  Fe  Fe15  1  0.12260318  0.87627312  0.62401780  1
  Fe  Fe16  1  0.24911397  0.25250035  0.75265388  1
  Fe  Fe17  1  0.74884870  0.00253819  0.00181043  1
  Fe  Fe18  1  0.49832639  0.74986866  0.24979850  1
  Fe  Fe19  1  0.00241940  0.00018451  0.00014872  1
  Fe  Fe20  1  0.12321627  0.62415647  0.12707769  1
  Fe  Fe21  1  0.74930442  0.74720166  0.50190260  1
  Fe  Fe22  1  0.50364918  0.49571836  0.75321832  1
  Fe  Fe23  1  0.62542999  0.87481534  0.87405291  1
  Fe  Fe24  1  0.87410501  0.87492682  0.37660530  1
  Fe  Fe25  1  0.37665487  0.12549789  0.37603419  1
  Fe  Fe26  1  0.74975462  0.00152941  0.49975378  1
  Fe  Fe27  1  0.87502985  0.62236675  0.62772411  1
  Fe  Fe28  1  0.12505948  0.12915370  0.37533139  1
  Fe  Fe29  1  0.12307377  0.37821955  0.62389284  1
  Fe  Fe30  1  0.62706662  0.62505610  0.87404886  1
  Fe  Fe31  1  0.25017115  0.49864680  0.25118263  1
  Fe  Fe32  1  0.37641431  0.37593407  0.62441406  1
  Fe  Fe33  1  0.37632821  0.62077175  0.87752063  1
  Fe  Fe34  1  0.50161265  0.00096140  0.25086443  1
  Fe  Fe35  1  0.37598182  0.62396916  0.37430952  1
  Fe  Fe36  1  0.49930785  0.74864347  0.00091802  1
  Fe  Fe37  1  0.37621962  0.87673735  0.87607321  1
  Fe  Fe38  1  0.87514066  0.87643255  0.12519958  1
  Fe  Fe39  1  0.24905768  -0.00041790  0.24953484  1
  Fe  Fe40  1  0.87582942  0.12518488  0.12559685  1
  Fe  Fe41  1  0.12504160  0.87536808  0.87531464  1
  Fe  Fe42  1  0.24934807  0.49762062  0.75281593  1
  Fe  Fe43  1  0.12589459  0.37448386  0.12379410  1
  Fe  Fe44  1  0.24942616  0.25195941  0.50005990  1
  Fe  Fe45  1  0.24940827  0.74753657  0.00179147  1
  Fe  Fe46  1  0.12229426  0.62350374  0.87163571  1
  Fe  Fe47  1  0.24668701  0.50096142  0.49719974  1
  Fe  Fe48  1  0.25035867  -0.00009463  0.49856917  1
  Fe  Fe49  1  0.62194500  0.12504887  0.62428870  1
  Fe  Fe50  1  0.49827445  0.75057816  0.49949890  1
  Fe  Fe51  1  0.37642107  0.87735043  0.62647947  1
  Fe  Fe52  1  -0.00063937  0.49910822  -0.00138319  1
  Fe  Fe53  1  0.87353115  0.62440923  0.87241712  1
  Fe  Fe54  1  0.74838147  0.00460852  0.25013031  1
  Fe  Fe55  1  0.12596726  0.12691271  0.12332102  1
  Fe  Fe56  1  0.87205746  0.62139157  0.37419070  1
  Fe  Fe57  1  -0.00201934  0.25255713  0.25228289  1
  Fe  Fe58  1  0.62519605  0.62567215  0.12634997  1
  Fe  Fe59  1  0.74977628  0.50063145  0.00110071  1
  Fe  Fe60  1  0.62774142  0.12810335  0.87538294  1
  Fe  Fe61  1  0.87200366  0.37496768  0.12732148  1
  Fe  Fe62  1  0.12430722  0.87217141  0.37439976  1
  Fe  Fe63  1  0.87523080  0.12878118  0.37718687  1
  Fe  Fe64  1  0.00113323  0.00062901  0.25205550  1
  Fe  Fe65  1  0.50083771  0.25313676  0.75214389  1
  Fe  Fe66  1  0.87069977  0.37375586  0.87317809  1
  Fe  Fe67  1  0.87573344  0.12554093  0.87327445  1
  Fe  Fe68  1  0.37371507  0.12445022  0.87646636  1
  Fe  Fe69  1  0.37600394  0.12416761  0.12219213  1
  Fe  Fe70  1  0.62859047  0.37143267  0.12368410  1
  Fe  Fe71  1  0.87938091  0.12187798  0.62365727  1
  Fe  Fe72  1  0.63241811  0.37310360  0.37629764  1
  Fe  Fe73  1  0.49909050  0.74960981  0.75070744  1
  Fe  Fe74  1  0.49973002  0.25180006  -0.00193862  1
  Fe  Fe75  1  0.75132535  0.74862220  0.00132237  1
  Fe  Fe76  1  0.87279305  0.37826770  0.62006569  1
  Fe  Fe77  1  0.75100788  -0.00039275  0.74821805  1
  Fe  Fe78  1  0.24885026  0.00141879  0.75154460  1
  Fe  Fe79  1  0.00062003  0.74565094  0.50094530  1
  Fe  Fe80  1  0.25047944  0.74842352  0.50118829  1
  Fe  Fe81  1  0.12225584  0.12372879  0.62517834  1
  Fe  Fe82  1  0.87326112  0.87511575  0.87489737  1
  Fe  Fe83  1  -0.00209863  0.75224249  0.74807660  1
  Fe  Fe84  1  0.37508663  0.87742785  0.12275624  1
  Fe  Fe85  1  0.25119374  0.74869028  0.74935389  1
  Fe  Fe86  1  0.62574646  0.87592900  0.12494209  1
  Fe  Fe87  1  -0.00025229  0.25209126  0.74870465  1
  Fe  Fe88  1  0.50108132  0.25201427  0.49864220  1
  Fe  Fe89  1  -0.00071748  0.74945522  0.00160290  1
  Co  Co90  1  0.50039414  0.00141552  0.75165500  1
  Co  Co91  1  0.75063981  0.75102439  0.74822505  1
  Co  Co92  1  0.00184132  0.50212574  0.49681156  1
  Co  Co93  1  0.62306901  0.12821367  0.12337833  1
  Co  Co94  1  0.50248610  0.00023525  -0.00102436  1
  Co  Co95  1  0.12484171  0.37229486  0.37491336  1
  Co  Co96  1  0.25025602  0.25048507  -0.00119268  1
  Co  Co97  1  0.75375018  0.24788623  0.00226239  1
  Co  Co98  1  0.37506607  0.37594651  0.37675014  1
  Co  Co99  1  0.37589917  0.62068550  0.12496477  1
  Co  Co100  1  0.74738676  0.49837577  0.74891653  1
  Co  Co101  1  0.75034408  0.24662162  0.24996044  1
  Co  Co102  1  0.00154533  0.00034689  0.49549381  1
  Co  Co103  1  0.87617875  0.62347738  0.12522247  1
  Co  Co104  1  0.87601115  0.87574603  0.62180377  1
  Co  Co105  1  0.62315077  0.12602893  0.37672151  1
  Co  Co106  1  0.12284775  0.12731587  0.87457312  1
  Co  Co107  1  0.74692236  0.50397525  0.50147053  1
  Co  Co108  1  0.37483043  0.87535956  0.37425271  1
  Co  Co109  1  0.00014341  0.25270304  0.50073153  1
  Co  Co110  1  0.86979966  0.37516800  0.37823625  1
  Co  Co111  1  0.24742697  -0.00007454  0.00003424  1
  Co  Co112  1  0.12325136  0.87381650  0.12647780  1
  Co  Co113  1  0.12522306  0.62259791  0.62931026  1
  Co  Co114  1  0.12368179  0.37372208  0.87611191  1
  Co  Co115  1  0.62544079  0.37405774  0.62384609  1
  Co  Co116  1  0.12609401  0.62711654  0.37126723  1
  Co  Co117  1  0.24550780  0.50206967  -0.00109491  1
  Co  Co118  1  0.49871963  -0.00176586  0.49917071  1
  Co  Co119  1  0.75167000  0.24869314  0.74413502  1
  Co  Co120  1  0.50627234  0.49902404  -0.00001566  1
  Co  Co121  1  0.37467795  0.37803706  0.87809141  1
  Co  Co122  1  -0.00015163  -0.00229643  0.75189365  1
  Co  Co123  1  0.63100917  0.37097345  0.87623946  1
  Co  Co124  1  -0.00205510  0.49685745  0.75050650  1
  Co  Co125  1  0.62441081  0.62695254  0.37306786  1
  Co  Co126  1  0.74901505  0.50077570  0.24851730  1
  Co  Co127  1  0.75005295  0.24649717  0.50336062  1
