# generated using pymatgen
data_Fe45Co19
_symmetry_space_group_name_H-M   'P 1'
_cell_length_a   11.41609223
_cell_length_b   11.41523442
_cell_length_c   11.41641011
_cell_angle_alpha   89.99668288
_cell_angle_beta   90.00332982
_cell_angle_gamma   89.99843416
_symmetry_Int_Tables_number   1
_chemical_formula_structural   Fe45Co19
_chemical_formula_sum   'Fe90 Co38'
_cell_volume   1487.75652343
_cell_formula_units_Z   2
loop_
 _symmetry_equiv_pos_site_id
 _symmetry_equiv_pos_as_xyz
  1  'x, y, z'
loop_
 _atom_site_type_symbol
 _atom_site_label
 _atom_site_symmetry_multiplicity
 _atom_site_fract_x
 _atom_site_fract_y
 _atom_site_fract_z
 _atom_site_occupancy
  Fe  Fe0  1  -0.00055470  0.24967699  0.24909322  1
  Fe  Fe1  1  0.24920803  0.50226805  0.75014877  1
  Fe  Fe2  1  0.12523066  0.37699112  0.12477614  1
  Fe  Fe3  1  0.62677573  0.87354764  0.12591672  1
  Fe  Fe4  1  0.12203426  0.12262601  0.87435111  1
  Fe  Fe5  1  0.62423152  0.37615433  0.37342819  1
  Fe  Fe6  1  0.75141681  0.74700501  0.24759082  1
  Fe  Fe7  1  0.12301434  0.62451428  0.87727511  1
  Fe  Fe8  1  0.25124657  0.74777965  0.24965223  1
  Fe  Fe9  1  0.62147952  0.12481875  0.62676974  1
  Fe  Fe10  1  0.24800988  0.25095009  -0.00058807  1
  Fe  Fe11  1  0.37575381  0.37551398  0.62556344  1
  Fe  Fe12  1  0.87663631  0.37606976  0.37696096  1
  Fe  Fe13  1  0.37816608  0.62253348  0.12132169  1
  Fe  Fe14  1  0.87824460  0.12419909  0.87737567  1
  Fe  Fe15  1  0.75240909  0.50212258  0.74913623  1
  Fe  Fe16  1  0.24850220  0.00000433  -0.00153682  1
  Fe  Fe17  1  0.12277707  0.12508024  0.37524094  1
  Fe  Fe18  1  0.25072531  0.75018029  0.50025072  1
  Fe  Fe19  1  0.50171300  0.75226271  -0.00242506  1
  Fe  Fe20  1  0.62752313  0.62604042  0.87860441  1
  Fe  Fe21  1  0.25024880  0.50305707  0.24914647  1
  Fe  Fe22  1  -0.00026943  0.50443614  0.24911716  1
  Fe  Fe23  1  0.24928284  0.24952174  0.49959706  1
  Fe  Fe24  1  0.37742256  0.62418494  0.37769911  1
  Fe  Fe25  1  0.62613973  0.37409194  0.62841142  1
  Fe  Fe26  1  0.87144896  0.87343539  0.37525248  1
  Fe  Fe27  1  0.12162673  0.37635219  0.62543946  1
  Fe  Fe28  1  -0.00238279  0.75059189  0.74881752  1
  Fe  Fe29  1  0.50220775  -0.00309925  -0.00063253  1
  Fe  Fe30  1  0.37396649  0.87582641  0.62725598  1
  Fe  Fe31  1  0.49866990  0.75191951  0.25189554  1
  Fe  Fe32  1  0.12460604  0.87640328  0.87141234  1
  Fe  Fe33  1  -0.00333964  0.75367607  0.00199062  1
  Fe  Fe34  1  0.37415313  0.87639741  0.87391570  1
  Fe  Fe35  1  0.74734190  0.50164329  0.24592541  1
  Fe  Fe36  1  0.37440968  0.87543230  0.12503348  1
  Fe  Fe37  1  0.75168707  0.24795385  0.75074767  1
  Fe  Fe38  1  -0.00214034  0.74981650  0.49929395  1
  Fe  Fe39  1  0.74976831  0.49986884  0.50067659  1
  Fe  Fe40  1  0.37569731  0.37661523  0.87489219  1
  Fe  Fe41  1  0.24986434  0.74939207  -0.00035190  1
  Fe  Fe42  1  0.50363775  0.75526245  0.49883440  1
  Fe  Fe43  1  0.63018863  0.87487794  0.63254767  1
  Fe  Fe44  1  0.25385366  0.24622535  0.75007102  1
  Fe  Fe45  1  0.75013812  -0.00112762  -0.00059190  1
  Fe  Fe46  1  0.87503351  0.12543421  0.62372847  1
  Fe  Fe47  1  0.12367118  0.37669160  0.87376435  1
  Fe  Fe48  1  0.24928163  0.50148835  0.50139727  1
  Fe  Fe49  1  0.87420816  0.62611453  0.62252572  1
  Fe  Fe50  1  0.49858139  0.24928693  0.25128078  1
  Fe  Fe51  1  0.12439375  0.87410429  0.12612018  1
  Fe  Fe52  1  0.74998534  0.25066766  0.49928984  1
  Fe  Fe53  1  0.37664499  0.12557263  0.12183723  1
  Fe  Fe54  1  0.12487532  0.12364322  0.62685556  1
  Fe  Fe55  1  -0.00169714  0.74670588  0.24957984  1
  Fe  Fe56  1  0.37565189  0.62301878  0.87654671  1
  Fe  Fe57  1  0.25092112  0.24904112  0.25063952  1
  Fe  Fe58  1  0.50171069  0.75098939  0.75251284  1
  Fe  Fe59  1  0.87140672  0.87625461  0.87095919  1
  Fe  Fe60  1  -0.00099560  -0.00111818  0.25002009  1
  Fe  Fe61  1  0.62231398  0.12230974  0.37509971  1
  Fe  Fe62  1  0.75055008  0.00221117  0.24887371  1
  Fe  Fe63  1  0.37646827  0.37787205  0.37535703  1
  Fe  Fe64  1  0.50130958  0.50040641  0.75080331  1
  Fe  Fe65  1  0.24948000  0.74923595  0.75061774  1
  Fe  Fe66  1  -0.00126775  -0.00362639  0.50331095  1
  Fe  Fe67  1  0.50419165  0.25433430  -0.00283643  1
  Fe  Fe68  1  0.12253879  0.37643197  0.37637764  1
  Fe  Fe69  1  0.74823406  -0.00171830  0.50092970  1
  Fe  Fe70  1  0.12285704  0.62520262  0.62521840  1
  Fe  Fe71  1  0.37778532  0.62611313  0.62509676  1
  Fe  Fe72  1  0.87664728  0.12550002  0.12131122  1
  Fe  Fe73  1  0.87639617  0.12520640  0.37713025  1
  Fe  Fe74  1  -0.00229909  0.25132003  0.74939792  1
  Fe  Fe75  1  0.87365886  0.62280193  0.88133425  1
  Fe  Fe76  1  0.24912285  -0.00129490  0.50109344  1
  Fe  Fe77  1  0.12608968  0.87264304  0.37485530  1
  Fe  Fe78  1  0.62487998  0.62493444  0.37528108  1
  Fe  Fe79  1  0.62483428  0.12680085  0.12543982  1
  Fe  Fe80  1  0.87293207  0.37421825  0.12196408  1
  Fe  Fe81  1  0.50043218  0.25219382  0.50078974  1
  Fe  Fe82  1  0.37765249  0.37720983  0.12382752  1
  Fe  Fe83  1  0.87211009  0.37627412  0.87814025  1
  Fe  Fe84  1  0.25134794  0.00106566  0.24911372  1
  Fe  Fe85  1  0.37844541  0.12052984  0.37778434  1
  Fe  Fe86  1  0.75147439  0.24851528  0.25094448  1
  Fe  Fe87  1  0.62489492  0.62576411  0.62483309  1
  Fe  Fe88  1  0.62222659  0.12416366  0.87262612  1
  Fe  Fe89  1  0.12253496  0.12401912  0.12356010  1
  Co  Co90  1  0.62504330  0.37044167  0.12877551  1
  Co  Co91  1  0.87490112  0.37486035  0.62354070  1
  Co  Co92  1  0.87415738  0.62333906  0.12067873  1
  Co  Co93  1  0.74713008  0.75035285  0.49979097  1
  Co  Co94  1  0.12631003  0.62550189  0.37615023  1
  Co  Co95  1  0.12439604  0.62686195  0.12155980  1
  Co  Co96  1  0.37328524  0.87729518  0.37456906  1
  Co  Co97  1  0.00034237  0.24913603  0.50139427  1
  Co  Co98  1  -0.00150113  0.50313241  0.49985250  1
  Co  Co99  1  0.49990919  -0.00124552  0.24764196  1
  Co  Co100  1  -0.00093350  -0.00446809  -0.00031240  1
  Co  Co101  1  0.86969207  0.87228135  0.62644865  1
  Co  Co102  1  0.62883142  0.37517928  0.86863849  1
  Co  Co103  1  0.00132902  0.49881344  0.00079065  1
  Co  Co104  1  0.62255379  0.63009234  0.12249080  1
  Co  Co105  1  0.74729518  0.24880753  -0.00184678  1
  Co  Co106  1  0.12690847  0.87377443  0.62642660  1
  Co  Co107  1  0.75156616  0.74438390  0.75229456  1
  Co  Co108  1  -0.00201949  -0.00193778  0.74633264  1
  Co  Co109  1  0.50193771  0.49926766  0.50154308  1
  Co  Co110  1  0.75222832  0.75364080  0.00104946  1
  Co  Co111  1  0.50630984  0.49706691  -0.00107389  1
  Co  Co112  1  0.62897989  0.87523123  0.87163089  1
  Co  Co113  1  0.50488088  -0.00743514  0.50193032  1
  Co  Co114  1  0.50239803  0.50172760  0.24882811  1
  Co  Co115  1  0.74323272  0.49789022  0.00435999  1
  Co  Co116  1  0.87122710  0.62434782  0.37480116  1
  Co  Co117  1  0.25318881  0.00278039  0.75140470  1
  Co  Co118  1  0.49672890  0.24990292  0.74980560  1
  Co  Co119  1  0.87351030  0.87607163  0.12825241  1
  Co  Co120  1  0.00180555  0.25204832  0.00012780  1
  Co  Co121  1  0.49698832  -0.00094978  0.75069800  1
  Co  Co122  1  0.62953429  0.87552284  0.36977013  1
  Co  Co123  1  0.37789401  0.12538618  0.87956511  1
  Co  Co124  1  0.75174492  0.00507133  0.75087318  1
  Co  Co125  1  0.24906821  0.50028140  -0.00081552  1
  Co  Co126  1  0.37801108  0.12297726  0.62044147  1
  Co  Co127  1  -0.00315138  0.50094121  0.75095515  1
