# generated using pymatgen
data_Fe45Co19
_symmetry_space_group_name_H-M   'P 1'
_cell_length_a   11.41474258
_cell_length_b   11.41488831
_cell_length_c   11.41429737
_cell_angle_alpha   90.00571319
_cell_angle_beta   89.98460686
_cell_angle_gamma   90.00678034
_symmetry_Int_Tables_number   1
_chemical_formula_structural   Fe45Co19
_chemical_formula_sum   'Fe90 Co38'
_cell_volume   1487.26017930
_cell_formula_units_Z   2
loop_
 _symmetry_equiv_pos_site_id
 _symmetry_equiv_pos_as_xyz
  1  'x, y, z'
loop_
 _atom_site_type_symbol
 _atom_site_label
 _atom_site_symmetry_multiplicity
 _atom_site_fract_x
 _atom_site_fract_y
 _atom_site_fract_z
 _atom_site_occupancy
  Fe  Fe0  1  0.12403832  0.87937485  0.38044009  1
  Fe  Fe1  1  0.62229822  0.87646176  0.12448925  1
  Fe  Fe2  1  0.87675068  0.37269716  0.87257424  1
  Fe  Fe3  1  0.62495259  0.62481323  0.12649711  1
  Fe  Fe4  1  0.25151997  0.49908728  0.50018707  1
  Fe  Fe5  1  0.50150198  0.50318928  0.50223987  1
  Fe  Fe6  1  0.00126287  0.50081886  0.24953743  1
  Fe  Fe7  1  0.87534769  0.87337589  0.12338013  1
  Fe  Fe8  1  0.12475199  0.37567561  0.37710769  1
  Fe  Fe9  1  0.37611827  0.36980682  0.61955882  1
  Fe  Fe10  1  0.87457610  0.62602638  0.37422513  1
  Fe  Fe11  1  0.49721172  0.74714826  -0.00219022  1
  Fe  Fe12  1  0.49773470  0.24893171  0.00050338  1
  Fe  Fe13  1  0.37503551  0.37839134  0.87687055  1
  Fe  Fe14  1  0.74965124  0.00053259  0.75036780  1
  Fe  Fe15  1  0.37159846  0.12631285  0.37674020  1
  Fe  Fe16  1  -0.00074491  0.50367076  0.50203462  1
  Fe  Fe17  1  0.74602466  0.74738451  0.50125563  1
  Fe  Fe18  1  0.62288325  0.37699610  0.87708850  1
  Fe  Fe19  1  0.37709148  0.87409540  0.37854204  1
  Fe  Fe20  1  0.12847889  0.62664515  0.12755824  1
  Fe  Fe21  1  0.13081149  0.62255785  0.86907033  1
  Fe  Fe22  1  0.12410097  0.12530488  0.13013957  1
  Fe  Fe23  1  0.75306092  0.00346655  0.50030446  1
  Fe  Fe24  1  0.37369713  0.87480035  0.12402264  1
  Fe  Fe25  1  0.49734373  0.75404687  0.75141904  1
  Fe  Fe26  1  0.25269417  -0.00543713  0.74576159  1
  Fe  Fe27  1  0.62467289  0.37347649  0.12441266  1
  Fe  Fe28  1  0.75072131  0.50213188  0.00012688  1
  Fe  Fe29  1  0.24907633  0.25228623  0.25431262  1
  Fe  Fe30  1  0.49975658  0.49839414  0.25138565  1
  Fe  Fe31  1  0.75159372  0.24678640  -0.00141016  1
  Fe  Fe32  1  0.49710683  0.00247479  0.00188088  1
  Fe  Fe33  1  0.49906826  0.24895587  0.25384540  1
  Fe  Fe34  1  0.25323993  0.74749327  -0.00453392  1
  Fe  Fe35  1  0.87576235  0.37618970  0.37693425  1
  Fe  Fe36  1  0.62443895  0.37339106  0.38028211  1
  Fe  Fe37  1  0.87532346  0.87367252  0.37684312  1
  Fe  Fe38  1  0.74879932  0.74782417  -0.00083910  1
  Fe  Fe39  1  0.87498628  0.62521846  0.87161362  1
  Fe  Fe40  1  0.62329513  0.12452036  0.12814225  1
  Fe  Fe41  1  0.00041743  0.50070609  0.74674482  1
  Fe  Fe42  1  0.25021885  -0.00274337  0.25081971  1
  Fe  Fe43  1  0.74771501  0.75162139  0.74956554  1
  Fe  Fe44  1  0.62032615  0.62181424  0.87182986  1
  Fe  Fe45  1  0.00137409  0.74735669  -0.00018573  1
  Fe  Fe46  1  0.74763718  0.50358273  0.50260348  1
  Fe  Fe47  1  0.75007561  0.50016109  0.25056122  1
  Fe  Fe48  1  0.24818394  0.25234135  0.74822207  1
  Fe  Fe49  1  0.87335597  0.37181810  0.62496309  1
  Fe  Fe50  1  0.37190105  0.62377472  0.12855552  1
  Fe  Fe51  1  0.12540925  0.87661378  0.87610732  1
  Fe  Fe52  1  0.00052631  0.50279312  0.00033866  1
  Fe  Fe53  1  0.62320287  0.12441572  0.87512374  1
  Fe  Fe54  1  0.37420317  0.12452899  0.87144730  1
  Fe  Fe55  1  0.12632087  0.37490563  0.12426073  1
  Fe  Fe56  1  0.87637166  0.87455107  0.87437941  1
  Fe  Fe57  1  0.25107413  0.00300292  0.00136236  1
  Fe  Fe58  1  0.00427406  0.75037534  0.74632584  1
  Fe  Fe59  1  0.74863325  0.75083267  0.25040277  1
  Fe  Fe60  1  0.87631612  0.12814114  0.63103306  1
  Fe  Fe61  1  0.12685840  0.12054922  0.62301142  1
  Fe  Fe62  1  0.87518385  0.87403864  0.62494665  1
  Fe  Fe63  1  0.62643894  0.12912849  0.62294492  1
  Fe  Fe64  1  0.12454644  0.37652909  0.62233720  1
  Fe  Fe65  1  0.12681298  0.62475730  0.37546695  1
  Fe  Fe66  1  0.62324727  0.87744776  0.87650765  1
  Fe  Fe67  1  0.74947652  -0.00119403  0.25046935  1
  Fe  Fe68  1  0.75261550  0.00316808  -0.00058612  1
  Fe  Fe69  1  0.49941098  -0.00019705  0.74613813  1
  Fe  Fe70  1  0.00166069  0.24656188  0.49954265  1
  Fe  Fe71  1  0.00277756  0.75304585  0.24980804  1
  Fe  Fe72  1  0.88087303  0.12426440  0.36858252  1
  Fe  Fe73  1  0.37329902  0.62498473  0.37395021  1
  Fe  Fe74  1  0.62273036  0.87703732  0.37825702  1
  Fe  Fe75  1  0.74726618  0.49762889  0.74689691  1
  Fe  Fe76  1  -0.00170745  0.00266414  0.00121920  1
  Fe  Fe77  1  0.12491826  0.12353328  0.87131258  1
  Fe  Fe78  1  0.49976648  0.75101047  0.25196858  1
  Fe  Fe79  1  0.87520832  0.37473192  0.12488136  1
  Fe  Fe80  1  0.25040810  0.24873621  -0.00067399  1
  Fe  Fe81  1  -0.00114963  0.24711133  -0.00023639  1
  Fe  Fe82  1  0.24931404  0.75224551  0.50231269  1
  Fe  Fe83  1  0.00124883  0.74760275  0.50304669  1
  Fe  Fe84  1  0.74954973  0.24972373  0.25297377  1
  Fe  Fe85  1  0.37281990  0.62790857  0.62875866  1
  Fe  Fe86  1  0.49780100  0.00376527  0.50213401  1
  Fe  Fe87  1  0.50136609  0.25189641  0.74918404  1
  Fe  Fe88  1  0.12492649  0.37662715  0.87531698  1
  Fe  Fe89  1  0.37353283  0.37519811  0.12549960  1
  Co  Co90  1  0.49970867  0.49394150  0.74355180  1
  Co  Co91  1  0.00569017  0.25076893  0.74782382  1
  Co  Co92  1  0.62689631  0.36906873  0.61818389  1
  Co  Co93  1  0.49923557  0.24518990  0.49745126  1
  Co  Co94  1  0.37284020  0.12872276  0.62618222  1
  Co  Co95  1  0.74570716  0.25115413  0.75322231  1
  Co  Co96  1  0.12420620  0.12164431  0.37345618  1
  Co  Co97  1  0.62469134  0.87614948  0.62178777  1
  Co  Co98  1  0.25228155  0.49365284  0.74679826  1
  Co  Co99  1  0.13057626  0.62383006  0.62618000  1
  Co  Co100  1  0.24928959  0.75485693  0.25366353  1
  Co  Co101  1  0.25427148  -0.00094556  0.50119524  1
  Co  Co102  1  0.75516247  0.24479404  0.49563442  1
  Co  Co103  1  0.00209421  -0.00714803  0.24780010  1
  Co  Co104  1  0.37831246  0.87220221  0.62062855  1
  Co  Co105  1  0.49823243  0.50187768  0.00347766  1
  Co  Co106  1  0.37648008  0.37533648  0.37844400  1
  Co  Co107  1  0.00160132  0.25469961  0.25132939  1
  Co  Co108  1  0.62428575  0.12266297  0.37533182  1
  Co  Co109  1  0.37551578  0.87983497  0.87729380  1
  Co  Co110  1  0.50175404  0.74594331  0.49897041  1
  Co  Co111  1  0.87621539  0.12523461  0.13019342  1
  Co  Co112  1  0.25022422  0.50145682  0.00083619  1
  Co  Co113  1  0.62541378  0.62429922  0.37265151  1
  Co  Co114  1  0.24901476  0.49683092  0.25162888  1
  Co  Co115  1  0.37517282  0.61974417  0.86878645  1
  Co  Co116  1  0.87700692  0.12708185  0.87040043  1
  Co  Co117  1  0.12297624  0.87874269  0.62107446  1
  Co  Co118  1  0.37367365  0.12661263  0.12758478  1
  Co  Co119  1  0.24544152  0.24952392  0.49896540  1
  Co  Co120  1  0.87544117  0.62619681  0.12733525  1
  Co  Co121  1  0.49607412  -0.00022830  0.25201451  1
  Co  Co122  1  -0.00510404  0.00319922  0.50095568  1
  Co  Co123  1  0.62196244  0.62781188  0.62989516  1
  Co  Co124  1  0.25009470  0.75684675  0.74996527  1
  Co  Co125  1  -0.00041226  -0.00227571  0.74979781  1
  Co  Co126  1  0.12838151  0.87406452  0.12021925  1
  Co  Co127  1  0.87321892  0.62653140  0.62613558  1
