# generated using pymatgen
data_Fe45Co19
_symmetry_space_group_name_H-M   'P 1'
_cell_length_a   11.41403204
_cell_length_b   11.41526032
_cell_length_c   11.41558435
_cell_angle_alpha   89.98920734
_cell_angle_beta   90.01236579
_cell_angle_gamma   90.01622947
_symmetry_Int_Tables_number   1
_chemical_formula_structural   Fe45Co19
_chemical_formula_sum   'Fe90 Co38'
_cell_volume   1487.38370434
_cell_formula_units_Z   2
loop_
 _symmetry_equiv_pos_site_id
 _symmetry_equiv_pos_as_xyz
  1  'x, y, z'
loop_
 _atom_site_type_symbol
 _atom_site_label
 _atom_site_symmetry_multiplicity
 _atom_site_fract_x
 _atom_site_fract_y
 _atom_site_fract_z
 _atom_site_occupancy
  Fe  Fe0  1  0.62933984  0.37590577  0.87732728  1
  Fe  Fe1  1  0.62560503  0.62614778  0.87480404  1
  Fe  Fe2  1  0.49958463  0.49789024  0.50248458  1
  Fe  Fe3  1  0.37727175  0.12600703  0.12075878  1
  Fe  Fe4  1  0.62615853  0.62341618  0.62625251  1
  Fe  Fe5  1  0.87310002  0.37649823  0.87835463  1
  Fe  Fe6  1  0.12712896  0.62341589  0.62426637  1
  Fe  Fe7  1  0.24906167  -0.00000509  -0.00361009  1
  Fe  Fe8  1  0.12771415  0.37549145  0.37441220  1
  Fe  Fe9  1  0.38308310  0.87809872  0.37863012  1
  Fe  Fe10  1  -0.00233668  0.74856133  0.74858711  1
  Fe  Fe11  1  0.50225226  0.49831287  0.00293827  1
  Fe  Fe12  1  0.00202898  0.75153363  0.50039871  1
  Fe  Fe13  1  0.25424196  0.74876835  0.49977325  1
  Fe  Fe14  1  0.62073474  0.62777491  0.37112030  1
  Fe  Fe15  1  0.25122293  0.74879733  0.75049973  1
  Fe  Fe16  1  0.12280383  0.12216044  0.87216369  1
  Fe  Fe17  1  0.75192798  0.50303807  0.75070706  1
  Fe  Fe18  1  0.37628964  0.87678863  0.12256904  1
  Fe  Fe19  1  0.12572466  0.62586982  0.37170168  1
  Fe  Fe20  1  0.49724290  0.25166158  0.24844840  1
  Fe  Fe21  1  0.37740785  0.62326026  0.87666153  1
  Fe  Fe22  1  0.12651420  0.12269509  0.62725015  1
  Fe  Fe23  1  0.24978165  0.25034950  0.75217306  1
  Fe  Fe24  1  0.62291787  0.62909404  0.12802060  1
  Fe  Fe25  1  0.87098235  0.87781624  0.12649977  1
  Fe  Fe26  1  0.25604579  0.00165203  0.50323803  1
  Fe  Fe27  1  0.74836960  0.50120110  0.25013300  1
  Fe  Fe28  1  0.37366316  0.61863137  0.62791252  1
  Fe  Fe29  1  0.49901173  -0.00097634  0.74817228  1
  Fe  Fe30  1  0.12867062  0.87715749  0.62864100  1
  Fe  Fe31  1  0.87358281  0.87325502  0.87339163  1
  Fe  Fe32  1  0.00186953  -0.00282154  0.00028567  1
  Fe  Fe33  1  0.24936488  0.50169729  0.00187268  1
  Fe  Fe34  1  0.12622922  0.12265092  0.37497432  1
  Fe  Fe35  1  0.12264235  0.62667506  0.87755453  1
  Fe  Fe36  1  0.24813155  0.75062472  0.00190894  1
  Fe  Fe37  1  0.75091399  0.25023908  0.75267895  1
  Fe  Fe38  1  0.87251266  0.12316281  0.12701551  1
  Fe  Fe39  1  0.25435822  0.00063675  0.25052567  1
  Fe  Fe40  1  0.87441002  0.62602186  0.12467052  1
  Fe  Fe41  1  -0.00270995  0.24806637  0.25285787  1
  Fe  Fe42  1  0.74906380  0.50081633  0.49741160  1
  Fe  Fe43  1  0.37346634  0.37666874  0.87730361  1
  Fe  Fe44  1  0.50151874  0.75300069  0.00180043  1
  Fe  Fe45  1  0.75173543  0.24951787  0.49585163  1
  Fe  Fe46  1  0.12406392  0.37458841  0.87676998  1
  Fe  Fe47  1  -0.00131657  0.24795745  0.00076644  1
  Fe  Fe48  1  -0.00080557  0.50024091  0.00225604  1
  Fe  Fe49  1  -0.00089329  0.24952819  0.49778474  1
  Fe  Fe50  1  -0.00039968  0.49878565  0.24873134  1
  Fe  Fe51  1  0.87494380  0.12274261  0.87432961  1
  Fe  Fe52  1  0.74717649  -0.00118547  0.75033842  1
  Fe  Fe53  1  0.25490942  0.75012843  0.24920484  1
  Fe  Fe54  1  0.49587270  0.25297627  0.50317033  1
  Fe  Fe55  1  0.62323676  0.37423825  0.37406279  1
  Fe  Fe56  1  0.25306966  0.24952012  0.25012927  1
  Fe  Fe57  1  0.12648082  0.37281083  0.12432212  1
  Fe  Fe58  1  0.37944505  0.62176873  0.37181547  1
  Fe  Fe59  1  0.62265043  0.12686032  0.12165976  1
  Fe  Fe60  1  0.12874340  0.37701537  0.62485360  1
  Fe  Fe61  1  0.87364113  0.12417631  0.62374686  1
  Fe  Fe62  1  0.74341326  -0.00028700  0.25318572  1
  Fe  Fe63  1  0.12758828  0.87618383  0.37325348  1
  Fe  Fe64  1  -0.00128467  0.25039959  0.74889000  1
  Fe  Fe65  1  0.37973585  0.12640488  0.87599255  1
  Fe  Fe66  1  0.87018779  0.37221299  0.12540169  1
  Fe  Fe67  1  0.87388320  0.87724607  0.37415822  1
  Fe  Fe68  1  0.74517361  -0.00052246  0.49856709  1
  Fe  Fe69  1  0.74814311  0.75076875  -0.00033696  1
  Fe  Fe70  1  0.00068630  -0.00044986  0.50044935  1
  Fe  Fe71  1  0.87268266  0.37622817  0.62243784  1
  Fe  Fe72  1  0.61901201  0.12546772  0.37640750  1
  Fe  Fe73  1  -0.00011081  0.75328155  0.24815218  1
  Fe  Fe74  1  0.25411619  0.24974439  0.49981913  1
  Fe  Fe75  1  -0.00144678  0.50197584  0.74990761  1
  Fe  Fe76  1  0.37649328  0.87384591  0.87437949  1
  Fe  Fe77  1  0.00191733  0.75328808  0.00306228  1
  Fe  Fe78  1  0.87664619  0.62521007  0.37517432  1
  Fe  Fe79  1  0.87329281  0.87423408  0.62481913  1
  Fe  Fe80  1  0.25376850  0.49988548  0.24677489  1
  Fe  Fe81  1  0.49958544  0.74743906  0.74777942  1
  Fe  Fe82  1  0.74341652  0.00010685  -0.00378263  1
  Fe  Fe83  1  0.62838810  0.37146389  0.12449348  1
  Fe  Fe84  1  0.50080562  0.25735564  0.74945337  1
  Fe  Fe85  1  0.12507706  0.12309704  0.12625827  1
  Fe  Fe86  1  0.62145015  0.87216415  0.62344855  1
  Fe  Fe87  1  0.62434682  0.12904420  0.62685992  1
  Fe  Fe88  1  0.00139383  0.49948224  0.49932416  1
  Fe  Fe89  1  0.74813954  0.74960412  0.49818355  1
  Co  Co90  1  0.49902069  0.00413393  0.50528623  1
  Co  Co91  1  0.75014378  0.24550497  -0.00273053  1
  Co  Co92  1  0.37283969  0.37231364  0.12102972  1
  Co  Co93  1  0.37819234  0.62559292  0.12351624  1
  Co  Co94  1  0.12469429  0.87448726  0.87114994  1
  Co  Co95  1  0.00033622  -0.00093040  0.25023986  1
  Co  Co96  1  0.12568460  0.62594775  0.12674195  1
  Co  Co97  1  0.61998774  0.12582693  0.87204068  1
  Co  Co98  1  0.37617760  0.12885710  0.62958212  1
  Co  Co99  1  0.50309885  -0.00327233  -0.00088181  1
  Co  Co100  1  0.50158395  0.00011204  0.24666078  1
  Co  Co101  1  0.37613426  0.87340358  0.62517448  1
  Co  Co102  1  0.74781869  0.50336854  0.00293340  1
  Co  Co103  1  0.87355806  0.37683315  0.37406104  1
  Co  Co104  1  0.62951462  0.37478908  0.62386645  1
  Co  Co105  1  0.87435189  0.62444135  0.62109280  1
  Co  Co106  1  0.37583259  0.37695655  0.37476997  1
  Co  Co107  1  0.24741399  0.50123816  0.75583766  1
  Co  Co108  1  0.87507308  0.62685942  0.87848240  1
  Co  Co109  1  0.37004172  0.37936790  0.62667845  1
  Co  Co110  1  0.62603133  0.87322079  0.12662415  1
  Co  Co111  1  0.49698538  0.75463628  0.24805832  1
  Co  Co112  1  0.62349681  0.87227909  0.87093249  1
  Co  Co113  1  0.25096126  0.50244823  0.49633668  1
  Co  Co114  1  0.50047867  0.49588373  0.24487291  1
  Co  Co115  1  0.87502581  0.12057035  0.37524789  1
  Co  Co116  1  -0.00287185  -0.00105758  0.74847912  1
  Co  Co117  1  0.75083986  0.75081152  0.25251168  1
  Co  Co118  1  0.24754528  0.24675778  -0.00239217  1
  Co  Co119  1  0.75011918  0.74831896  0.74821319  1
  Co  Co120  1  0.12837597  0.87672224  0.12816679  1
  Co  Co121  1  0.25519794  0.00043241  0.75247033  1
  Co  Co122  1  0.37820517  0.12438501  0.37389849  1
  Co  Co123  1  0.61804958  0.87261509  0.37768516  1
  Co  Co124  1  0.50240208  0.25403918  -0.00207115  1
  Co  Co125  1  0.74914398  0.24684569  0.25321022  1
  Co  Co126  1  0.49750128  0.74388528  0.50328201  1
  Co  Co127  1  0.50305867  0.49712087  0.75109368  1
