# generated using pymatgen
data_Fe45Co19
_symmetry_space_group_name_H-M   'P 1'
_cell_length_a   11.41440542
_cell_length_b   11.41484961
_cell_length_c   11.41480489
_cell_angle_alpha   89.99597961
_cell_angle_beta   89.99435477
_cell_angle_gamma   89.99432612
_symmetry_Int_Tables_number   1
_chemical_formula_structural   Fe45Co19
_chemical_formula_sum   'Fe90 Co38'
_cell_volume   1487.27738863
_cell_formula_units_Z   2
loop_
 _symmetry_equiv_pos_site_id
 _symmetry_equiv_pos_as_xyz
  1  'x, y, z'
loop_
 _atom_site_type_symbol
 _atom_site_label
 _atom_site_symmetry_multiplicity
 _atom_site_fract_x
 _atom_site_fract_y
 _atom_site_fract_z
 _atom_site_occupancy
  Fe  Fe0  1  0.61930156  0.37696279  0.37880277  1
  Fe  Fe1  1  0.37814103  0.37300218  0.87739941  1
  Fe  Fe2  1  0.12562127  0.62646394  0.87477319  1
  Fe  Fe3  1  0.12485015  0.37436612  0.12349467  1
  Fe  Fe4  1  -0.00021835  0.49988489  0.75054700  1
  Fe  Fe5  1  0.25010060  0.75444989  0.75146252  1
  Fe  Fe6  1  -0.00179205  0.49853880  0.24955000  1
  Fe  Fe7  1  0.62322351  0.87446996  0.37698034  1
  Fe  Fe8  1  0.25334105  -0.00549915  0.25119392  1
  Fe  Fe9  1  0.87372789  0.37300227  0.87723268  1
  Fe  Fe10  1  0.25128174  0.49893967  0.24899975  1
  Fe  Fe11  1  -0.00035844  0.50113340  -0.00053945  1
  Fe  Fe12  1  0.37753225  0.62350496  0.37219495  1
  Fe  Fe13  1  0.87186279  0.62692688  0.62782948  1
  Fe  Fe14  1  0.12368327  0.37275795  0.87686131  1
  Fe  Fe15  1  -0.00172903  0.24822657  0.74855210  1
  Fe  Fe16  1  0.49640488  0.00554336  0.00138727  1
  Fe  Fe17  1  0.37495889  0.62390521  0.62689168  1
  Fe  Fe18  1  -0.00043374  0.50141480  0.50081982  1
  Fe  Fe19  1  0.62216478  0.87592201  0.12170751  1
  Fe  Fe20  1  -0.00207118  0.24809788  0.49853906  1
  Fe  Fe21  1  0.87394745  0.12498828  0.87487874  1
  Fe  Fe22  1  0.62507103  0.62520770  0.12708611  1
  Fe  Fe23  1  0.37534304  0.12544598  0.62642288  1
  Fe  Fe24  1  0.75197250  0.75513903  0.24881216  1
  Fe  Fe25  1  0.12625579  0.62633934  0.37227453  1
  Fe  Fe26  1  0.37744256  0.87631042  0.62305688  1
  Fe  Fe27  1  0.25335116  0.49737728  0.49837782  1
  Fe  Fe28  1  -0.00078396  0.74939355  -0.00072626  1
  Fe  Fe29  1  0.50204648  0.74556611  0.50046965  1
  Fe  Fe30  1  0.49981055  0.00098688  0.74942073  1
  Fe  Fe31  1  -0.00004598  0.74947008  0.49723561  1
  Fe  Fe32  1  0.62529879  0.62534722  0.87264053  1
  Fe  Fe33  1  0.74706100  0.74794740  0.50023861  1
  Fe  Fe34  1  0.50292675  0.49585306  0.74893985  1
  Fe  Fe35  1  -0.00105918  0.00058514  0.49509109  1
  Fe  Fe36  1  0.74559963  0.50337717  0.49975053  1
  Fe  Fe37  1  0.12723626  0.62528014  0.62530481  1
  Fe  Fe38  1  0.12756893  0.12239864  0.87481878  1
  Fe  Fe39  1  0.49882202  0.75171339  0.24883696  1
  Fe  Fe40  1  0.87208615  0.37279830  0.62329198  1
  Fe  Fe41  1  0.24922539  0.25035420  0.74945430  1
  Fe  Fe42  1  0.12553288  0.12383437  0.37129595  1
  Fe  Fe43  1  -0.00025530  0.24412981  0.00470642  1
  Fe  Fe44  1  0.12549918  0.12394379  0.62380470  1
  Fe  Fe45  1  0.62308834  0.87705074  0.87689784  1
  Fe  Fe46  1  0.50347765  0.25205100  0.75031482  1
  Fe  Fe47  1  0.25301347  0.25117855  0.49803980  1
  Fe  Fe48  1  0.12129509  0.87619124  0.12783083  1
  Fe  Fe49  1  0.75141819  0.00168558  0.00394914  1
  Fe  Fe50  1  0.25060284  0.75362004  0.00068002  1
  Fe  Fe51  1  0.25148411  0.75137784  0.49657090  1
  Fe  Fe52  1  0.74969694  0.00125482  0.74961063  1
  Fe  Fe53  1  0.74916679  0.50143018  -0.00076918  1
  Fe  Fe54  1  0.87400968  0.62510103  0.12565831  1
  Fe  Fe55  1  0.37749882  0.12360507  0.37384469  1
  Fe  Fe56  1  0.74968556  0.49527355  0.25058889  1
  Fe  Fe57  1  0.62534018  0.87438018  0.62513755  1
  Fe  Fe58  1  0.25130038  0.25203869  0.25021178  1
  Fe  Fe59  1  0.37753871  0.37490995  0.12341541  1
  Fe  Fe60  1  0.62573719  0.12768493  0.62418261  1
  Fe  Fe61  1  0.50084719  0.75228960  0.75159590  1
  Fe  Fe62  1  0.25208721  0.24643177  0.00182436  1
  Fe  Fe63  1  0.62161967  0.37532402  0.12039714  1
  Fe  Fe64  1  0.12457226  0.87570514  0.62334247  1
  Fe  Fe65  1  0.62560009  0.12398565  0.37090650  1
  Fe  Fe66  1  0.12568801  0.37469229  0.62387244  1
  Fe  Fe67  1  0.37637108  0.62663061  0.12414631  1
  Fe  Fe68  1  0.87542634  0.87647875  0.87725883  1
  Fe  Fe69  1  0.25086968  0.50034042  -0.00030907  1
  Fe  Fe70  1  0.12474192  0.62750715  0.12777712  1
  Fe  Fe71  1  0.12390528  0.37540252  0.37527429  1
  Fe  Fe72  1  0.74862521  0.49657293  0.75105112  1
  Fe  Fe73  1  0.74839863  0.00119871  0.49950219  1
  Fe  Fe74  1  0.87226940  0.62505641  0.37343129  1
  Fe  Fe75  1  -0.00079868  0.75105432  0.75158676  1
  Fe  Fe76  1  0.25132079  -0.00101522  0.49873754  1
  Fe  Fe77  1  0.50065936  -0.00170720  0.24907398  1
  Fe  Fe78  1  0.74915428  0.74971818  -0.00103497  1
  Fe  Fe79  1  0.74939062  0.24761149  0.00366606  1
  Fe  Fe80  1  -0.00168105  0.25095067  0.24824817  1
  Fe  Fe81  1  0.87347284  0.87584498  0.62360304  1
  Fe  Fe82  1  0.25234560  -0.00014520  -0.00011038  1
  Fe  Fe83  1  0.37644943  0.62693201  0.87610715  1
  Fe  Fe84  1  0.74992973  0.24823738  0.49775502  1
  Fe  Fe85  1  0.50122173  0.24982617  0.24787937  1
  Fe  Fe86  1  0.24980470  0.49828640  0.75218588  1
  Fe  Fe87  1  0.00033550  0.00024130  0.75016102  1
  Fe  Fe88  1  0.62456338  0.12646366  0.87673974  1
  Fe  Fe89  1  0.86995499  0.12457858  0.36749498  1
  Co  Co90  1  0.49800911  0.24781672  0.49965918  1
  Co  Co91  1  0.75008826  0.75432069  0.75341395  1
  Co  Co92  1  0.62588464  0.37222670  0.87991751  1
  Co  Co93  1  0.74863070  -0.00788658  0.24808772  1
  Co  Co94  1  0.25336678  0.75311599  0.25014880  1
  Co  Co95  1  0.87014179  0.12471524  0.13214017  1
  Co  Co96  1  0.37975172  0.37609070  0.37369200  1
  Co  Co97  1  0.62596755  0.62648766  0.63065957  1
  Co  Co98  1  0.12747258  0.12122590  0.12939812  1
  Co  Co99  1  0.62765814  0.12365056  0.12810344  1
  Co  Co100  1  0.62736147  0.37246888  0.62064249  1
  Co  Co101  1  -0.00414056  -0.00174977  0.25198965  1
  Co  Co102  1  0.37991296  0.87535129  0.37785111  1
  Co  Co103  1  0.87203425  0.87479997  0.37872748  1
  Co  Co104  1  0.87822859  0.87563647  0.12094709  1
  Co  Co105  1  0.37564710  0.37442742  0.62526302  1
  Co  Co106  1  -0.00401371  0.75142282  0.25234374  1
  Co  Co107  1  0.50249802  0.74754255  -0.00069871  1
  Co  Co108  1  0.50221779  0.00267950  0.50102192  1
  Co  Co109  1  0.62470346  0.62561036  0.36930248  1
  Co  Co110  1  0.87512763  0.37573393  0.37763590  1
  Co  Co111  1  0.12501243  0.87396798  0.37256610  1
  Co  Co112  1  0.87453837  0.12346308  0.62406053  1
  Co  Co113  1  0.37457857  0.12546256  0.87143174  1
  Co  Co114  1  0.87522029  0.37505069  0.12178690  1
  Co  Co115  1  0.49846615  0.24481271  0.00244939  1
  Co  Co116  1  0.74617383  0.25787441  0.24926693  1
  Co  Co117  1  0.25086448  -0.00277481  0.74876987  1
  Co  Co118  1  0.12415144  0.87731548  0.87667779  1
  Co  Co119  1  0.37765410  0.87606004  0.87646230  1
  Co  Co120  1  -0.00071609  0.00506290  0.00208572  1
  Co  Co121  1  0.50073404  0.50320735  -0.00092871  1
  Co  Co122  1  0.74923458  0.24837716  0.75036001  1
  Co  Co123  1  0.87365580  0.62457909  0.87407593  1
  Co  Co124  1  0.37813695  0.87495746  0.12221874  1
  Co  Co125  1  0.50025304  0.49962924  0.24727089  1
  Co  Co126  1  0.37362297  0.12392353  0.12911786  1
  Co  Co127  1  0.50082568  0.50421555  0.50358976  1
