# generated using pymatgen
data_Fe45Co19
_symmetry_space_group_name_H-M   'P 1'
_cell_length_a   11.41496023
_cell_length_b   11.41613466
_cell_length_c   11.41462294
_cell_angle_alpha   89.98784907
_cell_angle_beta   90.00161358
_cell_angle_gamma   90.00150031
_symmetry_Int_Tables_number   1
_chemical_formula_structural   Fe45Co19
_chemical_formula_sum   'Fe90 Co38'
_cell_volume   1487.49339327
_cell_formula_units_Z   2
loop_
 _symmetry_equiv_pos_site_id
 _symmetry_equiv_pos_as_xyz
  1  'x, y, z'
loop_
 _atom_site_type_symbol
 _atom_site_label
 _atom_site_symmetry_multiplicity
 _atom_site_fract_x
 _atom_site_fract_y
 _atom_site_fract_z
 _atom_site_occupancy
  Fe  Fe0  1  0.87629206  0.12791056  0.12661000  1
  Fe  Fe1  1  0.37723060  0.12551487  0.62618558  1
  Fe  Fe2  1  0.75104459  -0.00087573  0.24746882  1
  Fe  Fe3  1  0.12820252  0.87793489  0.87425684  1
  Fe  Fe4  1  0.12941352  0.37937219  0.87519484  1
  Fe  Fe5  1  0.37597828  0.87450981  0.12498042  1
  Fe  Fe6  1  0.00155246  0.25004678  -0.00142823  1
  Fe  Fe7  1  0.75014555  0.49972357  0.74799495  1
  Fe  Fe8  1  0.74921978  0.24675380  0.50265573  1
  Fe  Fe9  1  0.62699194  0.87914488  0.87770059  1
  Fe  Fe10  1  0.49981483  0.50019697  0.74789578  1
  Fe  Fe11  1  0.62344317  0.37311995  0.62439910  1
  Fe  Fe12  1  0.62207600  0.62072321  0.37439518  1
  Fe  Fe13  1  0.12757717  0.62222301  0.87320674  1
  Fe  Fe14  1  0.62605102  0.37594759  0.87645184  1
  Fe  Fe15  1  0.87718011  0.36990175  0.62463017  1
  Fe  Fe16  1  0.12581102  0.37800529  0.37732008  1
  Fe  Fe17  1  0.38010615  0.62924223  0.62384442  1
  Fe  Fe18  1  0.87428260  0.37425413  0.37541010  1
  Fe  Fe19  1  0.00136291  0.74981721  0.49600508  1
  Fe  Fe20  1  0.62664600  0.12164219  0.37512694  1
  Fe  Fe21  1  0.12728465  0.62264700  0.37427995  1
  Fe  Fe22  1  0.25081205  0.74970226  0.49878964  1
  Fe  Fe23  1  0.49923517  -0.00053056  0.25243702  1
  Fe  Fe24  1  0.62145249  0.87581163  0.62146989  1
  Fe  Fe25  1  0.74970681  0.50040937  0.50258998  1
  Fe  Fe26  1  -0.00142353  0.49957407  0.74882441  1
  Fe  Fe27  1  0.37841337  0.87435300  0.62235146  1
  Fe  Fe28  1  -0.00242920  -0.00038251  -0.00071489  1
  Fe  Fe29  1  0.74870238  0.75126109  0.75083699  1
  Fe  Fe30  1  0.50234408  0.75384707  0.25591665  1
  Fe  Fe31  1  0.00034643  -0.00238682  0.25097800  1
  Fe  Fe32  1  0.50246699  0.24710056  0.00071836  1
  Fe  Fe33  1  0.87642752  0.62838379  0.12752311  1
  Fe  Fe34  1  0.87375467  0.37345962  0.87518684  1
  Fe  Fe35  1  0.24961300  0.74987661  -0.00005406  1
  Fe  Fe36  1  0.87604537  0.87119171  0.12601075  1
  Fe  Fe37  1  0.24634315  0.24767228  0.49917310  1
  Fe  Fe38  1  0.87396017  0.62667238  0.37371214  1
  Fe  Fe39  1  0.12754567  0.87821773  0.37513456  1
  Fe  Fe40  1  0.25488519  0.50101462  0.50114474  1
  Fe  Fe41  1  0.37466427  0.12800553  0.12869299  1
  Fe  Fe42  1  0.49830164  -0.00163834  0.75196444  1
  Fe  Fe43  1  0.25204064  0.75118247  0.74918850  1
  Fe  Fe44  1  0.37259892  0.12366652  0.87397699  1
  Fe  Fe45  1  0.62197820  0.37666847  0.37516850  1
  Fe  Fe46  1  0.87691012  0.12577799  0.37616638  1
  Fe  Fe47  1  0.37244272  0.37578806  0.87518411  1
  Fe  Fe48  1  0.12565491  0.12075626  0.87248661  1
  Fe  Fe49  1  0.25664571  0.49587270  0.24915791  1
  Fe  Fe50  1  0.37619530  0.62775856  0.12751533  1
  Fe  Fe51  1  0.12506905  0.62475845  0.12709760  1
  Fe  Fe52  1  0.50200674  0.24568534  0.49812540  1
  Fe  Fe53  1  0.24683720  0.24891843  0.74842017  1
  Fe  Fe54  1  0.37070371  0.12661534  0.37142188  1
  Fe  Fe55  1  0.74965918  0.49972677  0.24718823  1
  Fe  Fe56  1  0.12302348  0.87640294  0.62495076  1
  Fe  Fe57  1  0.12571262  0.12383957  0.12778267  1
  Fe  Fe58  1  0.62556475  0.62372059  0.87421618  1
  Fe  Fe59  1  0.74524779  0.74839037  0.49824692  1
  Fe  Fe60  1  0.74656709  0.25041698  0.24826531  1
  Fe  Fe61  1  -0.00164010  0.75248952  0.75255927  1
  Fe  Fe62  1  0.11677785  0.12228056  0.62472215  1
  Fe  Fe63  1  0.62767648  0.12091255  0.87566471  1
  Fe  Fe64  1  0.49690604  0.49975452  0.00224997  1
  Fe  Fe65  1  0.25034663  0.00190607  0.50175427  1
  Fe  Fe66  1  0.87188996  0.87226470  0.37445031  1
  Fe  Fe67  1  0.62496769  0.87775417  0.12332576  1
  Fe  Fe68  1  0.62203742  0.62521332  0.12574288  1
  Fe  Fe69  1  0.74807870  0.24871405  0.00296475  1
  Fe  Fe70  1  0.87461876  0.62826492  0.62469608  1
  Fe  Fe71  1  0.75469719  0.00054355  0.74501418  1
  Fe  Fe72  1  0.87461438  0.12616161  0.87180486  1
  Fe  Fe73  1  0.24890682  0.75330509  0.25069443  1
  Fe  Fe74  1  0.37363929  0.62427292  0.87304069  1
  Fe  Fe75  1  0.75190131  0.50034918  0.00321409  1
  Fe  Fe76  1  0.24937790  0.24993273  0.00092242  1
  Fe  Fe77  1  0.75020863  0.74921110  0.00045281  1
  Fe  Fe78  1  0.00309773  0.25078744  0.25279926  1
  Fe  Fe79  1  0.37649589  0.37163785  0.62343927  1
  Fe  Fe80  1  0.00072449  0.74982163  -0.00227678  1
  Fe  Fe81  1  0.25217186  -0.00043119  0.00326605  1
  Fe  Fe82  1  0.12504082  0.37625878  0.12376167  1
  Fe  Fe83  1  0.12365285  0.37665227  0.62293489  1
  Fe  Fe84  1  0.12359406  0.62510989  0.62466503  1
  Fe  Fe85  1  0.75426338  0.00284687  0.50483783  1
  Fe  Fe86  1  -0.00170752  0.50114819  0.00025547  1
  Fe  Fe87  1  0.50211113  0.24892274  0.75259345  1
  Fe  Fe88  1  0.49898336  0.75256450  -0.00451096  1
  Fe  Fe89  1  -0.00191425  0.49977007  0.25116275  1
  Co  Co90  1  0.62322934  0.62789378  0.62620457  1
  Co  Co91  1  0.49574740  0.49771275  0.24905946  1
  Co  Co92  1  0.37760706  0.37114926  0.37838173  1
  Co  Co93  1  0.50075422  0.75283956  0.75437953  1
  Co  Co94  1  0.62840769  0.88112614  0.37858783  1
  Co  Co95  1  0.25116806  0.00066731  0.74525918  1
  Co  Co96  1  0.62405578  0.12137464  0.12558617  1
  Co  Co97  1  0.37503162  0.62612187  0.37395615  1
  Co  Co98  1  0.24632534  0.25443042  0.25120838  1
  Co  Co99  1  0.00355420  0.75145714  0.25320776  1
  Co  Co100  1  0.37170869  0.87653493  0.37745745  1
  Co  Co101  1  0.12321237  0.87522508  0.12255925  1
  Co  Co102  1  0.12618530  0.12041995  0.37367924  1
  Co  Co103  1  0.49863901  0.50130319  0.50227227  1
  Co  Co104  1  0.25313330  0.50177528  0.00453662  1
  Co  Co105  1  0.62349302  0.37616027  0.12491433  1
  Co  Co106  1  0.87371196  0.62476273  0.87389086  1
  Co  Co107  1  0.37070334  0.87738521  0.87461523  1
  Co  Co108  1  -0.00344217  -0.00307196  0.49735508  1
  Co  Co109  1  0.87547149  0.86929948  0.62185568  1
  Co  Co110  1  0.25270107  0.50064458  0.74448810  1
  Co  Co111  1  0.24987878  -0.00310340  0.24703689  1
  Co  Co112  1  0.49702130  0.00296299  0.49612573  1
  Co  Co113  1  0.87575460  0.37238287  0.12585680  1
  Co  Co114  1  0.50413008  0.24904549  0.25065932  1
  Co  Co115  1  0.00245268  0.25034958  0.49520474  1
  Co  Co116  1  -0.00487471  -0.00455127  0.75032932  1
  Co  Co117  1  0.74694462  0.24837873  0.74831629  1
  Co  Co118  1  0.88198336  0.13068558  0.62619879  1
  Co  Co119  1  0.62180783  0.12225606  0.62653616  1
  Co  Co120  1  0.49602596  0.00132024  0.00028001  1
  Co  Co121  1  0.87162936  0.87530520  0.87716590  1
  Co  Co122  1  0.75484505  0.00151370  0.00384217  1
  Co  Co123  1  -0.00291005  0.50193547  0.49996100  1
  Co  Co124  1  0.74406362  0.74986275  0.25027268  1
  Co  Co125  1  0.37726290  0.36939561  0.12375783  1
  Co  Co126  1  0.00493631  0.25297418  0.75366877  1
  Co  Co127  1  0.50239874  0.75033795  0.49330070  1
