# generated using pymatgen
data_Fe45Co19
_symmetry_space_group_name_H-M   'P 1'
_cell_length_a   11.41560415
_cell_length_b   11.41527079
_cell_length_c   11.41640811
_cell_angle_alpha   90.01326374
_cell_angle_beta   89.99624652
_cell_angle_gamma   89.99478053
_symmetry_Int_Tables_number   1
_chemical_formula_structural   Fe45Co19
_chemical_formula_sum   'Fe90 Co38'
_cell_volume   1487.69735156
_cell_formula_units_Z   2
loop_
 _symmetry_equiv_pos_site_id
 _symmetry_equiv_pos_as_xyz
  1  'x, y, z'
loop_
 _atom_site_type_symbol
 _atom_site_label
 _atom_site_symmetry_multiplicity
 _atom_site_fract_x
 _atom_site_fract_y
 _atom_site_fract_z
 _atom_site_occupancy
  Fe  Fe0  1  0.62532752  0.12512091  0.37440810  1
  Fe  Fe1  1  -0.00094791  0.74889856  0.74891399  1
  Fe  Fe2  1  -0.00498163  0.74836673  0.00271019  1
  Fe  Fe3  1  0.50059272  0.74851828  0.24663207  1
  Fe  Fe4  1  0.75088585  -0.00091786  0.49593470  1
  Fe  Fe5  1  -0.00292317  -0.00077139  0.49668197  1
  Fe  Fe6  1  0.24923814  0.24940037  0.74663391  1
  Fe  Fe7  1  0.25027277  0.49977589  0.00081797  1
  Fe  Fe8  1  0.75073136  0.25291289  0.50308607  1
  Fe  Fe9  1  0.25490116  0.75125043  0.50340069  1
  Fe  Fe10  1  0.49910605  0.24698292  0.50103851  1
  Fe  Fe11  1  0.49874074  0.24695264  0.24661442  1
  Fe  Fe12  1  0.75179433  0.74750246  0.24432034  1
  Fe  Fe13  1  0.37623736  0.12283975  0.37089959  1
  Fe  Fe14  1  0.74667047  0.00083359  0.75267184  1
  Fe  Fe15  1  0.00849940  0.49736065  0.25754094  1
  Fe  Fe16  1  0.49737488  0.50280643  0.49763680  1
  Fe  Fe17  1  0.62550781  0.62753694  0.87878224  1
  Fe  Fe18  1  0.50117105  0.00168500  0.00018746  1
  Fe  Fe19  1  -0.00314234  -0.00149074  0.25482547  1
  Fe  Fe20  1  0.00022085  0.00092634  -0.00356556  1
  Fe  Fe21  1  0.24933388  0.75007199  0.24675964  1
  Fe  Fe22  1  0.75111863  0.74913547  0.50242753  1
  Fe  Fe23  1  0.12646459  0.37167704  0.87623508  1
  Fe  Fe24  1  0.12420506  0.12327790  0.62394376  1
  Fe  Fe25  1  0.87223427  0.12485726  0.62621580  1
  Fe  Fe26  1  0.25359873  -0.00159215  0.49858419  1
  Fe  Fe27  1  0.62897508  0.87451453  0.12206780  1
  Fe  Fe28  1  0.37338859  0.37559591  0.37374034  1
  Fe  Fe29  1  0.49938395  0.50156961  0.00024044  1
  Fe  Fe30  1  0.49607449  0.75223928  0.50068773  1
  Fe  Fe31  1  0.37511962  0.37722451  0.12652948  1
  Fe  Fe32  1  0.87242638  0.12907430  0.87282808  1
  Fe  Fe33  1  0.12386418  0.62191451  0.62384997  1
  Fe  Fe34  1  0.62224816  0.87833763  0.62387492  1
  Fe  Fe35  1  0.25185286  0.75078964  0.00126911  1
  Fe  Fe36  1  0.87349776  0.62338120  0.87236978  1
  Fe  Fe37  1  0.87358985  0.12074478  0.12691823  1
  Fe  Fe38  1  0.25421145  0.24745288  0.50277106  1
  Fe  Fe39  1  0.37805875  0.37673633  0.62549563  1
  Fe  Fe40  1  0.74513815  0.49649075  0.74926896  1
  Fe  Fe41  1  0.75062303  0.49901716  0.49857953  1
  Fe  Fe42  1  0.12425630  0.62298984  0.12480003  1
  Fe  Fe43  1  0.75023411  0.25086949  0.24846932  1
  Fe  Fe44  1  0.62886134  0.13354370  0.87955936  1
  Fe  Fe45  1  0.50626097  0.25050559  0.74839670  1
  Fe  Fe46  1  0.12429514  0.12492110  0.12444238  1
  Fe  Fe47  1  -0.00332371  0.25107127  0.00239528  1
  Fe  Fe48  1  0.24667706  -0.00015119  -0.00473611  1
  Fe  Fe49  1  0.37197458  0.62555366  0.37140876  1
  Fe  Fe50  1  0.00079210  0.49930439  -0.00323974  1
  Fe  Fe51  1  0.24910785  0.25093903  0.24800266  1
  Fe  Fe52  1  0.62532407  0.87241840  0.37301845  1
  Fe  Fe53  1  0.12515818  0.87200832  0.37650237  1
  Fe  Fe54  1  0.75013018  0.50107665  0.00296748  1
  Fe  Fe55  1  0.62298762  0.37339981  0.12219236  1
  Fe  Fe56  1  0.12198112  0.87640381  0.12377322  1
  Fe  Fe57  1  0.87163003  0.37396740  0.87221177  1
  Fe  Fe58  1  0.00013195  0.25179761  0.74833521  1
  Fe  Fe59  1  0.37480642  0.12454552  0.87298985  1
  Fe  Fe60  1  0.12482745  0.87591028  0.62480404  1
  Fe  Fe61  1  0.25239711  0.75329038  0.74848220  1
  Fe  Fe62  1  0.87660363  0.38062539  0.13051130  1
  Fe  Fe63  1  0.74926028  0.75009520  0.74825390  1
  Fe  Fe64  1  0.37563822  0.87787925  0.12458409  1
  Fe  Fe65  1  0.12611823  0.62783661  0.87491814  1
  Fe  Fe66  1  0.50284441  0.50336806  0.24967839  1
  Fe  Fe67  1  0.12489648  0.12648392  0.37609924  1
  Fe  Fe68  1  0.87492450  0.87699375  0.62579416  1
  Fe  Fe69  1  0.87645940  0.61975369  0.62660762  1
  Fe  Fe70  1  0.12314231  0.37850544  0.62105802  1
  Fe  Fe71  1  0.24896835  -0.00098183  0.25141281  1
  Fe  Fe72  1  0.00144133  0.25118570  0.25170613  1
  Fe  Fe73  1  0.37529570  0.62668266  0.87510695  1
  Fe  Fe74  1  0.37941513  0.11691424  0.62947217  1
  Fe  Fe75  1  0.00298974  0.00058981  0.75259266  1
  Fe  Fe76  1  0.62195640  0.62441977  0.62373709  1
  Fe  Fe77  1  0.62710967  0.86997619  0.88055963  1
  Fe  Fe78  1  0.62810990  0.12448327  0.12406438  1
  Fe  Fe79  1  0.37705260  0.37309015  0.87420480  1
  Fe  Fe80  1  0.25255455  0.24971018  0.00211330  1
  Fe  Fe81  1  -0.00165330  0.74728397  0.49951033  1
  Fe  Fe82  1  0.87466452  0.87395458  0.87542295  1
  Fe  Fe83  1  0.50269596  0.49907981  0.75217733  1
  Fe  Fe84  1  0.49907063  0.75223212  0.75050104  1
  Fe  Fe85  1  -0.00177696  0.75105600  0.24903467  1
  Fe  Fe86  1  -0.00363405  0.25293219  0.49837868  1
  Fe  Fe87  1  0.24965027  0.49975090  0.74912566  1
  Fe  Fe88  1  0.62412347  0.37412314  0.37571956  1
  Fe  Fe89  1  0.87240069  0.62349805  0.37139610  1
  Co  Co90  1  0.50899447  0.00115068  0.75765113  1
  Co  Co91  1  0.37560811  0.87311116  0.36995435  1
  Co  Co92  1  0.62561933  0.62791282  0.37755114  1
  Co  Co93  1  0.87948262  0.61681856  0.13058736  1
  Co  Co94  1  0.62494846  0.12055625  0.62065948  1
  Co  Co95  1  0.12966242  0.62939005  0.37622032  1
  Co  Co96  1  0.13103479  0.37067205  0.38143820  1
  Co  Co97  1  0.37380216  0.62318592  0.12646000  1
  Co  Co98  1  0.74155374  0.50143001  0.24871228  1
  Co  Co99  1  0.37593932  0.87760793  0.87432322  1
  Co  Co100  1  0.12442993  0.13167863  0.87642596  1
  Co  Co101  1  0.74509202  0.25356575  0.74423155  1
  Co  Co102  1  -0.00110673  0.50077592  0.49292965  1
  Co  Co103  1  0.62554533  0.37216795  0.88168641  1
  Co  Co104  1  0.87082803  0.37626187  0.37079385  1
  Co  Co105  1  0.50268971  -0.00001461  0.24730755  1
  Co  Co106  1  0.12209407  0.86916832  0.87597943  1
  Co  Co107  1  0.87290795  0.86977614  0.37538135  1
  Co  Co108  1  0.12461593  0.37407746  0.12196944  1
  Co  Co109  1  0.25253236  0.50186464  0.50095636  1
  Co  Co110  1  0.87326061  0.12870237  0.37524430  1
  Co  Co111  1  0.62368577  0.62784355  0.12016291  1
  Co  Co112  1  0.87354964  0.88047164  0.12365124  1
  Co  Co113  1  0.37810365  0.88288532  0.63043645  1
  Co  Co114  1  0.75804018  0.74509116  0.00375093  1
  Co  Co115  1  0.49524716  0.24771188  0.00299789  1
  Co  Co116  1  0.49583226  0.75051450  0.00164965  1
  Co  Co117  1  0.37778977  0.62398857  0.62784984  1
  Co  Co118  1  0.75050082  -0.00074809  0.25398592  1
  Co  Co119  1  0.87793539  0.37917978  0.62664026  1
  Co  Co120  1  0.74982823  0.00131167  -0.00366226  1
  Co  Co121  1  0.75616497  0.25303882  0.00603733  1
  Co  Co122  1  0.00348027  0.49919264  0.75411721  1
  Co  Co123  1  0.37136799  0.12116282  0.12513910  1
  Co  Co124  1  0.24334651  -0.00054829  0.75400003  1
  Co  Co125  1  0.49875632  -0.00177221  0.49348278  1
  Co  Co126  1  0.24602890  0.49781611  0.24978179  1
  Co  Co127  1  0.62129068  0.37811160  0.62017017  1
