# generated using pymatgen
data_Fe45Co19
_symmetry_space_group_name_H-M   'P 1'
_cell_length_a   11.41399819
_cell_length_b   11.41432849
_cell_length_c   11.41494517
_cell_angle_alpha   90.00050449
_cell_angle_beta   89.99952562
_cell_angle_gamma   90.01277901
_symmetry_Int_Tables_number   1
_chemical_formula_structural   Fe45Co19
_chemical_formula_sum   'Fe90 Co38'
_cell_volume   1487.17468877
_cell_formula_units_Z   2
loop_
 _symmetry_equiv_pos_site_id
 _symmetry_equiv_pos_as_xyz
  1  'x, y, z'
loop_
 _atom_site_type_symbol
 _atom_site_label
 _atom_site_symmetry_multiplicity
 _atom_site_fract_x
 _atom_site_fract_y
 _atom_site_fract_z
 _atom_site_occupancy
  Fe  Fe0  1  0.62551456  0.37828862  0.37430664  1
  Fe  Fe1  1  0.62491393  0.12169228  0.37561611  1
  Fe  Fe2  1  0.12140315  0.87523512  0.37913757  1
  Fe  Fe3  1  0.50409401  0.74839845  0.74889165  1
  Fe  Fe4  1  0.50162891  0.24973107  -0.00003353  1
  Fe  Fe5  1  0.25026842  -0.00108385  0.74692427  1
  Fe  Fe6  1  0.87804618  0.87090643  0.87249634  1
  Fe  Fe7  1  0.12319442  0.37498049  0.87420324  1
  Fe  Fe8  1  0.50065339  0.25138478  0.24947415  1
  Fe  Fe9  1  0.74844589  0.24953914  -0.00054314  1
  Fe  Fe10  1  0.25006777  0.49994571  0.24996923  1
  Fe  Fe11  1  0.63045215  0.62291621  0.62338518  1
  Fe  Fe12  1  0.37382968  0.37734240  0.12108787  1
  Fe  Fe13  1  0.37429979  0.12711653  0.87389613  1
  Fe  Fe14  1  0.50100097  0.00103172  -0.00140210  1
  Fe  Fe15  1  0.87351168  0.62615688  0.37748184  1
  Fe  Fe16  1  0.24670670  0.25128046  0.00121642  1
  Fe  Fe17  1  0.49741158  -0.00092554  0.50344558  1
  Fe  Fe18  1  -0.00092078  -0.00092941  0.00027229  1
  Fe  Fe19  1  0.25020273  -0.00090296  -0.00130066  1
  Fe  Fe20  1  0.37567877  0.62381682  0.87637315  1
  Fe  Fe21  1  -0.00164450  0.00117201  0.74686143  1
  Fe  Fe22  1  0.24910907  0.50012115  0.49958553  1
  Fe  Fe23  1  0.75028325  0.00073674  -0.00176340  1
  Fe  Fe24  1  0.37404319  0.12693114  0.37491474  1
  Fe  Fe25  1  0.62628486  0.37831452  0.87782428  1
  Fe  Fe26  1  0.12049872  0.62606019  0.87255411  1
  Fe  Fe27  1  0.62841323  0.12300425  0.62717476  1
  Fe  Fe28  1  0.62612068  0.12454397  0.12598457  1
  Fe  Fe29  1  0.24730149  0.74968852  0.74810604  1
  Fe  Fe30  1  -0.00364517  0.50289319  -0.00013568  1
  Fe  Fe31  1  0.50156837  0.25049055  0.50072187  1
  Fe  Fe32  1  0.50181375  0.74887208  -0.00114064  1
  Fe  Fe33  1  0.74923784  0.49966994  0.24812469  1
  Fe  Fe34  1  0.50535647  0.75073948  0.50076250  1
  Fe  Fe35  1  0.24982195  -0.00193256  0.25235706  1
  Fe  Fe36  1  0.87274106  0.86996065  0.62437337  1
  Fe  Fe37  1  0.87566106  0.12699634  0.87535193  1
  Fe  Fe38  1  0.49852961  0.25349690  0.74993873  1
  Fe  Fe39  1  0.49880878  0.49859190  0.74997576  1
  Fe  Fe40  1  0.87369503  0.87399996  0.12745891  1
  Fe  Fe41  1  0.24568285  0.25151515  0.24777306  1
  Fe  Fe42  1  0.87662808  0.37166626  0.12593745  1
  Fe  Fe43  1  0.12583856  0.62394393  0.12599694  1
  Fe  Fe44  1  0.75015727  0.24998599  0.25205946  1
  Fe  Fe45  1  0.87052809  0.62843068  0.62527521  1
  Fe  Fe46  1  -0.00078561  0.25023309  0.49983076  1
  Fe  Fe47  1  0.12225722  0.87349985  0.87456342  1
  Fe  Fe48  1  0.37515348  0.87292808  0.87279716  1
  Fe  Fe49  1  0.00360978  0.24848066  0.00209068  1
  Fe  Fe50  1  0.12556040  0.12518691  0.87143274  1
  Fe  Fe51  1  0.49961095  0.49998637  0.50059489  1
  Fe  Fe52  1  0.37493889  0.87207703  0.12520106  1
  Fe  Fe53  1  0.25325302  0.49665144  0.75200864  1
  Fe  Fe54  1  0.62747645  0.37764494  0.62460405  1
  Fe  Fe55  1  0.37587166  0.37509625  0.37557524  1
  Fe  Fe56  1  0.37372067  0.62707336  0.12456047  1
  Fe  Fe57  1  0.62567597  0.87445944  0.12599388  1
  Fe  Fe58  1  -0.00262030  0.50128441  0.24978030  1
  Fe  Fe59  1  0.75181541  0.25347888  0.75145611  1
  Fe  Fe60  1  0.37591008  0.62659258  0.37369761  1
  Fe  Fe61  1  0.37621348  0.87145389  0.37589602  1
  Fe  Fe62  1  0.37391181  0.62548509  0.62516993  1
  Fe  Fe63  1  0.50247609  0.50213945  0.24516014  1
  Fe  Fe64  1  -0.00075514  0.00157050  0.25016674  1
  Fe  Fe65  1  0.00250457  0.74876786  0.25131107  1
  Fe  Fe66  1  0.12112691  0.37722692  0.37331538  1
  Fe  Fe67  1  0.49911091  -0.00011191  0.24849183  1
  Fe  Fe68  1  0.37266465  0.12782413  0.62527985  1
  Fe  Fe69  1  0.49852329  -0.00006886  0.74794131  1
  Fe  Fe70  1  0.37303505  0.12458564  0.12475757  1
  Fe  Fe71  1  0.74524036  0.75222945  0.25735120  1
  Fe  Fe72  1  0.24827173  0.25179532  0.50180168  1
  Fe  Fe73  1  0.62961666  0.62015588  0.87675118  1
  Fe  Fe74  1  0.24554919  0.74614282  0.49997392  1
  Fe  Fe75  1  0.62577877  0.87852952  0.87155197  1
  Fe  Fe76  1  0.75100134  0.75102195  -0.00372133  1
  Fe  Fe77  1  -0.00743811  0.49895001  0.75056565  1
  Fe  Fe78  1  0.24693768  0.74856459  -0.00091578  1
  Fe  Fe79  1  0.12478229  0.87537669  0.12480912  1
  Fe  Fe80  1  0.75038259  0.25357089  0.49776528  1
  Fe  Fe81  1  0.87547784  0.12523777  0.12571223  1
  Fe  Fe82  1  0.12461745  0.12246746  0.37805764  1
  Fe  Fe83  1  0.12362994  0.87734290  0.62088442  1
  Fe  Fe84  1  0.12276981  0.37528751  0.62762525  1
  Fe  Fe85  1  0.75245283  -0.00417371  0.49810163  1
  Fe  Fe86  1  0.87382293  0.12789737  0.62532886  1
  Fe  Fe87  1  0.87537564  0.12485022  0.37391491  1
  Fe  Fe88  1  -0.00227828  0.50194274  0.50158570  1
  Fe  Fe89  1  0.87216526  0.62938639  0.12486435  1
  Co  Co90  1  0.87580281  0.62962450  0.87364869  1
  Co  Co91  1  0.62962152  0.62972987  0.12327918  1
  Co  Co92  1  -0.00603884  0.00148142  0.50249251  1
  Co  Co93  1  0.12567855  0.61881292  0.62929736  1
  Co  Co94  1  0.00242424  0.75019877  0.74436244  1
  Co  Co95  1  0.62509785  0.61996799  0.37702736  1
  Co  Co96  1  0.25182151  0.25346945  0.74906662  1
  Co  Co97  1  0.37460414  0.86957372  0.62494121  1
  Co  Co98  1  0.87593651  0.37299562  0.62310499  1
  Co  Co99  1  0.25408407  -0.00024825  0.50029040  1
  Co  Co100  1  0.62726668  0.37324191  0.12462410  1
  Co  Co101  1  0.88043962  0.87218264  0.37442061  1
  Co  Co102  1  0.75472963  0.50015072  0.00229512  1
  Co  Co103  1  0.74670913  0.74893097  0.75218712  1
  Co  Co104  1  0.12502489  0.12505790  0.62419383  1
  Co  Co105  1  0.00080995  0.74929479  0.00318816  1
  Co  Co106  1  0.37491627  0.37595812  0.62162692  1
  Co  Co107  1  0.62826412  0.87749782  0.62742473  1
  Co  Co108  1  0.50326884  0.50246146  0.00431541  1
  Co  Co109  1  0.00246029  0.24700785  0.25054127  1
  Co  Co110  1  0.75550460  0.49757044  0.75144797  1
  Co  Co111  1  0.87597939  0.37224687  0.87957564  1
  Co  Co112  1  0.74620674  0.75358706  0.49501004  1
  Co  Co113  1  0.37659175  0.37633147  0.88090220  1
  Co  Co114  1  0.12170765  0.37971876  0.12558227  1
  Co  Co115  1  0.24669727  0.75065734  0.25137191  1
  Co  Co116  1  0.12574185  0.12076253  0.12474868  1
  Co  Co117  1  0.75334491  0.49767675  0.50010909  1
  Co  Co118  1  0.75551626  0.00005698  0.75177691  1
  Co  Co119  1  0.24617523  0.50276890  -0.00230956  1
  Co  Co120  1  0.62518748  0.12525486  0.87128569  1
  Co  Co121  1  -0.00188604  0.24864902  0.74935281  1
  Co  Co122  1  0.62100347  0.88097610  0.37496908  1
  Co  Co123  1  0.50364132  0.74828951  0.25044761  1
  Co  Co124  1  0.12395568  0.62197012  0.37291198  1
  Co  Co125  1  0.87678371  0.37590431  0.37287562  1
  Co  Co126  1  0.75104204  -0.00004803  0.25091105  1
  Co  Co127  1  0.00223179  0.74430081  0.50204732  1
