# generated using pymatgen
data_Fe45Co19
_symmetry_space_group_name_H-M   'P 1'
_cell_length_a   11.41510146
_cell_length_b   11.41502440
_cell_length_c   11.41518939
_cell_angle_alpha   90.00096215
_cell_angle_beta   90.00395789
_cell_angle_gamma   89.99698540
_symmetry_Int_Tables_number   1
_chemical_formula_structural   Fe45Co19
_chemical_formula_sum   'Fe90 Co38'
_cell_volume   1487.44097025
_cell_formula_units_Z   2
loop_
 _symmetry_equiv_pos_site_id
 _symmetry_equiv_pos_as_xyz
  1  'x, y, z'
loop_
 _atom_site_type_symbol
 _atom_site_label
 _atom_site_symmetry_multiplicity
 _atom_site_fract_x
 _atom_site_fract_y
 _atom_site_fract_z
 _atom_site_occupancy
  Fe  Fe0  1  0.62449264  0.37190638  0.12566228  1
  Fe  Fe1  1  0.00089302  0.50084377  0.25065636  1
  Fe  Fe2  1  0.87890237  0.11968111  0.37206766  1
  Fe  Fe3  1  0.75375999  0.24828701  0.49810779  1
  Fe  Fe4  1  0.62561604  0.62425972  0.87684625  1
  Fe  Fe5  1  0.37587683  0.37166352  0.12638716  1
  Fe  Fe6  1  0.62697783  0.62466524  0.62393845  1
  Fe  Fe7  1  0.49809423  0.74896851  0.75226047  1
  Fe  Fe8  1  0.87494958  0.62697606  0.12610092  1
  Fe  Fe9  1  0.50079598  0.49916677  0.74701250  1
  Fe  Fe10  1  0.62513027  0.12617203  0.87615996  1
  Fe  Fe11  1  -0.00037879  0.25095586  -0.00033569  1
  Fe  Fe12  1  0.24945207  0.00052136  0.00052741  1
  Fe  Fe13  1  0.12498831  0.37179464  0.87343238  1
  Fe  Fe14  1  0.37516362  0.62316346  0.37550299  1
  Fe  Fe15  1  0.24802976  0.00041101  0.24963610  1
  Fe  Fe16  1  0.24907023  0.24969633  0.25270238  1
  Fe  Fe17  1  0.12139546  0.87931997  0.37519225  1
  Fe  Fe18  1  0.25039463  0.00076646  0.74953630  1
  Fe  Fe19  1  0.12526942  0.87163475  0.12312095  1
  Fe  Fe20  1  0.62449383  0.87445673  0.87720188  1
  Fe  Fe21  1  0.75051285  0.25248106  -0.00224667  1
  Fe  Fe22  1  0.75155628  0.24867361  0.25167349  1
  Fe  Fe23  1  -0.00123989  0.24724300  0.49949781  1
  Fe  Fe24  1  0.12467012  0.62709065  0.62454903  1
  Fe  Fe25  1  0.74944509  0.50098762  0.25195357  1
  Fe  Fe26  1  0.62670587  0.12622902  0.62321870  1
  Fe  Fe27  1  0.49894476  0.49841893  0.50303833  1
  Fe  Fe28  1  0.62633273  0.37605857  0.37768016  1
  Fe  Fe29  1  0.12360102  0.62762482  0.12375642  1
  Fe  Fe30  1  0.87441106  0.37283235  0.62488752  1
  Fe  Fe31  1  -0.00125163  0.49951077  0.50071985  1
  Fe  Fe32  1  0.50098259  0.00218897  0.24889653  1
  Fe  Fe33  1  0.87217170  0.87875233  0.62627074  1
  Fe  Fe34  1  0.62695638  0.62812403  0.12262229  1
  Fe  Fe35  1  0.87586235  0.37340120  0.12673015  1
  Fe  Fe36  1  0.49861806  0.50027969  0.00220887  1
  Fe  Fe37  1  0.75190708  0.49809495  -0.00199625  1
  Fe  Fe38  1  0.25214000  0.74982665  0.75272520  1
  Fe  Fe39  1  0.12324461  0.37387584  0.37562498  1
  Fe  Fe40  1  0.62625856  0.87237084  0.12441053  1
  Fe  Fe41  1  0.25426912  0.74920377  -0.00428777  1
  Fe  Fe42  1  0.25126457  0.49772167  0.50095133  1
  Fe  Fe43  1  0.12964126  0.12654199  0.62031518  1
  Fe  Fe44  1  0.74922822  0.25195735  0.75146101  1
  Fe  Fe45  1  0.87542148  0.12475343  0.87393350  1
  Fe  Fe46  1  0.12539511  0.37198547  0.62525395  1
  Fe  Fe47  1  0.87281400  0.87303387  0.12890980  1
  Fe  Fe48  1  0.50091113  0.74991155  0.50024099  1
  Fe  Fe49  1  0.00016542  0.49871980  0.74977878  1
  Fe  Fe50  1  0.12345491  0.37332301  0.12608321  1
  Fe  Fe51  1  0.37283246  0.12392326  0.37762155  1
  Fe  Fe52  1  0.50146533  0.00153431  0.74874233  1
  Fe  Fe53  1  0.37588669  0.12821250  0.12530467  1
  Fe  Fe54  1  0.62652351  0.87686688  0.37280387  1
  Fe  Fe55  1  -0.00076583  0.49938064  -0.00144328  1
  Fe  Fe56  1  0.62511825  0.12813320  0.12455182  1
  Fe  Fe57  1  0.74968691  0.74976259  0.49688010  1
  Fe  Fe58  1  0.87544798  0.87860201  0.37214651  1
  Fe  Fe59  1  0.74985204  0.49640561  0.75014890  1
  Fe  Fe60  1  0.25020757  0.49997914  0.00107168  1
  Fe  Fe61  1  0.12474315  0.12582863  0.87530801  1
  Fe  Fe62  1  -0.00085677  0.75160792  0.50006138  1
  Fe  Fe63  1  0.62429864  0.12450493  0.37618449  1
  Fe  Fe64  1  -0.00042902  -0.00090920  0.00258403  1
  Fe  Fe65  1  0.50162298  0.74746097  0.25007944  1
  Fe  Fe66  1  0.37635851  0.87595254  0.37379804  1
  Fe  Fe67  1  0.24973936  0.75116142  0.49854335  1
  Fe  Fe68  1  0.49966032  0.00018377  0.00147373  1
  Fe  Fe69  1  0.37466002  0.37413992  0.87465611  1
  Fe  Fe70  1  0.50089270  -0.00144887  0.50147367  1
  Fe  Fe71  1  0.24717991  0.74800707  0.25286418  1
  Fe  Fe72  1  0.12315394  0.12781763  0.12657859  1
  Fe  Fe73  1  0.50097444  0.50022704  0.24901274  1
  Fe  Fe74  1  0.87509691  0.62526504  0.62668415  1
  Fe  Fe75  1  0.12254014  0.62696030  0.87416138  1
  Fe  Fe76  1  0.75118330  -0.00049253  0.00118860  1
  Fe  Fe77  1  0.37489734  0.87317710  0.12536366  1
  Fe  Fe78  1  0.37467265  0.12559026  0.87575525  1
  Fe  Fe79  1  0.24825375  0.50127333  0.24925287  1
  Fe  Fe80  1  0.87601005  0.62455827  0.37453518  1
  Fe  Fe81  1  0.37542389  0.87553843  0.62609749  1
  Fe  Fe82  1  0.49963933  0.25094128  0.74844630  1
  Fe  Fe83  1  0.49554262  0.25289018  0.50072244  1
  Fe  Fe84  1  -0.00454578  0.75146700  -0.00505990  1
  Fe  Fe85  1  0.75261915  0.75082996  0.75397550  1
  Fe  Fe86  1  0.62766472  0.87546587  0.62565452  1
  Fe  Fe87  1  0.00131230  0.00190252  0.74690779  1
  Fe  Fe88  1  0.12566609  0.87398397  0.62624514  1
  Fe  Fe89  1  0.24946316  0.50102382  0.74921156  1
  Co  Co90  1  0.00107849  0.24719236  0.74721498  1
  Co  Co91  1  0.37536755  0.37736507  0.37216072  1
  Co  Co92  1  0.12434277  0.62281772  0.37806666  1
  Co  Co93  1  0.74917044  0.00010856  0.49859602  1
  Co  Co94  1  0.87041362  0.12381143  0.62757379  1
  Co  Co95  1  0.62315627  0.62146855  0.37768459  1
  Co  Co96  1  0.37349386  0.62654164  0.12716233  1
  Co  Co97  1  -0.00232716  0.75212094  0.75016678  1
  Co  Co98  1  0.74819869  0.00248603  0.24818507  1
  Co  Co99  1  0.25044115  -0.00366231  0.49971459  1
  Co  Co100  1  0.87810147  0.37343369  0.87341246  1
  Co  Co101  1  0.37274309  0.37506667  0.62863730  1
  Co  Co102  1  0.25215842  0.25331883  0.49882112  1
  Co  Co103  1  0.37632714  0.62084389  0.87409308  1
  Co  Co104  1  0.87589993  0.88153331  0.87184286  1
  Co  Co105  1  0.12457204  0.12314959  0.37678888  1
  Co  Co106  1  0.87526850  0.62134675  0.87253998  1
  Co  Co107  1  0.37386852  0.62619468  0.62387126  1
  Co  Co108  1  0.62177536  0.37647151  0.87595867  1
  Co  Co109  1  0.49947724  0.25025564  -0.00148734  1
  Co  Co110  1  0.74845587  0.74765456  0.25371563  1
  Co  Co111  1  0.25127830  0.24822560  0.74946377  1
  Co  Co112  1  0.75427080  0.75067429  -0.00371769  1
  Co  Co113  1  -0.00088633  0.00072235  0.50468438  1
  Co  Co114  1  0.87506942  0.37661789  0.37475177  1
  Co  Co115  1  -0.00081718  0.24952761  0.25234694  1
  Co  Co116  1  0.75249407  0.50174641  0.50054207  1
  Co  Co117  1  0.50054891  0.24943943  0.25333324  1
  Co  Co118  1  0.24939845  0.25045769  0.00045822  1
  Co  Co119  1  0.00187799  0.74961315  0.25221697  1
  Co  Co120  1  0.87494806  0.12763817  0.12404568  1
  Co  Co121  1  0.12473515  0.87577399  0.87483174  1
  Co  Co122  1  0.37593235  0.87919045  0.87469675  1
  Co  Co123  1  0.37440080  0.12319365  0.62250966  1
  Co  Co124  1  0.49697401  0.74910941  -0.00135377  1
  Co  Co125  1  0.62781827  0.37345803  0.62088276  1
  Co  Co126  1  0.74632438  0.00133560  0.75088659  1
  Co  Co127  1  0.00219446  -0.00047903  0.24453568  1
