# generated using pymatgen
data_Fe45Co19
_symmetry_space_group_name_H-M   'P 1'
_cell_length_a   11.41543122
_cell_length_b   11.41354201
_cell_length_c   11.41541305
_cell_angle_alpha   90.01184838
_cell_angle_beta   90.00024512
_cell_angle_gamma   89.99418953
_symmetry_Int_Tables_number   1
_chemical_formula_structural   Fe45Co19
_chemical_formula_sum   'Fe90 Co38'
_cell_volume   1487.31987686
_cell_formula_units_Z   2
loop_
 _symmetry_equiv_pos_site_id
 _symmetry_equiv_pos_as_xyz
  1  'x, y, z'
loop_
 _atom_site_type_symbol
 _atom_site_label
 _atom_site_symmetry_multiplicity
 _atom_site_fract_x
 _atom_site_fract_y
 _atom_site_fract_z
 _atom_site_occupancy
  Fe  Fe0  1  0.00082602  0.24940377  -0.00113929  1
  Fe  Fe1  1  0.87407276  0.12974364  0.37748598  1
  Fe  Fe2  1  0.87483582  0.37364111  0.87424190  1
  Fe  Fe3  1  0.87503100  0.12711246  0.62425266  1
  Fe  Fe4  1  0.12384743  0.62423850  0.37436883  1
  Fe  Fe5  1  0.00327802  0.25140046  0.50165790  1
  Fe  Fe6  1  0.12499871  0.37552798  0.87138665  1
  Fe  Fe7  1  0.75006922  -0.00049150  0.00045963  1
  Fe  Fe8  1  0.12370692  0.12393416  0.62495884  1
  Fe  Fe9  1  0.12081166  0.87655769  0.62480549  1
  Fe  Fe10  1  0.24830297  0.25106523  -0.00038292  1
  Fe  Fe11  1  0.37707905  0.87601504  0.62212203  1
  Fe  Fe12  1  0.87831111  0.87247454  0.12332196  1
  Fe  Fe13  1  0.62620001  0.12656484  0.12523102  1
  Fe  Fe14  1  0.00421323  0.74917888  -0.00417198  1
  Fe  Fe15  1  0.00097632  0.50138075  -0.00118571  1
  Fe  Fe16  1  0.37689085  0.37642313  0.62506462  1
  Fe  Fe17  1  0.75215686  0.50243052  0.24807630  1
  Fe  Fe18  1  0.50336895  0.25149527  -0.00204077  1
  Fe  Fe19  1  0.37672687  0.12329141  0.62227871  1
  Fe  Fe20  1  0.25056223  0.75339826  0.24849347  1
  Fe  Fe21  1  0.75204538  0.00038926  0.24927148  1
  Fe  Fe22  1  -0.00190854  0.00134469  0.25277548  1
  Fe  Fe23  1  0.49799607  -0.00043049  0.75284623  1
  Fe  Fe24  1  0.12490934  0.12473271  0.12702731  1
  Fe  Fe25  1  0.49965261  -0.00216629  0.25132371  1
  Fe  Fe26  1  0.87436089  0.12856865  0.12499626  1
  Fe  Fe27  1  -0.00305190  -0.00097890  0.75002587  1
  Fe  Fe28  1  0.49987538  0.75017061  0.25158642  1
  Fe  Fe29  1  0.37655582  0.37630815  0.12412257  1
  Fe  Fe30  1  0.50077162  0.50153049  0.25068507  1
  Fe  Fe31  1  0.12433890  0.37564148  0.37374846  1
  Fe  Fe32  1  0.00195848  -0.00056500  -0.00128891  1
  Fe  Fe33  1  0.49885483  -0.00213455  -0.00354783  1
  Fe  Fe34  1  0.37561234  0.37235539  0.87359318  1
  Fe  Fe35  1  0.24787752  0.50127458  -0.00118040  1
  Fe  Fe36  1  0.62737460  0.87415073  0.37492383  1
  Fe  Fe37  1  0.25237220  -0.00168458  0.74947384  1
  Fe  Fe38  1  0.74900085  0.74604702  0.50367119  1
  Fe  Fe39  1  0.50141793  0.25054289  0.25046550  1
  Fe  Fe40  1  0.62662495  0.87425244  0.62741378  1
  Fe  Fe41  1  0.62707007  0.37770609  0.37533206  1
  Fe  Fe42  1  0.75293751  -0.00440278  0.75074068  1
  Fe  Fe43  1  0.36795606  0.63171728  0.87613448  1
  Fe  Fe44  1  0.25040559  0.24854708  0.25066771  1
  Fe  Fe45  1  0.74986668  0.25304531  0.74855532  1
  Fe  Fe46  1  0.12280416  0.62597876  0.12707300  1
  Fe  Fe47  1  0.25068137  0.50098126  0.24919996  1
  Fe  Fe48  1  0.87397668  0.12602971  0.87481069  1
  Fe  Fe49  1  0.62011322  0.38014659  0.63067811  1
  Fe  Fe50  1  0.24978956  -0.00565118  -0.00053449  1
  Fe  Fe51  1  0.62664469  0.12557493  0.87383463  1
  Fe  Fe52  1  0.25189138  0.50202223  0.74899024  1
  Fe  Fe53  1  -0.00141898  0.74845713  0.49837885  1
  Fe  Fe54  1  0.87427272  0.87348355  0.37756412  1
  Fe  Fe55  1  0.50330943  0.25072516  0.50209585  1
  Fe  Fe56  1  0.74929997  0.50310079  0.50641847  1
  Fe  Fe57  1  0.12387616  0.87660582  0.37627443  1
  Fe  Fe58  1  0.87356904  0.37486312  0.37898849  1
  Fe  Fe59  1  -0.00451768  0.75124906  0.75308227  1
  Fe  Fe60  1  0.24786798  0.24948514  0.50056117  1
  Fe  Fe61  1  0.50184902  0.75023237  -0.00225809  1
  Fe  Fe62  1  0.24867941  0.75059312  0.50245787  1
  Fe  Fe63  1  -0.00412801  0.50195594  0.25040552  1
  Fe  Fe64  1  0.37442015  0.62588333  0.37620664  1
  Fe  Fe65  1  0.37502023  0.12395202  0.12300781  1
  Fe  Fe66  1  -0.00373064  0.49744812  0.74727856  1
  Fe  Fe67  1  0.75368920  0.74722406  0.24942648  1
  Fe  Fe68  1  0.75125202  0.00020815  0.50086114  1
  Fe  Fe69  1  0.62633059  0.62456604  0.12473974  1
  Fe  Fe70  1  0.25074062  0.24801465  0.74946063  1
  Fe  Fe71  1  0.37832340  0.62353395  0.62244645  1
  Fe  Fe72  1  0.37591685  0.12224929  0.37919643  1
  Fe  Fe73  1  0.63066214  0.62390274  0.86846542  1
  Fe  Fe74  1  0.87345451  0.37221928  0.12467752  1
  Fe  Fe75  1  0.37486400  0.37592284  0.37654026  1
  Fe  Fe76  1  0.12087809  0.62329855  0.62686423  1
  Fe  Fe77  1  0.75067658  0.75122554  -0.00352355  1
  Fe  Fe78  1  0.50367055  0.74862153  0.49869849  1
  Fe  Fe79  1  0.24783063  0.50031981  0.50115185  1
  Fe  Fe80  1  0.37412926  0.62660393  0.12314956  1
  Fe  Fe81  1  0.25114482  -0.00215977  0.25173148  1
  Fe  Fe82  1  0.50126840  0.50091376  -0.00406114  1
  Fe  Fe83  1  0.12419959  0.37478330  0.12674036  1
  Fe  Fe84  1  0.62521547  0.12278072  0.62658773  1
  Fe  Fe85  1  0.62603033  0.12465122  0.37605517  1
  Fe  Fe86  1  0.12589094  0.12377869  0.87331758  1
  Fe  Fe87  1  0.74885592  0.49740481  -0.00138212  1
  Fe  Fe88  1  0.62492894  0.87435405  0.12471638  1
  Fe  Fe89  1  0.49992029  0.74959850  0.75113591  1
  Co  Co90  1  0.00171395  0.49849989  0.50160869  1
  Co  Co91  1  0.62369035  0.62304553  0.63111439  1
  Co  Co92  1  0.37374408  0.12583416  0.87705944  1
  Co  Co93  1  0.87412912  0.62252971  0.87456858  1
  Co  Co94  1  0.12589471  0.62469242  0.87021978  1
  Co  Co95  1  0.12467522  0.12435081  0.37509777  1
  Co  Co96  1  -0.00077498  0.25103893  0.25055300  1
  Co  Co97  1  0.74466343  0.25089046  0.50364612  1
  Co  Co98  1  0.50165106  0.50143043  0.49731311  1
  Co  Co99  1  0.49966756  0.24651027  0.74887699  1
  Co  Co100  1  -0.00292127  0.74815194  0.25333801  1
  Co  Co101  1  0.11958263  0.87618073  0.12883945  1
  Co  Co102  1  0.24731376  -0.00114074  0.50144182  1
  Co  Co103  1  0.50485113  -0.00172593  0.49991117  1
  Co  Co104  1  -0.00261145  0.00193489  0.49956129  1
  Co  Co105  1  0.74834663  0.25172156  -0.00180831  1
  Co  Co106  1  0.37117305  0.86992195  0.87442156  1
  Co  Co107  1  0.75467465  0.75272136  0.75008171  1
  Co  Co108  1  0.62569041  0.87518458  0.87367770  1
  Co  Co109  1  0.75600344  0.49810778  0.74610713  1
  Co  Co110  1  0.49422630  0.50448766  0.75604416  1
  Co  Co111  1  0.12737638  0.87437856  0.86983024  1
  Co  Co112  1  0.24319917  0.75300109  0.00458027  1
  Co  Co113  1  0.12745544  0.37513317  0.62842444  1
  Co  Co114  1  0.37807860  0.87403155  0.12305621  1
  Co  Co115  1  0.62720441  0.62464082  0.37387288  1
  Co  Co116  1  0.87728376  0.62686227  0.62607603  1
  Co  Co117  1  0.87545377  0.87398206  0.62186496  1
  Co  Co118  1  0.87582820  0.87644617  0.87839607  1
  Co  Co119  1  0.62416265  0.37623735  0.86908230  1
  Co  Co120  1  0.74886163  0.25047688  0.25054981  1
  Co  Co121  1  0.62458767  0.37620440  0.12594240  1
  Co  Co122  1  0.87534326  0.62734072  0.12017911  1
  Co  Co123  1  0.37514521  0.87511143  0.37923957  1
  Co  Co124  1  -0.00011472  0.24956426  0.75006932  1
  Co  Co125  1  0.87407393  0.62239003  0.37971463  1
  Co  Co126  1  0.24974310  0.75015391  0.74210237  1
  Co  Co127  1  0.87564957  0.37179595  0.62118709  1
