# generated using pymatgen
data_Fe45Co19
_symmetry_space_group_name_H-M   'P 1'
_cell_length_a   11.41492867
_cell_length_b   11.41460183
_cell_length_c   11.41501499
_cell_angle_alpha   89.98941206
_cell_angle_beta   90.00112081
_cell_angle_gamma   90.00984797
_symmetry_Int_Tables_number   1
_chemical_formula_structural   Fe45Co19
_chemical_formula_sum   'Fe90 Co38'
_cell_volume   1487.34062706
_cell_formula_units_Z   2
loop_
 _symmetry_equiv_pos_site_id
 _symmetry_equiv_pos_as_xyz
  1  'x, y, z'
loop_
 _atom_site_type_symbol
 _atom_site_label
 _atom_site_symmetry_multiplicity
 _atom_site_fract_x
 _atom_site_fract_y
 _atom_site_fract_z
 _atom_site_occupancy
  Fe  Fe0  1  0.12482776  0.12318677  0.62149541  1
  Fe  Fe1  1  0.37388874  0.12417554  0.37597620  1
  Fe  Fe2  1  0.00083949  0.74855873  0.24954494  1
  Fe  Fe3  1  0.37660739  0.62689306  0.62707158  1
  Fe  Fe4  1  0.49990175  0.25186118  -0.00033359  1
  Fe  Fe5  1  0.12561364  0.87628595  0.37743721  1
  Fe  Fe6  1  0.37612890  0.87132205  0.62700510  1
  Fe  Fe7  1  0.75067387  0.74854671  0.74891571  1
  Fe  Fe8  1  0.62421364  0.37507601  0.12410862  1
  Fe  Fe9  1  0.75321232  0.49840636  0.00093956  1
  Fe  Fe10  1  0.12548417  0.37660261  0.62272102  1
  Fe  Fe11  1  0.37583064  0.37874359  0.12404791  1
  Fe  Fe12  1  0.50206249  0.74902561  0.49647698  1
  Fe  Fe13  1  0.75128268  0.49863834  0.50213119  1
  Fe  Fe14  1  0.87413575  0.87488449  0.37122985  1
  Fe  Fe15  1  0.37791661  0.62300416  0.37280056  1
  Fe  Fe16  1  0.62586900  0.37660953  0.87488998  1
  Fe  Fe17  1  0.75114807  0.24991471  0.00008227  1
  Fe  Fe18  1  0.50128720  -0.00215831  0.24878907  1
  Fe  Fe19  1  0.00228342  0.24898265  0.24962422  1
  Fe  Fe20  1  0.50027779  0.25208759  0.25066598  1
  Fe  Fe21  1  0.62939681  0.87297285  0.88008250  1
  Fe  Fe22  1  0.87972663  0.62485981  0.12165291  1
  Fe  Fe23  1  0.12182331  0.62306642  0.11923686  1
  Fe  Fe24  1  0.00192887  0.00004378  0.24930218  1
  Fe  Fe25  1  0.50260118  0.25073195  0.74952444  1
  Fe  Fe26  1  0.74669346  -0.00010110  0.24471313  1
  Fe  Fe27  1  0.12490824  0.12419374  0.87827104  1
  Fe  Fe28  1  0.62737455  0.12672690  0.62222572  1
  Fe  Fe29  1  0.37511620  0.12428457  0.87486285  1
  Fe  Fe30  1  0.87510916  0.87443234  0.62712468  1
  Fe  Fe31  1  -0.00147982  0.25359987  0.00105700  1
  Fe  Fe32  1  0.87246124  0.36894814  0.62999716  1
  Fe  Fe33  1  0.12671902  0.12214694  0.37823965  1
  Fe  Fe34  1  0.75511191  0.00168320  0.49963872  1
  Fe  Fe35  1  0.74756090  0.74864276  0.24688291  1
  Fe  Fe36  1  0.49976837  -0.00302698  0.00143564  1
  Fe  Fe37  1  0.37647390  0.12605139  0.12525796  1
  Fe  Fe38  1  -0.00422622  0.24665831  0.49972766  1
  Fe  Fe39  1  0.87536207  0.12555764  0.12663005  1
  Fe  Fe40  1  0.37494538  0.12539265  0.62537438  1
  Fe  Fe41  1  0.12459165  0.37690536  0.37688414  1
  Fe  Fe42  1  0.37719919  0.87061003  0.12671971  1
  Fe  Fe43  1  0.87543851  0.37591660  0.37106334  1
  Fe  Fe44  1  0.24982788  0.00009669  0.24890170  1
  Fe  Fe45  1  0.74792476  0.24971015  0.25025849  1
  Fe  Fe46  1  0.61845691  0.62697303  0.12292259  1
  Fe  Fe47  1  0.24893898  0.50163919  0.24856163  1
  Fe  Fe48  1  0.24772027  0.24919568  0.74923815  1
  Fe  Fe49  1  0.12390225  0.87357923  0.62384842  1
  Fe  Fe50  1  -0.00353622  0.75115356  0.49916025  1
  Fe  Fe51  1  0.25142847  -0.00111877  0.00129141  1
  Fe  Fe52  1  0.50199344  -0.00268803  0.75074472  1
  Fe  Fe53  1  0.24915448  0.25090649  0.00146483  1
  Fe  Fe54  1  0.74973691  0.00168552  0.75175105  1
  Fe  Fe55  1  0.25171950  0.74830252  -0.00176983  1
  Fe  Fe56  1  0.37406900  0.37697078  0.62409883  1
  Fe  Fe57  1  0.25013775  -0.00105295  0.74820174  1
  Fe  Fe58  1  0.37474158  0.37553541  0.87385627  1
  Fe  Fe59  1  -0.00315855  0.50114345  0.75312423  1
  Fe  Fe60  1  0.50046785  0.25278196  0.50057452  1
  Fe  Fe61  1  0.50329268  0.50090194  0.74915155  1
  Fe  Fe62  1  0.62728838  0.87389112  0.37479896  1
  Fe  Fe63  1  -0.00072737  0.00080464  0.75002077  1
  Fe  Fe64  1  0.62372342  0.12345452  0.87903358  1
  Fe  Fe65  1  0.12655274  0.87416472  0.87411464  1
  Fe  Fe66  1  0.62659134  0.62593985  0.62243136  1
  Fe  Fe67  1  -0.00175838  0.74786204  0.75431832  1
  Fe  Fe68  1  0.62476224  0.12465411  0.37559921  1
  Fe  Fe69  1  0.24836879  0.50243399  0.75041101  1
  Fe  Fe70  1  0.62655116  0.87381652  0.62386002  1
  Fe  Fe71  1  0.12548888  0.37719888  0.87577510  1
  Fe  Fe72  1  0.12415789  0.87377818  0.12449571  1
  Fe  Fe73  1  0.24803046  0.25000955  0.24894993  1
  Fe  Fe74  1  0.74952033  0.50234179  0.24691441  1
  Fe  Fe75  1  0.12350427  0.62385279  0.37676402  1
  Fe  Fe76  1  0.37342324  0.37824521  0.37749894  1
  Fe  Fe77  1  0.25021744  0.74778756  0.24941577  1
  Fe  Fe78  1  0.62789324  0.62680554  0.87791632  1
  Fe  Fe79  1  0.37601939  0.62548626  0.87372207  1
  Fe  Fe80  1  0.25089369  0.74907458  0.49948332  1
  Fe  Fe81  1  -0.00434620  -0.00408008  -0.00014147  1
  Fe  Fe82  1  0.75139279  0.50147850  0.75022691  1
  Fe  Fe83  1  0.62499275  0.37881463  0.37679212  1
  Fe  Fe84  1  0.49866662  -0.00189851  0.49966776  1
  Fe  Fe85  1  0.87246706  0.62576454  0.37586556  1
  Fe  Fe86  1  -0.00327011  0.50032596  0.50048024  1
  Fe  Fe87  1  0.12252559  0.37963246  0.12440056  1
  Fe  Fe88  1  0.12299130  0.62574681  0.62574798  1
  Fe  Fe89  1  0.87616191  0.12812345  0.87248550  1
  Co  Co90  1  -0.00576241  0.00055549  0.50062922  1
  Co  Co91  1  0.74267061  0.24686821  0.75367723  1
  Co  Co92  1  0.87212636  0.12880415  0.63003914  1
  Co  Co93  1  0.87305849  0.37146979  0.87024538  1
  Co  Co94  1  0.75164536  0.75226995  0.50016485  1
  Co  Co95  1  -0.00539128  0.49557713  -0.00429768  1
  Co  Co96  1  0.25267822  0.50174506  -0.00032532  1
  Co  Co97  1  0.12358207  0.12337380  0.12225415  1
  Co  Co98  1  0.25242830  -0.00285248  0.50251357  1
  Co  Co99  1  0.75357023  0.00147388  0.00181946  1
  Co  Co100  1  0.49732590  0.75083381  -0.00394193  1
  Co  Co101  1  -0.00097285  0.75473594  -0.00251104  1
  Co  Co102  1  0.75238405  0.24984753  0.49571224  1
  Co  Co103  1  0.12239845  0.62353960  0.87828117  1
  Co  Co104  1  0.00639599  0.24965161  0.74925587  1
  Co  Co105  1  0.62814441  0.37403146  0.62481460  1
  Co  Co106  1  0.50430983  0.75114611  0.75299856  1
  Co  Co107  1  0.87307026  0.62688619  0.87833091  1
  Co  Co108  1  0.50117299  0.50124472  0.50232523  1
  Co  Co109  1  0.24843476  0.74896106  0.75191591  1
  Co  Co110  1  0.50268933  0.75084506  0.25360152  1
  Co  Co111  1  0.37892530  0.62513612  0.12573030  1
  Co  Co112  1  0.75341325  0.75001174  0.00562309  1
  Co  Co113  1  0.50160960  0.49886395  0.24976080  1
  Co  Co114  1  0.87539139  0.37475128  0.12938397  1
  Co  Co115  1  -0.00005609  0.50323838  0.25127596  1
  Co  Co116  1  0.37383246  0.87624205  0.87319134  1
  Co  Co117  1  0.24973160  0.50392997  0.50058253  1
  Co  Co118  1  0.50001410  0.50021396  -0.00226732  1
  Co  Co119  1  0.37386743  0.87520958  0.37392113  1
  Co  Co120  1  0.87403227  0.12336907  0.36903220  1
  Co  Co121  1  0.87067023  0.87275927  0.87292431  1
  Co  Co122  1  0.62340136  0.12690978  0.12400791  1
  Co  Co123  1  0.87586221  0.87464610  0.12844722  1
  Co  Co124  1  0.87477388  0.62616916  0.62416474  1
  Co  Co125  1  0.62337997  0.87227962  0.12155446  1
  Co  Co126  1  0.62800785  0.62280836  0.37675310  1
  Co  Co127  1  0.25019346  0.25028356  0.50045774  1
