# generated using pymatgen
data_Fe45Co19
_symmetry_space_group_name_H-M   'P 1'
_cell_length_a   11.41524827
_cell_length_b   11.41540447
_cell_length_c   11.41686501
_cell_angle_alpha   89.99855459
_cell_angle_beta   90.00746199
_cell_angle_gamma   90.00351680
_symmetry_Int_Tables_number   1
_chemical_formula_structural   Fe45Co19
_chemical_formula_sum   'Fe90 Co38'
_cell_volume   1487.72796586
_cell_formula_units_Z   2
loop_
 _symmetry_equiv_pos_site_id
 _symmetry_equiv_pos_as_xyz
  1  'x, y, z'
loop_
 _atom_site_type_symbol
 _atom_site_label
 _atom_site_symmetry_multiplicity
 _atom_site_fract_x
 _atom_site_fract_y
 _atom_site_fract_z
 _atom_site_occupancy
  Fe  Fe0  1  0.12565215  0.87555913  0.12460547  1
  Fe  Fe1  1  0.50173461  0.49903606  0.74888386  1
  Fe  Fe2  1  0.25078013  0.00302100  0.50013537  1
  Fe  Fe3  1  0.87637875  0.87692513  0.62659949  1
  Fe  Fe4  1  0.37657371  0.62404549  0.87535305  1
  Fe  Fe5  1  0.12490107  0.37261001  0.12730258  1
  Fe  Fe6  1  0.25220304  0.00276677  0.00000154  1
  Fe  Fe7  1  -0.00082026  0.75157187  0.24981273  1
  Fe  Fe8  1  0.62485597  0.62341145  0.62173059  1
  Fe  Fe9  1  0.86992611  0.12477398  0.62746127  1
  Fe  Fe10  1  0.00016375  0.00097671  -0.00028206  1
  Fe  Fe11  1  0.74782635  -0.00059722  -0.00035947  1
  Fe  Fe12  1  0.12350916  0.87569320  0.62442182  1
  Fe  Fe13  1  0.37472590  0.37065217  0.37290970  1
  Fe  Fe14  1  -0.00644379  0.24886763  0.49780661  1
  Fe  Fe15  1  0.87335106  0.62499209  0.87622140  1
  Fe  Fe16  1  0.37594765  0.37295149  0.62549683  1
  Fe  Fe17  1  0.37706094  0.87567059  0.87480250  1
  Fe  Fe18  1  0.50072500  0.24799443  0.50069554  1
  Fe  Fe19  1  0.62814541  0.37184480  0.37158319  1
  Fe  Fe20  1  0.74795943  0.49580214  0.74849117  1
  Fe  Fe21  1  0.12408103  0.87725407  0.37488231  1
  Fe  Fe22  1  0.00141233  0.74827617  0.75098286  1
  Fe  Fe23  1  0.87633647  0.87975719  0.37233915  1
  Fe  Fe24  1  0.25090261  0.49801609  0.00012826  1
  Fe  Fe25  1  0.62383032  0.87421381  0.37270796  1
  Fe  Fe26  1  0.74872039  0.75087190  0.74837062  1
  Fe  Fe27  1  0.86924826  0.12583686  0.87358053  1
  Fe  Fe28  1  0.62297069  0.12381828  0.12636832  1
  Fe  Fe29  1  0.50163905  0.74854927  0.74738619  1
  Fe  Fe30  1  0.50218769  0.49670820  0.00287014  1
  Fe  Fe31  1  0.62607444  0.62249295  0.12763073  1
  Fe  Fe32  1  0.24918104  0.74662689  0.74976705  1
  Fe  Fe33  1  0.12315194  0.37192128  0.37331153  1
  Fe  Fe34  1  0.37695964  0.62330455  0.12754904  1
  Fe  Fe35  1  0.74740980  0.25200858  0.00290042  1
  Fe  Fe36  1  0.75071426  0.75122712  0.49853604  1
  Fe  Fe37  1  0.62228092  0.62766463  0.37333618  1
  Fe  Fe38  1  0.50046404  0.74995536  0.00237292  1
  Fe  Fe39  1  0.87404437  0.87768389  0.12620770  1
  Fe  Fe40  1  0.25124942  0.74903670  0.00026888  1
  Fe  Fe41  1  0.12380017  0.12585283  0.62562780  1
  Fe  Fe42  1  0.37581651  0.87558214  0.62490421  1
  Fe  Fe43  1  0.24921354  0.00255018  0.74947010  1
  Fe  Fe44  1  0.37726448  0.87881705  0.12538796  1
  Fe  Fe45  1  -0.00142536  0.49917161  -0.00018440  1
  Fe  Fe46  1  0.37666283  0.87301689  0.37517477  1
  Fe  Fe47  1  0.12367737  0.62549858  0.12433601  1
  Fe  Fe48  1  0.49853405  0.00194340  0.49882920  1
  Fe  Fe49  1  -0.00261140  0.25060532  0.00184625  1
  Fe  Fe50  1  0.25116387  0.74861617  0.25060761  1
  Fe  Fe51  1  0.87031580  0.37633739  0.12865564  1
  Fe  Fe52  1  0.24840758  0.50037645  0.74937120  1
  Fe  Fe53  1  0.25085989  0.49975884  0.25247222  1
  Fe  Fe54  1  -0.00017039  0.75028400  0.49879850  1
  Fe  Fe55  1  0.12326023  0.37387096  0.62390608  1
  Fe  Fe56  1  0.25055837  0.74626571  0.49983857  1
  Fe  Fe57  1  0.37716164  0.12654118  0.87404545  1
  Fe  Fe58  1  0.12496250  0.12665298  0.87560614  1
  Fe  Fe59  1  0.50290857  0.25103984  0.00142692  1
  Fe  Fe60  1  0.12526659  0.37403209  0.87580981  1
  Fe  Fe61  1  0.75092568  0.49700378  0.49818066  1
  Fe  Fe62  1  0.37617723  0.37149644  0.12920172  1
  Fe  Fe63  1  0.62421659  0.87524015  0.87611054  1
  Fe  Fe64  1  0.87541032  0.62436278  0.37398807  1
  Fe  Fe65  1  0.87114880  0.37360524  0.87405325  1
  Fe  Fe66  1  0.12119759  0.12551763  0.37315885  1
  Fe  Fe67  1  -0.00018187  0.49908598  0.49849579  1
  Fe  Fe68  1  0.87512225  0.87615612  0.87479328  1
  Fe  Fe69  1  0.49802303  0.50011705  0.49667255  1
  Fe  Fe70  1  0.37710234  0.37285190  0.87305025  1
  Fe  Fe71  1  0.25076414  0.50231504  0.49831204  1
  Fe  Fe72  1  0.62586603  0.62320464  0.87649020  1
  Fe  Fe73  1  0.50416861  0.00350563  0.74937487  1
  Fe  Fe74  1  0.87479040  0.62346753  0.62430790  1
  Fe  Fe75  1  0.62856401  0.12578180  0.37672437  1
  Fe  Fe76  1  0.12414012  0.87458037  0.87636241  1
  Fe  Fe77  1  0.25167330  0.25028053  0.00069770  1
  Fe  Fe78  1  0.50722972  0.24831525  0.74751688  1
  Fe  Fe79  1  0.12400355  0.12730344  0.12621381  1
  Fe  Fe80  1  -0.00004085  0.49891803  0.25052320  1
  Fe  Fe81  1  0.75218902  -0.00160186  0.49909069  1
  Fe  Fe82  1  0.25009446  0.24843151  0.50097321  1
  Fe  Fe83  1  0.62331033  0.87768006  0.12791216  1
  Fe  Fe84  1  0.62477434  0.87631524  0.62281775  1
  Fe  Fe85  1  -0.00135714  0.24940531  0.75049078  1
  Fe  Fe86  1  0.87365696  0.62441401  0.12579285  1
  Fe  Fe87  1  0.00173944  0.50080334  0.75097311  1
  Fe  Fe88  1  0.74979251  0.74969968  0.00201214  1
  Fe  Fe89  1  0.25298202  0.00452912  0.25096676  1
  Co  Co90  1  0.87484410  0.12055030  0.37448789  1
  Co  Co91  1  0.49957166  0.49754684  0.25184072  1
  Co  Co92  1  0.75378023  0.24526881  0.25016955  1
  Co  Co93  1  -0.00205833  0.75094344  0.00132028  1
  Co  Co94  1  0.12490800  0.62485379  0.87919044  1
  Co  Co95  1  0.50166923  0.24766493  0.25090413  1
  Co  Co96  1  0.50016228  0.75087908  0.24729578  1
  Co  Co97  1  0.62314591  0.37617949  0.61940437  1
  Co  Co98  1  0.50013573  0.00120068  -0.00153492  1
  Co  Co99  1  0.62536144  0.37552483  0.87728757  1
  Co  Co100  1  0.74733242  -0.00223774  0.75051846  1
  Co  Co101  1  0.74450881  0.25477075  0.74614671  1
  Co  Co102  1  0.12366229  0.62467651  0.62263034  1
  Co  Co103  1  0.37753158  0.12624814  0.12418094  1
  Co  Co104  1  0.62872089  0.12594061  0.87640625  1
  Co  Co105  1  0.62782361  0.37473758  0.13043462  1
  Co  Co106  1  0.75525018  0.25317983  0.49954572  1
  Co  Co107  1  0.49792249  0.00266576  0.25409593  1
  Co  Co108  1  -0.00593327  0.24893392  0.24938747  1
  Co  Co109  1  0.37594108  0.62387074  0.62459413  1
  Co  Co110  1  0.37642645  0.12580046  0.62584163  1
  Co  Co111  1  0.37820952  0.62784621  0.37349763  1
  Co  Co112  1  0.74844222  0.50220574  0.25311424  1
  Co  Co113  1  -0.00048777  0.00215981  0.50248382  1
  Co  Co114  1  0.37516105  0.12854648  0.37629099  1
  Co  Co115  1  0.63038732  0.12396666  0.62005114  1
  Co  Co116  1  0.24995278  0.24727336  0.25042172  1
  Co  Co117  1  0.87376485  0.12250522  0.12238509  1
  Co  Co118  1  0.87691694  0.37576022  0.62619062  1
  Co  Co119  1  0.00095734  0.00106082  0.24706999  1
  Co  Co120  1  0.24914008  0.25038356  0.74949140  1
  Co  Co121  1  0.74807045  0.00213793  0.24995283  1
  Co  Co122  1  0.74960271  0.49890808  0.00015341  1
  Co  Co123  1  0.87375655  0.37632850  0.37124875  1
  Co  Co124  1  0.50041175  0.75018849  0.50210570  1
  Co  Co125  1  0.12342168  0.62534100  0.37335594  1
  Co  Co126  1  -0.00017717  0.00224023  0.75102757  1
  Co  Co127  1  0.75063827  0.75055684  0.25065326  1
