# generated using pymatgen
data_Fe45Co19
_symmetry_space_group_name_H-M   'P 1'
_cell_length_a   11.41417745
_cell_length_b   11.41656665
_cell_length_c   11.41476063
_cell_angle_alpha   90.00238584
_cell_angle_beta   89.99291336
_cell_angle_gamma   89.99702507
_symmetry_Int_Tables_number   1
_chemical_formula_structural   Fe45Co19
_chemical_formula_sum   'Fe90 Co38'
_cell_volume   1487.46563478
_cell_formula_units_Z   2
loop_
 _symmetry_equiv_pos_site_id
 _symmetry_equiv_pos_as_xyz
  1  'x, y, z'
loop_
 _atom_site_type_symbol
 _atom_site_label
 _atom_site_symmetry_multiplicity
 _atom_site_fract_x
 _atom_site_fract_y
 _atom_site_fract_z
 _atom_site_occupancy
  Fe  Fe0  1  -0.00021781  -0.00105611  0.24861294  1
  Fe  Fe1  1  0.50441477  0.00136233  0.50048068  1
  Fe  Fe2  1  0.62666941  0.62606642  0.37414611  1
  Fe  Fe3  1  0.49963000  0.24870161  -0.00004663  1
  Fe  Fe4  1  0.87084707  0.12370798  0.62816377  1
  Fe  Fe5  1  0.74910169  0.25110761  0.49887182  1
  Fe  Fe6  1  0.50592493  0.00247002  0.75014001  1
  Fe  Fe7  1  0.75033301  -0.00226527  0.24848816  1
  Fe  Fe8  1  0.24842771  0.00027437  -0.00043822  1
  Fe  Fe9  1  -0.00018737  0.00137911  0.50053445  1
  Fe  Fe10  1  0.12629603  0.62636219  0.12332351  1
  Fe  Fe11  1  0.49960905  0.49858010  0.25073966  1
  Fe  Fe12  1  0.12467804  0.37280008  0.87532841  1
  Fe  Fe13  1  0.37654532  0.87506067  0.37471606  1
  Fe  Fe14  1  0.37437750  0.62387902  0.87457582  1
  Fe  Fe15  1  0.25212056  0.24939122  0.00075908  1
  Fe  Fe16  1  0.37474148  0.37296781  0.62260924  1
  Fe  Fe17  1  0.37484733  0.12682081  0.37628779  1
  Fe  Fe18  1  -0.00345119  0.25073573  0.24876876  1
  Fe  Fe19  1  0.12355770  0.12767154  0.87444901  1
  Fe  Fe20  1  -0.00398486  0.74972481  0.24991772  1
  Fe  Fe21  1  -0.00531410  0.24879847  0.00276685  1
  Fe  Fe22  1  0.37527989  0.87734397  0.87312724  1
  Fe  Fe23  1  0.62646883  0.87285945  0.37396497  1
  Fe  Fe24  1  -0.00562973  0.74676644  0.75037898  1
  Fe  Fe25  1  0.87502384  0.62168393  0.11948612  1
  Fe  Fe26  1  0.74860701  0.00097558  0.49969205  1
  Fe  Fe27  1  0.87450660  0.12277256  0.37326439  1
  Fe  Fe28  1  0.75357110  0.25076622  0.24765648  1
  Fe  Fe29  1  0.49939706  0.74922472  0.74869010  1
  Fe  Fe30  1  0.50476998  0.24963176  0.49875588  1
  Fe  Fe31  1  0.12208557  0.87443704  0.37525407  1
  Fe  Fe32  1  0.62601226  0.37324432  0.12382637  1
  Fe  Fe33  1  0.62919208  0.62677155  0.62732032  1
  Fe  Fe34  1  0.62693699  0.37379510  0.62672383  1
  Fe  Fe35  1  0.50327930  0.49949977  -0.00153908  1
  Fe  Fe36  1  0.87204818  0.37849551  0.88174436  1
  Fe  Fe37  1  0.50308129  0.00219978  -0.00128931  1
  Fe  Fe38  1  0.37525540  0.87798967  0.62638949  1
  Fe  Fe39  1  0.25286271  0.25330342  0.25131013  1
  Fe  Fe40  1  0.87503266  0.37852163  0.37493216  1
  Fe  Fe41  1  0.12441599  0.87342903  0.87440052  1
  Fe  Fe42  1  0.49764928  0.25191937  0.24969347  1
  Fe  Fe43  1  0.00176211  0.50073356  0.50162089  1
  Fe  Fe44  1  0.12464392  0.87363015  0.12343947  1
  Fe  Fe45  1  0.75389670  0.74979889  0.24981089  1
  Fe  Fe46  1  0.50163188  0.24957913  0.75078085  1
  Fe  Fe47  1  0.50169680  0.49905725  0.75040733  1
  Fe  Fe48  1  0.12386002  0.62522368  0.37470186  1
  Fe  Fe49  1  0.62999353  0.87275661  0.62807795  1
  Fe  Fe50  1  0.49763343  0.75006066  -0.00084561  1
  Fe  Fe51  1  0.24561184  0.49632659  0.50089418  1
  Fe  Fe52  1  0.50120023  -0.00035132  0.25019211  1
  Fe  Fe53  1  0.25006129  0.75143777  0.50054285  1
  Fe  Fe54  1  0.74989938  0.50060457  0.24860398  1
  Fe  Fe55  1  0.00194106  0.50135018  0.75182140  1
  Fe  Fe56  1  0.37497783  0.12530499  0.62441252  1
  Fe  Fe57  1  0.75021100  0.74896617  -0.00570674  1
  Fe  Fe58  1  0.87397152  0.37863740  0.62380100  1
  Fe  Fe59  1  0.37486345  0.62383128  0.12493313  1
  Fe  Fe60  1  -0.00205773  0.00067785  0.75219596  1
  Fe  Fe61  1  0.24774479  0.49993723  -0.00020642  1
  Fe  Fe62  1  0.50467447  0.49862838  0.49947508  1
  Fe  Fe63  1  0.62475563  0.87293637  0.12339587  1
  Fe  Fe64  1  0.62389421  0.62768509  0.12472256  1
  Fe  Fe65  1  0.25081924  0.24994397  0.74866397  1
  Fe  Fe66  1  0.37500282  0.62231928  0.37601299  1
  Fe  Fe67  1  0.00018379  0.74849345  -0.00262390  1
  Fe  Fe68  1  0.24973855  0.00007259  0.24987946  1
  Fe  Fe69  1  0.25031601  0.74956912  0.74917280  1
  Fe  Fe70  1  0.37498537  0.12354876  0.87415141  1
  Fe  Fe71  1  0.12388016  0.12714375  0.62740023  1
  Fe  Fe72  1  0.50074801  0.75018262  0.50044156  1
  Fe  Fe73  1  0.87543005  0.87799647  0.11920820  1
  Fe  Fe74  1  0.24785469  0.00154659  0.50103243  1
  Fe  Fe75  1  0.12466314  0.12637905  0.12665313  1
  Fe  Fe76  1  0.24748058  0.49927428  0.74881808  1
  Fe  Fe77  1  0.62641804  0.12560624  0.12558481  1
  Fe  Fe78  1  0.25157574  0.74876434  0.25002379  1
  Fe  Fe79  1  0.37579419  0.87526176  0.12562787  1
  Fe  Fe80  1  -0.00570582  0.25177097  0.75168834  1
  Fe  Fe81  1  0.37398804  0.62328020  0.62320126  1
  Fe  Fe82  1  0.12487325  0.37377053  0.12547828  1
  Fe  Fe83  1  0.00118347  0.24995993  0.49913806  1
  Fe  Fe84  1  0.74800977  0.50052520  0.75461476  1
  Fe  Fe85  1  0.12213795  0.87369168  0.62632849  1
  Fe  Fe86  1  0.00030255  0.50051292  0.24748171  1
  Fe  Fe87  1  0.37569403  0.37544389  0.87574139  1
  Fe  Fe88  1  0.75508899  0.74837719  0.49924086  1
  Fe  Fe89  1  -0.00551178  0.74840868  0.50116547  1
  Co  Co90  1  0.87620942  0.61947152  0.87868500  1
  Co  Co91  1  0.62983165  0.13069928  0.87421384  1
  Co  Co92  1  0.62580584  0.37046296  0.87716289  1
  Co  Co93  1  0.37516298  0.37510415  0.37851051  1
  Co  Co94  1  0.87715003  0.87795892  0.87765961  1
  Co  Co95  1  0.75568809  0.74933292  0.75554924  1
  Co  Co96  1  0.74603788  0.00038629  -0.00286941  1
  Co  Co97  1  0.24510237  0.24979527  0.50059943  1
  Co  Co98  1  0.25250110  0.75140954  -0.00047317  1
  Co  Co99  1  0.12417361  0.12550290  0.37199804  1
  Co  Co100  1  0.74322126  0.50192312  -0.00030248  1
  Co  Co101  1  0.12595714  0.62687542  0.87496473  1
  Co  Co102  1  0.49891696  0.74902270  0.25107354  1
  Co  Co103  1  0.62278065  0.87169010  0.87456355  1
  Co  Co104  1  0.62646916  0.12571788  0.37101367  1
  Co  Co105  1  0.24978880  0.49926910  0.24896162  1
  Co  Co106  1  0.24723666  0.00103724  0.74992007  1
  Co  Co107  1  0.12256731  0.37266775  0.62794608  1
  Co  Co108  1  0.12270706  0.37529838  0.37247288  1
  Co  Co109  1  0.62669108  0.37391934  0.37129849  1
  Co  Co110  1  0.87551599  0.87788603  0.37542732  1
  Co  Co111  1  0.00369980  0.00275303  -0.00108569  1
  Co  Co112  1  0.87391540  0.38049923  0.12238309  1
  Co  Co113  1  0.87476632  0.11938850  0.12487030  1
  Co  Co114  1  0.75411468  0.24810272  0.00423323  1
  Co  Co115  1  0.00533406  0.49885846  0.00037453  1
  Co  Co116  1  0.87218940  0.12425523  0.87548373  1
  Co  Co117  1  0.87215065  0.62087467  0.62634990  1
  Co  Co118  1  0.37473605  0.12429209  0.12532104  1
  Co  Co119  1  0.74891961  -0.00285174  0.75556624  1
  Co  Co120  1  0.12386340  0.62693954  0.62528637  1
  Co  Co121  1  0.75379929  0.25427998  0.75038747  1
  Co  Co122  1  0.62952991  0.12675277  0.62841099  1
  Co  Co123  1  0.87521978  0.62054444  0.37510010  1
  Co  Co124  1  0.37552147  0.37688669  0.12231721  1
  Co  Co125  1  0.62229489  0.62804252  0.87329272  1
  Co  Co126  1  0.87312135  0.87699317  0.62636728  1
  Co  Co127  1  0.74667815  0.49913055  0.49879197  1
