# generated using pymatgen
data_Fe45Co19
_symmetry_space_group_name_H-M   'P 1'
_cell_length_a   11.41583157
_cell_length_b   11.41429280
_cell_length_c   11.41619208
_cell_angle_alpha   89.99973083
_cell_angle_beta   89.99130582
_cell_angle_gamma   89.99229929
_symmetry_Int_Tables_number   1
_chemical_formula_structural   Fe45Co19
_chemical_formula_sum   'Fe90 Co38'
_cell_volume   1487.57139819
_cell_formula_units_Z   2
loop_
 _symmetry_equiv_pos_site_id
 _symmetry_equiv_pos_as_xyz
  1  'x, y, z'
loop_
 _atom_site_type_symbol
 _atom_site_label
 _atom_site_symmetry_multiplicity
 _atom_site_fract_x
 _atom_site_fract_y
 _atom_site_fract_z
 _atom_site_occupancy
  Fe  Fe0  1  0.12527725  0.12275629  0.87464333  1
  Fe  Fe1  1  0.12596132  0.37710147  0.62487481  1
  Fe  Fe2  1  0.50090826  -0.00445219  0.25004385  1
  Fe  Fe3  1  0.37463190  0.12023295  0.87578685  1
  Fe  Fe4  1  -0.00103068  0.50100306  0.75220989  1
  Fe  Fe5  1  0.00234221  -0.00014228  0.50135999  1
  Fe  Fe6  1  0.62478070  0.63081238  0.12780903  1
  Fe  Fe7  1  0.37897703  0.61985551  0.37058015  1
  Fe  Fe8  1  0.50115159  -0.00280014  0.00354222  1
  Fe  Fe9  1  0.75406450  0.75263029  -0.00057793  1
  Fe  Fe10  1  0.25018751  -0.00490485  0.74870717  1
  Fe  Fe11  1  0.12470363  0.12660160  0.62471835  1
  Fe  Fe12  1  0.49988664  0.50308637  0.00335343  1
  Fe  Fe13  1  0.87367494  0.87270071  0.62393542  1
  Fe  Fe14  1  0.49950212  -0.00340782  0.74789572  1
  Fe  Fe15  1  0.74971692  0.50101305  0.24843780  1
  Fe  Fe16  1  0.87520933  0.37311665  0.12375095  1
  Fe  Fe17  1  0.37460086  0.37556236  0.12448796  1
  Fe  Fe18  1  -0.00257471  0.50167947  -0.00284465  1
  Fe  Fe19  1  0.24958750  0.50200681  0.75313162  1
  Fe  Fe20  1  0.75259848  0.50333482  -0.00202188  1
  Fe  Fe21  1  0.37268024  0.62591186  0.62667170  1
  Fe  Fe22  1  0.49581433  0.75191906  0.00157881  1
  Fe  Fe23  1  0.49947075  0.25212783  0.25020598  1
  Fe  Fe24  1  0.87586085  0.87361349  0.37617880  1
  Fe  Fe25  1  0.12510198  0.37395694  0.37513449  1
  Fe  Fe26  1  0.12422534  0.12762507  0.37572854  1
  Fe  Fe27  1  0.62478732  0.12590969  0.37589513  1
  Fe  Fe28  1  0.49628642  0.25156451  0.50096320  1
  Fe  Fe29  1  0.75048889  0.24793440  0.74924273  1
  Fe  Fe30  1  0.24634218  -0.00190557  0.24966200  1
  Fe  Fe31  1  0.87544764  0.62535476  0.37343426  1
  Fe  Fe32  1  0.37034867  0.87672337  0.37915158  1
  Fe  Fe33  1  0.00323724  0.74607406  0.50031385  1
  Fe  Fe34  1  -0.00408903  0.75216261  -0.00090792  1
  Fe  Fe35  1  0.49885169  0.24902537  -0.00045936  1
  Fe  Fe36  1  0.87468538  0.37340824  0.37529679  1
  Fe  Fe37  1  -0.00048081  0.49862744  0.24835429  1
  Fe  Fe38  1  0.75130130  0.24740303  0.50192171  1
  Fe  Fe39  1  0.74945660  -0.00176088  0.25026378  1
  Fe  Fe40  1  0.87528568  0.12502762  0.12706364  1
  Fe  Fe41  1  0.00285265  -0.00206525  0.25018433  1
  Fe  Fe42  1  0.25213881  0.25111503  0.50012769  1
  Fe  Fe43  1  0.49837007  0.74850220  0.49812485  1
  Fe  Fe44  1  0.24982846  0.50278595  0.49923563  1
  Fe  Fe45  1  0.87682474  0.12086785  0.87263671  1
  Fe  Fe46  1  0.25008600  0.50278710  -0.00086343  1
  Fe  Fe47  1  0.62476310  0.37479661  0.62426419  1
  Fe  Fe48  1  0.87656831  0.12638602  0.37552719  1
  Fe  Fe49  1  0.24922588  0.49882724  0.24775168  1
  Fe  Fe50  1  0.62320969  0.37698183  0.37651289  1
  Fe  Fe51  1  0.12366103  0.37379035  0.87640736  1
  Fe  Fe52  1  0.00005430  0.75149671  0.24973210  1
  Fe  Fe53  1  0.25069169  0.24808001  -0.00079102  1
  Fe  Fe54  1  0.74884106  -0.00327145  0.00042076  1
  Fe  Fe55  1  0.00134490  0.50244122  0.50081485  1
  Fe  Fe56  1  0.75199378  0.24771768  -0.00179535  1
  Fe  Fe57  1  0.12317006  0.62997407  0.87304525  1
  Fe  Fe58  1  0.62361876  0.12311830  0.87429742  1
  Fe  Fe59  1  0.12469064  0.62798079  0.12468937  1
  Fe  Fe60  1  0.62730583  0.37340232  0.12351477  1
  Fe  Fe61  1  0.87528446  0.37537414  0.62553444  1
  Fe  Fe62  1  -0.00070537  0.25009219  0.75045097  1
  Fe  Fe63  1  0.13272433  0.86821646  0.61948426  1
  Fe  Fe64  1  0.74997550  0.00079811  0.50165884  1
  Fe  Fe65  1  0.37428913  0.12245629  0.12630507  1
  Fe  Fe66  1  0.12331881  0.37263771  0.12284140  1
  Fe  Fe67  1  0.25362414  0.75114845  -0.00322255  1
  Fe  Fe68  1  0.00240754  -0.00243674  0.00104322  1
  Fe  Fe69  1  0.62350313  0.62583280  0.37170900  1
  Fe  Fe70  1  0.37543202  0.12326480  0.62522321  1
  Fe  Fe71  1  0.74923659  0.50387659  0.50165087  1
  Fe  Fe72  1  0.50107675  0.50060412  0.74914829  1
  Fe  Fe73  1  0.62627101  0.62809042  0.62694539  1
  Fe  Fe74  1  0.62553315  0.62783168  0.87429636  1
  Fe  Fe75  1  0.74744263  -0.00206946  0.74840618  1
  Fe  Fe76  1  0.49571289  0.75365093  0.75145311  1
  Fe  Fe77  1  0.49999928  -0.00047424  0.50015865  1
  Fe  Fe78  1  0.00394648  -0.00582344  0.74700056  1
  Fe  Fe79  1  0.62431322  0.87297660  0.62276191  1
  Fe  Fe80  1  0.87431972  0.62749215  0.62949931  1
  Fe  Fe81  1  0.25124559  0.25069416  0.75113795  1
  Fe  Fe82  1  0.37345088  0.12433426  0.37346908  1
  Fe  Fe83  1  0.62763202  0.87172818  0.37440629  1
  Fe  Fe84  1  0.12475775  0.12748799  0.12493090  1
  Fe  Fe85  1  0.37641907  0.37759461  0.87583038  1
  Fe  Fe86  1  0.62541273  0.12508786  0.12674216  1
  Fe  Fe87  1  0.24988632  0.75091547  0.25336749  1
  Fe  Fe88  1  0.62594847  0.37616225  0.87530142  1
  Fe  Fe89  1  0.49843972  0.25056997  0.75006882  1
  Co  Co90  1  0.74975298  0.74752288  0.49945796  1
  Co  Co91  1  0.74852542  0.75424403  0.75202726  1
  Co  Co92  1  0.75395532  0.75025466  0.24937107  1
  Co  Co93  1  0.62227520  0.12521468  0.62415179  1
  Co  Co94  1  0.37527207  0.88036879  0.87791075  1
  Co  Co95  1  0.12515454  0.87407369  0.37874578  1
  Co  Co96  1  0.50294910  0.49877169  0.24397452  1
  Co  Co97  1  0.24669993  0.00010860  0.00197670  1
  Co  Co98  1  0.00041311  0.25039464  0.50144809  1
  Co  Co99  1  0.37651128  0.37944284  0.37382980  1
  Co  Co100  1  0.12713687  0.62555634  0.62965244  1
  Co  Co101  1  0.87452742  0.62844275  0.87001570  1
  Co  Co102  1  0.25079657  0.25106036  0.24932859  1
  Co  Co103  1  0.37298310  0.37820489  0.62649549  1
  Co  Co104  1  0.37285858  0.62651357  0.12778231  1
  Co  Co105  1  0.00242061  0.75418534  0.74803115  1
  Co  Co106  1  0.87710428  0.12292011  0.62627934  1
  Co  Co107  1  0.12551760  0.87348030  0.87737001  1
  Co  Co108  1  0.49607033  0.75466328  0.25163577  1
  Co  Co109  1  0.74944540  0.25012907  0.25082310  1
  Co  Co110  1  0.87686183  0.62458099  0.12581666  1
  Co  Co111  1  0.12599680  0.87044763  0.12396703  1
  Co  Co112  1  0.12250522  0.62233440  0.37043468  1
  Co  Co113  1  -0.00108981  0.24780548  -0.00165351  1
  Co  Co114  1  0.87593818  0.87728780  0.87292812  1
  Co  Co115  1  0.25399905  0.75250793  0.75453032  1
  Co  Co116  1  0.37719773  0.62256820  0.87485874  1
  Co  Co117  1  0.00002778  0.25050964  0.24987848  1
  Co  Co118  1  0.25010615  0.74095232  0.49434584  1
  Co  Co119  1  0.62586705  0.87132169  0.12638117  1
  Co  Co120  1  0.50027380  0.50269607  0.50400776  1
  Co  Co121  1  0.37163914  0.87287894  0.61891193  1
  Co  Co122  1  0.62298148  0.87395633  0.87701682  1
  Co  Co123  1  0.24772502  0.00453557  0.50070462  1
  Co  Co124  1  0.87549883  0.87714976  0.12660431  1
  Co  Co125  1  0.87366203  0.37427946  0.87460034  1
  Co  Co126  1  0.37170873  0.87578479  0.12517206  1
  Co  Co127  1  0.74933359  0.50053209  0.75022875  1
