# generated using pymatgen
data_Fe45Co19
_symmetry_space_group_name_H-M   'P 1'
_cell_length_a   11.41586133
_cell_length_b   11.41474215
_cell_length_c   11.41564374
_cell_angle_alpha   90.01086281
_cell_angle_beta   90.00640268
_cell_angle_gamma   89.99350122
_symmetry_Int_Tables_number   1
_chemical_formula_structural   Fe45Co19
_chemical_formula_sum   'Fe90 Co38'
_cell_volume   1487.56237100
_cell_formula_units_Z   2
loop_
 _symmetry_equiv_pos_site_id
 _symmetry_equiv_pos_as_xyz
  1  'x, y, z'
loop_
 _atom_site_type_symbol
 _atom_site_label
 _atom_site_symmetry_multiplicity
 _atom_site_fract_x
 _atom_site_fract_y
 _atom_site_fract_z
 _atom_site_occupancy
  Fe  Fe0  1  0.12457883  0.87738642  0.62674080  1
  Fe  Fe1  1  0.37817365  0.37171219  0.87305919  1
  Fe  Fe2  1  0.12413008  0.62567695  0.87463789  1
  Fe  Fe3  1  -0.00115772  0.49965675  0.74876621  1
  Fe  Fe4  1  0.62891800  0.87627957  0.62574146  1
  Fe  Fe5  1  0.75258891  -0.00342463  0.49651901  1
  Fe  Fe6  1  -0.00003156  0.00129572  0.24775267  1
  Fe  Fe7  1  0.24968505  0.24872549  -0.00303245  1
  Fe  Fe8  1  0.12776091  0.37516748  0.62738178  1
  Fe  Fe9  1  0.12932697  0.87601340  0.12313404  1
  Fe  Fe10  1  0.74623556  0.25096582  -0.00320929  1
  Fe  Fe11  1  0.74908125  0.74929470  0.25240794  1
  Fe  Fe12  1  0.25388704  0.24901035  0.25319565  1
  Fe  Fe13  1  0.24867614  0.74947466  0.49836125  1
  Fe  Fe14  1  0.74942843  0.24780473  0.75315168  1
  Fe  Fe15  1  0.50000818  0.74964584  0.00008361  1
  Fe  Fe16  1  0.12691721  0.87553200  0.87581883  1
  Fe  Fe17  1  0.62905679  0.37845088  0.62665760  1
  Fe  Fe18  1  0.87190364  0.12529283  0.62266563  1
  Fe  Fe19  1  0.49944022  0.00373162  0.74554911  1
  Fe  Fe20  1  0.87690247  0.12561090  0.37552964  1
  Fe  Fe21  1  0.87752849  0.62543023  0.37567861  1
  Fe  Fe22  1  0.38094734  0.12719306  0.38130464  1
  Fe  Fe23  1  0.87565014  0.87482885  0.87471073  1
  Fe  Fe24  1  0.74830708  0.49649414  -0.00317801  1
  Fe  Fe25  1  0.62407168  0.87611785  0.37491703  1
  Fe  Fe26  1  0.62420407  0.37518581  0.12908829  1
  Fe  Fe27  1  0.50005437  0.74942681  0.74792395  1
  Fe  Fe28  1  0.37094340  0.62350090  0.62371991  1
  Fe  Fe29  1  0.62375847  0.87622796  0.87436303  1
  Fe  Fe30  1  0.37251416  0.87620156  0.62542867  1
  Fe  Fe31  1  0.12708251  0.12631775  0.62567571  1
  Fe  Fe32  1  0.87658775  0.37240185  0.87376969  1
  Fe  Fe33  1  0.87352202  0.37441237  0.12720367  1
  Fe  Fe34  1  0.24845772  0.74610250  0.25283472  1
  Fe  Fe35  1  0.75063052  0.74888672  0.75048112  1
  Fe  Fe36  1  0.75063891  0.00443901  0.75528933  1
  Fe  Fe37  1  0.87414779  0.62221525  0.12470454  1
  Fe  Fe38  1  0.25259783  0.50273443  0.25736754  1
  Fe  Fe39  1  0.00178269  0.74985878  0.00179139  1
  Fe  Fe40  1  0.12253173  0.37498433  0.37339363  1
  Fe  Fe41  1  0.25026750  0.25265572  0.49875518  1
  Fe  Fe42  1  -0.00359032  0.75545864  0.50319412  1
  Fe  Fe43  1  0.74537214  0.25328924  0.49472014  1
  Fe  Fe44  1  0.37221135  0.87394454  0.12431762  1
  Fe  Fe45  1  0.87580745  0.62487804  0.87544656  1
  Fe  Fe46  1  0.62481009  0.62304232  0.87431532  1
  Fe  Fe47  1  0.74989694  0.00182608  0.24975885  1
  Fe  Fe48  1  0.87278326  0.62499325  0.62480059  1
  Fe  Fe49  1  0.50177628  0.75066878  0.50286987  1
  Fe  Fe50  1  0.87185342  0.37433828  0.62426556  1
  Fe  Fe51  1  0.12505763  0.12487006  0.12242478  1
  Fe  Fe52  1  0.50089332  0.24584317  0.74383925  1
  Fe  Fe53  1  0.25222358  0.00215528  0.25128176  1
  Fe  Fe54  1  0.50022624  0.49684407  0.00174326  1
  Fe  Fe55  1  0.12910005  0.37718900  0.12836277  1
  Fe  Fe56  1  0.62551480  0.87535677  0.12479897  1
  Fe  Fe57  1  0.12210542  0.87630610  0.37457784  1
  Fe  Fe58  1  0.37417865  0.87588081  0.87487920  1
  Fe  Fe59  1  0.87338379  0.87515842  0.12518821  1
  Fe  Fe60  1  0.49974438  -0.00064590  0.00078765  1
  Fe  Fe61  1  0.37630923  0.87396032  0.37582301  1
  Fe  Fe62  1  0.75143307  0.49727383  0.25565611  1
  Fe  Fe63  1  -0.00134844  0.49666987  0.49974268  1
  Fe  Fe64  1  0.12310607  0.12497982  0.37561085  1
  Fe  Fe65  1  0.37583743  0.62523688  0.87416376  1
  Fe  Fe66  1  0.74862335  0.75042260  -0.00047972  1
  Fe  Fe67  1  0.74656680  0.24934145  0.25444590  1
  Fe  Fe68  1  0.87503553  0.12630151  0.12032191  1
  Fe  Fe69  1  0.25139559  0.00695319  0.75360902  1
  Fe  Fe70  1  0.24903060  0.74853108  0.75019480  1
  Fe  Fe71  1  0.00002977  0.25003378  0.24704460  1
  Fe  Fe72  1  0.49940589  0.50108338  0.74749237  1
  Fe  Fe73  1  0.25006005  0.49830050  -0.00411561  1
  Fe  Fe74  1  0.37613188  0.12746979  0.12182478  1
  Fe  Fe75  1  0.49891444  0.00184345  0.25039845  1
  Fe  Fe76  1  0.62986659  0.62292207  0.62365918  1
  Fe  Fe77  1  0.62452617  0.12546851  0.12327335  1
  Fe  Fe78  1  0.00111528  0.49686893  0.00153348  1
  Fe  Fe79  1  0.62149852  0.62092468  0.37689012  1
  Fe  Fe80  1  0.12330384  0.37006020  0.86983357  1
  Fe  Fe81  1  0.12551613  0.62315100  0.62349051  1
  Fe  Fe82  1  0.37104361  0.37548165  0.62440695  1
  Fe  Fe83  1  0.62646378  0.62243769  0.12518495  1
  Fe  Fe84  1  0.24922113  -0.00009313  0.49865938  1
  Fe  Fe85  1  0.37175630  0.62482415  0.12332573  1
  Fe  Fe86  1  0.00209678  0.74793209  0.24716349  1
  Fe  Fe87  1  0.00098592  0.24961817  0.50239780  1
  Fe  Fe88  1  0.50022263  0.74777064  0.24900102  1
  Fe  Fe89  1  -0.00149668  0.00354807  0.75043150  1
  Co  Co90  1  0.50050968  -0.00317911  0.50358275  1
  Co  Co91  1  0.12745135  0.62077422  0.12403548  1
  Co  Co92  1  0.87773101  0.87627032  0.37096097  1
  Co  Co93  1  0.00087974  0.74968692  0.74928023  1
  Co  Co94  1  0.50458888  0.25246534  0.50649978  1
  Co  Co95  1  0.37971196  0.62586843  0.37852766  1
  Co  Co96  1  0.75140048  0.75168489  0.49794259  1
  Co  Co97  1  0.49918911  0.49910445  0.50600705  1
  Co  Co98  1  0.00213940  0.25543007  0.00473912  1
  Co  Co99  1  0.75124959  0.49698608  0.49479169  1
  Co  Co100  1  -0.00349307  0.24890097  0.74433799  1
  Co  Co101  1  0.63019665  0.12236385  0.62164739  1
  Co  Co102  1  0.37265755  0.12509591  0.61905428  1
  Co  Co103  1  0.38224844  0.37370109  0.37639512  1
  Co  Co104  1  0.38141349  0.12792681  0.87681612  1
  Co  Co105  1  0.24990277  0.49847713  0.49483052  1
  Co  Co106  1  0.87897769  0.12886494  0.88004746  1
  Co  Co107  1  0.74992650  0.00017651  -0.00124555  1
  Co  Co108  1  -0.00061542  0.49926493  0.24958085  1
  Co  Co109  1  0.37016607  0.37467860  0.12555634  1
  Co  Co110  1  0.25029683  0.00510910  -0.00213669  1
  Co  Co111  1  0.61624507  0.37794310  0.37286097  1
  Co  Co112  1  0.11927893  0.62565461  0.37888538  1
  Co  Co113  1  0.24936574  0.50031854  0.75251159  1
  Co  Co114  1  0.62155343  0.12287833  0.37759553  1
  Co  Co115  1  0.62124752  0.37447241  0.87007355  1
  Co  Co116  1  -0.00064891  0.00107167  0.50242846  1
  Co  Co117  1  0.87910769  0.37077317  0.37414153  1
  Co  Co118  1  0.25333735  0.24597146  0.75128148  1
  Co  Co119  1  0.87286018  0.87751754  0.62962091  1
  Co  Co120  1  0.49505335  0.50043920  0.24524732  1
  Co  Co121  1  0.11905456  0.12935976  0.87516863  1
  Co  Co122  1  0.25036616  0.74843296  -0.00147490  1
  Co  Co123  1  0.49931248  0.24831419  0.24863982  1
  Co  Co124  1  0.62020665  0.12588552  0.87661155  1
  Co  Co125  1  0.75258852  0.49976110  0.75277340  1
  Co  Co126  1  0.50206651  0.25459966  0.00347484  1
  Co  Co127  1  0.00074014  -0.00267728  0.00021697  1
