# generated using pymatgen
data_Fe45Co19
_symmetry_space_group_name_H-M   'P 1'
_cell_length_a   11.41593355
_cell_length_b   11.41437014
_cell_length_c   11.41616847
_cell_angle_alpha   90.00512781
_cell_angle_beta   90.00368889
_cell_angle_gamma   89.99159349
_symmetry_Int_Tables_number   1
_chemical_formula_structural   Fe45Co19
_chemical_formula_sum   'Fe90 Co38'
_cell_volume   1487.59169543
_cell_formula_units_Z   2
loop_
 _symmetry_equiv_pos_site_id
 _symmetry_equiv_pos_as_xyz
  1  'x, y, z'
loop_
 _atom_site_type_symbol
 _atom_site_label
 _atom_site_symmetry_multiplicity
 _atom_site_fract_x
 _atom_site_fract_y
 _atom_site_fract_z
 _atom_site_occupancy
  Fe  Fe0  1  0.49422999  0.50162599  0.00063688  1
  Fe  Fe1  1  0.62734488  0.12186677  0.37427021  1
  Fe  Fe2  1  0.12450635  0.12639612  0.87269490  1
  Fe  Fe3  1  0.62641932  0.87786423  0.62193130  1
  Fe  Fe4  1  0.37539256  0.12617572  0.62410083  1
  Fe  Fe5  1  0.87065869  0.37340849  0.62550210  1
  Fe  Fe6  1  0.37336842  0.87455275  0.12562900  1
  Fe  Fe7  1  0.50611614  0.24853860  0.50150284  1
  Fe  Fe8  1  0.49777285  0.50025441  0.50084342  1
  Fe  Fe9  1  -0.00306979  0.50259490  0.74716432  1
  Fe  Fe10  1  0.62455831  0.12535885  0.12954792  1
  Fe  Fe11  1  0.50056623  -0.00117861  0.74907304  1
  Fe  Fe12  1  0.74868855  0.25041781  0.00046939  1
  Fe  Fe13  1  0.49825703  0.49914547  0.75029776  1
  Fe  Fe14  1  -0.00403229  -0.00008993  0.50081471  1
  Fe  Fe15  1  0.87429574  0.87114116  0.37180493  1
  Fe  Fe16  1  0.49948377  -0.00062019  0.00210079  1
  Fe  Fe17  1  0.62515892  0.87960077  0.37478344  1
  Fe  Fe18  1  0.62526132  0.12372922  0.87409242  1
  Fe  Fe19  1  0.74852695  0.74910322  -0.00022598  1
  Fe  Fe20  1  0.87503738  0.12765479  0.87344741  1
  Fe  Fe21  1  0.87599052  0.37666012  0.37487165  1
  Fe  Fe22  1  0.87594064  0.87382223  0.87657577  1
  Fe  Fe23  1  0.74945234  0.74933434  0.75281524  1
  Fe  Fe24  1  0.37534671  0.87533841  0.37589723  1
  Fe  Fe25  1  0.37271464  0.36990188  0.12520116  1
  Fe  Fe26  1  0.37647918  0.62455454  0.37311552  1
  Fe  Fe27  1  0.75133294  -0.00163356  0.74984089  1
  Fe  Fe28  1  0.50160894  0.75141935  0.25017994  1
  Fe  Fe29  1  0.37377740  0.37172208  0.62249483  1
  Fe  Fe30  1  0.25191876  0.00277661  0.25133602  1
  Fe  Fe31  1  0.12727285  0.37437411  0.12360876  1
  Fe  Fe32  1  0.49809180  0.49694777  0.24862659  1
  Fe  Fe33  1  0.74831808  0.74593540  0.49382989  1
  Fe  Fe34  1  0.75250829  0.50262268  0.49706629  1
  Fe  Fe35  1  0.00246990  0.25273088  0.25068421  1
  Fe  Fe36  1  0.24834875  0.75186236  0.75044077  1
  Fe  Fe37  1  0.37482278  0.62675310  0.62615906  1
  Fe  Fe38  1  0.50117825  0.25034226  0.00325621  1
  Fe  Fe39  1  0.75052002  0.50132004  0.75307401  1
  Fe  Fe40  1  0.00071823  0.25035396  0.50075159  1
  Fe  Fe41  1  0.12422708  0.37436474  0.87349206  1
  Fe  Fe42  1  -0.00119378  0.50062745  0.00153664  1
  Fe  Fe43  1  0.62346294  0.37703189  0.87770715  1
  Fe  Fe44  1  0.25073265  0.00294665  0.49860348  1
  Fe  Fe45  1  0.25076883  0.00255989  -0.00058665  1
  Fe  Fe46  1  0.87366417  0.37316787  0.12564967  1
  Fe  Fe47  1  0.87746774  0.62891217  0.12977589  1
  Fe  Fe48  1  0.87436518  0.12676269  0.37357067  1
  Fe  Fe49  1  0.87553085  0.12718686  0.12619202  1
  Fe  Fe50  1  0.25111770  0.49831437  0.25126454  1
  Fe  Fe51  1  0.62590043  0.62298395  0.62350806  1
  Fe  Fe52  1  0.12459141  0.87778211  0.37594708  1
  Fe  Fe53  1  0.50110551  0.74985750  0.49906658  1
  Fe  Fe54  1  0.62666510  0.87565541  0.12611774  1
  Fe  Fe55  1  0.75040414  0.00054167  0.00194905  1
  Fe  Fe56  1  0.62200503  0.62335707  0.12541231  1
  Fe  Fe57  1  -0.00135699  -0.00180053  0.74960221  1
  Fe  Fe58  1  0.12361183  0.87446978  0.62375588  1
  Fe  Fe59  1  0.12570042  0.12518740  0.12679811  1
  Fe  Fe60  1  0.25077063  0.74771267  -0.00002653  1
  Fe  Fe61  1  0.12463656  0.37960256  0.37954162  1
  Fe  Fe62  1  0.00112818  0.25040259  -0.00052085  1
  Fe  Fe63  1  0.75265833  0.50188675  0.00097076  1
  Fe  Fe64  1  0.12776537  0.37665144  0.62277817  1
  Fe  Fe65  1  0.00060385  -0.00241066  0.00184405  1
  Fe  Fe66  1  -0.00219279  -0.00430746  0.24694571  1
  Fe  Fe67  1  0.12326759  0.62520203  0.87291495  1
  Fe  Fe68  1  0.87523195  0.37330310  0.87439632  1
  Fe  Fe69  1  0.00240145  0.74240308  0.49887847  1
  Fe  Fe70  1  0.24720364  0.74515157  0.49800039  1
  Fe  Fe71  1  0.37617703  0.87325465  0.87678291  1
  Fe  Fe72  1  0.37572285  0.12877913  0.87525156  1
  Fe  Fe73  1  0.12472375  0.12478441  0.62512187  1
  Fe  Fe74  1  0.12517480  0.62380440  0.12788472  1
  Fe  Fe75  1  0.87093270  0.12906906  0.62561857  1
  Fe  Fe76  1  0.25350751  0.50103427  -0.00245025  1
  Fe  Fe77  1  0.75012292  0.50106170  0.24908412  1
  Fe  Fe78  1  0.37779214  0.12805094  0.37302012  1
  Fe  Fe79  1  0.37366250  0.37141273  0.37711810  1
  Fe  Fe80  1  0.00252702  0.75287055  0.00231313  1
  Fe  Fe81  1  0.37433980  0.87521651  0.62191536  1
  Fe  Fe82  1  0.50212483  0.75242050  0.74991853  1
  Fe  Fe83  1  0.62172988  0.62534335  0.87704218  1
  Fe  Fe84  1  0.87459030  0.86925707  0.62342679  1
  Fe  Fe85  1  0.25055864  -0.00075228  0.75059032  1
  Fe  Fe86  1  0.62558701  0.37681590  0.37448486  1
  Fe  Fe87  1  0.24702570  0.74896925  0.25230505  1
  Fe  Fe88  1  0.25417769  0.49838281  0.75173041  1
  Fe  Fe89  1  0.50494563  0.25070475  0.74699302  1
  Co  Co90  1  0.49960676  0.75079757  0.00265744  1
  Co  Co91  1  0.86980803  0.62760372  0.62466040  1
  Co  Co92  1  0.24790865  0.24961170  -0.00125993  1
  Co  Co93  1  0.87134192  0.87094830  0.12538219  1
  Co  Co94  1  0.74488651  0.74720739  0.25302449  1
  Co  Co95  1  0.11943380  0.12132427  0.37362568  1
  Co  Co96  1  0.75484646  -0.00147406  0.49932259  1
  Co  Co97  1  0.24588648  0.24998479  0.25371032  1
  Co  Co98  1  -0.00328067  0.50322475  0.50572522  1
  Co  Co99  1  0.62540397  0.87586690  0.87635289  1
  Co  Co100  1  0.74889054  0.25165772  0.25013566  1
  Co  Co101  1  0.74719424  0.25103956  0.49813975  1
  Co  Co102  1  0.12842550  0.62287013  0.62827321  1
  Co  Co103  1  0.24981537  0.25099511  0.74944905  1
  Co  Co104  1  0.37639352  0.62926663  0.87257610  1
  Co  Co105  1  0.37433971  0.12870102  0.12627664  1
  Co  Co106  1  0.37465967  0.62549355  0.12923913  1
  Co  Co107  1  0.62748370  0.38029501  0.62378414  1
  Co  Co108  1  0.00100726  0.25146750  0.74797267  1
  Co  Co109  1  0.50321669  0.25225149  0.25043406  1
  Co  Co110  1  0.62902917  0.12037644  0.62370302  1
  Co  Co111  1  0.87762924  0.62703940  0.87689940  1
  Co  Co112  1  0.75291760  -0.00000048  0.24888342  1
  Co  Co113  1  0.88050344  0.62396659  0.36885933  1
  Co  Co114  1  0.37726241  0.36994705  0.87608057  1
  Co  Co115  1  0.25320093  0.50433392  0.49974505  1
  Co  Co116  1  0.00558026  0.75384744  0.24943707  1
  Co  Co117  1  0.00047047  0.49571457  0.24612593  1
  Co  Co118  1  0.62052942  0.61998088  0.37436415  1
  Co  Co119  1  0.49809156  -0.00093690  0.24900587  1
  Co  Co120  1  0.12490766  0.87510069  0.87492540  1
  Co  Co121  1  0.49840069  0.00103784  0.49970457  1
  Co  Co122  1  0.13065596  0.87728534  0.12526789  1
  Co  Co123  1  0.12142300  0.61837861  0.37192607  1
  Co  Co124  1  -0.00007427  0.74871010  0.74930288  1
  Co  Co125  1  0.24684180  0.24576090  0.49786317  1
  Co  Co126  1  0.62544010  0.37774722  0.12350546  1
  Co  Co127  1  0.74490240  0.25191197  0.75137479  1
