# generated using pymatgen
data_Fe45Co19
_symmetry_space_group_name_H-M   'P 1'
_cell_length_a   11.41451204
_cell_length_b   11.41402881
_cell_length_c   11.41546561
_cell_angle_alpha   90.00727386
_cell_angle_beta   89.98825397
_cell_angle_gamma   90.01440338
_symmetry_Int_Tables_number   1
_chemical_formula_structural   Fe45Co19
_chemical_formula_sum   'Fe90 Co38'
_cell_volume   1487.27034536
_cell_formula_units_Z   2
loop_
 _symmetry_equiv_pos_site_id
 _symmetry_equiv_pos_as_xyz
  1  'x, y, z'
loop_
 _atom_site_type_symbol
 _atom_site_label
 _atom_site_symmetry_multiplicity
 _atom_site_fract_x
 _atom_site_fract_y
 _atom_site_fract_z
 _atom_site_occupancy
  Fe  Fe0  1  0.49730656  0.74896460  0.74723110  1
  Fe  Fe1  1  0.37719035  0.87413948  0.12401417  1
  Fe  Fe2  1  0.24837939  -0.00008704  0.24867686  1
  Fe  Fe3  1  0.50124171  0.74876230  -0.00123237  1
  Fe  Fe4  1  0.00123708  -0.00066220  0.49635711  1
  Fe  Fe5  1  0.50133970  0.25053386  0.00002037  1
  Fe  Fe6  1  0.74826807  -0.00100840  -0.00201676  1
  Fe  Fe7  1  -0.00066752  -0.00027065  0.00229304  1
  Fe  Fe8  1  0.00011296  0.24857041  0.24521774  1
  Fe  Fe9  1  0.75178045  0.25193197  0.75149711  1
  Fe  Fe10  1  0.87511405  0.37660547  0.12121737  1
  Fe  Fe11  1  0.37590831  0.12472298  0.12523538  1
  Fe  Fe12  1  0.62440712  0.87395870  0.62451700  1
  Fe  Fe13  1  0.75065457  0.00067705  0.50043489  1
  Fe  Fe14  1  0.24536346  0.25077854  0.74936739  1
  Fe  Fe15  1  0.87445174  0.62319112  0.62960642  1
  Fe  Fe16  1  0.50095876  0.50187593  0.75169966  1
  Fe  Fe17  1  -0.00268770  0.50557075  -0.00365521  1
  Fe  Fe18  1  0.49960567  0.00083674  0.50018368  1
  Fe  Fe19  1  0.24735828  0.49890931  0.24924981  1
  Fe  Fe20  1  0.87621052  0.12501588  0.37316937  1
  Fe  Fe21  1  0.88067769  0.37874772  0.37516652  1
  Fe  Fe22  1  0.63190194  0.63040862  0.86909517  1
  Fe  Fe23  1  0.38101286  0.38076024  0.12252798  1
  Fe  Fe24  1  0.74963015  -0.00263925  0.75082754  1
  Fe  Fe25  1  0.74940968  0.25490983  0.24817523  1
  Fe  Fe26  1  0.12527718  0.87483898  0.62487960  1
  Fe  Fe27  1  0.25288274  0.25239368  0.00069768  1
  Fe  Fe28  1  0.24519018  0.49833051  0.49818519  1
  Fe  Fe29  1  0.00096979  0.50101548  0.75573247  1
  Fe  Fe30  1  0.87841914  0.87634856  0.62347305  1
  Fe  Fe31  1  0.12442108  0.12577551  0.37244967  1
  Fe  Fe32  1  0.00217566  -0.00036815  0.75320726  1
  Fe  Fe33  1  0.50101608  -0.00022652  0.25056295  1
  Fe  Fe34  1  0.62565842  0.37447741  0.87670044  1
  Fe  Fe35  1  -0.00378413  0.74703486  0.25402512  1
  Fe  Fe36  1  0.37520048  0.12672348  0.37384994  1
  Fe  Fe37  1  0.62658582  0.87270852  0.37653633  1
  Fe  Fe38  1  0.25107181  -0.00237542  0.00009648  1
  Fe  Fe39  1  0.62435909  0.37597041  0.62475297  1
  Fe  Fe40  1  0.62808551  0.62419728  0.37696299  1
  Fe  Fe41  1  0.50043355  -0.00159672  0.75327285  1
  Fe  Fe42  1  0.87741672  0.12399275  0.62735419  1
  Fe  Fe43  1  0.62622715  0.12548239  0.62702151  1
  Fe  Fe44  1  0.12895777  0.86935477  0.87695593  1
  Fe  Fe45  1  0.50004570  0.50082003  0.49950450  1
  Fe  Fe46  1  0.12515433  0.12631521  0.87773794  1
  Fe  Fe47  1  0.00103931  0.74914481  0.75235102  1
  Fe  Fe48  1  0.75210983  0.49902598  0.50368132  1
  Fe  Fe49  1  0.75387316  0.74859412  0.50144832  1
  Fe  Fe50  1  0.37334865  0.37827539  0.62709458  1
  Fe  Fe51  1  0.87229341  0.87017696  0.87681357  1
  Fe  Fe52  1  0.50113302  0.74807259  0.25130972  1
  Fe  Fe53  1  0.87998586  0.37578419  0.62837775  1
  Fe  Fe54  1  0.49717073  0.74763852  0.50265563  1
  Fe  Fe55  1  0.24717948  0.49973215  0.75457504  1
  Fe  Fe56  1  0.37816288  0.62238658  0.12479246  1
  Fe  Fe57  1  0.75116458  -0.00120972  0.25076387  1
  Fe  Fe58  1  0.62543505  0.12690202  0.37482465  1
  Fe  Fe59  1  0.24952398  0.74867558  0.24903731  1
  Fe  Fe60  1  0.50114407  -0.00124746  -0.00391144  1
  Fe  Fe61  1  0.37100968  0.87613635  0.62678036  1
  Fe  Fe62  1  -0.00303557  0.24726820  0.00100003  1
  Fe  Fe63  1  -0.00042519  0.74682978  0.49661519  1
  Fe  Fe64  1  0.24902129  0.25333597  0.24717232  1
  Fe  Fe65  1  0.87469560  0.87216959  0.12619306  1
  Fe  Fe66  1  0.49957385  0.25133841  0.74984880  1
  Fe  Fe67  1  0.12185631  0.87321416  0.12636237  1
  Fe  Fe68  1  0.62378593  0.62194602  0.12632218  1
  Fe  Fe69  1  0.12289603  0.37599807  0.12108714  1
  Fe  Fe70  1  0.50306957  0.25466035  0.24875933  1
  Fe  Fe71  1  0.37342585  0.87362011  0.37454211  1
  Fe  Fe72  1  0.62544962  0.87309010  0.12502217  1
  Fe  Fe73  1  0.24624580  0.25215174  0.50170561  1
  Fe  Fe74  1  0.62764286  0.12605508  0.12399330  1
  Fe  Fe75  1  0.00269908  0.25066099  0.50349655  1
  Fe  Fe76  1  0.37453222  0.12579078  0.87396149  1
  Fe  Fe77  1  0.37107417  0.62866080  0.87533462  1
  Fe  Fe78  1  0.12634866  0.62452999  0.62549072  1
  Fe  Fe79  1  0.75218014  0.25139228  0.50027198  1
  Fe  Fe80  1  0.87381804  0.12624539  0.87541719  1
  Fe  Fe81  1  0.37191174  0.62494518  0.37606593  1
  Fe  Fe82  1  0.37233897  0.12382394  0.62642976  1
  Fe  Fe83  1  0.75072110  0.49926043  0.24909618  1
  Fe  Fe84  1  0.75178616  0.50288259  -0.00313799  1
  Fe  Fe85  1  0.25019910  0.50070733  -0.00150505  1
  Fe  Fe86  1  0.24792260  -0.00106984  0.49853960  1
  Fe  Fe87  1  0.37481409  0.37517492  0.37475451  1
  Fe  Fe88  1  0.49965508  0.25059020  0.50069132  1
  Fe  Fe89  1  0.12244259  0.62632287  0.12333175  1
  Co  Co90  1  0.86985247  0.62943353  0.87070958  1
  Co  Co91  1  0.12363698  0.37864653  0.62815113  1
  Co  Co92  1  0.24732368  0.00016670  0.75348188  1
  Co  Co93  1  0.12724885  0.12503059  0.12273167  1
  Co  Co94  1  0.00079910  0.50102596  0.24572674  1
  Co  Co95  1  0.75292031  0.75546831  0.74342496  1
  Co  Co96  1  0.87020731  0.12420934  0.12431563  1
  Co  Co97  1  0.37298505  0.87079491  0.87518171  1
  Co  Co98  1  0.87417878  0.87585751  0.37437787  1
  Co  Co99  1  0.11990369  0.37526765  0.37291759  1
  Co  Co100  1  0.00264578  0.24843468  0.74974659  1
  Co  Co101  1  0.37200813  0.61963293  0.62458476  1
  Co  Co102  1  0.62636263  0.86972761  0.87398653  1
  Co  Co103  1  0.87565780  0.62666223  0.12585768  1
  Co  Co104  1  0.12435349  0.87318927  0.37283946  1
  Co  Co105  1  0.74927695  0.25211768  0.00003657  1
  Co  Co106  1  -0.00238356  0.74765329  -0.00220273  1
  Co  Co107  1  0.50152252  0.50505266  -0.00849177  1
  Co  Co108  1  0.37496377  0.37509875  0.87416181  1
  Co  Co109  1  0.25014638  0.74848759  0.74632158  1
  Co  Co110  1  0.00112868  0.50234903  0.50269772  1
  Co  Co111  1  0.62687439  0.62418148  0.62580683  1
  Co  Co112  1  0.74944492  0.74740907  0.00402675  1
  Co  Co113  1  0.62657876  0.37667755  0.37801172  1
  Co  Co114  1  0.12425267  0.62323078  0.37407592  1
  Co  Co115  1  0.12759584  0.62893123  0.87786166  1
  Co  Co116  1  0.24866086  0.74979073  0.50119533  1
  Co  Co117  1  0.75045055  0.49528689  0.75065014  1
  Co  Co118  1  0.62264949  0.38093749  0.12039445  1
  Co  Co119  1  0.87438096  0.61908763  0.37479246  1
  Co  Co120  1  0.25108748  0.74967296  0.00537917  1
  Co  Co121  1  0.87765832  0.37355383  0.87581330  1
  Co  Co122  1  -0.00065368  0.00180820  0.24749493  1
  Co  Co123  1  0.12241270  0.37326006  0.87882854  1
  Co  Co124  1  0.75018523  0.74773496  0.25053139  1
  Co  Co125  1  0.12397535  0.12112655  0.62478288  1
  Co  Co126  1  0.62568233  0.12675918  0.87397806  1
  Co  Co127  1  0.50087577  0.50014414  0.25552757  1
