# generated using pymatgen
data_Fe45Co19
_symmetry_space_group_name_H-M   'P 1'
_cell_length_a   11.41518375
_cell_length_b   11.41454590
_cell_length_c   11.41547243
_cell_angle_alpha   89.99497121
_cell_angle_beta   90.00261557
_cell_angle_gamma   90.00883417
_symmetry_Int_Tables_number   1
_chemical_formula_structural   Fe45Co19
_chemical_formula_sum   'Fe90 Co38'
_cell_volume   1487.42620251
_cell_formula_units_Z   2
loop_
 _symmetry_equiv_pos_site_id
 _symmetry_equiv_pos_as_xyz
  1  'x, y, z'
loop_
 _atom_site_type_symbol
 _atom_site_label
 _atom_site_symmetry_multiplicity
 _atom_site_fract_x
 _atom_site_fract_y
 _atom_site_fract_z
 _atom_site_occupancy
  Fe  Fe0  1  0.62507772  0.62686108  0.87423203  1
  Fe  Fe1  1  0.49667540  0.75091099  0.49739168  1
  Fe  Fe2  1  0.37388151  0.12387799  0.87815401  1
  Fe  Fe3  1  0.74947760  0.49976177  0.00026774  1
  Fe  Fe4  1  0.87626794  0.12601856  0.37715891  1
  Fe  Fe5  1  0.12396377  0.62451684  0.37720522  1
  Fe  Fe6  1  0.12515844  0.12923862  0.37758976  1
  Fe  Fe7  1  0.00284744  0.75369853  -0.00233463  1
  Fe  Fe8  1  0.75099186  0.50258254  0.74942641  1
  Fe  Fe9  1  0.37602705  0.37607550  0.12353333  1
  Fe  Fe10  1  -0.00005450  0.75278943  0.50008520  1
  Fe  Fe11  1  0.62615258  0.37353224  0.62638629  1
  Fe  Fe12  1  0.49766673  0.75049229  0.75123084  1
  Fe  Fe13  1  0.75132759  0.00091198  0.24926973  1
  Fe  Fe14  1  0.49786998  -0.00268227  0.25240242  1
  Fe  Fe15  1  0.37342877  0.87427593  0.62445278  1
  Fe  Fe16  1  0.62763847  0.37453346  0.37202471  1
  Fe  Fe17  1  0.24750016  0.50093767  0.00019961  1
  Fe  Fe18  1  0.62205575  0.12427371  0.12588584  1
  Fe  Fe19  1  0.62436504  0.62617375  0.12502598  1
  Fe  Fe20  1  0.24780416  0.00319771  0.24822231  1
  Fe  Fe21  1  0.87417098  0.87621957  0.37582463  1
  Fe  Fe22  1  0.62217378  0.62581159  0.37513711  1
  Fe  Fe23  1  0.62879888  0.37335358  0.87435198  1
  Fe  Fe24  1  0.75119154  0.74933185  0.50123870  1
  Fe  Fe25  1  0.87664304  0.62435321  0.87699047  1
  Fe  Fe26  1  0.62591143  0.87350822  0.62830107  1
  Fe  Fe27  1  0.25102863  0.74563436  0.50342705  1
  Fe  Fe28  1  0.75408550  0.74590909  0.25057952  1
  Fe  Fe29  1  0.87278449  0.87731996  0.62719605  1
  Fe  Fe30  1  0.00688197  -0.00354650  0.00177405  1
  Fe  Fe31  1  0.12588850  0.62723288  0.87283298  1
  Fe  Fe32  1  0.12689828  0.87437990  0.62655732  1
  Fe  Fe33  1  0.00185870  0.49103849  0.49609582  1
  Fe  Fe34  1  0.50029132  0.00000734  0.75045754  1
  Fe  Fe35  1  -0.00081283  0.75199362  0.75036921  1
  Fe  Fe36  1  0.37328160  0.37612031  0.87490496  1
  Fe  Fe37  1  0.75138503  0.75382494  -0.00329918  1
  Fe  Fe38  1  0.24873702  0.50230013  0.24843646  1
  Fe  Fe39  1  0.12777345  0.87272472  0.37297445  1
  Fe  Fe40  1  0.37240691  0.62574376  0.87493052  1
  Fe  Fe41  1  0.50003847  -0.00069494  0.49848672  1
  Fe  Fe42  1  -0.00105146  0.25387350  -0.00219884  1
  Fe  Fe43  1  0.49843693  0.75078707  0.00000350  1
  Fe  Fe44  1  0.62676635  0.12378115  0.87576930  1
  Fe  Fe45  1  0.37409973  0.37522732  0.62611298  1
  Fe  Fe46  1  0.49806184  0.25160857  0.49738971  1
  Fe  Fe47  1  0.12647712  0.37233261  0.87094394  1
  Fe  Fe48  1  -0.00026207  0.25312889  0.25344453  1
  Fe  Fe49  1  0.49900113  0.25030590  0.75166453  1
  Fe  Fe50  1  0.12281100  0.37563170  0.12649767  1
  Fe  Fe51  1  0.50113786  -0.00293858  -0.00099257  1
  Fe  Fe52  1  0.50174403  0.25223010  -0.00002981  1
  Fe  Fe53  1  0.75440484  0.24594890  0.74795443  1
  Fe  Fe54  1  0.74910680  0.49948198  0.49902536  1
  Fe  Fe55  1  0.24895153  0.00215409  0.49987179  1
  Fe  Fe56  1  0.00241796  -0.00008704  0.25093014  1
  Fe  Fe57  1  0.62228440  0.62565161  0.62484567  1
  Fe  Fe58  1  0.87881919  0.12347741  0.12414694  1
  Fe  Fe59  1  0.50091566  0.49937252  -0.00185247  1
  Fe  Fe60  1  0.75201433  0.24913492  0.50200706  1
  Fe  Fe61  1  0.00286158  -0.00010629  0.50018654  1
  Fe  Fe62  1  0.24948001  0.24970136  0.00063113  1
  Fe  Fe63  1  0.24958878  0.00253362  0.74901629  1
  Fe  Fe64  1  -0.00350812  0.74681926  0.25164629  1
  Fe  Fe65  1  0.24780804  0.50064844  0.50441429  1
  Fe  Fe66  1  0.50093610  0.49884569  0.75069824  1
  Fe  Fe67  1  0.87840517  0.62212672  0.62212409  1
  Fe  Fe68  1  0.12069450  0.62416810  0.12418056  1
  Fe  Fe69  1  0.87476360  0.12068291  0.87768324  1
  Fe  Fe70  1  0.37256197  0.37802027  0.37504599  1
  Fe  Fe71  1  0.74776602  0.00170827  0.50212664  1
  Fe  Fe72  1  0.12539422  0.12679744  0.87433474  1
  Fe  Fe73  1  0.87666064  0.87532333  0.12461112  1
  Fe  Fe74  1  0.25204537  0.24878322  0.24973631  1
  Fe  Fe75  1  0.87679358  0.38139413  0.12676714  1
  Fe  Fe76  1  0.00202867  0.00131117  0.74880071  1
  Fe  Fe77  1  0.62316916  0.12618081  0.37370056  1
  Fe  Fe78  1  0.50122498  0.49982282  0.24936840  1
  Fe  Fe79  1  0.62583215  0.87322977  0.37358923  1
  Fe  Fe80  1  0.62545839  0.87334286  0.12665067  1
  Fe  Fe81  1  0.37541831  0.12663583  0.62331680  1
  Fe  Fe82  1  0.37086418  0.87429366  0.12440819  1
  Fe  Fe83  1  0.24913638  0.50289042  0.74631039  1
  Fe  Fe84  1  0.75070619  0.25042969  0.00343826  1
  Fe  Fe85  1  0.36830256  0.87380955  0.87669922  1
  Fe  Fe86  1  0.37697628  0.12553304  0.12464248  1
  Fe  Fe87  1  0.74995564  0.24962871  0.24636937  1
  Fe  Fe88  1  0.25359673  0.74503589  0.25014728  1
  Fe  Fe89  1  -0.00076405  0.49573138  0.75201425  1
  Co  Co90  1  0.12465029  0.13080641  0.62483850  1
  Co  Co91  1  0.12565853  0.36963209  0.62931664  1
  Co  Co92  1  0.24470166  0.00194827  0.00395238  1
  Co  Co93  1  0.24735446  0.74767003  0.00200409  1
  Co  Co94  1  0.74807932  0.00267848  0.74770120  1
  Co  Co95  1  0.38040977  0.62302269  0.62428871  1
  Co  Co96  1  0.37019429  0.87492795  0.37503639  1
  Co  Co97  1  0.12193870  0.13071424  0.12557465  1
  Co  Co98  1  0.49862573  0.25317407  0.25116293  1
  Co  Co99  1  0.11706376  0.62306145  0.62398040  1
  Co  Co100  1  0.87418952  0.37673166  0.62563655  1
  Co  Co101  1  0.00357046  0.49745668  -0.00404994  1
  Co  Co102  1  0.87697984  0.62394364  0.38131369  1
  Co  Co103  1  0.13013359  0.37424396  0.37241759  1
  Co  Co104  1  0.87087698  0.37564931  0.87520881  1
  Co  Co105  1  0.87769477  0.62350463  0.11874163  1
  Co  Co106  1  0.49622594  0.75033381  0.25041672  1
  Co  Co107  1  0.37502037  0.12407461  0.37443246  1
  Co  Co108  1  0.12647823  0.87068434  0.13026632  1
  Co  Co109  1  0.74804805  -0.00152797  0.00248376  1
  Co  Co110  1  0.62510840  0.37782814  0.12546153  1
  Co  Co111  1  0.75167727  0.50579652  0.25060629  1
  Co  Co112  1  0.75364617  0.74706321  0.75029885  1
  Co  Co113  1  0.62149491  0.12689017  0.62474982  1
  Co  Co114  1  0.62599515  0.87522704  0.87173851  1
  Co  Co115  1  0.87521602  0.88033808  0.87383482  1
  Co  Co116  1  -0.00554960  0.24953344  0.75081736  1
  Co  Co117  1  0.37606028  0.62070449  0.37697036  1
  Co  Co118  1  -0.00143512  0.50234163  0.25432152  1
  Co  Co119  1  0.87005889  0.37403672  0.37195457  1
  Co  Co120  1  0.13074552  0.87425854  0.87170102  1
  Co  Co121  1  0.37680398  0.62264631  0.12300636  1
  Co  Co122  1  -0.00041511  0.25564756  0.49964270  1
  Co  Co123  1  0.25128018  0.25093885  0.49974980  1
  Co  Co124  1  0.24954972  0.74601158  0.74400804  1
  Co  Co125  1  0.25347900  0.24774278  0.75118043  1
  Co  Co126  1  0.87883724  0.12333020  0.62168467  1
  Co  Co127  1  0.50171845  0.49596527  0.49998002  1
