# generated using pymatgen
data_Fe45Co19
_symmetry_space_group_name_H-M   'P 1'
_cell_length_a   11.41582241
_cell_length_b   11.41496368
_cell_length_c   11.41594109
_cell_angle_alpha   90.00146111
_cell_angle_beta   90.00114583
_cell_angle_gamma   89.99149263
_symmetry_Int_Tables_number   1
_chemical_formula_structural   Fe45Co19
_chemical_formula_sum   'Fe90 Co38'
_cell_volume   1487.62494487
_cell_formula_units_Z   2
loop_
 _symmetry_equiv_pos_site_id
 _symmetry_equiv_pos_as_xyz
  1  'x, y, z'
loop_
 _atom_site_type_symbol
 _atom_site_label
 _atom_site_symmetry_multiplicity
 _atom_site_fract_x
 _atom_site_fract_y
 _atom_site_fract_z
 _atom_site_occupancy
  Fe  Fe0  1  0.49896812  0.49910210  0.24774776  1
  Fe  Fe1  1  0.75336924  0.00746472  0.75371115  1
  Fe  Fe2  1  0.62938874  0.37282446  0.12437441  1
  Fe  Fe3  1  -0.00244599  0.49829634  0.74993897  1
  Fe  Fe4  1  0.00226780  0.75440817  0.74572691  1
  Fe  Fe5  1  0.37816526  0.62759180  0.87752964  1
  Fe  Fe6  1  0.50422827  0.75191965  0.49960391  1
  Fe  Fe7  1  0.24601620  0.74714632  0.24924834  1
  Fe  Fe8  1  0.74889085  0.24897562  0.49958045  1
  Fe  Fe9  1  0.37388977  0.37522997  0.37589118  1
  Fe  Fe10  1  0.11911587  0.12215568  0.87638940  1
  Fe  Fe11  1  0.87763927  0.62625710  0.37424224  1
  Fe  Fe12  1  -0.00132271  0.49718048  0.00094748  1
  Fe  Fe13  1  0.37325497  0.37442141  0.62591527  1
  Fe  Fe14  1  0.12165585  0.62550406  0.87543781  1
  Fe  Fe15  1  -0.00238509  0.49875194  0.50216107  1
  Fe  Fe16  1  0.00120745  0.25148604  0.24753141  1
  Fe  Fe17  1  0.50340850  0.24802491  0.74696947  1
  Fe  Fe18  1  0.24939764  0.24921466  0.24936147  1
  Fe  Fe19  1  0.49865956  -0.00127637  0.74745322  1
  Fe  Fe20  1  0.37462055  0.62348609  0.12120294  1
  Fe  Fe21  1  0.37538104  0.37344044  0.87509543  1
  Fe  Fe22  1  0.87368105  0.62597192  0.62547171  1
  Fe  Fe23  1  0.25052595  0.00027140  0.75236396  1
  Fe  Fe24  1  0.74699044  0.74917934  0.49709997  1
  Fe  Fe25  1  0.37785925  0.12629734  0.87532976  1
  Fe  Fe26  1  0.36958025  0.87631180  0.12442545  1
  Fe  Fe27  1  0.12608562  0.87837807  0.37759566  1
  Fe  Fe28  1  0.75227788  0.50080004  0.25134533  1
  Fe  Fe29  1  0.62567731  0.87599905  0.87707370  1
  Fe  Fe30  1  0.62479811  0.62482524  0.12331740  1
  Fe  Fe31  1  0.12556006  0.12105718  0.12429283  1
  Fe  Fe32  1  0.49667887  -0.00085786  0.50095296  1
  Fe  Fe33  1  0.62570066  0.37764153  0.37466661  1
  Fe  Fe34  1  0.50149531  0.24902377  0.50241858  1
  Fe  Fe35  1  0.87490701  0.37424339  0.37469036  1
  Fe  Fe36  1  0.49941376  -0.00050533  0.24731437  1
  Fe  Fe37  1  0.50045898  0.49991245  0.50113377  1
  Fe  Fe38  1  0.25109749  0.50236078  0.75251406  1
  Fe  Fe39  1  0.37258021  0.37595564  0.12238213  1
  Fe  Fe40  1  0.37725829  0.12761087  0.37421744  1
  Fe  Fe41  1  0.63103260  0.87657097  0.12214750  1
  Fe  Fe42  1  0.24771720  0.24734856  -0.00099248  1
  Fe  Fe43  1  0.50128740  0.24989522  0.24804544  1
  Fe  Fe44  1  0.87492672  0.87217106  0.37370666  1
  Fe  Fe45  1  0.25167983  0.00214894  0.25242440  1
  Fe  Fe46  1  0.62726617  0.62273740  0.62553267  1
  Fe  Fe47  1  0.37401460  0.87197023  0.37523565  1
  Fe  Fe48  1  0.12405231  0.37494740  0.87428824  1
  Fe  Fe49  1  0.37092183  0.87281135  0.62338998  1
  Fe  Fe50  1  -0.00418614  -0.00253484  0.74571403  1
  Fe  Fe51  1  0.50242252  0.75194766  0.24824001  1
  Fe  Fe52  1  0.24616504  0.75079308  0.74985574  1
  Fe  Fe53  1  0.87870578  0.62770745  0.87558556  1
  Fe  Fe54  1  0.00294895  0.75313315  0.50254645  1
  Fe  Fe55  1  0.00240972  0.75448744  0.00466503  1
  Fe  Fe56  1  0.24561476  0.75105139  -0.00008046  1
  Fe  Fe57  1  0.12622921  0.37796962  0.37402801  1
  Fe  Fe58  1  0.49951869  0.50139649  0.75100233  1
  Fe  Fe59  1  0.12347374  0.11930006  0.62181867  1
  Fe  Fe60  1  0.62878286  0.87735101  0.62598592  1
  Fe  Fe61  1  0.37380183  0.62714479  0.62364296  1
  Fe  Fe62  1  0.87061243  0.36933933  0.12316875  1
  Fe  Fe63  1  -0.00327057  -0.00258137  0.24759712  1
  Fe  Fe64  1  0.24959186  0.24793100  0.50085164  1
  Fe  Fe65  1  0.37600505  0.87298676  0.87540930  1
  Fe  Fe66  1  0.62411337  0.12241786  0.37486760  1
  Fe  Fe67  1  0.12203663  0.12285311  0.37698430  1
  Fe  Fe68  1  0.00080002  0.25119020  0.50230128  1
  Fe  Fe69  1  0.37666994  0.62600382  0.37626931  1
  Fe  Fe70  1  0.87492992  0.36671331  0.87343417  1
  Fe  Fe71  1  0.75314761  0.00242104  0.24823684  1
  Fe  Fe72  1  0.12756110  0.37841387  0.62572094  1
  Fe  Fe73  1  0.75167179  0.50165842  -0.00332168  1
  Fe  Fe74  1  0.62688465  0.37418041  0.87407507  1
  Fe  Fe75  1  0.12873941  0.38071308  0.12616006  1
  Fe  Fe76  1  -0.00503137  -0.00319922  0.00451816  1
  Fe  Fe77  1  0.87029429  0.37238013  0.62935098  1
  Fe  Fe78  1  0.87781346  0.62834719  0.12686019  1
  Fe  Fe79  1  0.49905395  -0.00001704  0.00320084  1
  Fe  Fe80  1  0.12228574  0.62045616  0.37314366  1
  Fe  Fe81  1  0.62974550  0.37688694  0.62757084  1
  Fe  Fe82  1  0.24678730  0.24658176  0.75017642  1
  Fe  Fe83  1  0.62060031  0.62710059  0.87752589  1
  Fe  Fe84  1  0.74712660  0.74887674  0.25248189  1
  Fe  Fe85  1  0.87326724  0.87395835  0.87645642  1
  Fe  Fe86  1  0.75413090  0.00092806  0.50012944  1
  Fe  Fe87  1  0.87782776  0.12684287  0.37480024  1
  Fe  Fe88  1  0.74814349  0.74817901  0.75304460  1
  Fe  Fe89  1  0.50199662  0.24926189  0.00241284  1
  Co  Co90  1  0.12178690  0.87723469  0.87486163  1
  Co  Co91  1  0.24901813  0.50150637  -0.00412538  1
  Co  Co92  1  0.87484375  0.13041755  0.12435655  1
  Co  Co93  1  0.75382081  0.00640252  -0.00310022  1
  Co  Co94  1  0.86911709  0.87139309  0.62599471  1
  Co  Co95  1  0.12338444  0.62189290  0.62708817  1
  Co  Co96  1  0.74722355  0.24142710  0.75269219  1
  Co  Co97  1  0.62537198  0.87968136  0.37424987  1
  Co  Co98  1  0.62707481  0.12548656  0.12721835  1
  Co  Co99  1  0.75166272  0.50303564  0.75639014  1
  Co  Co100  1  0.74690671  0.24274548  -0.00546647  1
  Co  Co101  1  0.49987770  0.75477739  0.00344646  1
  Co  Co102  1  0.75023714  0.74704599  -0.00228474  1
  Co  Co103  1  0.88511191  0.13053522  0.87648230  1
  Co  Co104  1  0.37474610  0.12619999  0.62727424  1
  Co  Co105  1  0.86968508  0.87095933  0.12547094  1
  Co  Co106  1  0.50201074  0.49716259  -0.00054943  1
  Co  Co107  1  0.87585295  0.12889369  0.62445043  1
  Co  Co108  1  0.24460068  0.74734070  0.49900140  1
  Co  Co109  1  0.00410878  0.24962124  0.74488031  1
  Co  Co110  1  0.75231593  0.50014261  0.49811663  1
  Co  Co111  1  0.25346844  0.50222731  0.25123956  1
  Co  Co112  1  0.12905003  0.88048609  0.62259940  1
  Co  Co113  1  0.00532802  0.25317837  0.00559023  1
  Co  Co114  1  -0.00419850  0.49605760  0.24821709  1
  Co  Co115  1  0.12923692  0.87954223  0.12598051  1
  Co  Co116  1  0.50170678  0.75127642  0.74715041  1
  Co  Co117  1  0.61784797  0.12186937  0.87525336  1
  Co  Co118  1  0.25538902  0.00284918  0.49731678  1
  Co  Co119  1  0.25094912  0.50099475  0.49928693  1
  Co  Co120  1  0.00485631  0.75494738  0.24953422  1
  Co  Co121  1  0.25131943  0.00118094  -0.00452595  1
  Co  Co122  1  -0.00597939  -0.00385876  0.50129641  1
  Co  Co123  1  0.12214474  0.62125820  0.12503804  1
  Co  Co124  1  0.37363204  0.12545392  0.12422888  1
  Co  Co125  1  0.62547970  0.12135809  0.62234059  1
  Co  Co126  1  0.74994402  0.24856403  0.25465943  1
  Co  Co127  1  0.62274917  0.62145804  0.37347054  1
