# generated using pymatgen
data_Fe45Co19
_symmetry_space_group_name_H-M   'P 1'
_cell_length_a   11.41535842
_cell_length_b   11.41427164
_cell_length_c   11.41607629
_cell_angle_alpha   90.00155275
_cell_angle_beta   90.00332983
_cell_angle_gamma   89.98614688
_symmetry_Int_Tables_number   1
_chemical_formula_structural   Fe45Co19
_chemical_formula_sum   'Fe90 Co38'
_cell_volume   1487.49188299
_cell_formula_units_Z   2
loop_
 _symmetry_equiv_pos_site_id
 _symmetry_equiv_pos_as_xyz
  1  'x, y, z'
loop_
 _atom_site_type_symbol
 _atom_site_label
 _atom_site_symmetry_multiplicity
 _atom_site_fract_x
 _atom_site_fract_y
 _atom_site_fract_z
 _atom_site_occupancy
  Fe  Fe0  1  0.74971692  0.25238458  -0.00496539  1
  Fe  Fe1  1  0.75023319  0.00139656  0.25368775  1
  Fe  Fe2  1  0.62184691  0.87931080  0.37807089  1
  Fe  Fe3  1  0.74909681  0.49707219  0.49710825  1
  Fe  Fe4  1  0.37353659  0.87578755  0.62529953  1
  Fe  Fe5  1  0.75146168  0.49699424  -0.00185630  1
  Fe  Fe6  1  0.75085923  -0.00038117  -0.00277329  1
  Fe  Fe7  1  0.50141072  0.49892905  0.50048881  1
  Fe  Fe8  1  0.75074204  0.75078214  -0.00274294  1
  Fe  Fe9  1  0.62650788  0.37525823  0.12519668  1
  Fe  Fe10  1  0.50146706  0.24806197  0.25021597  1
  Fe  Fe11  1  0.62608914  0.12406361  0.12373970  1
  Fe  Fe12  1  0.12403943  0.62308022  0.87175929  1
  Fe  Fe13  1  0.25001505  0.74934915  -0.00120032  1
  Fe  Fe14  1  0.37636808  0.37460603  0.37647781  1
  Fe  Fe15  1  0.62379995  0.62262735  0.87572087  1
  Fe  Fe16  1  0.74967757  0.75215504  0.49939262  1
  Fe  Fe17  1  0.49990116  0.75146584  0.50142246  1
  Fe  Fe18  1  0.12509397  0.62426555  0.12575900  1
  Fe  Fe19  1  0.12619362  0.12509039  0.12290201  1
  Fe  Fe20  1  0.37500211  0.37544547  0.12530242  1
  Fe  Fe21  1  0.24977266  0.25514959  0.49994041  1
  Fe  Fe22  1  0.50656543  0.24797892  0.74780555  1
  Fe  Fe23  1  0.24873720  0.49883670  0.25378206  1
  Fe  Fe24  1  0.37393807  0.62480374  0.37620456  1
  Fe  Fe25  1  0.37286337  0.87830132  0.12770445  1
  Fe  Fe26  1  0.87314253  0.12595486  0.12528160  1
  Fe  Fe27  1  0.24853660  0.74904237  0.49909650  1
  Fe  Fe28  1  0.50082438  0.50117565  0.25013201  1
  Fe  Fe29  1  0.87398338  0.62390797  0.12418019  1
  Fe  Fe30  1  0.37277249  0.12801409  0.62617661  1
  Fe  Fe31  1  0.87437558  0.87552651  0.12517288  1
  Fe  Fe32  1  0.62635778  0.62385268  0.12442442  1
  Fe  Fe33  1  0.24964925  0.75049240  0.75103467  1
  Fe  Fe34  1  0.37951347  0.37434666  0.87369438  1
  Fe  Fe35  1  0.75129436  0.49506727  0.74979779  1
  Fe  Fe36  1  0.75029773  0.75118559  0.75058844  1
  Fe  Fe37  1  0.00023699  0.00392569  0.24988094  1
  Fe  Fe38  1  -0.00152611  0.00435625  0.50319322  1
  Fe  Fe39  1  0.25095662  0.49952317  -0.00078923  1
  Fe  Fe40  1  0.74667972  0.24996930  0.49716948  1
  Fe  Fe41  1  0.62091467  0.87871002  0.87336199  1
  Fe  Fe42  1  0.12455273  0.87543718  0.62716980  1
  Fe  Fe43  1  0.37912824  0.12457172  0.87406417  1
  Fe  Fe44  1  0.25035112  0.25027222  -0.00399452  1
  Fe  Fe45  1  0.24944786  0.00178543  -0.00322777  1
  Fe  Fe46  1  0.00436230  0.50030240  0.50345949  1
  Fe  Fe47  1  0.50193698  0.25025035  0.00035662  1
  Fe  Fe48  1  0.12538321  0.37458205  0.12491134  1
  Fe  Fe49  1  0.87448886  0.87534492  0.62653765  1
  Fe  Fe50  1  0.24970396  0.75046210  0.25199288  1
  Fe  Fe51  1  0.50360210  0.24731177  0.50105916  1
  Fe  Fe52  1  0.87555514  0.12479798  0.87288106  1
  Fe  Fe53  1  0.24924042  0.25045350  0.25088462  1
  Fe  Fe54  1  -0.00115218  0.74935569  0.24992695  1
  Fe  Fe55  1  0.87985149  0.87760709  0.87238993  1
  Fe  Fe56  1  0.75015863  0.25022007  0.25328033  1
  Fe  Fe57  1  0.88085979  0.36981153  0.37711144  1
  Fe  Fe58  1  -0.00297782  0.50077473  0.74408575  1
  Fe  Fe59  1  -0.00016737  0.74911976  -0.00088462  1
  Fe  Fe60  1  0.12319948  0.87546934  0.37624670  1
  Fe  Fe61  1  0.62631462  0.87660932  0.12407190  1
  Fe  Fe62  1  0.87639742  0.62546909  0.37758524  1
  Fe  Fe63  1  0.12471891  0.87709832  0.12434067  1
  Fe  Fe64  1  0.37785163  0.87720193  0.87365839  1
  Fe  Fe65  1  0.87657597  0.62331938  0.87478110  1
  Fe  Fe66  1  0.50041241  0.75047724  0.25019278  1
  Fe  Fe67  1  0.62889060  0.62461312  0.62362893  1
  Fe  Fe68  1  0.74965032  0.74947442  0.25296745  1
  Fe  Fe69  1  0.00113829  0.74697343  0.50427748  1
  Fe  Fe70  1  0.50122919  0.49923232  0.74678865  1
  Fe  Fe71  1  -0.00022995  0.49733261  0.25023354  1
  Fe  Fe72  1  0.49837974  0.74898710  0.00182933  1
  Fe  Fe73  1  -0.00177968  0.25152815  0.00199737  1
  Fe  Fe74  1  0.75123802  0.49880382  0.25373206  1
  Fe  Fe75  1  0.12290362  0.12872397  0.37560305  1
  Fe  Fe76  1  0.87787572  0.87695627  0.37605987  1
  Fe  Fe77  1  0.25060507  0.00007916  0.49818790  1
  Fe  Fe78  1  -0.00182547  0.24899488  0.74518713  1
  Fe  Fe79  1  0.25251037  0.49519043  0.74645461  1
  Fe  Fe80  1  0.37405257  0.12327340  0.12603455  1
  Fe  Fe81  1  0.37205483  0.62326744  0.62345541  1
  Fe  Fe82  1  0.12013971  0.87799641  0.87252087  1
  Fe  Fe83  1  0.24965523  0.00274022  0.75232191  1
  Fe  Fe84  1  0.37589531  0.62366382  0.87514650  1
  Fe  Fe85  1  0.12155935  0.37397679  0.87194733  1
  Fe  Fe86  1  0.37595739  0.12270782  0.37404151  1
  Fe  Fe87  1  0.12989877  0.12729784  0.62726999  1
  Fe  Fe88  1  0.50086309  0.74932420  0.74723513  1
  Fe  Fe89  1  0.86660482  0.12650539  0.62558597  1
  Co  Co90  1  0.37352767  0.62485241  0.12692833  1
  Co  Co91  1  0.74950502  -0.00253774  0.75225666  1
  Co  Co92  1  0.12032971  0.12668734  0.87496586  1
  Co  Co93  1  0.75282256  -0.00119110  0.49730222  1
  Co  Co94  1  0.74716977  0.25426672  0.75425712  1
  Co  Co95  1  0.12571451  0.37228110  0.62718934  1
  Co  Co96  1  0.00115761  0.24571452  0.50661506  1
  Co  Co97  1  0.63183229  0.12223163  0.62496798  1
  Co  Co98  1  -0.00010254  0.00496729  0.74426589  1
  Co  Co99  1  0.49923264  0.00241208  0.74362999  1
  Co  Co100  1  0.62658259  0.37444913  0.62378872  1
  Co  Co101  1  0.25113466  0.25102929  0.75386264  1
  Co  Co102  1  0.62399446  0.12149220  0.37673662  1
  Co  Co103  1  0.62640054  0.87676214  0.62463566  1
  Co  Co104  1  -0.00170464  0.00157962  0.00257894  1
  Co  Co105  1  0.87664022  0.12808291  0.37555958  1
  Co  Co106  1  0.49708093  0.00230451  0.50504535  1
  Co  Co107  1  0.00010006  0.24896239  0.24554991  1
  Co  Co108  1  0.62445981  0.62633381  0.37631574  1
  Co  Co109  1  0.49833770  0.50029231  0.00254620  1
  Co  Co110  1  0.12950738  0.62507853  0.62791535  1
  Co  Co111  1  0.24711457  0.49653255  0.49993141  1
  Co  Co112  1  0.37527548  0.87652883  0.37473979  1
  Co  Co113  1  0.87241631  0.37499108  0.12546849  1
  Co  Co114  1  0.00080073  0.49941864  0.00158619  1
  Co  Co115  1  0.62255592  0.37367603  0.37389604  1
  Co  Co116  1  0.12447950  0.62590739  0.37459442  1
  Co  Co117  1  0.62491168  0.12151623  0.87453623  1
  Co  Co118  1  0.50166607  0.00088836  0.24945202  1
  Co  Co119  1  0.87279754  0.37291461  0.62101711  1
  Co  Co120  1  0.49933050  0.00034586  0.00255138  1
  Co  Co121  1  0.86995609  0.62467117  0.62278979  1
  Co  Co122  1  -0.00181361  0.74675846  0.74783130  1
  Co  Co123  1  0.12088577  0.37039314  0.37593135  1
  Co  Co124  1  0.87975290  0.37451527  0.87355284  1
  Co  Co125  1  0.37785983  0.37213394  0.62445506  1
  Co  Co126  1  0.62177533  0.37725867  0.87580204  1
  Co  Co127  1  0.24650439  0.00188501  0.25272498  1
