# generated using pymatgen
data_Fe45Co19
_symmetry_space_group_name_H-M   'P 1'
_cell_length_a   11.41560950
_cell_length_b   11.41456921
_cell_length_c   11.41517834
_cell_angle_alpha   89.99102488
_cell_angle_beta   89.99955575
_cell_angle_gamma   90.00736775
_symmetry_Int_Tables_number   1
_chemical_formula_structural   Fe45Co19
_chemical_formula_sum   'Fe90 Co38'
_cell_volume   1487.44639078
_cell_formula_units_Z   2
loop_
 _symmetry_equiv_pos_site_id
 _symmetry_equiv_pos_as_xyz
  1  'x, y, z'
loop_
 _atom_site_type_symbol
 _atom_site_label
 _atom_site_symmetry_multiplicity
 _atom_site_fract_x
 _atom_site_fract_y
 _atom_site_fract_z
 _atom_site_occupancy
  Fe  Fe0  1  0.24379118  0.24932989  0.25379662  1
  Fe  Fe1  1  0.50105671  0.00069333  0.74838078  1
  Fe  Fe2  1  0.12297180  0.62384848  0.62416875  1
  Fe  Fe3  1  0.24797276  0.25054985  0.00051340  1
  Fe  Fe4  1  0.24724537  0.75081166  0.74844536  1
  Fe  Fe5  1  0.24832745  0.00117215  0.74758080  1
  Fe  Fe6  1  0.87936040  0.37224628  0.62403517  1
  Fe  Fe7  1  0.00354399  0.24734923  -0.00038558  1
  Fe  Fe8  1  0.37361152  0.37688261  0.87294678  1
  Fe  Fe9  1  0.49829813  0.50033359  0.00206285  1
  Fe  Fe10  1  0.75183629  0.24734375  0.50115525  1
  Fe  Fe11  1  0.75125750  0.00038509  0.00024121  1
  Fe  Fe12  1  0.75059268  0.75117691  0.24951868  1
  Fe  Fe13  1  0.87606705  0.62826576  0.62720529  1
  Fe  Fe14  1  0.75469134  0.49996618  0.50036208  1
  Fe  Fe15  1  0.24740467  0.75169468  0.25158071  1
  Fe  Fe16  1  0.12138347  0.12651004  0.62339690  1
  Fe  Fe17  1  0.25045905  -0.00054679  0.25288553  1
  Fe  Fe18  1  0.49871488  0.75086858  0.50098860  1
  Fe  Fe19  1  0.62312824  0.87319648  0.12374915  1
  Fe  Fe20  1  0.11869765  0.37358715  0.38066546  1
  Fe  Fe21  1  0.75349041  -0.00014170  0.50283404  1
  Fe  Fe22  1  0.62298215  0.37466440  0.62228143  1
  Fe  Fe23  1  0.49923255  0.49992316  0.74654245  1
  Fe  Fe24  1  0.37248094  0.62303683  0.87328155  1
  Fe  Fe25  1  0.24834474  0.74787648  -0.00155666  1
  Fe  Fe26  1  0.50013429  0.50065133  0.25212863  1
  Fe  Fe27  1  -0.00007160  0.49797700  0.74961162  1
  Fe  Fe28  1  0.37251923  0.62484979  0.37699823  1
  Fe  Fe29  1  0.75172030  0.49793169  0.75000664  1
  Fe  Fe30  1  0.75061528  0.49899808  -0.00013732  1
  Fe  Fe31  1  0.12556614  0.62208195  0.12608760  1
  Fe  Fe32  1  0.75147184  -0.00099525  0.24772696  1
  Fe  Fe33  1  0.37248028  0.12646492  0.12770932  1
  Fe  Fe34  1  -0.00057228  0.00338055  0.24755861  1
  Fe  Fe35  1  0.74954643  -0.00137526  0.74849853  1
  Fe  Fe36  1  0.12377352  0.62542456  0.37810217  1
  Fe  Fe37  1  0.49971986  0.00310803  0.49946295  1
  Fe  Fe38  1  0.74982940  0.74871960  -0.00133719  1
  Fe  Fe39  1  0.12054596  0.87576946  0.37693384  1
  Fe  Fe40  1  0.87704986  0.87395773  0.12425450  1
  Fe  Fe41  1  0.25046221  0.00188536  -0.00085536  1
  Fe  Fe42  1  0.00075530  0.00264416  -0.00256843  1
  Fe  Fe43  1  0.50054066  0.74867507  0.25089549  1
  Fe  Fe44  1  0.37289625  0.37357808  0.12674246  1
  Fe  Fe45  1  0.62475740  0.62225695  0.87550793  1
  Fe  Fe46  1  0.50298715  0.24929118  0.75088742  1
  Fe  Fe47  1  0.12634919  0.37731696  0.87397219  1
  Fe  Fe48  1  0.62547990  0.87509090  0.87481933  1
  Fe  Fe49  1  0.62536989  0.87688141  0.37694279  1
  Fe  Fe50  1  0.37389483  0.62517678  0.12577468  1
  Fe  Fe51  1  0.62569168  0.12539899  0.12447303  1
  Fe  Fe52  1  0.24722742  0.25391855  0.74428196  1
  Fe  Fe53  1  0.50205999  0.24775221  0.25361547  1
  Fe  Fe54  1  0.62674007  0.37572071  0.37773511  1
  Fe  Fe55  1  0.37281702  0.87485074  0.87280234  1
  Fe  Fe56  1  0.00254843  0.75415993  0.75087748  1
  Fe  Fe57  1  -0.00085434  0.49871472  0.25217280  1
  Fe  Fe58  1  0.12482338  0.87691617  0.12343283  1
  Fe  Fe59  1  0.87860270  0.37229809  0.12513923  1
  Fe  Fe60  1  0.62668535  0.62458404  0.37688849  1
  Fe  Fe61  1  0.87406924  0.12616069  0.87298204  1
  Fe  Fe62  1  0.87600985  0.62558486  0.87334576  1
  Fe  Fe63  1  0.00177379  0.75042848  -0.00178746  1
  Fe  Fe64  1  0.62450513  0.37560222  0.12481963  1
  Fe  Fe65  1  0.37370544  0.62450853  0.62426412  1
  Fe  Fe66  1  0.37671291  0.37154885  0.38054048  1
  Fe  Fe67  1  0.87484913  0.12535297  0.37222403  1
  Fe  Fe68  1  0.75120505  0.25009965  0.24973240  1
  Fe  Fe69  1  0.49876840  0.00220304  0.25216089  1
  Fe  Fe70  1  0.24909948  0.75359411  0.50093456  1
  Fe  Fe71  1  0.87602529  0.62507891  0.12614116  1
  Fe  Fe72  1  0.50040758  0.24867921  -0.00188149  1
  Fe  Fe73  1  0.74834813  0.25134396  -0.00293921  1
  Fe  Fe74  1  0.37517226  0.87313785  0.12489863  1
  Fe  Fe75  1  0.74906820  0.25268500  0.75148508  1
  Fe  Fe76  1  0.49828061  0.00123810  -0.00112405  1
  Fe  Fe77  1  0.87740516  0.62821115  0.37398453  1
  Fe  Fe78  1  0.75101432  0.49998952  0.24998708  1
  Fe  Fe79  1  0.75441581  0.75359517  0.50046092  1
  Fe  Fe80  1  0.25226014  -0.00004924  0.49936399  1
  Fe  Fe81  1  0.25009918  0.49526199  0.50449903  1
  Fe  Fe82  1  0.00120904  -0.00090976  0.75163385  1
  Fe  Fe83  1  0.24901634  0.49678796  0.25192145  1
  Fe  Fe84  1  0.37628096  0.12848398  0.62243953  1
  Fe  Fe85  1  0.37271069  0.12662477  0.87267644  1
  Fe  Fe86  1  0.00151524  0.50005967  -0.00106250  1
  Fe  Fe87  1  -0.00547754  -0.00085025  0.50302595  1
  Fe  Fe88  1  0.50143051  0.75098838  0.74884300  1
  Fe  Fe89  1  0.62713583  0.62596121  0.62364558  1
  Co  Co90  1  0.11732791  0.37467073  0.62201454  1
  Co  Co91  1  0.62267628  0.37859738  0.87506315  1
  Co  Co92  1  0.12769442  0.12604810  0.87299205  1
  Co  Co93  1  0.87757544  0.37424639  0.87656569  1
  Co  Co94  1  0.49975939  0.50195073  0.49953478  1
  Co  Co95  1  0.25042718  0.50016181  0.00025775  1
  Co  Co96  1  0.63049817  0.12254594  0.37439285  1
  Co  Co97  1  0.62694502  0.12332381  0.87449885  1
  Co  Co98  1  0.00200777  0.25056902  0.75254768  1
  Co  Co99  1  0.12281548  0.12122391  0.37902022  1
  Co  Co100  1  0.37628977  0.87396368  0.37537398  1
  Co  Co101  1  0.62574437  0.87497567  0.62295154  1
  Co  Co102  1  0.00238757  0.24740287  0.25037085  1
  Co  Co103  1  0.62508073  0.62479210  0.12467973  1
  Co  Co104  1  0.38097092  0.37114887  0.62175739  1
  Co  Co105  1  0.87435004  0.87539619  0.87411340  1
  Co  Co106  1  -0.00466916  0.50278090  0.49993532  1
  Co  Co107  1  0.37174667  0.12846078  0.37591378  1
  Co  Co108  1  0.87420864  0.12798677  0.12318880  1
  Co  Co109  1  0.87570279  0.37245536  0.37468273  1
  Co  Co110  1  0.87403376  0.87312753  0.62994433  1
  Co  Co111  1  0.74784860  0.74944260  0.75154614  1
  Co  Co112  1  0.49933853  0.74966275  -0.00250748  1
  Co  Co113  1  0.24626910  0.25147654  0.50250127  1
  Co  Co114  1  0.12372872  0.37621474  0.12501481  1
  Co  Co115  1  0.12777958  0.87653176  0.87564019  1
  Co  Co116  1  0.87550870  0.12655382  0.63089104  1
  Co  Co117  1  -0.00185164  0.75173166  0.50204833  1
  Co  Co118  1  0.37501378  0.87594309  0.62572253  1
  Co  Co119  1  -0.00381058  0.24534726  0.49877128  1
  Co  Co120  1  0.87775306  0.87560723  0.37225678  1
  Co  Co121  1  0.24938357  0.49632295  0.74439170  1
  Co  Co122  1  0.12502849  0.62239529  0.87225064  1
  Co  Co123  1  0.00236357  0.74956056  0.24878937  1
  Co  Co124  1  0.12792082  0.12338949  0.12558970  1
  Co  Co125  1  0.12484005  0.87748390  0.62307333  1
  Co  Co126  1  0.62642063  0.12517138  0.62611010  1
  Co  Co127  1  0.50476981  0.24485624  0.49707655  1
