# generated using pymatgen
data_Fe45Co19
_symmetry_space_group_name_H-M   'P 1'
_cell_length_a   11.41550131
_cell_length_b   11.41438508
_cell_length_c   11.41506113
_cell_angle_alpha   89.99240797
_cell_angle_beta   89.99689535
_cell_angle_gamma   89.99317776
_symmetry_Int_Tables_number   1
_chemical_formula_structural   Fe45Co19
_chemical_formula_sum   'Fe90 Co38'
_cell_volume   1487.39302992
_cell_formula_units_Z   2
loop_
 _symmetry_equiv_pos_site_id
 _symmetry_equiv_pos_as_xyz
  1  'x, y, z'
loop_
 _atom_site_type_symbol
 _atom_site_label
 _atom_site_symmetry_multiplicity
 _atom_site_fract_x
 _atom_site_fract_y
 _atom_site_fract_z
 _atom_site_occupancy
  Fe  Fe0  1  0.87620813  0.62571561  0.12496532  1
  Fe  Fe1  1  -0.00038845  0.00070947  0.75165178  1
  Fe  Fe2  1  0.00112307  0.50038908  0.00024936  1
  Fe  Fe3  1  0.62308225  0.37549713  0.87444493  1
  Fe  Fe4  1  0.24843405  0.00300527  0.50052705  1
  Fe  Fe5  1  0.87857898  0.62625456  0.37248290  1
  Fe  Fe6  1  0.62532422  0.87529688  0.37627908  1
  Fe  Fe7  1  0.37608042  0.62413793  0.62634043  1
  Fe  Fe8  1  0.00074553  0.74838059  0.74998417  1
  Fe  Fe9  1  0.62451235  0.62284204  0.12552763  1
  Fe  Fe10  1  0.24931928  0.25030123  0.75088667  1
  Fe  Fe11  1  0.12502002  0.87824776  0.12623264  1
  Fe  Fe12  1  0.74584034  0.24863000  0.00265923  1
  Fe  Fe13  1  0.62267210  0.12496298  0.62693977  1
  Fe  Fe14  1  0.87414943  0.62200669  0.62562259  1
  Fe  Fe15  1  0.25160095  0.50327250  -0.00204702  1
  Fe  Fe16  1  0.87658311  0.87571349  0.12340608  1
  Fe  Fe17  1  0.37607965  0.87645968  0.12355656  1
  Fe  Fe18  1  0.62226697  0.88003484  0.12403953  1
  Fe  Fe19  1  0.37445718  0.12560815  0.62565956  1
  Fe  Fe20  1  0.62302553  0.62751827  0.87146639  1
  Fe  Fe21  1  0.12752391  0.37622959  0.37135993  1
  Fe  Fe22  1  0.00346821  0.24995361  0.00049625  1
  Fe  Fe23  1  0.12818612  0.87267303  0.87287128  1
  Fe  Fe24  1  0.12679723  0.87790001  0.62603628  1
  Fe  Fe25  1  0.75108118  0.00304497  0.50113038  1
  Fe  Fe26  1  0.87344007  0.37478192  0.62495389  1
  Fe  Fe27  1  0.74643578  0.24876982  0.24523722  1
  Fe  Fe28  1  0.87701821  0.12343893  0.12313158  1
  Fe  Fe29  1  -0.00259205  0.49915414  0.75355772  1
  Fe  Fe30  1  0.75102531  0.49955827  0.25124425  1
  Fe  Fe31  1  0.49999963  0.75161077  0.24942316  1
  Fe  Fe32  1  0.87348215  0.37202697  0.37462470  1
  Fe  Fe33  1  0.49635661  0.49897621  0.24903226  1
  Fe  Fe34  1  0.25104028  0.00401864  0.24972166  1
  Fe  Fe35  1  0.62344764  0.12554797  0.87328701  1
  Fe  Fe36  1  0.74978323  0.50195258  -0.00263350  1
  Fe  Fe37  1  0.00291402  0.74984065  0.00045630  1
  Fe  Fe38  1  0.87296161  0.37461549  0.12292051  1
  Fe  Fe39  1  0.25536806  0.50093755  0.75468779  1
  Fe  Fe40  1  0.37168316  0.86623770  0.87579962  1
  Fe  Fe41  1  0.00335562  0.74979169  0.49877204  1
  Fe  Fe42  1  0.62385326  0.37446872  0.37539364  1
  Fe  Fe43  1  0.62207337  0.62429114  0.37519873  1
  Fe  Fe44  1  0.62413563  0.12519879  0.37405310  1
  Fe  Fe45  1  0.50055196  0.24925221  0.24604511  1
  Fe  Fe46  1  0.00126349  0.24967691  0.25013240  1
  Fe  Fe47  1  0.49667103  -0.00276709  0.75298820  1
  Fe  Fe48  1  0.74938452  0.75083444  0.24813421  1
  Fe  Fe49  1  0.37462371  0.37351777  0.37581964  1
  Fe  Fe50  1  0.62762542  0.87773702  0.62703876  1
  Fe  Fe51  1  0.00030550  0.00113052  0.25325131  1
  Fe  Fe52  1  0.37191049  0.87515305  0.62549751  1
  Fe  Fe53  1  0.24764726  0.24858816  0.50015659  1
  Fe  Fe54  1  0.25103555  0.00207933  -0.00120145  1
  Fe  Fe55  1  0.74958910  0.00022362  -0.00259186  1
  Fe  Fe56  1  0.24698033  0.74618159  0.49823206  1
  Fe  Fe57  1  0.37620656  0.12720738  0.37530051  1
  Fe  Fe58  1  0.87512086  0.37354219  0.87760594  1
  Fe  Fe59  1  0.87470564  0.87596566  0.62550039  1
  Fe  Fe60  1  0.74871154  0.24921566  0.50066471  1
  Fe  Fe61  1  0.75082005  0.00028903  0.25061194  1
  Fe  Fe62  1  0.12926609  0.37492524  0.12705887  1
  Fe  Fe63  1  0.87932727  0.12790032  0.62533945  1
  Fe  Fe64  1  0.12409894  0.12435368  0.87392301  1
  Fe  Fe65  1  0.12695477  0.37594892  0.87552710  1
  Fe  Fe66  1  0.75100663  0.25068001  0.75033530  1
  Fe  Fe67  1  0.87521719  0.87427600  0.37664968  1
  Fe  Fe68  1  0.49707266  0.50256726  -0.00358869  1
  Fe  Fe69  1  0.49946464  0.00033928  0.49948080  1
  Fe  Fe70  1  0.00174535  0.00326015  0.49801890  1
  Fe  Fe71  1  0.49789265  0.25676955  0.74508900  1
  Fe  Fe72  1  -0.00071685  0.49704103  0.49771235  1
  Fe  Fe73  1  0.87614653  0.12637501  0.87617530  1
  Fe  Fe74  1  0.12349533  0.62241444  0.13006851  1
  Fe  Fe75  1  0.74989661  0.74763978  0.50131495  1
  Fe  Fe76  1  0.37285662  0.37254634  0.12154353  1
  Fe  Fe77  1  0.24901364  0.74729869  0.25266733  1
  Fe  Fe78  1  0.50309407  0.24890301  0.00380177  1
  Fe  Fe79  1  0.12570514  0.37514030  0.62645822  1
  Fe  Fe80  1  0.49978060  0.49578958  0.50334550  1
  Fe  Fe81  1  0.25007806  0.50279904  0.49613010  1
  Fe  Fe82  1  0.37369668  0.87338338  0.37645306  1
  Fe  Fe83  1  0.62652635  0.61897150  0.62864737  1
  Fe  Fe84  1  0.62761727  0.87228454  0.87278193  1
  Fe  Fe85  1  0.37517897  0.62771640  0.12357439  1
  Fe  Fe86  1  0.37615981  0.12890816  0.87625220  1
  Fe  Fe87  1  0.50128019  0.75099891  0.50378271  1
  Fe  Fe88  1  0.87276502  0.87150061  0.87412500  1
  Fe  Fe89  1  0.12395408  0.62126489  0.62672556  1
  Co  Co90  1  0.49521829  0.49607939  0.75101167  1
  Co  Co91  1  0.37968784  0.62619038  0.37765497  1
  Co  Co92  1  0.24602595  0.24636915  0.00051553  1
  Co  Co93  1  0.25257244  0.00179951  0.75270051  1
  Co  Co94  1  0.75195490  0.00304245  0.74994339  1
  Co  Co95  1  0.62426240  0.38049944  0.12345936  1
  Co  Co96  1  0.37561900  0.63263124  0.87461017  1
  Co  Co97  1  0.00267280  0.25233675  0.49815678  1
  Co  Co98  1  0.37801292  0.12392089  0.12213578  1
  Co  Co99  1  0.00115547  -0.00199247  -0.00391414  1
  Co  Co100  1  0.75136708  0.50082299  0.49529313  1
  Co  Co101  1  0.49745077  -0.00253870  -0.00706576  1
  Co  Co102  1  0.12243112  0.12288549  0.12490892  1
  Co  Co103  1  0.25177198  0.24687870  0.24788426  1
  Co  Co104  1  0.36901812  0.37561990  0.62254801  1
  Co  Co105  1  0.12537269  0.12592993  0.37439608  1
  Co  Co106  1  0.37493243  0.37054046  0.88027512  1
  Co  Co107  1  0.25548191  0.50192701  0.25070209  1
  Co  Co108  1  0.87405638  0.12684699  0.37410457  1
  Co  Co109  1  0.12076469  0.62203955  0.37087428  1
  Co  Co110  1  0.74812211  0.75015497  0.00310835  1
  Co  Co111  1  0.00085395  0.25219329  0.75217474  1
  Co  Co112  1  0.24491564  0.74830772  0.00493927  1
  Co  Co113  1  0.00139569  0.75405508  0.24976813  1
  Co  Co114  1  0.24764564  0.74684624  0.74545937  1
  Co  Co115  1  0.87594408  0.62820895  0.87738437  1
  Co  Co116  1  0.12733140  0.87680166  0.37570572  1
  Co  Co117  1  0.63035947  0.37777685  0.62545931  1
  Co  Co118  1  0.50007375  0.25155199  0.50302556  1
  Co  Co119  1  0.62234630  0.11743758  0.12409539  1
  Co  Co120  1  -0.00307134  0.49467626  0.24886582  1
  Co  Co121  1  0.50342466  0.75102688  0.00219230  1
  Co  Co122  1  0.50095284  0.75227541  0.74622535  1
  Co  Co123  1  0.12571943  0.62507582  0.87398384  1
  Co  Co124  1  0.49751073  -0.00006524  0.25382563  1
  Co  Co125  1  0.75124528  0.74766316  0.74642228  1
  Co  Co126  1  0.12369202  0.12550772  0.62765259  1
  Co  Co127  1  0.75242852  0.49884984  0.75530768  1
