# generated using pymatgen
data_Fe45Co19
_symmetry_space_group_name_H-M   'P 1'
_cell_length_a   11.41546680
_cell_length_b   11.41469573
_cell_length_c   11.41553879
_cell_angle_alpha   89.99974013
_cell_angle_beta   89.99304572
_cell_angle_gamma   89.99576699
_symmetry_Int_Tables_number   1
_chemical_formula_structural   Fe45Co19
_chemical_formula_sum   'Fe90 Co38'
_cell_volume   1487.49126565
_cell_formula_units_Z   2
loop_
 _symmetry_equiv_pos_site_id
 _symmetry_equiv_pos_as_xyz
  1  'x, y, z'
loop_
 _atom_site_type_symbol
 _atom_site_label
 _atom_site_symmetry_multiplicity
 _atom_site_fract_x
 _atom_site_fract_y
 _atom_site_fract_z
 _atom_site_occupancy
  Fe  Fe0  1  0.00238325  0.00069571  0.75021517  1
  Fe  Fe1  1  0.00317835  0.75075654  0.75075392  1
  Fe  Fe2  1  0.37234423  0.62347734  0.12395222  1
  Fe  Fe3  1  0.50329567  0.75256072  0.24790243  1
  Fe  Fe4  1  0.75094397  0.49733672  0.74964180  1
  Fe  Fe5  1  0.62360371  0.37590541  0.87807926  1
  Fe  Fe6  1  0.62760165  0.37358724  0.62293581  1
  Fe  Fe7  1  0.75046675  0.24639142  0.49528995  1
  Fe  Fe8  1  0.49965149  0.24662184  0.50092156  1
  Fe  Fe9  1  0.87622196  0.62588377  0.37101536  1
  Fe  Fe10  1  0.12517012  0.12667119  0.11958584  1
  Fe  Fe11  1  0.12571913  0.62460481  0.12194245  1
  Fe  Fe12  1  0.12650136  0.37791191  0.62017590  1
  Fe  Fe13  1  0.86962801  0.12727470  0.63219022  1
  Fe  Fe14  1  -0.00029830  0.75060255  0.49882432  1
  Fe  Fe15  1  -0.00057502  0.75259243  0.00101217  1
  Fe  Fe16  1  0.75816711  0.00315705  0.00015977  1
  Fe  Fe17  1  0.37650457  0.12440241  0.37271035  1
  Fe  Fe18  1  0.49827636  0.49925150  0.50019493  1
  Fe  Fe19  1  0.62654274  0.37302705  0.12276076  1
  Fe  Fe20  1  0.50048816  0.49879887  0.75033430  1
  Fe  Fe21  1  0.25242433  -0.00063181  0.50142572  1
  Fe  Fe22  1  0.62774138  0.87951447  0.62213614  1
  Fe  Fe23  1  0.12697284  0.87786736  0.87836092  1
  Fe  Fe24  1  -0.00100210  0.49793539  0.00037313  1
  Fe  Fe25  1  0.62644659  0.62401606  0.62422758  1
  Fe  Fe26  1  0.37298930  0.87575616  0.62814233  1
  Fe  Fe27  1  -0.00062771  0.24905676  0.50346730  1
  Fe  Fe28  1  0.74746311  0.75195676  0.75177582  1
  Fe  Fe29  1  0.24830662  0.49627758  0.25286514  1
  Fe  Fe30  1  0.50509348  0.24705283  0.75065128  1
  Fe  Fe31  1  0.24659037  0.24853903  0.75067932  1
  Fe  Fe32  1  0.37249486  0.62400204  0.87779203  1
  Fe  Fe33  1  0.24695294  0.75005773  0.25032061  1
  Fe  Fe34  1  0.49356956  0.00403749  0.00389628  1
  Fe  Fe35  1  0.12333726  0.12376169  0.37809224  1
  Fe  Fe36  1  0.50210975  0.75099594  0.75148430  1
  Fe  Fe37  1  0.12751421  0.12228523  0.62269431  1
  Fe  Fe38  1  0.87431765  0.87602106  0.62737695  1
  Fe  Fe39  1  0.87493584  0.62576574  0.62696070  1
  Fe  Fe40  1  0.74670374  0.75397437  0.24859589  1
  Fe  Fe41  1  0.75514723  0.49759883  0.49906247  1
  Fe  Fe42  1  0.50068211  0.49871801  0.24843475  1
  Fe  Fe43  1  0.75421593  0.49833720  -0.00023963  1
  Fe  Fe44  1  0.12290003  0.37373820  0.87613623  1
  Fe  Fe45  1  0.87739005  0.87560652  0.37117854  1
  Fe  Fe46  1  0.24679956  0.75032426  0.75113581  1
  Fe  Fe47  1  0.50017951  0.75229474  0.50064569  1
  Fe  Fe48  1  0.75087999  0.49779095  0.24908488  1
  Fe  Fe49  1  0.37382408  0.37386802  0.12474398  1
  Fe  Fe50  1  0.87595463  0.36833345  0.12910830  1
  Fe  Fe51  1  0.87851878  0.37017162  0.86829849  1
  Fe  Fe52  1  -0.00456530  0.00125875  0.50229196  1
  Fe  Fe53  1  0.37293501  0.87854764  0.87385795  1
  Fe  Fe54  1  0.24732215  0.50106086  0.75233897  1
  Fe  Fe55  1  0.37328004  0.87487116  0.12674001  1
  Fe  Fe56  1  0.49908625  0.74980687  0.00128217  1
  Fe  Fe57  1  0.88020436  0.37066459  0.37065517  1
  Fe  Fe58  1  0.62547878  0.62414573  0.37561914  1
  Fe  Fe59  1  -0.00107089  0.00348029  0.24597754  1
  Fe  Fe60  1  0.12353650  0.62285555  0.62316529  1
  Fe  Fe61  1  0.12444103  0.12401676  0.87941694  1
  Fe  Fe62  1  0.24904362  0.00238869  0.24808189  1
  Fe  Fe63  1  0.62632822  0.62325469  0.87673188  1
  Fe  Fe64  1  0.12289523  0.87800566  0.37540834  1
  Fe  Fe65  1  0.12214826  0.62072437  0.37595744  1
  Fe  Fe66  1  0.75429985  0.24778191  -0.00380604  1
  Fe  Fe67  1  0.37459960  0.62513858  0.62511541  1
  Fe  Fe68  1  0.37558335  0.87695015  0.37294895  1
  Fe  Fe69  1  0.49590838  0.24713942  -0.00093385  1
  Fe  Fe70  1  0.24613782  0.25146118  0.25488483  1
  Fe  Fe71  1  0.75109629  0.75213750  0.49869561  1
  Fe  Fe72  1  0.37467246  0.37447668  0.87519958  1
  Fe  Fe73  1  0.62690211  0.62444791  0.12216309  1
  Fe  Fe74  1  0.24831575  0.75119478  0.49950458  1
  Fe  Fe75  1  0.50406989  0.00314289  0.74926991  1
  Fe  Fe76  1  0.62317403  0.88222115  0.37685423  1
  Fe  Fe77  1  0.12419654  0.87693020  0.12321187  1
  Fe  Fe78  1  0.62418999  0.37507059  0.37508265  1
  Fe  Fe79  1  0.37269848  0.37355894  0.62466595  1
  Fe  Fe80  1  0.75184599  0.00365422  0.24992383  1
  Fe  Fe81  1  0.62536739  0.87801062  0.88070709  1
  Fe  Fe82  1  0.37643920  0.62556191  0.37396156  1
  Fe  Fe83  1  0.87539759  0.62823620  0.12641774  1
  Fe  Fe84  1  0.50270209  0.24886512  0.25039391  1
  Fe  Fe85  1  0.62683122  0.12517665  0.12359053  1
  Fe  Fe86  1  0.87710576  0.62499882  0.87341971  1
  Fe  Fe87  1  0.37265582  0.12548473  0.62856489  1
  Fe  Fe88  1  0.12415250  0.37201836  0.12330806  1
  Fe  Fe89  1  0.87500291  0.87591024  0.87442567  1
  Co  Co90  1  0.25418833  0.00272124  0.00257431  1
  Co  Co91  1  0.37200751  0.13056707  0.12975801  1
  Co  Co92  1  0.25078652  0.75331179  0.00026141  1
  Co  Co93  1  0.37731485  0.37278718  0.37541561  1
  Co  Co94  1  0.75702461  0.00264487  0.49664217  1
  Co  Co95  1  0.49912666  0.50033560  0.00112596  1
  Co  Co96  1  0.87839711  0.12726925  0.86845061  1
  Co  Co97  1  0.00654629  0.24702942  0.24982806  1
  Co  Co98  1  0.49964621  0.00025571  0.24489587  1
  Co  Co99  1  0.62066418  0.11969995  0.37628572  1
  Co  Co100  1  0.63018040  0.12304732  0.62149361  1
  Co  Co101  1  0.24805623  0.49633181  -0.00054989  1
  Co  Co102  1  -0.00481184  0.00105625  0.00121121  1
  Co  Co103  1  -0.00300619  0.24918236  -0.00127328  1
  Co  Co104  1  0.25324441  0.49978308  0.49642972  1
  Co  Co105  1  0.37275749  0.12404386  0.87003780  1
  Co  Co106  1  0.75163937  0.74986148  -0.00065226  1
  Co  Co107  1  0.00054778  0.49898790  0.24695085  1
  Co  Co108  1  0.87235812  0.36829449  0.62904781  1
  Co  Co109  1  0.87946985  0.12815680  0.37189144  1
  Co  Co110  1  0.49465034  0.00184924  0.50435824  1
  Co  Co111  1  0.74184675  0.24875765  0.75483534  1
  Co  Co112  1  0.11968254  0.37584779  0.37953402  1
  Co  Co113  1  -0.00716373  0.49866869  0.50172502  1
  Co  Co114  1  0.12348060  0.62557238  0.87851356  1
  Co  Co115  1  0.87547480  0.87302972  0.12793014  1
  Co  Co116  1  0.12397584  0.87534949  0.62307204  1
  Co  Co117  1  0.00401145  0.75012650  0.24933924  1
  Co  Co118  1  0.62723812  0.87958135  0.12052476  1
  Co  Co119  1  0.25023631  0.24830093  0.49763144  1
  Co  Co120  1  0.24550418  0.00092621  0.74975265  1
  Co  Co121  1  0.00726561  0.24796930  0.74615163  1
  Co  Co122  1  0.74685798  0.00013687  0.75400636  1
  Co  Co123  1  0.00098998  0.49830831  0.74826354  1
  Co  Co124  1  0.62460525  0.12252893  0.88119503  1
  Co  Co125  1  0.74599268  0.24679454  0.25356209  1
  Co  Co126  1  0.87575445  0.13073901  0.12760071  1
  Co  Co127  1  0.25240951  0.24896049  -0.00242096  1
