# generated using pymatgen
data_Fe45Co19
_symmetry_space_group_name_H-M   'P 1'
_cell_length_a   11.41585195
_cell_length_b   11.41425379
_cell_length_c   11.41445051
_cell_angle_alpha   89.99823980
_cell_angle_beta   90.00124750
_cell_angle_gamma   89.99881404
_symmetry_Int_Tables_number   1
_chemical_formula_structural   Fe45Co19
_chemical_formula_sum   'Fe90 Co38'
_cell_volume   1487.34206740
_cell_formula_units_Z   2
loop_
 _symmetry_equiv_pos_site_id
 _symmetry_equiv_pos_as_xyz
  1  'x, y, z'
loop_
 _atom_site_type_symbol
 _atom_site_label
 _atom_site_symmetry_multiplicity
 _atom_site_fract_x
 _atom_site_fract_y
 _atom_site_fract_z
 _atom_site_occupancy
  Fe  Fe0  1  0.12504255  0.62623334  0.12580785  1
  Fe  Fe1  1  0.50364977  0.25292906  0.25383692  1
  Fe  Fe2  1  0.37525402  0.62406895  0.62656472  1
  Fe  Fe3  1  0.50142509  0.50372600  0.49776370  1
  Fe  Fe4  1  0.87293205  0.87725104  0.87214302  1
  Fe  Fe5  1  0.87353164  0.37603190  0.62390424  1
  Fe  Fe6  1  0.62536996  0.37367887  0.87859095  1
  Fe  Fe7  1  0.75156386  0.74837245  0.74673796  1
  Fe  Fe8  1  0.87464576  0.62319752  0.87532513  1
  Fe  Fe9  1  0.87427104  0.37465753  0.87383799  1
  Fe  Fe10  1  0.75047042  0.00149397  -0.00003196  1
  Fe  Fe11  1  0.87456514  0.12473777  0.37331518  1
  Fe  Fe12  1  0.24888113  0.50257067  0.25313897  1
  Fe  Fe13  1  0.24742459  0.00337212  0.24654846  1
  Fe  Fe14  1  0.12502626  0.87403819  0.62466694  1
  Fe  Fe15  1  0.37757506  0.12201963  0.37051476  1
  Fe  Fe16  1  0.75227295  0.24923020  0.00122763  1
  Fe  Fe17  1  0.49607212  0.24849463  -0.00136619  1
  Fe  Fe18  1  0.37526431  0.37679283  0.87243664  1
  Fe  Fe19  1  0.62648485  0.62422011  0.12706761  1
  Fe  Fe20  1  0.12459035  0.12912355  0.87932592  1
  Fe  Fe21  1  0.87506954  0.87543594  0.12418182  1
  Fe  Fe22  1  0.50219496  0.49883592  0.74875338  1
  Fe  Fe23  1  0.25165952  0.74772409  0.75157218  1
  Fe  Fe24  1  0.62366579  0.37193457  0.61936868  1
  Fe  Fe25  1  0.87592433  0.12477153  0.87169708  1
  Fe  Fe26  1  0.12577089  0.87560224  0.37463057  1
  Fe  Fe27  1  0.24926707  0.25151541  0.74991637  1
  Fe  Fe28  1  0.37359605  0.37247998  0.12852773  1
  Fe  Fe29  1  0.62541780  0.87436649  0.12237456  1
  Fe  Fe30  1  0.00397791  0.25014390  0.25274857  1
  Fe  Fe31  1  0.12759423  0.87390027  0.12236410  1
  Fe  Fe32  1  0.74753464  -0.00010171  0.24959368  1
  Fe  Fe33  1  0.12372454  0.62568034  0.62442869  1
  Fe  Fe34  1  0.62258318  0.12608666  0.12509606  1
  Fe  Fe35  1  0.50098954  0.74768788  0.49800404  1
  Fe  Fe36  1  0.37331370  0.62656062  0.12593238  1
  Fe  Fe37  1  0.74802445  0.50340643  0.49783037  1
  Fe  Fe38  1  -0.00217075  0.75045885  0.74888427  1
  Fe  Fe39  1  0.37576018  0.87573852  0.62563664  1
  Fe  Fe40  1  0.62615943  0.87337717  0.87762749  1
  Fe  Fe41  1  0.87663491  0.12164607  0.62880519  1
  Fe  Fe42  1  0.74708672  0.49960046  0.74851954  1
  Fe  Fe43  1  0.25168518  0.00112812  0.50031443  1
  Fe  Fe44  1  0.62264408  0.12757608  0.62112337  1
  Fe  Fe45  1  -0.00171671  0.25045550  0.49887605  1
  Fe  Fe46  1  0.00245033  0.00101937  0.24860324  1
  Fe  Fe47  1  0.12629042  0.37451161  0.62223030  1
  Fe  Fe48  1  0.37724918  0.12548911  0.62846834  1
  Fe  Fe49  1  0.75137179  0.50064210  0.00387329  1
  Fe  Fe50  1  0.12526138  0.62326111  0.87456538  1
  Fe  Fe51  1  0.87570147  0.12662714  0.12751622  1
  Fe  Fe52  1  0.75177432  0.75048462  0.24808324  1
  Fe  Fe53  1  0.25222275  0.24802263  0.49627490  1
  Fe  Fe54  1  0.00072159  0.49891543  0.49796997  1
  Fe  Fe55  1  0.87471117  0.37432301  0.12785218  1
  Fe  Fe56  1  0.00064014  0.49864473  0.25122230  1
  Fe  Fe57  1  0.62742003  0.87336733  0.37574507  1
  Fe  Fe58  1  0.24905947  0.50318837  0.49809091  1
  Fe  Fe59  1  0.37603185  0.37492562  0.62436532  1
  Fe  Fe60  1  0.50011646  -0.00029132  0.49777208  1
  Fe  Fe61  1  0.50353208  0.00099525  0.75173885  1
  Fe  Fe62  1  -0.00088980  0.49826654  0.00236162  1
  Fe  Fe63  1  0.87382851  0.62441457  0.37314248  1
  Fe  Fe64  1  0.37360657  0.87568539  0.37355329  1
  Fe  Fe65  1  -0.00010782  0.75136445  0.24997440  1
  Fe  Fe66  1  0.00113856  0.49737909  0.74884508  1
  Fe  Fe67  1  0.49738668  0.00235738  0.00085874  1
  Fe  Fe68  1  0.37497857  0.37745754  0.37433089  1
  Fe  Fe69  1  -0.00035937  0.00159509  0.00045605  1
  Fe  Fe70  1  0.49904992  0.50116262  0.00263591  1
  Fe  Fe71  1  0.25043058  0.50020927  -0.00050289  1
  Fe  Fe72  1  -0.00212477  0.74901281  0.00011502  1
  Fe  Fe73  1  0.49898814  0.74906399  0.75124043  1
  Fe  Fe74  1  0.74755064  0.24906911  0.74835457  1
  Fe  Fe75  1  -0.00218920  -0.00253489  0.49934005  1
  Fe  Fe76  1  0.12722392  0.87431561  0.87829391  1
  Fe  Fe77  1  -0.00562233  0.75278352  0.50057729  1
  Fe  Fe78  1  0.74568064  0.25365308  0.25340530  1
  Fe  Fe79  1  0.12399020  0.12505937  0.62343278  1
  Fe  Fe80  1  0.25102593  0.74843717  0.49759816  1
  Fe  Fe81  1  0.12480849  0.37321650  0.87726492  1
  Fe  Fe82  1  0.62589091  0.87329436  0.62369214  1
  Fe  Fe83  1  0.37213440  0.87438546  0.12360720  1
  Fe  Fe84  1  0.37410832  0.87499917  0.87744197  1
  Fe  Fe85  1  0.24708462  0.00022509  0.75096928  1
  Fe  Fe86  1  0.49840479  0.75139844  0.24941272  1
  Fe  Fe87  1  0.62464081  0.62595751  0.87633300  1
  Fe  Fe88  1  0.75133475  -0.00069859  0.49987566  1
  Fe  Fe89  1  0.12803633  0.37055367  0.12519481  1
  Co  Co90  1  0.37521270  0.12420767  0.86944425  1
  Co  Co91  1  0.37780006  0.12795007  0.13098219  1
  Co  Co92  1  0.49905960  0.74838517  0.00196724  1
  Co  Co93  1  0.50317206  0.25179306  0.75051573  1
  Co  Co94  1  0.87440501  0.37496963  0.37555572  1
  Co  Co95  1  -0.00466625  0.25215672  0.00089716  1
  Co  Co96  1  0.12476597  0.13007772  0.12027716  1
  Co  Co97  1  0.87314623  0.87604755  0.37218058  1
  Co  Co98  1  0.25642574  0.24917357  -0.00122405  1
  Co  Co99  1  0.37696919  0.62498008  0.37341446  1
  Co  Co100  1  0.12675554  0.37538299  0.37587100  1
  Co  Co101  1  0.25028741  0.74626658  -0.00151677  1
  Co  Co102  1  0.87565450  0.62398492  0.12703255  1
  Co  Co103  1  0.37684467  0.62221042  0.87430432  1
  Co  Co104  1  0.62405915  0.37357092  0.12150946  1
  Co  Co105  1  0.62389111  0.62618671  0.62587821  1
  Co  Co106  1  0.74828261  0.49535685  0.24966778  1
  Co  Co107  1  0.87399952  0.88010297  0.63041280  1
  Co  Co108  1  0.12365974  0.12235503  0.37802915  1
  Co  Co109  1  0.00631209  -0.00017583  0.75270042  1
  Co  Co110  1  0.49557366  0.24796216  0.49545755  1
  Co  Co111  1  0.62553525  0.12374082  0.37607861  1
  Co  Co112  1  0.25265539  0.00482149  0.00165892  1
  Co  Co113  1  0.62405247  0.37673688  0.38006957  1
  Co  Co114  1  0.24742812  0.24668782  0.25451790  1
  Co  Co115  1  0.75253908  0.74918769  0.50240663  1
  Co  Co116  1  0.87615109  0.62097190  0.62436812  1
  Co  Co117  1  0.62454234  0.12730669  0.87893659  1
  Co  Co118  1  0.00051462  0.25196884  0.74842106  1
  Co  Co119  1  0.12170937  0.62725605  0.37569251  1
  Co  Co120  1  0.24976232  0.74953255  0.25182766  1
  Co  Co121  1  0.74339528  0.00302493  0.74998970  1
  Co  Co122  1  0.75327097  0.24774190  0.49952968  1
  Co  Co123  1  0.75212141  0.74892908  0.00120679  1
  Co  Co124  1  0.50222559  -0.00372011  0.24940705  1
  Co  Co125  1  0.24834787  0.49952133  0.74938053  1
  Co  Co126  1  0.62631026  0.62601284  0.37003175  1
  Co  Co127  1  0.50054081  0.49887325  0.24877991  1
