# generated using pymatgen
data_Fe45Co19
_symmetry_space_group_name_H-M   'P 1'
_cell_length_a   11.41588375
_cell_length_b   11.41459944
_cell_length_c   11.41509123
_cell_angle_alpha   89.99932542
_cell_angle_beta   90.01033597
_cell_angle_gamma   90.00091802
_symmetry_Int_Tables_number   1
_chemical_formula_structural   Fe45Co19
_chemical_formula_sum   'Fe90 Co38'
_cell_volume   1487.47471732
_cell_formula_units_Z   2
loop_
 _symmetry_equiv_pos_site_id
 _symmetry_equiv_pos_as_xyz
  1  'x, y, z'
loop_
 _atom_site_type_symbol
 _atom_site_label
 _atom_site_symmetry_multiplicity
 _atom_site_fract_x
 _atom_site_fract_y
 _atom_site_fract_z
 _atom_site_occupancy
  Fe  Fe0  1  0.74916219  0.49950702  0.49770352  1
  Fe  Fe1  1  0.75050726  0.50117491  0.00115683  1
  Fe  Fe2  1  0.37722253  0.37154445  0.87339220  1
  Fe  Fe3  1  0.12497249  0.87994311  0.12842691  1
  Fe  Fe4  1  0.50077120  0.00093225  0.74898827  1
  Fe  Fe5  1  0.87753023  0.62496505  0.37599554  1
  Fe  Fe6  1  0.24980777  0.24905315  -0.00090113  1
  Fe  Fe7  1  0.24857388  0.75144418  0.00036670  1
  Fe  Fe8  1  0.50182780  0.74974770  0.49938186  1
  Fe  Fe9  1  0.25251042  0.00143548  0.49252064  1
  Fe  Fe10  1  0.12358894  0.37326102  0.37676477  1
  Fe  Fe11  1  0.74892413  0.74841076  0.00078706  1
  Fe  Fe12  1  0.37314287  0.62556493  0.62479371  1
  Fe  Fe13  1  0.62522388  0.12380872  0.12369396  1
  Fe  Fe14  1  0.75257142  0.00125383  0.25026907  1
  Fe  Fe15  1  0.50053019  0.25164392  0.50059917  1
  Fe  Fe16  1  0.24747162  0.24676748  0.25179080  1
  Fe  Fe17  1  0.49846400  0.00035689  0.49689580  1
  Fe  Fe18  1  0.87682454  0.12418634  0.87333318  1
  Fe  Fe19  1  0.24945224  0.49961800  0.49992966  1
  Fe  Fe20  1  0.37455733  0.12717201  0.62443483  1
  Fe  Fe21  1  0.12257649  0.12490191  0.87539825  1
  Fe  Fe22  1  0.62954424  0.37202755  0.62681969  1
  Fe  Fe23  1  0.37403348  0.87812227  0.12990325  1
  Fe  Fe24  1  0.62728158  0.87515709  0.62410644  1
  Fe  Fe25  1  0.87288298  0.62645363  0.62296611  1
  Fe  Fe26  1  0.24826835  0.00159297  0.75069046  1
  Fe  Fe27  1  -0.00058365  0.49827160  0.50308728  1
  Fe  Fe28  1  0.62623793  0.87561189  0.87385501  1
  Fe  Fe29  1  0.87781264  0.87469343  0.37464819  1
  Fe  Fe30  1  0.12297486  0.62312961  0.87354567  1
  Fe  Fe31  1  0.12717187  0.37597169  0.62734926  1
  Fe  Fe32  1  0.37507644  0.62430881  0.37596174  1
  Fe  Fe33  1  0.50080272  0.74971566  0.24981547  1
  Fe  Fe34  1  0.37556440  0.37362530  0.37451066  1
  Fe  Fe35  1  0.50152217  0.49808773  0.50108646  1
  Fe  Fe36  1  0.12282605  0.37666833  0.87194680  1
  Fe  Fe37  1  0.00129987  -0.00150534  0.74896816  1
  Fe  Fe38  1  0.00007389  0.24765451  0.24926319  1
  Fe  Fe39  1  0.37473142  0.12290661  0.12844879  1
  Fe  Fe40  1  0.37353616  0.62449769  0.12506672  1
  Fe  Fe41  1  0.50172575  0.75006090  0.00125387  1
  Fe  Fe42  1  0.37634187  0.62573591  0.87508631  1
  Fe  Fe43  1  0.75169161  0.00015851  -0.00024426  1
  Fe  Fe44  1  0.87532893  0.12677408  0.12544719  1
  Fe  Fe45  1  0.62620984  0.37599841  0.12414624  1
  Fe  Fe46  1  0.37411885  0.87591985  0.87390510  1
  Fe  Fe47  1  0.62630169  0.87550420  0.12625282  1
  Fe  Fe48  1  0.74970145  0.24971214  -0.00125654  1
  Fe  Fe49  1  0.50120798  0.49919966  0.75009109  1
  Fe  Fe50  1  0.24922723  0.00098699  -0.00089260  1
  Fe  Fe51  1  0.87372783  0.87450255  0.62335313  1
  Fe  Fe52  1  -0.00013280  0.25136670  0.00021282  1
  Fe  Fe53  1  0.12450517  0.37410569  0.12418678  1
  Fe  Fe54  1  0.24859276  0.49998834  0.25089429  1
  Fe  Fe55  1  -0.00079657  -0.00094022  0.00270970  1
  Fe  Fe56  1  0.37316846  0.87441465  0.62300822  1
  Fe  Fe57  1  0.62489420  0.62330563  0.37350806  1
  Fe  Fe58  1  0.12542176  0.87637307  0.62125668  1
  Fe  Fe59  1  0.62717262  0.12878653  0.37588650  1
  Fe  Fe60  1  0.37386214  0.37445941  0.12537021  1
  Fe  Fe61  1  0.24758300  0.75064299  0.75042661  1
  Fe  Fe62  1  0.50180256  0.49984065  -0.00040730  1
  Fe  Fe63  1  0.75138905  0.74901732  0.25055203  1
  Fe  Fe64  1  0.62509231  0.87526551  0.37502700  1
  Fe  Fe65  1  0.50285765  0.25076104  0.24811224  1
  Fe  Fe66  1  0.24846350  0.49864903  -0.00139510  1
  Fe  Fe67  1  0.87463883  0.37584612  0.87426308  1
  Fe  Fe68  1  0.87669029  0.62498550  0.87668999  1
  Fe  Fe69  1  0.62806868  0.62714297  0.62590413  1
  Fe  Fe70  1  0.50141700  0.75094257  0.74971373  1
  Fe  Fe71  1  0.00162582  0.75002787  0.00268632  1
  Fe  Fe72  1  0.75200643  0.49799378  0.24889169  1
  Fe  Fe73  1  -0.00174870  0.49822572  0.24638129  1
  Fe  Fe74  1  0.50004913  -0.00069059  0.00044795  1
  Fe  Fe75  1  0.87595761  0.87501537  0.87512508  1
  Fe  Fe76  1  0.37781857  0.12690813  0.87439400  1
  Fe  Fe77  1  0.12513223  0.12704766  0.62108929  1
  Fe  Fe78  1  0.74897012  0.00334833  0.74968050  1
  Fe  Fe79  1  0.24644433  0.75011462  0.25322616  1
  Fe  Fe80  1  0.37273040  0.37254376  0.62787112  1
  Fe  Fe81  1  0.24558824  0.74912605  0.49623479  1
  Fe  Fe82  1  -0.00265695  0.00256184  0.49669684  1
  Fe  Fe83  1  0.00143180  0.74918253  0.24916761  1
  Fe  Fe84  1  0.00029812  0.75019542  0.74690372  1
  Fe  Fe85  1  0.75025403  0.50117659  0.75273806  1
  Fe  Fe86  1  0.50009078  0.49852600  0.25045932  1
  Fe  Fe87  1  0.75147711  0.00255819  0.49934609  1
  Fe  Fe88  1  -0.00274174  0.25190798  0.74609567  1
  Fe  Fe89  1  0.87242218  0.36943040  0.37602728  1
  Co  Co90  1  0.50274043  0.00101499  0.25273268  1
  Co  Co91  1  0.62597025  0.37248756  0.87482873  1
  Co  Co92  1  0.12369248  0.87595167  0.87587019  1
  Co  Co93  1  -0.00355616  0.50061878  0.74681187  1
  Co  Co94  1  0.87530356  0.37242447  0.12380368  1
  Co  Co95  1  0.25081280  0.25150586  0.49866893  1
  Co  Co96  1  0.12183853  0.62098461  0.37469592  1
  Co  Co97  1  0.62747442  0.37241418  0.37586977  1
  Co  Co98  1  0.12005399  0.87747970  0.37476112  1
  Co  Co99  1  0.00173670  0.74790158  0.50144032  1
  Co  Co100  1  0.62314206  0.12617245  0.87644155  1
  Co  Co101  1  0.24798199  0.24763942  0.75154221  1
  Co  Co102  1  0.37789706  0.12939491  0.37311341  1
  Co  Co103  1  0.12590806  0.62309597  0.12553073  1
  Co  Co104  1  0.12444966  0.12383925  0.12314737  1
  Co  Co105  1  0.86927434  0.37677480  0.62543510  1
  Co  Co106  1  0.62560492  0.62325164  0.12737015  1
  Co  Co107  1  0.75279845  0.24670004  0.50498683  1
  Co  Co108  1  0.87703992  0.12261962  0.62573483  1
  Co  Co109  1  0.49957524  0.25023549  0.00366472  1
  Co  Co110  1  0.24792623  0.00320903  0.25671743  1
  Co  Co111  1  0.75203033  0.75080515  0.75114002  1
  Co  Co112  1  0.12650343  0.62257634  0.62628704  1
  Co  Co113  1  -0.00221474  0.00479574  0.25023540  1
  Co  Co114  1  0.87358604  0.13020860  0.37421163  1
  Co  Co115  1  0.75010429  0.75051684  0.49679482  1
  Co  Co116  1  0.62304262  0.12505049  0.62298955  1
  Co  Co117  1  0.75185433  0.24541840  0.74992384  1
  Co  Co118  1  0.62452218  0.62497235  0.87402444  1
  Co  Co119  1  0.00044773  0.49924147  0.00276859  1
  Co  Co120  1  0.12127050  0.12747883  0.37910674  1
  Co  Co121  1  0.25267488  0.50021116  0.75223366  1
  Co  Co122  1  0.37639246  0.87268873  0.37309045  1
  Co  Co123  1  -0.00310055  0.25315459  0.50436010  1
  Co  Co124  1  0.74884646  0.25017485  0.24634933  1
  Co  Co125  1  0.87529806  0.87407881  0.12561884  1
  Co  Co126  1  0.87543759  0.62542551  0.12482876  1
  Co  Co127  1  0.50294548  0.24909565  0.74858359  1
