# generated using pymatgen
data_Fe45Co19
_symmetry_space_group_name_H-M   'P 1'
_cell_length_a   11.41552771
_cell_length_b   11.41560506
_cell_length_c   11.41559959
_cell_angle_alpha   90.00288049
_cell_angle_beta   90.00372270
_cell_angle_gamma   90.00457113
_symmetry_Int_Tables_number   1
_chemical_formula_structural   Fe45Co19
_chemical_formula_sum   'Fe90 Co38'
_cell_volume   1487.62563075
_cell_formula_units_Z   2
loop_
 _symmetry_equiv_pos_site_id
 _symmetry_equiv_pos_as_xyz
  1  'x, y, z'
loop_
 _atom_site_type_symbol
 _atom_site_label
 _atom_site_symmetry_multiplicity
 _atom_site_fract_x
 _atom_site_fract_y
 _atom_site_fract_z
 _atom_site_occupancy
  Fe  Fe0  1  0.37252913  0.37389429  0.87298460  1
  Fe  Fe1  1  0.12602516  0.87651230  0.37477620  1
  Fe  Fe2  1  0.87556607  0.37207365  0.37957674  1
  Fe  Fe3  1  0.62398790  0.62242828  0.62683777  1
  Fe  Fe4  1  0.87487008  0.87343835  0.37314189  1
  Fe  Fe5  1  0.37319423  0.37521839  0.37331649  1
  Fe  Fe6  1  0.49876985  -0.00075241  0.50121109  1
  Fe  Fe7  1  0.87353936  0.12774015  0.87453055  1
  Fe  Fe8  1  0.00097620  0.24969547  0.75031046  1
  Fe  Fe9  1  0.74976256  0.25239395  -0.00055712  1
  Fe  Fe10  1  0.87657918  0.12668521  0.37794078  1
  Fe  Fe11  1  0.00626607  0.74854404  0.75251272  1
  Fe  Fe12  1  0.25233610  -0.00163867  0.50110844  1
  Fe  Fe13  1  0.62457033  0.87471811  0.37785032  1
  Fe  Fe14  1  0.87542652  0.87457962  0.87337003  1
  Fe  Fe15  1  0.37158700  0.62534910  0.62940592  1
  Fe  Fe16  1  0.12472962  0.37599272  0.87684156  1
  Fe  Fe17  1  0.62221380  0.12598300  0.12498810  1
  Fe  Fe18  1  0.12462421  0.62448068  0.12382825  1
  Fe  Fe19  1  0.37542212  0.12626192  0.87372874  1
  Fe  Fe20  1  0.00272044  0.75001890  -0.00279743  1
  Fe  Fe21  1  0.62333035  0.87667572  0.12283319  1
  Fe  Fe22  1  0.24944455  0.75047253  0.50226443  1
  Fe  Fe23  1  0.87610326  0.12667328  0.62339216  1
  Fe  Fe24  1  0.24898839  0.24840631  0.00052589  1
  Fe  Fe25  1  0.25241858  -0.00047832  -0.00072792  1
  Fe  Fe26  1  -0.00319972  0.49906211  -0.00042783  1
  Fe  Fe27  1  0.74821485  0.74950975  -0.00122910  1
  Fe  Fe28  1  0.49979398  0.74963465  0.50269922  1
  Fe  Fe29  1  0.12543369  0.37464758  0.12462197  1
  Fe  Fe30  1  0.50178775  0.25086584  0.75123869  1
  Fe  Fe31  1  0.37627038  0.62763703  0.12433351  1
  Fe  Fe32  1  0.75200000  -0.00050441  0.50151302  1
  Fe  Fe33  1  0.87566265  0.62798392  0.12561076  1
  Fe  Fe34  1  0.24684268  0.24712222  0.25143085  1
  Fe  Fe35  1  0.37678263  0.12369738  0.12731234  1
  Fe  Fe36  1  0.74923891  0.00134256  -0.00152754  1
  Fe  Fe37  1  0.00125114  0.00167926  0.25012182  1
  Fe  Fe38  1  0.50052216  0.25099049  -0.00084252  1
  Fe  Fe39  1  0.00155054  0.75012364  0.49956100  1
  Fe  Fe40  1  0.12532048  0.12305293  0.87597595  1
  Fe  Fe41  1  0.62550539  0.62230256  0.37632036  1
  Fe  Fe42  1  0.37501158  0.37378278  0.62662623  1
  Fe  Fe43  1  0.49848858  0.49861176  0.50169195  1
  Fe  Fe44  1  0.74664406  0.74965882  0.75006001  1
  Fe  Fe45  1  0.87725620  0.62622779  0.62566969  1
  Fe  Fe46  1  0.25040506  0.49967398  0.50074613  1
  Fe  Fe47  1  0.62518928  0.12427339  0.62659062  1
  Fe  Fe48  1  0.62220382  0.87811599  0.87193153  1
  Fe  Fe49  1  -0.00004357  0.50022136  0.75012496  1
  Fe  Fe50  1  0.25262779  0.50069767  0.00074334  1
  Fe  Fe51  1  0.00478226  0.24813578  0.25238293  1
  Fe  Fe52  1  0.50009334  0.49675130  0.24859051  1
  Fe  Fe53  1  0.74732761  0.25152297  0.25119098  1
  Fe  Fe54  1  0.37499362  0.12724373  0.62566951  1
  Fe  Fe55  1  0.74775203  0.75005623  0.24880305  1
  Fe  Fe56  1  0.12407213  0.12135349  0.62368818  1
  Fe  Fe57  1  0.74970712  0.00088049  0.24982681  1
  Fe  Fe58  1  0.87366329  0.62399588  0.87420609  1
  Fe  Fe59  1  0.62487307  0.61988113  0.87554405  1
  Fe  Fe60  1  0.37212351  0.62767761  0.87257525  1
  Fe  Fe61  1  0.25006440  0.75128079  0.24865203  1
  Fe  Fe62  1  0.74971227  0.75047602  0.50197400  1
  Fe  Fe63  1  -0.00039020  0.49963296  0.25226933  1
  Fe  Fe64  1  0.50181795  0.75120690  0.25116059  1
  Fe  Fe65  1  0.37433016  0.12268382  0.37295050  1
  Fe  Fe66  1  0.87675494  0.37172182  0.12422266  1
  Fe  Fe67  1  0.74995792  0.49719751  0.24802537  1
  Fe  Fe68  1  0.50138229  0.25144893  0.49772919  1
  Fe  Fe69  1  0.62425324  0.12550511  0.37464524  1
  Fe  Fe70  1  0.24639735  0.24974035  0.74865229  1
  Fe  Fe71  1  0.62377123  0.62214601  0.12172986  1
  Fe  Fe72  1  0.87593851  0.12740034  0.12394702  1
  Fe  Fe73  1  0.37807831  0.87525134  0.12426439  1
  Fe  Fe74  1  0.87327638  0.62645549  0.37472087  1
  Fe  Fe75  1  0.37547046  0.87288667  0.87233669  1
  Fe  Fe76  1  0.87534673  0.87445175  0.62835113  1
  Fe  Fe77  1  0.37420462  0.37280426  0.12597373  1
  Fe  Fe78  1  0.62668276  0.38008313  0.87563159  1
  Fe  Fe79  1  0.37457823  0.62558740  0.37425486  1
  Fe  Fe80  1  0.87527316  0.87371485  0.12492679  1
  Fe  Fe81  1  0.24693805  0.25030818  0.49835972  1
  Fe  Fe82  1  0.75134030  0.49665676  0.50420054  1
  Fe  Fe83  1  0.75014417  0.25381133  0.74736757  1
  Fe  Fe84  1  0.12279056  0.37807812  0.62254326  1
  Fe  Fe85  1  -0.00183500  0.00184706  -0.00156805  1
  Fe  Fe86  1  0.12408645  0.87620730  0.12319751  1
  Fe  Fe87  1  0.12437160  0.87860336  0.62928224  1
  Fe  Fe88  1  0.12677316  0.62407656  0.37476509  1
  Fe  Fe89  1  0.37576354  0.87327337  0.62956249  1
  Co  Co90  1  0.75133363  0.00070470  0.74993508  1
  Co  Co91  1  0.12580710  0.87988465  0.87418090  1
  Co  Co92  1  0.00169206  0.74984684  0.25117039  1
  Co  Co93  1  0.62566925  0.37657143  0.37668418  1
  Co  Co94  1  0.24375094  0.74939836  0.75118701  1
  Co  Co95  1  0.49952369  0.00196935  -0.00293701  1
  Co  Co96  1  0.49825590  0.00272929  0.74964149  1
  Co  Co97  1  0.12678945  0.37823718  0.37492507  1
  Co  Co98  1  0.12559953  0.12374170  0.12207532  1
  Co  Co99  1  0.50013064  0.25232015  0.25123330  1
  Co  Co100  1  0.62412173  0.37534192  0.12151345  1
  Co  Co101  1  0.12559778  0.62225972  0.62374791  1
  Co  Co102  1  0.50268377  0.74806871  0.74935193  1
  Co  Co103  1  0.50114121  -0.00196676  0.25171703  1
  Co  Co104  1  0.62498531  0.87741653  0.62564567  1
  Co  Co105  1  0.24984975  -0.00168267  0.24892007  1
  Co  Co106  1  0.49657839  0.49982531  0.75103164  1
  Co  Co107  1  0.24898192  0.49795896  0.74984960  1
  Co  Co108  1  0.24852587  0.75129429  0.00010758  1
  Co  Co109  1  0.12744541  0.62107844  0.87767880  1
  Co  Co110  1  0.62652337  0.12604245  0.87374189  1
  Co  Co111  1  0.74686611  0.25066667  0.50229432  1
  Co  Co112  1  -0.00251343  -0.00270635  0.50044335  1
  Co  Co113  1  0.37530941  0.87382602  0.37596553  1
  Co  Co114  1  0.50118381  0.74952658  -0.00281380  1
  Co  Co115  1  0.87443616  0.37512827  0.87385314  1
  Co  Co116  1  0.00069415  0.24990815  -0.00169102  1
  Co  Co117  1  -0.00125875  0.50267455  0.49745494  1
  Co  Co118  1  0.12656481  0.11968863  0.37800059  1
  Co  Co119  1  0.49453263  0.49920742  -0.00135768  1
  Co  Co120  1  0.25094454  0.50157927  0.24781422  1
  Co  Co121  1  0.25294233  0.00255555  0.75049996  1
  Co  Co122  1  0.00528370  0.24892102  0.49870355  1
  Co  Co123  1  0.62154575  0.37563033  0.62607052  1
  Co  Co124  1  0.75285137  0.49883144  0.74573698  1
  Co  Co125  1  0.87978694  0.37292380  0.62243368  1
  Co  Co126  1  -0.00251281  0.00273818  0.75170997  1
  Co  Co127  1  0.75495369  0.50004611  0.00278374  1
