# generated using pymatgen
data_Fe45Co19
_symmetry_space_group_name_H-M   'P 1'
_cell_length_a   11.41501672
_cell_length_b   11.41413125
_cell_length_c   11.41452593
_cell_angle_alpha   89.99333730
_cell_angle_beta   90.00758136
_cell_angle_gamma   90.00373053
_symmetry_Int_Tables_number   1
_chemical_formula_structural   Fe45Co19
_chemical_formula_sum   'Fe90 Co38'
_cell_volume   1487.22708304
_cell_formula_units_Z   2
loop_
 _symmetry_equiv_pos_site_id
 _symmetry_equiv_pos_as_xyz
  1  'x, y, z'
loop_
 _atom_site_type_symbol
 _atom_site_label
 _atom_site_symmetry_multiplicity
 _atom_site_fract_x
 _atom_site_fract_y
 _atom_site_fract_z
 _atom_site_occupancy
  Fe  Fe0  1  0.37546672  0.12401979  0.87563592  1
  Fe  Fe1  1  0.62671976  0.62487901  0.62557548  1
  Fe  Fe2  1  0.24844294  0.00161685  0.74888783  1
  Fe  Fe3  1  0.38130655  0.37836988  0.37274131  1
  Fe  Fe4  1  0.12577941  0.37381138  0.62379459  1
  Fe  Fe5  1  0.12765205  0.12084836  0.12732870  1
  Fe  Fe6  1  0.75073403  0.75041446  0.25349953  1
  Fe  Fe7  1  0.87383658  0.37398963  0.62375172  1
  Fe  Fe8  1  0.74921154  -0.00483334  0.25632148  1
  Fe  Fe9  1  0.62405524  0.12392522  0.37409348  1
  Fe  Fe10  1  0.50110738  0.24498824  0.00487114  1
  Fe  Fe11  1  0.87733371  0.62316232  0.37441466  1
  Fe  Fe12  1  0.87594818  0.87544458  0.62423168  1
  Fe  Fe13  1  -0.00129965  0.25026127  0.49793906  1
  Fe  Fe14  1  0.75087786  0.75033363  0.74995423  1
  Fe  Fe15  1  0.12402214  0.37522097  0.87624482  1
  Fe  Fe16  1  0.50155411  0.00024616  0.74806556  1
  Fe  Fe17  1  0.37723463  0.87584578  0.37541863  1
  Fe  Fe18  1  0.12752514  0.62829142  0.12201892  1
  Fe  Fe19  1  0.62502506  0.87354345  0.62373369  1
  Fe  Fe20  1  0.62799980  0.87427886  0.12590003  1
  Fe  Fe21  1  -0.00214084  0.25079544  0.75138803  1
  Fe  Fe22  1  0.50036821  0.74958835  0.25004822  1
  Fe  Fe23  1  0.00035602  0.50093511  0.00195083  1
  Fe  Fe24  1  0.00005594  0.00327471  0.49990610  1
  Fe  Fe25  1  -0.00088987  0.24779153  0.24855044  1
  Fe  Fe26  1  0.50163706  0.50242182  0.00162484  1
  Fe  Fe27  1  0.37722601  0.87564059  0.87325913  1
  Fe  Fe28  1  0.50199941  0.00022851  0.50113837  1
  Fe  Fe29  1  0.37743446  0.12291559  0.37245498  1
  Fe  Fe30  1  0.25080011  0.50085029  0.24939097  1
  Fe  Fe31  1  0.74962378  0.75195143  0.49637816  1
  Fe  Fe32  1  0.62895967  0.12661192  0.62370076  1
  Fe  Fe33  1  0.87372243  0.62375367  0.62245673  1
  Fe  Fe34  1  0.25007661  0.25008489  -0.00063065  1
  Fe  Fe35  1  -0.00277312  -0.00433998  0.00276896  1
  Fe  Fe36  1  0.74682845  0.25554815  0.25434585  1
  Fe  Fe37  1  0.74530842  0.49826352  0.25004001  1
  Fe  Fe38  1  0.12136494  0.87755596  0.37205342  1
  Fe  Fe39  1  0.12475876  0.62579081  0.37510299  1
  Fe  Fe40  1  0.37573572  0.37429758  0.12360010  1
  Fe  Fe41  1  0.87643671  0.62648438  0.87585966  1
  Fe  Fe42  1  0.87401000  0.37650650  0.12541819  1
  Fe  Fe43  1  0.75376777  0.74998115  0.00041879  1
  Fe  Fe44  1  0.12014844  0.87125392  0.87434106  1
  Fe  Fe45  1  0.25176814  0.24775617  0.49843646  1
  Fe  Fe46  1  0.25120536  0.24834537  0.75115193  1
  Fe  Fe47  1  0.24942199  -0.00300697  -0.00048358  1
  Fe  Fe48  1  0.75047654  -0.00086820  0.75034303  1
  Fe  Fe49  1  0.75055943  0.49798754  0.75255473  1
  Fe  Fe50  1  0.50365984  0.00252309  0.00491802  1
  Fe  Fe51  1  0.12414389  0.87489163  0.62676471  1
  Fe  Fe52  1  0.37102201  0.62850540  0.62524488  1
  Fe  Fe53  1  0.37438858  0.87715468  0.12594216  1
  Fe  Fe54  1  0.50019363  0.50179918  0.74990734  1
  Fe  Fe55  1  0.62486631  0.87269188  0.87446080  1
  Fe  Fe56  1  0.50039501  0.75000800  -0.00001308  1
  Fe  Fe57  1  0.37518200  0.37348937  0.62565395  1
  Fe  Fe58  1  0.87233675  0.12610902  0.62445273  1
  Fe  Fe59  1  0.50089590  0.24944565  0.49963719  1
  Fe  Fe60  1  0.12642607  0.37459435  0.12472840  1
  Fe  Fe61  1  0.12291430  0.12408800  0.87497973  1
  Fe  Fe62  1  0.37427624  0.62706081  0.87549612  1
  Fe  Fe63  1  0.75042641  0.24959739  -0.00177799  1
  Fe  Fe64  1  0.24755176  0.00241590  0.49952712  1
  Fe  Fe65  1  0.62394570  0.37464182  0.87614607  1
  Fe  Fe66  1  0.12829775  0.62470095  0.62429698  1
  Fe  Fe67  1  -0.00276325  0.75233028  0.24498698  1
  Fe  Fe68  1  0.49914090  0.74745243  0.50093377  1
  Fe  Fe69  1  -0.00148562  0.24892896  0.00270272  1
  Fe  Fe70  1  0.62077133  0.62222937  0.37502711  1
  Fe  Fe71  1  0.86899948  0.12126235  0.12601215  1
  Fe  Fe72  1  0.00227500  0.50021253  0.24847621  1
  Fe  Fe73  1  0.12367945  0.37394932  0.37528114  1
  Fe  Fe74  1  0.25128917  0.49872570  0.75406190  1
  Fe  Fe75  1  0.49981333  0.24870653  0.75001338  1
  Fe  Fe76  1  0.62562455  0.12497316  0.87405694  1
  Fe  Fe77  1  0.00145583  0.74816938  0.50138614  1
  Fe  Fe78  1  0.87528527  0.12265899  0.87485617  1
  Fe  Fe79  1  0.12446981  0.62910133  0.87853706  1
  Fe  Fe80  1  0.62628492  0.37323204  0.62411210  1
  Fe  Fe81  1  0.74838101  0.50146740  0.00061123  1
  Fe  Fe82  1  0.87375500  0.12447436  0.37528910  1
  Fe  Fe83  1  0.37337516  0.62637170  0.12439997  1
  Fe  Fe84  1  0.25188481  0.50064727  0.49723609  1
  Fe  Fe85  1  0.25149869  0.24919636  0.25118566  1
  Fe  Fe86  1  -0.00039041  0.50107541  0.74920525  1
  Fe  Fe87  1  0.74987710  0.49644873  0.49602095  1
  Fe  Fe88  1  0.25058582  0.75181752  0.25122537  1
  Fe  Fe89  1  0.37418181  0.87405644  0.62476070  1
  Co  Co90  1  0.75176663  0.25040074  0.75361373  1
  Co  Co91  1  0.87615678  0.37697895  0.87834926  1
  Co  Co92  1  0.74934171  0.25325351  0.49440167  1
  Co  Co93  1  0.12641317  0.87678887  0.12721309  1
  Co  Co94  1  -0.00436666  0.75283988  0.00596867  1
  Co  Co95  1  0.37548596  0.12407085  0.62485739  1
  Co  Co96  1  -0.00328232  0.00142698  0.24790714  1
  Co  Co97  1  0.50175168  0.50141328  0.24348141  1
  Co  Co98  1  0.87314239  0.62195815  0.12720246  1
  Co  Co99  1  0.37677146  0.62445922  0.37354762  1
  Co  Co100  1  0.87900822  0.37774009  0.37264650  1
  Co  Co101  1  0.12373968  0.12830459  0.62528925  1
  Co  Co102  1  0.63306935  0.12334124  0.12904403  1
  Co  Co103  1  0.74826989  -0.00130082  -0.00465267  1
  Co  Co104  1  0.50115445  0.24777629  0.24640891  1
  Co  Co105  1  0.86898713  0.87852346  0.12667810  1
  Co  Co106  1  0.24835913  0.75215577  0.49669625  1
  Co  Co107  1  0.62670638  0.62953667  0.12498364  1
  Co  Co108  1  0.12440084  0.12522911  0.37272856  1
  Co  Co109  1  0.37025507  0.12343982  0.12565232  1
  Co  Co110  1  0.25133005  -0.00118502  0.25255863  1
  Co  Co111  1  0.61648064  0.37877615  0.37636929  1
  Co  Co112  1  0.25154737  0.75399470  -0.00036996  1
  Co  Co113  1  0.00080590  0.49989565  0.50077442  1
  Co  Co114  1  0.50176596  0.00075584  0.24575451  1
  Co  Co115  1  0.37845195  0.37307902  0.87713589  1
  Co  Co116  1  0.62621635  0.62682424  0.87479553  1
  Co  Co117  1  0.88017011  0.87367305  0.37748001  1
  Co  Co118  1  0.62033705  0.87398506  0.37569293  1
  Co  Co119  1  -0.00070432  0.00080063  0.74972949  1
  Co  Co120  1  0.24966246  0.75155557  0.75218879  1
  Co  Co121  1  0.87651243  0.87288492  0.87236403  1
  Co  Co122  1  0.49783860  0.50319398  0.50562232  1
  Co  Co123  1  0.25066213  0.49918906  -0.00055607  1
  Co  Co124  1  -0.00057775  0.74633742  0.74678727  1
  Co  Co125  1  0.62496539  0.37306039  0.12164234  1
  Co  Co126  1  0.49995704  0.74905498  0.74906338  1
  Co  Co127  1  0.74975668  -0.00247464  0.49821570  1
