# generated using pymatgen
data_Fe45Co19
_symmetry_space_group_name_H-M   'P 1'
_cell_length_a   11.41431805
_cell_length_b   11.41529416
_cell_length_c   11.41493951
_cell_angle_alpha   89.99864927
_cell_angle_beta   90.00526406
_cell_angle_gamma   89.99985045
_symmetry_Int_Tables_number   1
_chemical_formula_structural   Fe45Co19
_chemical_formula_sum   'Fe90 Co38'
_cell_volume   1487.34147774
_cell_formula_units_Z   2
loop_
 _symmetry_equiv_pos_site_id
 _symmetry_equiv_pos_as_xyz
  1  'x, y, z'
loop_
 _atom_site_type_symbol
 _atom_site_label
 _atom_site_symmetry_multiplicity
 _atom_site_fract_x
 _atom_site_fract_y
 _atom_site_fract_z
 _atom_site_occupancy
  Fe  Fe0  1  0.00181262  0.25076614  0.49969422  1
  Fe  Fe1  1  0.87685842  0.12738581  0.12454501  1
  Fe  Fe2  1  0.12240486  0.62606610  0.12238134  1
  Fe  Fe3  1  0.49967690  0.49882639  0.50182209  1
  Fe  Fe4  1  0.12367976  0.12514911  0.12535566  1
  Fe  Fe5  1  0.74817183  0.00176642  0.00167785  1
  Fe  Fe6  1  0.12791808  0.37641122  0.62721964  1
  Fe  Fe7  1  -0.00018726  0.25045348  -0.00173463  1
  Fe  Fe8  1  0.00431310  0.75407106  0.50152777  1
  Fe  Fe9  1  0.12481558  0.12106925  0.62844798  1
  Fe  Fe10  1  0.62382151  0.12638170  0.87775823  1
  Fe  Fe11  1  0.62427952  0.12584227  0.37378707  1
  Fe  Fe12  1  0.37460816  0.12367064  0.37474962  1
  Fe  Fe13  1  0.24760422  0.74610590  0.75498476  1
  Fe  Fe14  1  0.49990006  0.75041578  0.75152998  1
  Fe  Fe15  1  0.49572165  -0.00035614  0.75250064  1
  Fe  Fe16  1  0.87640234  0.12567681  0.37517988  1
  Fe  Fe17  1  0.37237121  0.62360026  0.62747168  1
  Fe  Fe18  1  0.75215346  0.49898236  0.00627125  1
  Fe  Fe19  1  0.24983114  0.50204802  0.50138739  1
  Fe  Fe20  1  0.37008650  0.87683886  0.37444857  1
  Fe  Fe21  1  0.25201393  0.00177174  -0.00167150  1
  Fe  Fe22  1  0.50168007  0.75304281  -0.00172821  1
  Fe  Fe23  1  0.87388987  0.87524229  0.87553440  1
  Fe  Fe24  1  0.49724043  0.75050114  0.49933697  1
  Fe  Fe25  1  0.24909053  0.50115085  -0.00175084  1
  Fe  Fe26  1  0.49926837  -0.00137551  0.49993270  1
  Fe  Fe27  1  0.00324875  0.75517936  0.74946331  1
  Fe  Fe28  1  -0.00035111  0.50024715  0.24841076  1
  Fe  Fe29  1  0.50059867  -0.00270687  -0.00116868  1
  Fe  Fe30  1  0.25174752  0.24736057  0.74934847  1
  Fe  Fe31  1  0.49809071  0.25069259  0.75101739  1
  Fe  Fe32  1  0.87489754  0.37303192  0.87562608  1
  Fe  Fe33  1  0.62840938  0.37484553  0.87635606  1
  Fe  Fe34  1  0.62563308  0.87564375  0.62691187  1
  Fe  Fe35  1  0.25095235  0.24842835  0.50100109  1
  Fe  Fe36  1  0.25064589  0.24959737  0.00059890  1
  Fe  Fe37  1  0.25083911  0.24858829  0.24868286  1
  Fe  Fe38  1  0.75060853  0.24992931  0.50149148  1
  Fe  Fe39  1  0.62584667  0.37465081  0.62567547  1
  Fe  Fe40  1  0.37540167  0.62320269  0.37328978  1
  Fe  Fe41  1  0.37177858  0.37756226  0.37248824  1
  Fe  Fe42  1  0.12685556  0.87546980  0.12507956  1
  Fe  Fe43  1  0.25041899  0.74839392  0.24992605  1
  Fe  Fe44  1  0.49888957  0.49915513  0.75069792  1
  Fe  Fe45  1  0.50243870  0.49950071  0.24739702  1
  Fe  Fe46  1  0.37053892  0.37522876  0.87283511  1
  Fe  Fe47  1  0.62457535  0.87310829  0.37306310  1
  Fe  Fe48  1  0.00332288  0.49844303  0.75212061  1
  Fe  Fe49  1  0.87532150  0.37459598  0.62605090  1
  Fe  Fe50  1  0.62424541  0.62442799  0.62354244  1
  Fe  Fe51  1  0.00029099  -0.00118823  0.24968735  1
  Fe  Fe52  1  0.74880081  0.24996639  0.24575271  1
  Fe  Fe53  1  0.62904442  0.37880501  0.37415356  1
  Fe  Fe54  1  0.12671573  0.37559875  0.37296740  1
  Fe  Fe55  1  0.74867052  0.74821035  0.50036981  1
  Fe  Fe56  1  0.87819767  0.12391357  0.62507193  1
  Fe  Fe57  1  0.24833924  0.74852562  -0.00259389  1
  Fe  Fe58  1  0.75216015  0.24735835  0.75139300  1
  Fe  Fe59  1  0.75207466  0.00138181  0.75025292  1
  Fe  Fe60  1  0.37665068  0.62494123  0.12392754  1
  Fe  Fe61  1  -0.00050125  0.49865691  0.50003658  1
  Fe  Fe62  1  0.87906640  0.62689050  0.87755442  1
  Fe  Fe63  1  0.74846602  0.74969908  0.00064907  1
  Fe  Fe64  1  0.12567536  0.12244556  0.37270673  1
  Fe  Fe65  1  0.36870549  0.87625403  0.62566226  1
  Fe  Fe66  1  0.74574670  0.74424200  0.24794472  1
  Fe  Fe67  1  0.87296924  0.37596788  0.37159865  1
  Fe  Fe68  1  0.74798831  0.00223939  0.24759388  1
  Fe  Fe69  1  0.87295149  0.62293881  0.37476642  1
  Fe  Fe70  1  0.00254795  -0.00473147  0.50110956  1
  Fe  Fe71  1  0.50030705  -0.00091721  0.24842308  1
  Fe  Fe72  1  0.87365877  0.87392403  0.37413663  1
  Fe  Fe73  1  0.38037788  0.12896916  0.12370640  1
  Fe  Fe74  1  0.00037934  0.49766191  0.00001735  1
  Fe  Fe75  1  0.12478179  0.62495735  0.37580620  1
  Fe  Fe76  1  -0.00077924  -0.00200490  0.00002803  1
  Fe  Fe77  1  0.62355411  0.62332726  0.87772850  1
  Fe  Fe78  1  0.87844887  0.62596010  0.62519302  1
  Fe  Fe79  1  0.37483133  0.87394183  0.12439073  1
  Fe  Fe80  1  0.75131153  0.50236886  0.74964071  1
  Fe  Fe81  1  0.12182240  0.12314502  0.87240498  1
  Fe  Fe82  1  0.49837819  0.25214964  0.49884583  1
  Fe  Fe83  1  0.74900691  0.74832533  0.75085977  1
  Fe  Fe84  1  0.00130175  0.75080695  0.24979569  1
  Fe  Fe85  1  0.87297653  0.87284131  0.12635632  1
  Fe  Fe86  1  0.74931793  -0.00016090  0.50011541  1
  Fe  Fe87  1  0.12557949  0.37408016  0.12589850  1
  Fe  Fe88  1  0.49769582  0.49573907  -0.00006014  1
  Fe  Fe89  1  0.62219306  0.12524715  0.62513360  1
  Co  Co90  1  0.13406585  0.87639462  0.62679010  1
  Co  Co91  1  0.00236819  0.24919153  0.25139446  1
  Co  Co92  1  0.87891962  0.37162067  0.12638566  1
  Co  Co93  1  0.12749520  0.37187698  0.87512098  1
  Co  Co94  1  0.12456313  0.62412613  0.62507172  1
  Co  Co95  1  0.61936927  0.12912272  0.12276568  1
  Co  Co96  1  -0.00017606  0.25179867  0.75022350  1
  Co  Co97  1  0.37272348  0.37608188  0.62661321  1
  Co  Co98  1  0.24983187  0.74692558  0.49730716  1
  Co  Co99  1  0.12892617  0.87653911  0.37235066  1
  Co  Co100  1  0.37272058  0.37505232  0.12674219  1
  Co  Co101  1  0.37808014  0.62494757  0.87634349  1
  Co  Co102  1  0.00091358  0.75547889  0.00016627  1
  Co  Co103  1  0.25461537  0.00311102  0.75587383  1
  Co  Co104  1  0.24772869  0.50364670  0.75419639  1
  Co  Co105  1  0.25176222  0.00216953  0.24500470  1
  Co  Co106  1  0.37327431  0.87240979  0.87587566  1
  Co  Co107  1  0.87835505  0.12398496  0.87498337  1
  Co  Co108  1  0.75229905  0.24934429  0.00088230  1
  Co  Co109  1  0.49793138  0.25598720  -0.00394104  1
  Co  Co110  1  0.74894216  0.50232866  0.24297946  1
  Co  Co111  1  0.62431145  0.62237417  0.37729640  1
  Co  Co112  1  0.62638074  0.87599345  0.87320283  1
  Co  Co113  1  0.24815798  0.00312904  0.49950507  1
  Co  Co114  1  0.62484601  0.87369299  0.12703002  1
  Co  Co115  1  0.87843699  0.62763636  0.12332907  1
  Co  Co116  1  0.62272641  0.37097747  0.12313345  1
  Co  Co117  1  0.87153184  0.87362732  0.62373490  1
  Co  Co118  1  0.37709119  0.12756542  0.87803927  1
  Co  Co119  1  0.12677518  0.87818210  0.87556412  1
  Co  Co120  1  0.49821205  0.74992323  0.25170377  1
  Co  Co121  1  0.75184597  0.50054108  0.50350490  1
  Co  Co122  1  0.49924141  0.25332155  0.25417939  1
  Co  Co123  1  0.61986597  0.62559345  0.12098593  1
  Co  Co124  1  0.24712433  0.50329757  0.24720422  1
  Co  Co125  1  0.37656028  0.12381229  0.62312007  1
  Co  Co126  1  -0.00151660  -0.00636083  0.74829407  1
  Co  Co127  1  0.11961439  0.62599538  0.87745224  1
