# generated using pymatgen
data_Fe45Co19
_symmetry_space_group_name_H-M   'P 1'
_cell_length_a   11.41635891
_cell_length_b   11.41538318
_cell_length_c   11.41467188
_cell_angle_alpha   89.98741492
_cell_angle_beta   90.00746067
_cell_angle_gamma   90.00097117
_symmetry_Int_Tables_number   1
_chemical_formula_structural   Fe45Co19
_chemical_formula_sum   'Fe90 Co38'
_cell_volume   1487.58409383
_cell_formula_units_Z   2
loop_
 _symmetry_equiv_pos_site_id
 _symmetry_equiv_pos_as_xyz
  1  'x, y, z'
loop_
 _atom_site_type_symbol
 _atom_site_label
 _atom_site_symmetry_multiplicity
 _atom_site_fract_x
 _atom_site_fract_y
 _atom_site_fract_z
 _atom_site_occupancy
  Fe  Fe0  1  0.49811810  0.50156607  0.24514819  1
  Fe  Fe1  1  0.74920042  0.74859092  0.50081095  1
  Fe  Fe2  1  0.87242631  0.62309011  0.62681263  1
  Fe  Fe3  1  0.74967864  0.74841933  -0.00016971  1
  Fe  Fe4  1  0.25046616  0.00273314  -0.00617767  1
  Fe  Fe5  1  0.12809038  0.12247913  0.62281876  1
  Fe  Fe6  1  0.62290181  0.62480632  0.37595232  1
  Fe  Fe7  1  0.62633816  0.12441410  0.62384953  1
  Fe  Fe8  1  0.62558381  0.37845678  0.12018351  1
  Fe  Fe9  1  0.74869596  0.74995094  0.24959368  1
  Fe  Fe10  1  0.50033284  0.49600419  0.74608094  1
  Fe  Fe11  1  0.62122340  0.37357779  0.37604905  1
  Fe  Fe12  1  0.00361409  0.25304113  0.24654586  1
  Fe  Fe13  1  0.74687876  0.49744966  0.75539157  1
  Fe  Fe14  1  0.00213520  0.25046817  0.74797448  1
  Fe  Fe15  1  0.50075423  0.24686197  0.24460032  1
  Fe  Fe16  1  0.74839816  0.00031897  0.75154762  1
  Fe  Fe17  1  0.62736312  0.87579119  0.12328650  1
  Fe  Fe18  1  0.37745281  0.87584943  0.87304875  1
  Fe  Fe19  1  0.50171222  0.00140372  0.24769124  1
  Fe  Fe20  1  0.50313338  0.75192031  0.74755884  1
  Fe  Fe21  1  0.49879439  0.49703360  0.50275530  1
  Fe  Fe22  1  0.25219037  0.49996535  0.49598109  1
  Fe  Fe23  1  0.75094226  0.00092405  -0.00029965  1
  Fe  Fe24  1  -0.00112020  -0.00150851  0.24810205  1
  Fe  Fe25  1  0.25719122  0.50173245  0.00020153  1
  Fe  Fe26  1  0.87752143  0.87562224  0.87719380  1
  Fe  Fe27  1  0.49764788  0.00051440  0.50033703  1
  Fe  Fe28  1  0.62335168  0.87551480  0.87663405  1
  Fe  Fe29  1  0.12473339  0.37459282  0.87872585  1
  Fe  Fe30  1  0.50106513  0.25173754  0.74567821  1
  Fe  Fe31  1  0.87717186  0.62441296  0.87453892  1
  Fe  Fe32  1  0.37282704  0.87611228  0.12591507  1
  Fe  Fe33  1  0.37691933  0.37070505  0.37206217  1
  Fe  Fe34  1  0.25219312  0.24653764  0.49565075  1
  Fe  Fe35  1  0.87857547  0.12553475  0.87488548  1
  Fe  Fe36  1  0.74696037  0.75014948  0.75071437  1
  Fe  Fe37  1  0.75164362  0.25310826  -0.00259049  1
  Fe  Fe38  1  0.87610011  0.87309133  0.37239554  1
  Fe  Fe39  1  0.37255035  0.12276981  0.62656874  1
  Fe  Fe40  1  0.75292971  0.00247171  0.49688584  1
  Fe  Fe41  1  -0.00056815  0.25106271  0.00483280  1
  Fe  Fe42  1  0.12669524  0.37432991  0.37245676  1
  Fe  Fe43  1  0.00003331  0.75039858  0.00469412  1
  Fe  Fe44  1  0.49919035  0.00102318  0.00140466  1
  Fe  Fe45  1  0.12860696  0.12338954  0.12556554  1
  Fe  Fe46  1  0.25117328  0.75262067  0.49712324  1
  Fe  Fe47  1  0.61929465  0.62177790  0.88017709  1
  Fe  Fe48  1  0.00355316  0.49868823  0.74878300  1
  Fe  Fe49  1  0.37692799  0.37477901  0.87442673  1
  Fe  Fe50  1  0.49648542  0.24853520  0.00446945  1
  Fe  Fe51  1  0.12905674  0.37559642  0.62280701  1
  Fe  Fe52  1  0.74892938  0.49999674  0.25105652  1
  Fe  Fe53  1  0.24923855  0.24941244  0.75228932  1
  Fe  Fe54  1  0.87141379  0.12502406  0.12769219  1
  Fe  Fe55  1  0.74572861  0.24961955  0.25004067  1
  Fe  Fe56  1  0.24820629  0.75012301  0.75209092  1
  Fe  Fe57  1  0.74835344  0.25129347  0.75261774  1
  Fe  Fe58  1  0.25101518  0.00088209  0.25903804  1
  Fe  Fe59  1  0.12695721  0.87709171  0.12449183  1
  Fe  Fe60  1  0.12205309  0.87575725  0.87699303  1
  Fe  Fe61  1  -0.00154748  0.74807292  0.50024945  1
  Fe  Fe62  1  0.12216328  0.62459199  0.37244465  1
  Fe  Fe63  1  0.62345891  0.87492199  0.37649556  1
  Fe  Fe64  1  0.50060849  0.74978489  0.50401328  1
  Fe  Fe65  1  0.37247763  0.87868918  0.62680086  1
  Fe  Fe66  1  0.12713652  0.62132728  0.12710826  1
  Fe  Fe67  1  0.74999724  0.49996386  0.49753985  1
  Fe  Fe68  1  0.00163960  0.74964658  0.74888780  1
  Fe  Fe69  1  0.87249009  0.37524227  0.62672726  1
  Fe  Fe70  1  0.25258024  0.74886895  -0.00222851  1
  Fe  Fe71  1  0.12775526  0.62402210  0.62377851  1
  Fe  Fe72  1  0.12738985  0.87813742  0.62194208  1
  Fe  Fe73  1  0.62257732  0.12534775  0.37562414  1
  Fe  Fe74  1  -0.00195586  0.24882992  0.50091351  1
  Fe  Fe75  1  0.87392877  0.62387060  0.12789480  1
  Fe  Fe76  1  0.25213875  0.24828949  0.00077402  1
  Fe  Fe77  1  0.12462230  0.62287276  0.87726746  1
  Fe  Fe78  1  0.87364196  0.87600726  0.62625246  1
  Fe  Fe79  1  0.37716278  0.62759950  0.37326541  1
  Fe  Fe80  1  -0.00275707  0.00347669  0.49827756  1
  Fe  Fe81  1  0.24785113  0.75188583  0.25310477  1
  Fe  Fe82  1  0.37256117  0.62352859  0.62766372  1
  Fe  Fe83  1  0.50271145  0.74985622  0.24574838  1
  Fe  Fe84  1  0.00251479  0.00087981  0.75075767  1
  Fe  Fe85  1  -0.00167169  0.49951455  0.49807722  1
  Fe  Fe86  1  0.87491340  0.37301634  0.37264768  1
  Fe  Fe87  1  0.75128750  0.24802632  0.49869349  1
  Fe  Fe88  1  -0.00353032  0.49633080  0.00388829  1
  Fe  Fe89  1  0.62145939  0.12697577  0.87680249  1
  Co  Co90  1  0.37062091  0.12102415  0.12628570  1
  Co  Co91  1  0.50281881  0.00050077  0.74937302  1
  Co  Co92  1  0.25330650  0.00019606  0.49275905  1
  Co  Co93  1  0.37192208  0.37246240  0.12889551  1
  Co  Co94  1  0.87022891  0.37388527  0.12826706  1
  Co  Co95  1  0.24925672  0.24756695  0.25094756  1
  Co  Co96  1  0.36923262  0.37450784  0.62437448  1
  Co  Co97  1  -0.00028995  0.00183622  0.00305838  1
  Co  Co98  1  0.24704291  0.00106189  0.75545763  1
  Co  Co99  1  0.62842992  0.12500973  0.12191938  1
  Co  Co100  1  0.38051251  0.87246453  0.37334980  1
  Co  Co101  1  0.38038197  0.12866843  0.37269566  1
  Co  Co102  1  0.87955959  0.37384965  0.87234181  1
  Co  Co103  1  0.62684549  0.62227932  0.12116580  1
  Co  Co104  1  0.25393067  0.50078099  0.25231620  1
  Co  Co105  1  0.11997409  0.87526196  0.37728046  1
  Co  Co106  1  0.37206925  0.63083277  0.12801107  1
  Co  Co107  1  0.75384206  0.49856778  -0.00289589  1
  Co  Co108  1  0.87643411  0.12810718  0.36828474  1
  Co  Co109  1  0.12136174  0.12855645  0.87711303  1
  Co  Co110  1  0.62623242  0.62212170  0.62496622  1
  Co  Co111  1  0.00133176  0.75129210  0.24616578  1
  Co  Co112  1  0.87427111  0.12545232  0.62835240  1
  Co  Co113  1  0.87552927  0.62623621  0.37252161  1
  Co  Co114  1  0.62713115  0.87824484  0.62227378  1
  Co  Co115  1  0.12139794  0.12591677  0.37449748  1
  Co  Co116  1  0.37937980  0.62563543  0.87073831  1
  Co  Co117  1  -0.00090934  0.49639573  0.24958444  1
  Co  Co118  1  0.61855993  0.37557025  0.88101135  1
  Co  Co119  1  0.74813950  -0.00066733  0.25182426  1
  Co  Co120  1  0.63005465  0.37413572  0.62260027  1
  Co  Co121  1  0.49181209  0.50171025  0.00634565  1
  Co  Co122  1  0.49823018  0.75158709  0.00270947  1
  Co  Co123  1  0.24857549  0.49879765  0.75313606  1
  Co  Co124  1  0.13121215  0.37841472  0.12447761  1
  Co  Co125  1  0.37925570  0.12625846  0.87313513  1
  Co  Co126  1  0.87251594  0.87549318  0.12425065  1
  Co  Co127  1  0.49916298  0.25078990  0.50501327  1
