# generated using pymatgen
data_Fe45Co19
_symmetry_space_group_name_H-M   'P 1'
_cell_length_a   11.41743860
_cell_length_b   11.41624756
_cell_length_c   11.41484878
_cell_angle_alpha   89.99111123
_cell_angle_beta   90.00538870
_cell_angle_gamma   89.99678922
_symmetry_Int_Tables_number   1
_chemical_formula_structural   Fe45Co19
_chemical_formula_sum   'Fe90 Co38'
_cell_volume   1487.86051009
_cell_formula_units_Z   2
loop_
 _symmetry_equiv_pos_site_id
 _symmetry_equiv_pos_as_xyz
  1  'x, y, z'
loop_
 _atom_site_type_symbol
 _atom_site_label
 _atom_site_symmetry_multiplicity
 _atom_site_fract_x
 _atom_site_fract_y
 _atom_site_fract_z
 _atom_site_occupancy
  Fe  Fe0  1  0.87366739  0.12509847  0.12668287  1
  Fe  Fe1  1  0.37630140  0.87455358  0.87406069  1
  Fe  Fe2  1  0.37598462  0.87439002  0.12600899  1
  Fe  Fe3  1  0.37599894  0.87284885  0.62573351  1
  Fe  Fe4  1  0.75032043  0.49981211  0.00071326  1
  Fe  Fe5  1  -0.00051608  0.25067940  -0.00068204  1
  Fe  Fe6  1  0.87308440  0.62664973  0.87323856  1
  Fe  Fe7  1  0.50200116  0.74874681  0.00157044  1
  Fe  Fe8  1  0.87479110  0.87580512  0.12470614  1
  Fe  Fe9  1  0.12389339  0.12413281  0.87433700  1
  Fe  Fe10  1  0.37425200  0.87231096  0.37325777  1
  Fe  Fe11  1  0.24740883  0.74816180  0.24775322  1
  Fe  Fe12  1  0.37456283  0.37563961  0.37568573  1
  Fe  Fe13  1  0.49931995  -0.00035713  0.49912236  1
  Fe  Fe14  1  0.87638637  0.37429586  0.37850835  1
  Fe  Fe15  1  -0.00195300  0.50383784  0.50159103  1
  Fe  Fe16  1  0.12499684  0.37662926  0.12459478  1
  Fe  Fe17  1  0.11965962  0.87221710  0.62680274  1
  Fe  Fe18  1  0.62400464  0.87211425  0.62611444  1
  Fe  Fe19  1  0.00187602  0.24917459  0.25227173  1
  Fe  Fe20  1  0.49887714  0.50399653  0.50053976  1
  Fe  Fe21  1  0.75165791  0.50059015  0.25177570  1
  Fe  Fe22  1  -0.00025811  0.50028162  0.00038765  1
  Fe  Fe23  1  0.00069064  0.00103118  0.00221651  1
  Fe  Fe24  1  0.37590887  0.12687024  0.87050233  1
  Fe  Fe25  1  0.37606110  0.37541183  0.12502874  1
  Fe  Fe26  1  0.50046269  0.50125727  -0.00118928  1
  Fe  Fe27  1  0.12390912  0.87463260  0.37362928  1
  Fe  Fe28  1  0.75067160  0.24945023  0.50061103  1
  Fe  Fe29  1  0.37340184  0.12616621  0.12478880  1
  Fe  Fe30  1  0.87611527  0.87183456  0.37478300  1
  Fe  Fe31  1  0.62446709  0.37581437  0.87378702  1
  Fe  Fe32  1  0.74923370  0.25178068  0.74824863  1
  Fe  Fe33  1  0.37472740  0.12566171  0.62720410  1
  Fe  Fe34  1  0.24981294  0.49776049  -0.00233484  1
  Fe  Fe35  1  0.87640544  0.12409003  0.62293019  1
  Fe  Fe36  1  0.24854432  0.24936353  0.25225296  1
  Fe  Fe37  1  0.50078022  0.24879570  0.25234061  1
  Fe  Fe38  1  0.12431471  0.37686495  0.37639888  1
  Fe  Fe39  1  0.37264535  0.62554122  0.87224220  1
  Fe  Fe40  1  0.24943063  0.24890000  0.49925579  1
  Fe  Fe41  1  0.75227877  0.50289073  0.50181863  1
  Fe  Fe42  1  0.62468412  0.12344879  0.62637621  1
  Fe  Fe43  1  0.49963415  0.24833706  0.50018782  1
  Fe  Fe44  1  0.75054489  -0.00042824  0.49787568  1
  Fe  Fe45  1  0.24839143  0.00266810  0.25014057  1
  Fe  Fe46  1  0.12465787  0.12365663  0.62370414  1
  Fe  Fe47  1  -0.00071341  -0.00022973  0.49812463  1
  Fe  Fe48  1  0.74912045  0.49950547  0.74607965  1
  Fe  Fe49  1  0.24590419  0.74935172  0.50039542  1
  Fe  Fe50  1  0.62514740  0.87236514  0.37398947  1
  Fe  Fe51  1  0.00023477  0.50200223  0.74847823  1
  Fe  Fe52  1  0.12671212  0.62560594  0.87184133  1
  Fe  Fe53  1  0.37408259  0.37342092  0.62779915  1
  Fe  Fe54  1  0.62446542  0.87440162  0.87376504  1
  Fe  Fe55  1  0.50123962  0.00207773  -0.00133082  1
  Fe  Fe56  1  0.00071322  0.24976619  0.74806035  1
  Fe  Fe57  1  0.50310166  0.24840052  -0.00225553  1
  Fe  Fe58  1  0.75332788  0.74750993  0.50282295  1
  Fe  Fe59  1  0.12174757  0.87543496  0.87356040  1
  Fe  Fe60  1  0.50099938  0.00018344  0.25227883  1
  Fe  Fe61  1  0.37129885  0.62754647  0.62695755  1
  Fe  Fe62  1  0.12219017  0.62369171  0.37096923  1
  Fe  Fe63  1  0.49923166  0.50433722  0.25356957  1
  Fe  Fe64  1  0.24951061  -0.00213270  0.74903209  1
  Fe  Fe65  1  0.74763754  0.74948091  0.24749443  1
  Fe  Fe66  1  0.87429450  0.12421861  0.87438620  1
  Fe  Fe67  1  0.74912733  -0.00070381  -0.00061939  1
  Fe  Fe68  1  0.74830772  0.75030807  0.00161118  1
  Fe  Fe69  1  0.87578597  0.37587773  0.87282870  1
  Fe  Fe70  1  0.00053824  0.00115775  0.24947804  1
  Fe  Fe71  1  0.74961654  0.24886417  0.25335678  1
  Fe  Fe72  1  0.49954303  0.74739536  0.49867978  1
  Fe  Fe73  1  0.24944466  -0.00014866  -0.00045765  1
  Fe  Fe74  1  0.75417850  -0.00517831  0.74951883  1
  Fe  Fe75  1  0.50000012  0.50048090  0.74794284  1
  Fe  Fe76  1  0.62712345  0.62725742  0.87146887  1
  Fe  Fe77  1  0.37373781  0.62447463  0.12561425  1
  Fe  Fe78  1  0.74857848  0.25024793  -0.00128257  1
  Fe  Fe79  1  0.62483029  0.37733437  0.12610078  1
  Fe  Fe80  1  0.24933192  0.25279819  -0.00397342  1
  Fe  Fe81  1  0.24984672  0.50259107  0.49994337  1
  Fe  Fe82  1  0.87643491  0.62447094  0.12690588  1
  Fe  Fe83  1  0.62717546  0.12278477  0.12741825  1
  Fe  Fe84  1  0.12512006  0.37649245  0.62546547  1
  Fe  Fe85  1  0.24762125  0.75047327  0.00105888  1
  Fe  Fe86  1  0.62465669  0.37679872  0.37851311  1
  Fe  Fe87  1  0.00219214  0.74885869  0.00257447  1
  Fe  Fe88  1  0.25057264  -0.00164439  0.50024579  1
  Fe  Fe89  1  0.87427472  0.37390209  0.12477091  1
  Co  Co90  1  0.62789966  0.12254014  0.87109593  1
  Co  Co91  1  0.00095021  0.25117324  0.50125651  1
  Co  Co92  1  0.62439962  0.37596790  0.62184936  1
  Co  Co93  1  0.37883770  0.37387838  0.87313375  1
  Co  Co94  1  0.12090444  0.37687425  0.87415543  1
  Co  Co95  1  0.12638458  0.62660135  0.62864920  1
  Co  Co96  1  0.62593197  0.62784819  0.62616718  1
  Co  Co97  1  0.75419795  0.75526163  0.74898045  1
  Co  Co98  1  0.49888928  0.74965523  0.75073721  1
  Co  Co99  1  0.62479960  0.12488880  0.37682466  1
  Co  Co100  1  -0.00350475  0.75033354  0.75144719  1
  Co  Co101  1  0.87931221  0.87413060  0.62101613  1
  Co  Co102  1  0.49948114  -0.00185328  0.74901223  1
  Co  Co103  1  0.62544300  0.62177074  0.12548619  1
  Co  Co104  1  0.37172370  0.62838631  0.37566946  1
  Co  Co105  1  0.62323161  0.87754668  0.12546021  1
  Co  Co106  1  0.24961216  0.75394140  0.75021998  1
  Co  Co107  1  0.12677027  0.87716331  0.12459512  1
  Co  Co108  1  0.12485445  0.62062561  0.12636680  1
  Co  Co109  1  0.00131039  0.75176629  0.24664798  1
  Co  Co110  1  0.87703666  0.12561639  0.37671125  1
  Co  Co111  1  0.62790906  0.62583600  0.37723996  1
  Co  Co112  1  -0.00298893  0.00020146  0.74981896  1
  Co  Co113  1  0.87627231  0.37568533  0.62520925  1
  Co  Co114  1  0.12489158  0.12356597  0.37814860  1
  Co  Co115  1  0.87631234  0.62768137  0.37211722  1
  Co  Co116  1  0.00076712  0.74567892  0.49941488  1
  Co  Co117  1  0.87792826  0.87432696  0.87975045  1
  Co  Co118  1  -0.00295635  0.49657696  0.24984631  1
  Co  Co119  1  0.25168385  0.49942695  0.25100605  1
  Co  Co120  1  0.50367171  0.25050001  0.74952792  1
  Co  Co121  1  0.24663077  0.25128493  0.75127389  1
  Co  Co122  1  0.75099421  -0.00083497  0.25357156  1
  Co  Co123  1  0.50172329  0.74685541  0.24935697  1
  Co  Co124  1  0.25055107  0.49704770  0.75105768  1
  Co  Co125  1  0.37394824  0.12354487  0.37623935  1
  Co  Co126  1  0.12640727  0.12683366  0.12298177  1
  Co  Co127  1  0.87541151  0.62643094  0.62720200  1
