# generated using pymatgen
data_Fe45Co19
_symmetry_space_group_name_H-M   'P 1'
_cell_length_a   11.41507004
_cell_length_b   11.41693738
_cell_length_c   11.41516481
_cell_angle_alpha   89.99733085
_cell_angle_beta   90.00463201
_cell_angle_gamma   90.00167735
_symmetry_Int_Tables_number   1
_chemical_formula_structural   Fe45Co19
_chemical_formula_sum   'Fe90 Co38'
_cell_volume   1487.68294245
_cell_formula_units_Z   2
loop_
 _symmetry_equiv_pos_site_id
 _symmetry_equiv_pos_as_xyz
  1  'x, y, z'
loop_
 _atom_site_type_symbol
 _atom_site_label
 _atom_site_symmetry_multiplicity
 _atom_site_fract_x
 _atom_site_fract_y
 _atom_site_fract_z
 _atom_site_occupancy
  Fe  Fe0  1  0.00123060  0.50182538  0.75023522  1
  Fe  Fe1  1  0.25417236  0.75286972  0.49861496  1
  Fe  Fe2  1  0.12508094  0.87444451  0.37207074  1
  Fe  Fe3  1  0.74844864  0.50146758  0.75016856  1
  Fe  Fe4  1  -0.00102839  0.49933144  0.00328175  1
  Fe  Fe5  1  0.74750415  0.50222148  0.50112911  1
  Fe  Fe6  1  0.62432876  0.62449182  0.87636764  1
  Fe  Fe7  1  0.87690777  0.87320135  0.37208362  1
  Fe  Fe8  1  0.87137695  0.37647924  0.12611115  1
  Fe  Fe9  1  0.00202147  -0.00154899  0.50112125  1
  Fe  Fe10  1  0.00135743  0.25104834  0.24764900  1
  Fe  Fe11  1  0.62540866  0.87436294  0.12466763  1
  Fe  Fe12  1  0.87509362  0.37622300  0.37425135  1
  Fe  Fe13  1  0.12649137  0.62439595  0.37442268  1
  Fe  Fe14  1  0.12724402  0.62566227  0.62356355  1
  Fe  Fe15  1  0.00363029  -0.00072221  0.24501339  1
  Fe  Fe16  1  0.00146856  0.49985441  0.49978620  1
  Fe  Fe17  1  0.37209021  0.12616310  0.12168708  1
  Fe  Fe18  1  0.87519128  0.62764472  0.37360085  1
  Fe  Fe19  1  0.49520102  -0.00491504  0.50300935  1
  Fe  Fe20  1  0.87607376  0.12539475  0.62534148  1
  Fe  Fe21  1  0.62391819  0.37576178  0.87490576  1
  Fe  Fe22  1  0.87449769  0.62659293  0.87873619  1
  Fe  Fe23  1  0.87565644  0.62667334  0.62560753  1
  Fe  Fe24  1  0.62167766  0.87189166  0.37511748  1
  Fe  Fe25  1  0.75090729  -0.00182457  0.49907499  1
  Fe  Fe26  1  0.24831706  0.74864627  0.75487138  1
  Fe  Fe27  1  0.37190001  0.87355494  0.12487352  1
  Fe  Fe28  1  0.62368390  0.12320013  0.87528745  1
  Fe  Fe29  1  0.87816996  0.87221929  0.62853033  1
  Fe  Fe30  1  0.25205671  0.49736485  0.49721042  1
  Fe  Fe31  1  0.25344757  0.49973149  0.25019204  1
  Fe  Fe32  1  0.49899901  0.74986855  0.74936566  1
  Fe  Fe33  1  0.62248986  0.37543815  0.37436678  1
  Fe  Fe34  1  0.75302543  -0.00073441  0.75313259  1
  Fe  Fe35  1  0.00086982  0.50373405  0.24674209  1
  Fe  Fe36  1  0.00164132  0.75038910  0.49930199  1
  Fe  Fe37  1  0.00209761  0.75028977  0.00373004  1
  Fe  Fe38  1  0.25077504  0.25233340  0.49786742  1
  Fe  Fe39  1  0.49850783  0.25151319  0.50260831  1
  Fe  Fe40  1  0.50054415  0.24770756  0.24911259  1
  Fe  Fe41  1  0.49808631  -0.00037256  0.00067684  1
  Fe  Fe42  1  0.74777696  -0.00047230  0.25216155  1
  Fe  Fe43  1  0.12954807  0.37513361  0.12330169  1
  Fe  Fe44  1  0.12510983  0.87448647  0.62870471  1
  Fe  Fe45  1  0.12021349  0.87922464  0.87623620  1
  Fe  Fe46  1  0.37592434  0.37509446  0.87502020  1
  Fe  Fe47  1  0.62736630  0.12284743  0.12275516  1
  Fe  Fe48  1  0.74814827  0.50393451  0.25027202  1
  Fe  Fe49  1  0.75520436  -0.00214835  -0.00371839  1
  Fe  Fe50  1  0.37330110  0.62579742  0.62653878  1
  Fe  Fe51  1  0.24950931  0.50086876  0.75341097  1
  Fe  Fe52  1  0.62072815  0.63081060  0.37968714  1
  Fe  Fe53  1  0.25002215  0.24635964  0.75431456  1
  Fe  Fe54  1  0.74995499  0.25088785  -0.00098006  1
  Fe  Fe55  1  0.49993081  0.00074770  0.24852692  1
  Fe  Fe56  1  0.24937027  0.00437577  0.75451868  1
  Fe  Fe57  1  0.12689769  0.37598108  0.62624079  1
  Fe  Fe58  1  0.12412476  0.12539411  0.37377493  1
  Fe  Fe59  1  0.87374532  0.12545760  0.12482213  1
  Fe  Fe60  1  0.00182616  0.25196342  0.50018242  1
  Fe  Fe61  1  0.12604121  0.62350848  0.88050603  1
  Fe  Fe62  1  0.24842382  0.00160284  0.24764162  1
  Fe  Fe63  1  0.74848325  0.24869861  0.49741855  1
  Fe  Fe64  1  0.50081915  0.49976769  0.74697887  1
  Fe  Fe65  1  0.37616909  0.87772349  0.87345996  1
  Fe  Fe66  1  0.25139395  0.25132090  0.25135715  1
  Fe  Fe67  1  0.87770633  0.12370718  0.37364201  1
  Fe  Fe68  1  0.74679902  0.24809135  0.25224754  1
  Fe  Fe69  1  0.12328666  0.37324586  0.87634617  1
  Fe  Fe70  1  0.49735517  0.74945359  0.00021809  1
  Fe  Fe71  1  0.49719193  0.50412617  0.24700922  1
  Fe  Fe72  1  0.87386122  0.37597846  0.62497936  1
  Fe  Fe73  1  0.62482870  0.37621973  0.12513788  1
  Fe  Fe74  1  0.62787406  0.62678242  0.12114746  1
  Fe  Fe75  1  0.62401405  0.12328376  0.62464682  1
  Fe  Fe76  1  0.75027836  0.74946209  0.75226921  1
  Fe  Fe77  1  0.37574384  0.12346174  0.37631215  1
  Fe  Fe78  1  0.62365493  0.87573909  0.87535038  1
  Fe  Fe79  1  0.49817146  0.24906233  0.74758209  1
  Fe  Fe80  1  0.25118271  0.74785788  0.25062272  1
  Fe  Fe81  1  0.49959028  0.24978882  0.00102430  1
  Fe  Fe82  1  0.49904173  0.49909982  0.50426599  1
  Fe  Fe83  1  0.62564782  0.87226148  0.62495469  1
  Fe  Fe84  1  0.12548602  0.12506001  0.62563391  1
  Fe  Fe85  1  0.87352392  0.87034202  0.12743034  1
  Fe  Fe86  1  0.87639157  0.37353213  0.87439969  1
  Fe  Fe87  1  0.75030509  0.24886000  0.75125376  1
  Fe  Fe88  1  0.25117172  -0.00267352  0.49972519  1
  Fe  Fe89  1  0.49659404  0.50073130  0.00134748  1
  Co  Co90  1  0.88061851  0.12732621  0.87637369  1
  Co  Co91  1  0.13128587  0.62474712  0.12220411  1
  Co  Co92  1  0.37357884  0.12380804  0.62439713  1
  Co  Co93  1  0.37687605  0.62496020  0.37671789  1
  Co  Co94  1  0.25326543  0.49719048  -0.00201461  1
  Co  Co95  1  0.24944495  0.00094081  -0.00189215  1
  Co  Co96  1  0.37475235  0.37322229  0.12441734  1
  Co  Co97  1  0.74629480  0.74868272  0.25096910  1
  Co  Co98  1  0.37077559  0.37558934  0.62733976  1
  Co  Co99  1  0.12711379  0.12758911  0.12160019  1
  Co  Co100  1  0.12331670  0.37637434  0.37265630  1
  Co  Co101  1  0.88100923  0.87199137  0.87350609  1
  Co  Co102  1  0.00290236  0.74640787  0.24789673  1
  Co  Co103  1  -0.00074055  0.25253655  0.00435017  1
  Co  Co104  1  0.87181051  0.62719173  0.12297810  1
  Co  Co105  1  0.12945033  0.87205877  0.12442436  1
  Co  Co106  1  0.74983346  0.49798223  -0.00150685  1
  Co  Co107  1  0.36882099  0.62738683  0.12079030  1
  Co  Co108  1  0.37655795  0.62422729  0.87401380  1
  Co  Co109  1  0.49225254  0.75464738  0.50300760  1
  Co  Co110  1  0.11692503  0.12402705  0.87948095  1
  Co  Co111  1  0.50131657  -0.00014371  0.74788008  1
  Co  Co112  1  0.75294600  0.75138909  0.49956180  1
  Co  Co113  1  0.00381679  0.74479902  0.75116922  1
  Co  Co114  1  -0.00144172  0.00270554  0.74871320  1
  Co  Co115  1  0.25103598  0.24862562  -0.00494283  1
  Co  Co116  1  0.37944427  0.37573511  0.37361808  1
  Co  Co117  1  0.37488414  0.87571969  0.36863437  1
  Co  Co118  1  0.62391532  0.62965650  0.62373764  1
  Co  Co119  1  0.37964579  0.12301262  0.87630423  1
  Co  Co120  1  0.74869938  0.75302508  -0.00194701  1
  Co  Co121  1  0.00160884  0.25073612  0.74696709  1
  Co  Co122  1  0.49916491  0.74746515  0.24577331  1
  Co  Co123  1  0.62125138  0.12208918  0.37798782  1
  Co  Co124  1  0.62798313  0.37343131  0.62555268  1
  Co  Co125  1  0.37008972  0.87515490  0.63284584  1
  Co  Co126  1  -0.00224586  -0.00222982  0.00612243  1
  Co  Co127  1  0.25144488  0.75322605  -0.00585497  1
