# generated using pymatgen
data_Fe45Co19
_symmetry_space_group_name_H-M   'P 1'
_cell_length_a   11.41400211
_cell_length_b   11.41393167
_cell_length_c   11.41488817
_cell_angle_alpha   89.99839564
_cell_angle_beta   90.00087653
_cell_angle_gamma   90.00471328
_symmetry_Int_Tables_number   1
_chemical_formula_structural   Fe45Co19
_chemical_formula_sum   'Fe90 Co38'
_cell_volume   1487.11610210
_cell_formula_units_Z   2
loop_
 _symmetry_equiv_pos_site_id
 _symmetry_equiv_pos_as_xyz
  1  'x, y, z'
loop_
 _atom_site_type_symbol
 _atom_site_label
 _atom_site_symmetry_multiplicity
 _atom_site_fract_x
 _atom_site_fract_y
 _atom_site_fract_z
 _atom_site_occupancy
  Fe  Fe0  1  0.87636516  0.87396603  0.12446987  1
  Fe  Fe1  1  0.25352323  -0.00204387  0.49912365  1
  Fe  Fe2  1  0.62061195  0.12367357  0.12226974  1
  Fe  Fe3  1  0.74776571  -0.00362254  0.24934667  1
  Fe  Fe4  1  0.62664521  0.37362865  0.87634370  1
  Fe  Fe5  1  0.50129137  0.49909657  0.00086273  1
  Fe  Fe6  1  0.75011888  0.75196445  -0.00101361  1
  Fe  Fe7  1  0.50125618  0.49919864  0.75053331  1
  Fe  Fe8  1  0.62725569  0.37584672  0.37452928  1
  Fe  Fe9  1  0.75148247  0.75281656  0.50031253  1
  Fe  Fe10  1  -0.00108596  0.75041171  0.25001111  1
  Fe  Fe11  1  0.12431621  0.62452714  0.12262553  1
  Fe  Fe12  1  0.12372984  0.12517410  0.62344596  1
  Fe  Fe13  1  0.25026602  -0.00221652  0.00118467  1
  Fe  Fe14  1  -0.00167875  0.24801103  0.25054366  1
  Fe  Fe15  1  0.37863600  0.12643735  0.12619274  1
  Fe  Fe16  1  0.24942472  0.25078603  0.24989825  1
  Fe  Fe17  1  0.75243374  0.24626742  0.49880381  1
  Fe  Fe18  1  0.25043867  -0.00052115  0.24869016  1
  Fe  Fe19  1  0.12337931  0.37576791  0.12508236  1
  Fe  Fe20  1  0.12317024  0.37697629  0.37424064  1
  Fe  Fe21  1  0.12391467  0.12422924  0.87873028  1
  Fe  Fe22  1  0.87335439  0.62704798  0.62754229  1
  Fe  Fe23  1  0.62470313  0.11964835  0.37817622  1
  Fe  Fe24  1  0.50027172  0.00144754  0.74971423  1
  Fe  Fe25  1  0.50003901  -0.00373856  0.25258687  1
  Fe  Fe26  1  0.37494188  0.87372754  0.12479919  1
  Fe  Fe27  1  0.12413229  0.12399503  0.12486339  1
  Fe  Fe28  1  0.12342532  0.37568459  0.87652742  1
  Fe  Fe29  1  0.37425390  0.62521093  0.87610357  1
  Fe  Fe30  1  0.12591286  0.62459430  0.37483368  1
  Fe  Fe31  1  0.74921751  0.00569338  0.74778237  1
  Fe  Fe32  1  0.12393806  0.87677735  0.62762143  1
  Fe  Fe33  1  0.62598511  0.63071076  0.37298220  1
  Fe  Fe34  1  0.12468366  0.62446175  0.62443516  1
  Fe  Fe35  1  0.24935357  0.25053263  0.75094450  1
  Fe  Fe36  1  0.24652855  0.74955343  0.75275960  1
  Fe  Fe37  1  0.62699431  0.62596031  0.62496858  1
  Fe  Fe38  1  0.12552874  0.87553888  0.37241509  1
  Fe  Fe39  1  0.75052755  0.49854335  0.75009678  1
  Fe  Fe40  1  0.62674078  0.62608319  0.87413745  1
  Fe  Fe41  1  0.37429507  0.87407936  0.87460321  1
  Fe  Fe42  1  0.87818984  0.87697968  0.62795344  1
  Fe  Fe43  1  0.50010416  0.75099790  0.00158897  1
  Fe  Fe44  1  0.87531020  0.12374295  0.12550311  1
  Fe  Fe45  1  0.50297448  0.50030739  0.24877757  1
  Fe  Fe46  1  0.37601984  0.12537306  0.62389957  1
  Fe  Fe47  1  0.37859162  0.37368224  0.12701566  1
  Fe  Fe48  1  0.25030044  0.49796679  0.50063151  1
  Fe  Fe49  1  -0.00160503  0.49988136  0.50050929  1
  Fe  Fe50  1  0.25144610  0.25103452  0.00099593  1
  Fe  Fe51  1  -0.00135002  0.24694832  0.75273308  1
  Fe  Fe52  1  0.62618632  0.37173590  0.62505827  1
  Fe  Fe53  1  0.87629845  0.87655734  0.87113986  1
  Fe  Fe54  1  0.74830710  0.24718062  -0.00035977  1
  Fe  Fe55  1  0.37524932  0.37547224  0.37253605  1
  Fe  Fe56  1  -0.00027854  0.75160172  0.50061425  1
  Fe  Fe57  1  0.50079234  0.50216521  0.50000292  1
  Fe  Fe58  1  0.25182058  0.49883774  0.00166782  1
  Fe  Fe59  1  0.00111415  -0.00073708  0.00041064  1
  Fe  Fe60  1  0.87582466  0.88010101  0.37528121  1
  Fe  Fe61  1  0.37598324  0.62655619  0.37288139  1
  Fe  Fe62  1  0.62891658  0.62851699  0.12773083  1
  Fe  Fe63  1  0.62259205  0.87847984  0.62014436  1
  Fe  Fe64  1  0.37697097  0.12496329  0.87792183  1
  Fe  Fe65  1  0.49857733  0.24796024  0.49626896  1
  Fe  Fe66  1  0.37647713  0.37351805  0.62522499  1
  Fe  Fe67  1  -0.00320166  0.50108662  0.24819240  1
  Fe  Fe68  1  0.24958156  0.00176483  0.75062159  1
  Fe  Fe69  1  0.87282752  0.62479419  0.37345203  1
  Fe  Fe70  1  0.24888514  0.49731590  0.74847528  1
  Fe  Fe71  1  0.87290732  0.37430683  0.12553906  1
  Fe  Fe72  1  0.24960785  0.25115063  0.49866418  1
  Fe  Fe73  1  0.50132249  0.24970850  0.75359180  1
  Fe  Fe74  1  0.75148729  0.50200212  0.00199842  1
  Fe  Fe75  1  0.25087965  0.74763866  0.24625195  1
  Fe  Fe76  1  -0.00164811  0.24777457  0.49624359  1
  Fe  Fe77  1  0.50257954  0.75076584  0.74860079  1
  Fe  Fe78  1  0.62502458  0.87774033  0.87603360  1
  Fe  Fe79  1  0.37466927  0.62599706  0.62671268  1
  Fe  Fe80  1  0.87486834  0.37276336  0.87720548  1
  Fe  Fe81  1  0.74784728  0.24865993  0.25089223  1
  Fe  Fe82  1  0.74923945  0.00002974  0.00010574  1
  Fe  Fe83  1  0.12485664  0.12202097  0.37371809  1
  Fe  Fe84  1  0.87455878  0.37184211  0.62481392  1
  Fe  Fe85  1  0.00319620  0.75064639  -0.00351675  1
  Fe  Fe86  1  0.25203072  0.75179040  0.50121955  1
  Fe  Fe87  1  0.75032380  0.49992665  0.49896526  1
  Fe  Fe88  1  0.87456254  0.62762627  0.87299909  1
  Fe  Fe89  1  -0.00021216  0.50077552  0.74992394  1
  Co  Co90  1  0.00069491  -0.00012248  0.24768630  1
  Co  Co91  1  0.87538335  0.12371082  0.87842707  1
  Co  Co92  1  0.00350663  0.74833359  0.75115159  1
  Co  Co93  1  0.62561023  0.87447101  0.12316957  1
  Co  Co94  1  0.87429947  0.12045780  0.37210886  1
  Co  Co95  1  0.49811394  -0.00282680  0.00069902  1
  Co  Co96  1  0.87791915  0.12577008  0.62390561  1
  Co  Co97  1  0.37420783  0.37625599  0.87451094  1
  Co  Co98  1  0.75162722  0.75603564  0.25185580  1
  Co  Co99  1  0.50082450  0.75266595  0.24658166  1
  Co  Co100  1  0.37400929  0.87478662  0.62976823  1
  Co  Co101  1  0.37411846  0.87070824  0.37180584  1
  Co  Co102  1  0.49715525  0.75039149  0.50226724  1
  Co  Co103  1  0.75022671  0.50026061  0.24890167  1
  Co  Co104  1  0.37292023  0.12548915  0.37240165  1
  Co  Co105  1  0.12705710  0.62071537  0.87714389  1
  Co  Co106  1  0.12192260  0.37299295  0.62489702  1
  Co  Co107  1  0.25014553  0.50023952  0.24921936  1
  Co  Co108  1  0.62413356  0.87432713  0.38002784  1
  Co  Co109  1  0.49947322  0.25207807  -0.00185670  1
  Co  Co110  1  -0.00001237  0.24933695  0.00195015  1
  Co  Co111  1  0.50353526  0.24932579  0.25243792  1
  Co  Co112  1  0.74682154  0.75388791  0.74846435  1
  Co  Co113  1  0.87351276  0.62942736  0.12484401  1
  Co  Co114  1  0.62295787  0.12374064  0.87805265  1
  Co  Co115  1  0.75016844  0.24554331  0.75160555  1
  Co  Co116  1  0.62630509  0.37412203  0.12398437  1
  Co  Co117  1  0.62105789  0.12600861  0.62183806  1
  Co  Co118  1  0.49215709  -0.00150622  0.49745534  1
  Co  Co119  1  -0.00323478  0.50103586  0.00097580  1
  Co  Co120  1  0.12476428  0.87370079  0.12623935  1
  Co  Co121  1  0.00049005  0.00428724  0.75140309  1
  Co  Co122  1  0.87415910  0.37563952  0.37368330  1
  Co  Co123  1  0.75289457  0.00146629  0.50342696  1
  Co  Co124  1  0.37614992  0.62402964  0.12384236  1
  Co  Co125  1  0.12529534  0.87810151  0.87382966  1
  Co  Co126  1  0.24904909  0.75143509  0.00044406  1
  Co  Co127  1  0.00148437  -0.00020135  0.49989461  1
