# generated using pymatgen
data_Fe45Co19
_symmetry_space_group_name_H-M   'P 1'
_cell_length_a   11.41564281
_cell_length_b   11.41485981
_cell_length_c   11.41651985
_cell_angle_alpha   90.00277704
_cell_angle_beta   89.99047874
_cell_angle_gamma   89.99468176
_symmetry_Int_Tables_number   1
_chemical_formula_structural   Fe45Co19
_chemical_formula_sum   'Fe90 Co38'
_cell_volume   1487.66340959
_cell_formula_units_Z   2
loop_
 _symmetry_equiv_pos_site_id
 _symmetry_equiv_pos_as_xyz
  1  'x, y, z'
loop_
 _atom_site_type_symbol
 _atom_site_label
 _atom_site_symmetry_multiplicity
 _atom_site_fract_x
 _atom_site_fract_y
 _atom_site_fract_z
 _atom_site_occupancy
  Fe  Fe0  1  0.00694723  0.25542107  0.49986479  1
  Fe  Fe1  1  0.87562394  0.62334191  0.12177714  1
  Fe  Fe2  1  0.37519392  0.37556638  0.87639086  1
  Fe  Fe3  1  0.24739750  0.24914325  -0.00080923  1
  Fe  Fe4  1  0.49798602  0.49836510  0.24932023  1
  Fe  Fe5  1  0.25230431  0.00079250  0.74871531  1
  Fe  Fe6  1  0.12865939  0.87939527  0.37214689  1
  Fe  Fe7  1  0.50319986  0.49708435  0.00196360  1
  Fe  Fe8  1  0.00040963  0.75160737  0.49845604  1
  Fe  Fe9  1  0.87691827  0.12669065  0.62471970  1
  Fe  Fe10  1  0.00007670  0.74892021  0.25144665  1
  Fe  Fe11  1  0.37212262  0.37249724  0.37717380  1
  Fe  Fe12  1  0.87594509  0.12759481  0.12268388  1
  Fe  Fe13  1  0.74842892  0.25166112  0.50222228  1
  Fe  Fe14  1  0.25088199  0.00027049  0.00145377  1
  Fe  Fe15  1  0.74990454  0.00259923  0.74910036  1
  Fe  Fe16  1  0.37497173  0.87275399  0.62293382  1
  Fe  Fe17  1  0.12414695  0.12249442  0.87473959  1
  Fe  Fe18  1  -0.00194464  0.49954939  0.74880245  1
  Fe  Fe19  1  0.25071331  0.74909394  0.75177439  1
  Fe  Fe20  1  0.62575192  0.62325224  0.37550994  1
  Fe  Fe21  1  0.00254581  0.25314629  0.25153856  1
  Fe  Fe22  1  0.50128515  0.75055036  0.25029450  1
  Fe  Fe23  1  0.37241962  0.37215911  0.62214490  1
  Fe  Fe24  1  0.12521949  0.87547883  0.62644266  1
  Fe  Fe25  1  0.50225266  0.75246602  0.49758155  1
  Fe  Fe26  1  0.12408910  0.12455388  0.12565947  1
  Fe  Fe27  1  0.12413290  0.62126935  0.12667903  1
  Fe  Fe28  1  0.74652997  0.75231843  0.00068124  1
  Fe  Fe29  1  0.12520909  0.12341645  0.62431763  1
  Fe  Fe30  1  0.12754613  0.87635657  0.12790458  1
  Fe  Fe31  1  0.24867245  0.50013830  0.00074531  1
  Fe  Fe32  1  0.74784487  0.00021964  0.00005537  1
  Fe  Fe33  1  0.62234507  0.12827428  0.62642433  1
  Fe  Fe34  1  0.62478531  0.62511563  0.87521331  1
  Fe  Fe35  1  0.62474174  0.62571831  0.62338781  1
  Fe  Fe36  1  0.87389327  0.87561899  0.87122343  1
  Fe  Fe37  1  0.24757182  0.24626680  0.25372409  1
  Fe  Fe38  1  0.37468052  0.62794649  0.12339320  1
  Fe  Fe39  1  0.37681807  0.62698958  0.87836581  1
  Fe  Fe40  1  -0.00374676  0.00130851  0.25000693  1
  Fe  Fe41  1  0.49848908  -0.00004318  0.74921756  1
  Fe  Fe42  1  0.37502448  0.87232974  0.87715699  1
  Fe  Fe43  1  0.37483724  0.62684368  0.62366218  1
  Fe  Fe44  1  0.00115063  0.75138464  0.00008076  1
  Fe  Fe45  1  0.87296779  0.37581327  0.87578614  1
  Fe  Fe46  1  0.74990958  0.49702358  0.50283804  1
  Fe  Fe47  1  0.87490966  0.62671309  0.62322848  1
  Fe  Fe48  1  0.87108578  0.87439272  0.12928582  1
  Fe  Fe49  1  0.12492774  0.62324779  0.87409269  1
  Fe  Fe50  1  -0.00175673  -0.00101143  -0.00030959  1
  Fe  Fe51  1  0.74983429  0.49888532  0.74760861  1
  Fe  Fe52  1  0.25161322  0.24845997  0.74976344  1
  Fe  Fe53  1  0.00182526  0.25119834  -0.00177297  1
  Fe  Fe54  1  0.50225328  0.75102261  0.74996067  1
  Fe  Fe55  1  0.37510345  0.12807932  0.61903663  1
  Fe  Fe56  1  0.75046527  0.75397568  0.50038195  1
  Fe  Fe57  1  0.49958651  -0.00192447  0.49817274  1
  Fe  Fe58  1  0.37378087  0.37072239  0.12422589  1
  Fe  Fe59  1  0.12678313  0.62156143  0.62526702  1
  Fe  Fe60  1  0.12489478  0.61699258  0.37334376  1
  Fe  Fe61  1  0.62887509  0.87660779  0.37021389  1
  Fe  Fe62  1  0.62356531  0.12509392  0.12596515  1
  Fe  Fe63  1  0.62467481  0.12571671  0.37551664  1
  Fe  Fe64  1  0.49937352  0.49767975  0.50044469  1
  Fe  Fe65  1  0.74576987  0.25026094  -0.00308012  1
  Fe  Fe66  1  0.37456423  0.62599680  0.37479920  1
  Fe  Fe67  1  0.62567829  0.37589126  0.37382903  1
  Fe  Fe68  1  -0.00185098  -0.00334119  0.50079467  1
  Fe  Fe69  1  0.87307898  0.62418521  0.87752662  1
  Fe  Fe70  1  0.50159006  -0.00324770  0.00185546  1
  Fe  Fe71  1  0.49465420  0.00226770  0.25067340  1
  Fe  Fe72  1  0.62510857  0.62430413  0.12574232  1
  Fe  Fe73  1  0.37160582  0.87083547  0.12593064  1
  Fe  Fe74  1  0.75146475  0.24925792  0.25045942  1
  Fe  Fe75  1  0.12518718  0.87654074  0.87353828  1
  Fe  Fe76  1  0.75205537  0.49977949  0.24849711  1
  Fe  Fe77  1  0.49819887  0.49849711  0.74805564  1
  Fe  Fe78  1  0.37698253  0.12490750  0.87763918  1
  Fe  Fe79  1  -0.00073012  0.74963526  0.74992903  1
  Fe  Fe80  1  0.87575715  0.62389769  0.37668602  1
  Fe  Fe81  1  0.24858609  0.74948048  0.49743915  1
  Fe  Fe82  1  0.75153094  -0.00049954  0.49987835  1
  Fe  Fe83  1  0.87833498  0.12732158  0.37746010  1
  Fe  Fe84  1  0.87460156  0.37543252  0.12119540  1
  Fe  Fe85  1  0.87632340  0.37599796  0.37736856  1
  Fe  Fe86  1  0.12644771  0.37665566  0.87225677  1
  Fe  Fe87  1  0.50413163  0.25153992  -0.00232412  1
  Fe  Fe88  1  0.49886807  0.24841006  0.25267077  1
  Fe  Fe89  1  -0.00079850  0.24928863  0.75061896  1
  Co  Co90  1  0.12654185  0.38314203  0.37270846  1
  Co  Co91  1  0.62485568  0.87570676  0.62579491  1
  Co  Co92  1  0.24555707  0.74834616  -0.00059365  1
  Co  Co93  1  0.62223370  0.12432608  0.87317432  1
  Co  Co94  1  0.12681421  0.37547412  0.12705811  1
  Co  Co95  1  0.62550774  0.87546005  0.87169392  1
  Co  Co96  1  0.37234179  0.87356307  0.37338308  1
  Co  Co97  1  0.25468207  0.50118298  0.75103956  1
  Co  Co98  1  0.37375380  0.12700799  0.38174889  1
  Co  Co99  1  0.75069340  0.74456508  0.25004719  1
  Co  Co100  1  0.24202382  0.25063276  0.49711873  1
  Co  Co101  1  -0.00095707  0.49830221  0.50322711  1
  Co  Co102  1  0.25149273  -0.00068298  0.50117177  1
  Co  Co103  1  0.74897029  0.74850913  0.74885267  1
  Co  Co104  1  0.75157240  0.24869699  0.75074985  1
  Co  Co105  1  0.62358997  0.37274895  0.62763956  1
  Co  Co106  1  0.62794170  0.87770687  0.13210619  1
  Co  Co107  1  0.87570052  0.87448058  0.62788114  1
  Co  Co108  1  0.87277054  0.87466566  0.37198620  1
  Co  Co109  1  0.62461125  0.37295456  0.12930741  1
  Co  Co110  1  0.24719032  0.74686429  0.25176667  1
  Co  Co111  1  0.87607788  0.37254463  0.62534269  1
  Co  Co112  1  0.74500554  0.49814855  0.00086140  1
  Co  Co113  1  0.49605396  0.25052125  0.75052865  1
  Co  Co114  1  0.75330860  0.00774506  0.25142353  1
  Co  Co115  1  0.50538591  0.75301468  0.00225694  1
  Co  Co116  1  0.25552672  0.49955076  0.24744527  1
  Co  Co117  1  0.00299336  0.49825110  -0.00096719  1
  Co  Co118  1  0.25562577  0.00591637  0.24848018  1
  Co  Co119  1  -0.00022374  0.00173411  0.74984170  1
  Co  Co120  1  0.37614265  0.12923402  0.12108759  1
  Co  Co121  1  -0.00529833  0.49770622  0.24772457  1
  Co  Co122  1  0.12240351  0.11932001  0.37500632  1
  Co  Co123  1  0.62483443  0.37531268  0.86948532  1
  Co  Co124  1  0.87494122  0.12439479  0.87645515  1
  Co  Co125  1  0.50299882  0.25251989  0.49856634  1
  Co  Co126  1  0.12770187  0.37853541  0.62879818  1
  Co  Co127  1  0.25284386  0.50042953  0.50102429  1
