# generated using pymatgen
data_Fe45Co19
_symmetry_space_group_name_H-M   'P 1'
_cell_length_a   11.41331472
_cell_length_b   11.41439143
_cell_length_c   11.41517391
_cell_angle_alpha   89.99683834
_cell_angle_beta   89.99522834
_cell_angle_gamma   90.00219798
_symmetry_Int_Tables_number   1
_chemical_formula_structural   Fe45Co19
_chemical_formula_sum   'Fe90 Co38'
_cell_volume   1487.12366490
_cell_formula_units_Z   2
loop_
 _symmetry_equiv_pos_site_id
 _symmetry_equiv_pos_as_xyz
  1  'x, y, z'
loop_
 _atom_site_type_symbol
 _atom_site_label
 _atom_site_symmetry_multiplicity
 _atom_site_fract_x
 _atom_site_fract_y
 _atom_site_fract_z
 _atom_site_occupancy
  Fe  Fe0  1  0.50307471  0.75317683  -0.00248043  1
  Fe  Fe1  1  0.62434155  0.12501542  0.62588636  1
  Fe  Fe2  1  -0.00210026  -0.00165230  0.49909657  1
  Fe  Fe3  1  0.12604125  0.87375691  0.62262873  1
  Fe  Fe4  1  0.12270316  0.12554272  0.62493144  1
  Fe  Fe5  1  0.37580895  0.37323045  0.12454926  1
  Fe  Fe6  1  0.87589786  0.12549771  0.12119131  1
  Fe  Fe7  1  0.25309919  0.50274938  0.74886121  1
  Fe  Fe8  1  0.87223712  0.12668765  0.37620953  1
  Fe  Fe9  1  0.24939800  0.00015278  0.74847252  1
  Fe  Fe10  1  0.37654449  0.62645547  0.12533072  1
  Fe  Fe11  1  0.25225397  0.00205488  0.00025944  1
  Fe  Fe12  1  0.62617789  0.12558045  0.37743565  1
  Fe  Fe13  1  0.62836787  0.37670192  0.87563842  1
  Fe  Fe14  1  0.37852758  0.87669303  0.12562204  1
  Fe  Fe15  1  -0.00604077  0.49719644  0.75325386  1
  Fe  Fe16  1  0.12663389  0.37541314  0.37465070  1
  Fe  Fe17  1  0.74784081  0.24959328  0.24561021  1
  Fe  Fe18  1  -0.00117570  0.50007865  0.49801294  1
  Fe  Fe19  1  0.12321781  0.62443541  0.62485586  1
  Fe  Fe20  1  0.87575072  0.12576466  0.62393250  1
  Fe  Fe21  1  0.62536037  0.37728729  0.62999741  1
  Fe  Fe22  1  0.37329478  0.87288137  0.87382971  1
  Fe  Fe23  1  -0.00135944  0.00048613  0.25056054  1
  Fe  Fe24  1  -0.00067956  0.74872869  0.25365586  1
  Fe  Fe25  1  0.12589263  0.62623351  0.12527915  1
  Fe  Fe26  1  0.12683244  0.37571696  0.12553000  1
  Fe  Fe27  1  0.25137269  0.50146010  -0.00099426  1
  Fe  Fe28  1  0.12662252  0.62672061  0.87465786  1
  Fe  Fe29  1  0.75183361  -0.00122982  0.50249437  1
  Fe  Fe30  1  0.12545270  0.12553107  0.37398305  1
  Fe  Fe31  1  0.62570960  0.12240627  0.87223951  1
  Fe  Fe32  1  0.87323295  0.87360125  0.12658292  1
  Fe  Fe33  1  0.12597802  0.87382026  0.12593537  1
  Fe  Fe34  1  0.61852938  0.12153404  0.12435008  1
  Fe  Fe35  1  0.00055818  0.75071870  0.75049328  1
  Fe  Fe36  1  0.75422017  0.25022312  0.75021160  1
  Fe  Fe37  1  0.12834786  0.87282358  0.87451360  1
  Fe  Fe38  1  0.24975851  0.24703087  0.00234204  1
  Fe  Fe39  1  0.62510001  0.62378849  0.87056186  1
  Fe  Fe40  1  0.37719688  0.12705694  0.62755722  1
  Fe  Fe41  1  0.62698328  0.37410687  0.37389143  1
  Fe  Fe42  1  0.62289966  0.62284706  0.37795167  1
  Fe  Fe43  1  0.62412657  0.87477174  0.62695291  1
  Fe  Fe44  1  0.37464413  0.37246626  0.87285624  1
  Fe  Fe45  1  0.74897866  0.00134191  0.24824915  1
  Fe  Fe46  1  -0.00001101  -0.00101719  -0.00035892  1
  Fe  Fe47  1  0.74805433  0.74954583  0.00005364  1
  Fe  Fe48  1  0.74990767  0.74848725  0.25208657  1
  Fe  Fe49  1  0.38359713  0.62561369  0.62319524  1
  Fe  Fe50  1  0.74849399  0.74864111  0.74757930  1
  Fe  Fe51  1  -0.00179474  0.00011249  0.75014757  1
  Fe  Fe52  1  0.37538938  0.87402225  0.62454169  1
  Fe  Fe53  1  -0.00280075  0.75062306  0.49643904  1
  Fe  Fe54  1  0.87128811  0.37429367  0.37516754  1
  Fe  Fe55  1  0.50084626  0.25317681  0.50227424  1
  Fe  Fe56  1  0.62780823  0.87753887  0.37436226  1
  Fe  Fe57  1  0.87163384  0.87538889  0.87242636  1
  Fe  Fe58  1  0.87371825  0.62460997  0.12539139  1
  Fe  Fe59  1  0.25343806  0.74737168  0.49745224  1
  Fe  Fe60  1  0.25140663  0.00206002  0.24838150  1
  Fe  Fe61  1  0.25044256  0.24949449  0.50115869  1
  Fe  Fe62  1  0.49993864  -0.00158209  0.75227778  1
  Fe  Fe63  1  -0.00028030  0.25094302  0.49975140  1
  Fe  Fe64  1  0.62391937  0.62501927  0.12616063  1
  Fe  Fe65  1  0.12436838  0.37400417  0.87403113  1
  Fe  Fe66  1  0.25219574  0.50119126  0.50145217  1
  Fe  Fe67  1  0.50024863  0.50029804  -0.00139428  1
  Fe  Fe68  1  0.86996985  0.37572775  0.11979698  1
  Fe  Fe69  1  0.25084600  0.50278409  0.25080538  1
  Fe  Fe70  1  0.50039936  0.24793405  -0.00254036  1
  Fe  Fe71  1  0.37532598  0.12472856  0.37524718  1
  Fe  Fe72  1  0.12258483  0.12610957  0.87535753  1
  Fe  Fe73  1  -0.00237504  0.50032441  0.25126164  1
  Fe  Fe74  1  0.24854863  0.24892258  0.74877190  1
  Fe  Fe75  1  0.49959380  -0.00138717  0.49906966  1
  Fe  Fe76  1  0.12398665  0.37602917  0.62608695  1
  Fe  Fe77  1  0.50183259  0.49791082  0.24962137  1
  Fe  Fe78  1  0.12844913  0.87512858  0.37572638  1
  Fe  Fe79  1  -0.00020749  0.75049339  -0.00120952  1
  Fe  Fe80  1  0.87466543  0.62474133  0.62435558  1
  Fe  Fe81  1  0.49893732  0.75289963  0.25477564  1
  Fe  Fe82  1  0.74807134  0.49911892  0.50206632  1
  Fe  Fe83  1  -0.00051005  0.25092388  0.24712178  1
  Fe  Fe84  1  0.37531610  0.62826780  0.87492826  1
  Fe  Fe85  1  0.74730026  -0.00148597  0.00048738  1
  Fe  Fe86  1  0.74962506  0.75075283  0.50114276  1
  Fe  Fe87  1  -0.00146216  0.50093112  -0.00200042  1
  Fe  Fe88  1  0.37405831  0.37566264  0.37554820  1
  Fe  Fe89  1  0.50014766  0.25015437  0.25030739  1
  Co  Co90  1  0.74804884  0.49900295  0.24873780  1
  Co  Co91  1  0.74799820  0.25151036  0.50344029  1
  Co  Co92  1  0.50067668  0.75493841  0.49619216  1
  Co  Co93  1  0.00368493  0.25077135  0.00238698  1
  Co  Co94  1  0.25077620  0.74749985  0.74594000  1
  Co  Co95  1  0.75497963  0.49934725  0.75080052  1
  Co  Co96  1  0.75212892  0.00272668  0.74740770  1
  Co  Co97  1  0.25223612  0.74868169  0.25088804  1
  Co  Co98  1  0.50217355  0.49344525  0.50160581  1
  Co  Co99  1  0.74857222  0.50510757  -0.00055919  1
  Co  Co100  1  0.37506319  0.12622458  0.87211400  1
  Co  Co101  1  0.49796165  0.49896367  0.75185209  1
  Co  Co102  1  0.62932042  0.87582106  0.87175507  1
  Co  Co103  1  0.25107996  0.00292620  0.50245298  1
  Co  Co104  1  0.37150952  0.87855693  0.37507522  1
  Co  Co105  1  0.37426712  0.37332014  0.62751024  1
  Co  Co106  1  0.37978737  0.12379593  0.12506090  1
  Co  Co107  1  0.62374647  0.37593629  0.12147151  1
  Co  Co108  1  0.50128734  0.75157807  0.75150401  1
  Co  Co109  1  0.25046604  0.75028156  0.00262855  1
  Co  Co110  1  0.50321060  0.25124727  0.75089584  1
  Co  Co111  1  0.87580185  0.37577269  0.62203154  1
  Co  Co112  1  0.12547166  0.62454890  0.37525944  1
  Co  Co113  1  0.25048381  0.24868420  0.24927574  1
  Co  Co114  1  0.62194224  0.62383736  0.62501505  1
  Co  Co115  1  0.12473231  0.12378176  0.12554432  1
  Co  Co116  1  0.87410498  0.62850790  0.87440900  1
  Co  Co117  1  0.87202315  0.37068775  0.88267563  1
  Co  Co118  1  0.74391666  0.24529638  0.00154529  1
  Co  Co119  1  0.50050141  -0.00200572  -0.00564034  1
  Co  Co120  1  0.87545678  0.12591007  0.87855670  1
  Co  Co121  1  0.62344294  0.87474983  0.12710277  1
  Co  Co122  1  0.50102329  -0.00050506  0.25459948  1
  Co  Co123  1  0.37978393  0.62131261  0.37630200  1
  Co  Co124  1  0.87566591  0.87395028  0.62710734  1
  Co  Co125  1  0.87272539  0.87644614  0.37340209  1
  Co  Co126  1  0.87178944  0.62269961  0.37652254  1
  Co  Co127  1  -0.00423936  0.25165523  0.75019437  1
