# generated using pymatgen
data_Fe45Co19
_symmetry_space_group_name_H-M   'P 1'
_cell_length_a   11.41509078
_cell_length_b   11.41564204
_cell_length_c   11.41614869
_cell_angle_alpha   90.00319139
_cell_angle_beta   90.00691475
_cell_angle_gamma   90.00248760
_symmetry_Int_Tables_number   1
_chemical_formula_structural   Fe45Co19
_chemical_formula_sum   'Fe90 Co38'
_cell_volume   1487.64505948
_cell_formula_units_Z   2
loop_
 _symmetry_equiv_pos_site_id
 _symmetry_equiv_pos_as_xyz
  1  'x, y, z'
loop_
 _atom_site_type_symbol
 _atom_site_label
 _atom_site_symmetry_multiplicity
 _atom_site_fract_x
 _atom_site_fract_y
 _atom_site_fract_z
 _atom_site_occupancy
  Fe  Fe0  1  0.00114352  0.74943791  0.00177768  1
  Fe  Fe1  1  -0.00146584  0.50129123  0.25266751  1
  Fe  Fe2  1  -0.00146105  0.00004904  0.49821663  1
  Fe  Fe3  1  0.62616768  0.12294438  0.62691384  1
  Fe  Fe4  1  0.12879912  0.62243854  0.37690675  1
  Fe  Fe5  1  0.37598848  0.37521118  0.12316823  1
  Fe  Fe6  1  0.62436454  0.87414728  0.37004479  1
  Fe  Fe7  1  0.37605329  0.87508108  0.87587059  1
  Fe  Fe8  1  0.49966493  0.24779213  0.74995314  1
  Fe  Fe9  1  0.37256796  0.62725608  0.62098199  1
  Fe  Fe10  1  0.00090799  0.49947341  0.00003126  1
  Fe  Fe11  1  0.24984542  0.74916874  0.24960127  1
  Fe  Fe12  1  0.62353267  0.87550948  0.12902860  1
  Fe  Fe13  1  0.74975856  0.25186550  -0.00054880  1
  Fe  Fe14  1  0.87313419  0.87211961  0.62214346  1
  Fe  Fe15  1  0.50173813  0.24969640  -0.00083736  1
  Fe  Fe16  1  0.00092845  0.74736865  0.49952062  1
  Fe  Fe17  1  0.25184093  -0.00226386  0.74891461  1
  Fe  Fe18  1  0.87557679  0.12518349  0.87700054  1
  Fe  Fe19  1  0.74832895  0.49744629  0.49871795  1
  Fe  Fe20  1  0.24941559  0.75103276  0.74827943  1
  Fe  Fe21  1  -0.00388408  0.74375511  0.74821978  1
  Fe  Fe22  1  0.37686538  0.12196621  0.62134589  1
  Fe  Fe23  1  0.24763731  0.49979889  0.00166711  1
  Fe  Fe24  1  0.12467444  0.37478554  0.87239703  1
  Fe  Fe25  1  0.12458317  0.12342579  0.62555336  1
  Fe  Fe26  1  0.87649556  0.37601024  0.62285334  1
  Fe  Fe27  1  0.49956656  0.50142051  0.25138268  1
  Fe  Fe28  1  0.62220545  0.37225202  0.37411857  1
  Fe  Fe29  1  0.37832923  0.37605390  0.37899355  1
  Fe  Fe30  1  0.62663177  0.37716933  0.87226873  1
  Fe  Fe31  1  0.12118176  0.37927068  0.62461767  1
  Fe  Fe32  1  0.87478364  0.62380993  0.12405598  1
  Fe  Fe33  1  0.87583407  0.87475386  0.87554367  1
  Fe  Fe34  1  0.62450183  0.37367197  0.62620147  1
  Fe  Fe35  1  0.37397521  0.62319225  0.37786015  1
  Fe  Fe36  1  0.12363095  0.37385112  0.37436000  1
  Fe  Fe37  1  0.00100037  0.74854423  0.24966748  1
  Fe  Fe38  1  0.37427880  0.62425833  0.87534282  1
  Fe  Fe39  1  -0.00296556  0.00009439  0.74810027  1
  Fe  Fe40  1  0.12447676  0.62467635  0.87494374  1
  Fe  Fe41  1  -0.00459543  0.24398306  0.24951277  1
  Fe  Fe42  1  0.37352459  0.12519711  0.87617499  1
  Fe  Fe43  1  0.25180476  0.00295476  0.24844538  1
  Fe  Fe44  1  0.24663110  0.24881715  -0.00009625  1
  Fe  Fe45  1  0.74938287  -0.00191771  0.49740350  1
  Fe  Fe46  1  0.50209761  -0.00045624  0.00007213  1
  Fe  Fe47  1  0.62999218  0.62412202  0.87501589  1
  Fe  Fe48  1  0.24970208  0.24963670  0.74745870  1
  Fe  Fe49  1  0.62729870  0.12309735  0.87152307  1
  Fe  Fe50  1  0.87024768  0.62774635  0.37809021  1
  Fe  Fe51  1  0.50080491  0.50262391  0.74851857  1
  Fe  Fe52  1  0.74972564  0.75209064  0.00007525  1
  Fe  Fe53  1  0.74843478  -0.00258933  -0.00073216  1
  Fe  Fe54  1  0.62937867  0.62707221  0.62329504  1
  Fe  Fe55  1  0.37524705  0.37569849  0.87428325  1
  Fe  Fe56  1  0.75500082  0.00356302  0.25329444  1
  Fe  Fe57  1  0.62508266  0.87718170  0.63068356  1
  Fe  Fe58  1  0.12346633  0.87282204  0.62524930  1
  Fe  Fe59  1  0.37606542  0.87580601  0.12570324  1
  Fe  Fe60  1  0.12316918  0.87524904  0.87304217  1
  Fe  Fe61  1  0.24997481  -0.00393120  0.50067579  1
  Fe  Fe62  1  0.37756348  0.87712721  0.37422591  1
  Fe  Fe63  1  0.87747560  0.87760040  0.12780726  1
  Fe  Fe64  1  0.24964709  0.25129371  0.50072412  1
  Fe  Fe65  1  0.37744678  0.37601167  0.62443402  1
  Fe  Fe66  1  -0.00155655  0.25003879  0.75032198  1
  Fe  Fe67  1  0.24554931  0.00142141  0.00095046  1
  Fe  Fe68  1  0.75118285  0.49779474  0.25109048  1
  Fe  Fe69  1  0.62590725  0.62492289  0.12776508  1
  Fe  Fe70  1  0.62422678  0.37323101  0.12822769  1
  Fe  Fe71  1  0.25644601  0.24859358  0.25133565  1
  Fe  Fe72  1  0.24928711  0.50131899  0.74793426  1
  Fe  Fe73  1  0.75170144  0.75060603  0.24992347  1
  Fe  Fe74  1  0.87305132  0.12720894  0.62089714  1
  Fe  Fe75  1  0.50065242  0.74995938  0.75157806  1
  Fe  Fe76  1  0.87293870  0.37871898  0.87442765  1
  Fe  Fe77  1  0.00432639  0.00267766  0.00293612  1
  Fe  Fe78  1  0.62591878  0.12680224  0.12771799  1
  Fe  Fe79  1  0.37415449  0.62371465  0.12555773  1
  Fe  Fe80  1  0.62240002  0.12872625  0.37446284  1
  Fe  Fe81  1  0.50200156  0.50069426  -0.00017923  1
  Fe  Fe82  1  0.50228955  0.75017843  0.00029679  1
  Fe  Fe83  1  0.12376603  0.37333798  0.12836233  1
  Fe  Fe84  1  0.50253696  0.75144315  0.49748056  1
  Fe  Fe85  1  0.12510412  0.12496503  0.37514748  1
  Fe  Fe86  1  0.87513169  0.37334744  0.12423695  1
  Fe  Fe87  1  0.12176551  0.87679986  0.37158328  1
  Fe  Fe88  1  0.24734590  0.75024675  0.00234021  1
  Fe  Fe89  1  0.87526747  0.37001819  0.37847339  1
  Co  Co90  1  0.49790796  0.74750512  0.25118026  1
  Co  Co91  1  0.25088379  0.49810790  0.25063253  1
  Co  Co92  1  0.49891882  0.00372264  0.24899804  1
  Co  Co93  1  0.62806348  0.62497680  0.37376996  1
  Co  Co94  1  0.87027386  0.62511993  0.61965287  1
  Co  Co95  1  0.75123913  0.50040405  0.74628222  1
  Co  Co96  1  -0.00459193  0.00559687  0.25094940  1
  Co  Co97  1  0.12540157  0.12833869  0.12829036  1
  Co  Co98  1  0.12374143  0.87629097  0.12895633  1
  Co  Co99  1  0.00054007  0.25085360  -0.00186063  1
  Co  Co100  1  0.74618909  0.25117330  0.50123696  1
  Co  Co101  1  0.37586363  0.12479814  0.12075960  1
  Co  Co102  1  -0.00177269  0.50460182  0.74949527  1
  Co  Co103  1  0.00428493  0.24893002  0.50169325  1
  Co  Co104  1  0.75240743  0.25002716  0.74967188  1
  Co  Co105  1  0.62504298  0.87578815  0.87099383  1
  Co  Co106  1  0.49470892  0.24860794  0.24986323  1
  Co  Co107  1  0.37850130  0.87335408  0.62417663  1
  Co  Co108  1  0.87466240  0.12870358  0.38138361  1
  Co  Co109  1  0.12433575  0.12473102  0.87055352  1
  Co  Co110  1  -0.00108453  0.50253516  0.49673822  1
  Co  Co111  1  0.74830877  0.49850755  0.00435461  1
  Co  Co112  1  0.50458700  -0.00285057  0.49899869  1
  Co  Co113  1  0.87719776  0.87260207  0.37443025  1
  Co  Co114  1  0.50040278  0.24903282  0.50259398  1
  Co  Co115  1  0.74599219  0.75509804  0.49880939  1
  Co  Co116  1  0.75334252  0.75071687  0.75216458  1
  Co  Co117  1  0.87147049  0.62255392  0.87867902  1
  Co  Co118  1  0.75292297  0.24924605  0.25016035  1
  Co  Co119  1  0.75534258  -0.00051675  0.75026705  1
  Co  Co120  1  0.24933728  0.75524991  0.49760612  1
  Co  Co121  1  0.12428075  0.62287394  0.12648412  1
  Co  Co122  1  0.49628868  0.00121223  0.75178106  1
  Co  Co123  1  0.37641042  0.12274020  0.38074045  1
  Co  Co124  1  0.87228202  0.12445536  0.12031212  1
  Co  Co125  1  0.24922605  0.49558663  0.50061012  1
  Co  Co126  1  0.12780293  0.62446284  0.62166853  1
  Co  Co127  1  0.50269000  0.50228525  0.50132771  1
