# generated using pymatgen
data_Fe45Co19
_symmetry_space_group_name_H-M   'P 1'
_cell_length_a   11.41531421
_cell_length_b   11.41563629
_cell_length_c   11.41434778
_cell_angle_alpha   90.00166262
_cell_angle_beta   90.01065624
_cell_angle_gamma   90.00303704
_symmetry_Int_Tables_number   1
_chemical_formula_structural   Fe45Co19
_chemical_formula_sum   'Fe90 Co38'
_cell_volume   1487.43873271
_cell_formula_units_Z   2
loop_
 _symmetry_equiv_pos_site_id
 _symmetry_equiv_pos_as_xyz
  1  'x, y, z'
loop_
 _atom_site_type_symbol
 _atom_site_label
 _atom_site_symmetry_multiplicity
 _atom_site_fract_x
 _atom_site_fract_y
 _atom_site_fract_z
 _atom_site_occupancy
  Fe  Fe0  1  0.00470516  0.25361775  0.25119538  1
  Fe  Fe1  1  0.12612625  0.37610882  0.87675509  1
  Fe  Fe2  1  0.75071579  0.50154508  0.24984643  1
  Fe  Fe3  1  0.62531507  0.37795646  0.87650959  1
  Fe  Fe4  1  0.87757414  0.12703585  0.62278823  1
  Fe  Fe5  1  0.25108162  0.24836336  0.74896563  1
  Fe  Fe6  1  0.49870601  0.75073994  0.50027273  1
  Fe  Fe7  1  0.62277899  0.62371841  0.12083108  1
  Fe  Fe8  1  0.12445652  0.62561362  0.37545598  1
  Fe  Fe9  1  0.62237072  0.62355065  0.62602404  1
  Fe  Fe10  1  0.49979031  0.25141467  0.00016624  1
  Fe  Fe11  1  0.49643575  -0.00011990  0.74988318  1
  Fe  Fe12  1  0.37631504  0.12640825  0.37158466  1
  Fe  Fe13  1  0.24609078  0.00067684  0.49925820  1
  Fe  Fe14  1  0.74804132  0.74985027  0.50119206  1
  Fe  Fe15  1  0.00034098  -0.00293864  0.25026723  1
  Fe  Fe16  1  0.87498119  0.87230753  0.12489865  1
  Fe  Fe17  1  0.75001906  0.00281073  0.25042980  1
  Fe  Fe18  1  0.49890605  0.25331932  0.50296341  1
  Fe  Fe19  1  0.87557634  0.12599104  0.12473884  1
  Fe  Fe20  1  0.24880210  0.24817197  0.00137210  1
  Fe  Fe21  1  0.75040853  0.50087323  0.74995186  1
  Fe  Fe22  1  0.75284039  0.00105800  0.75062383  1
  Fe  Fe23  1  0.12868539  0.37662326  0.62433801  1
  Fe  Fe24  1  0.87564867  0.62564228  0.87435185  1
  Fe  Fe25  1  -0.00166668  -0.00162296  -0.00178065  1
  Fe  Fe26  1  0.25269307  0.50036514  -0.00030679  1
  Fe  Fe27  1  0.74748506  0.24776053  0.25066148  1
  Fe  Fe28  1  0.74911700  0.50161657  0.50141954  1
  Fe  Fe29  1  0.37113049  0.87440513  0.62468599  1
  Fe  Fe30  1  0.62403154  0.87622716  0.37444057  1
  Fe  Fe31  1  0.74977968  0.24947447  0.75164766  1
  Fe  Fe32  1  0.24865559  0.49733046  0.25031264  1
  Fe  Fe33  1  0.00044742  0.50079084  0.74793899  1
  Fe  Fe34  1  0.62718404  0.87851231  0.12383335  1
  Fe  Fe35  1  0.24991329  0.00241418  0.75021484  1
  Fe  Fe36  1  0.87547118  0.37458118  0.12583907  1
  Fe  Fe37  1  0.87488600  0.62746302  0.12428167  1
  Fe  Fe38  1  0.62270854  0.62480828  0.37466341  1
  Fe  Fe39  1  0.49731970  0.49604292  0.74924888  1
  Fe  Fe40  1  0.12777016  0.87430759  0.87690928  1
  Fe  Fe41  1  0.25170122  0.50136585  0.75290805  1
  Fe  Fe42  1  0.49970380  0.49718232  0.24933640  1
  Fe  Fe43  1  0.87203030  0.37261631  0.62378564  1
  Fe  Fe44  1  0.00056023  0.25161519  0.74970372  1
  Fe  Fe45  1  0.87585101  0.87266589  0.62664380  1
  Fe  Fe46  1  0.74612722  0.74876910  0.75221951  1
  Fe  Fe47  1  0.62715325  0.37598643  0.12270025  1
  Fe  Fe48  1  0.87720293  0.87346701  0.37556593  1
  Fe  Fe49  1  0.00085361  -0.00007657  0.74903811  1
  Fe  Fe50  1  0.62454729  0.12507534  0.62529578  1
  Fe  Fe51  1  0.24960381  -0.00028283  0.25057400  1
  Fe  Fe52  1  0.00074221  0.50016878  0.24970824  1
  Fe  Fe53  1  0.37266552  0.37186856  0.12755500  1
  Fe  Fe54  1  -0.00186961  0.50031295  -0.00037150  1
  Fe  Fe55  1  0.12396911  0.12547243  0.87485084  1
  Fe  Fe56  1  0.62140646  0.12434863  0.37431775  1
  Fe  Fe57  1  0.37578057  0.12730708  0.12847707  1
  Fe  Fe58  1  0.75243118  0.24967177  -0.00202385  1
  Fe  Fe59  1  0.49822246  0.25124268  0.74852156  1
  Fe  Fe60  1  0.62440816  0.37590805  0.37690714  1
  Fe  Fe61  1  0.50062976  0.75304602  0.75365105  1
  Fe  Fe62  1  0.74740484  0.75093672  -0.00464654  1
  Fe  Fe63  1  0.62504698  0.87671944  0.62604905  1
  Fe  Fe64  1  0.75170349  0.00126730  0.49992296  1
  Fe  Fe65  1  0.37710220  0.62565276  0.37363673  1
  Fe  Fe66  1  0.00433709  0.75085555  0.50306422  1
  Fe  Fe67  1  0.12371327  0.12495817  0.12636345  1
  Fe  Fe68  1  0.62610494  0.12165816  0.87722169  1
  Fe  Fe69  1  0.37721953  0.62666592  0.12427795  1
  Fe  Fe70  1  0.87590095  0.62720068  0.37647598  1
  Fe  Fe71  1  0.37515436  0.62535656  0.62450564  1
  Fe  Fe72  1  0.25378232  0.50127119  0.49800622  1
  Fe  Fe73  1  -0.00056468  0.25089558  -0.00160138  1
  Fe  Fe74  1  0.49741310  -0.00147120  -0.00010718  1
  Fe  Fe75  1  0.12535154  0.87284374  0.12325846  1
  Fe  Fe76  1  0.74903809  0.74914280  0.25033775  1
  Fe  Fe77  1  0.87488757  0.37348820  0.37613971  1
  Fe  Fe78  1  0.12479962  0.62558212  0.12333038  1
  Fe  Fe79  1  0.37923198  0.62664468  0.87854411  1
  Fe  Fe80  1  0.49981612  0.75383655  0.24913106  1
  Fe  Fe81  1  0.24760998  0.24806645  0.49758662  1
  Fe  Fe82  1  0.24950929  0.75106467  0.25149103  1
  Fe  Fe83  1  0.37484489  0.12523891  0.87574435  1
  Fe  Fe84  1  0.00482675  0.74669731  0.74963390  1
  Fe  Fe85  1  -0.00102925  0.49948796  0.50260129  1
  Fe  Fe86  1  0.49809296  -0.00119958  0.50088358  1
  Fe  Fe87  1  0.37253728  0.87417953  0.12198093  1
  Fe  Fe88  1  0.88017602  0.12612224  0.37754376  1
  Fe  Fe89  1  0.24921814  0.74658498  0.75239351  1
  Co  Co90  1  0.00123099  0.74845170  0.24952307  1
  Co  Co91  1  0.37237270  0.37223583  0.87579014  1
  Co  Co92  1  0.62120886  0.61982837  0.87715840  1
  Co  Co93  1  0.12412088  0.87371494  0.37405932  1
  Co  Co94  1  0.49878003  0.49890990  0.50071402  1
  Co  Co95  1  0.12517855  0.37641419  0.12099623  1
  Co  Co96  1  0.12345290  0.12576936  0.62596520  1
  Co  Co97  1  0.37430838  0.87641643  0.37629074  1
  Co  Co98  1  0.00072802  0.74994252  -0.00162031  1
  Co  Co99  1  0.12436264  0.62183683  0.87787432  1
  Co  Co100  1  0.74783585  0.24779909  0.49855931  1
  Co  Co101  1  0.87646055  0.12493635  0.87442975  1
  Co  Co102  1  0.12167236  0.12261370  0.37335160  1
  Co  Co103  1  0.12903417  0.87395624  0.62793566  1
  Co  Co104  1  0.12506777  0.37821167  0.37765305  1
  Co  Co105  1  0.87591701  0.37666044  0.87358155  1
  Co  Co106  1  0.87645005  0.87252735  0.87146015  1
  Co  Co107  1  0.75391428  0.50090892  -0.00005116  1
  Co  Co108  1  0.75590761  -0.00105576  -0.00079641  1
  Co  Co109  1  0.87379776  0.62742428  0.62579496  1
  Co  Co110  1  0.12851470  0.62234660  0.62319402  1
  Co  Co111  1  0.50409446  0.25209348  0.24833582  1
  Co  Co112  1  0.49931895  -0.00209708  0.24745452  1
  Co  Co113  1  0.00215156  -0.00310673  0.50288129  1
  Co  Co114  1  0.62696001  0.37523185  0.62592341  1
  Co  Co115  1  0.24448282  0.25104814  0.25161351  1
  Co  Co116  1  0.37094768  0.37512699  0.62397976  1
  Co  Co117  1  0.62555946  0.88140454  0.87381364  1
  Co  Co118  1  0.37518424  0.37244869  0.37344258  1
  Co  Co119  1  0.49516748  0.49602525  0.00138685  1
  Co  Co120  1  0.37033882  0.87582045  0.87543158  1
  Co  Co121  1  0.50215256  0.75476098  -0.00182132  1
  Co  Co122  1  0.00400972  0.25167902  0.50108567  1
  Co  Co123  1  0.37402749  0.12455119  0.62327786  1
  Co  Co124  1  0.62544345  0.12305421  0.12108500  1
  Co  Co125  1  0.24999174  0.74685804  -0.00109781  1
  Co  Co126  1  0.24978055  0.74927972  0.49845732  1
  Co  Co127  1  0.24948496  0.00367831  0.00107894  1
