# generated using pymatgen
data_Fe45Co19
_symmetry_space_group_name_H-M   'P 1'
_cell_length_a   11.41569777
_cell_length_b   11.41477072
_cell_length_c   11.41536050
_cell_angle_alpha   89.98430245
_cell_angle_beta   90.00809265
_cell_angle_gamma   90.00837100
_symmetry_Int_Tables_number   1
_chemical_formula_structural   Fe45Co19
_chemical_formula_sum   'Fe90 Co38'
_cell_volume   1487.50783218
_cell_formula_units_Z   2
loop_
 _symmetry_equiv_pos_site_id
 _symmetry_equiv_pos_as_xyz
  1  'x, y, z'
loop_
 _atom_site_type_symbol
 _atom_site_label
 _atom_site_symmetry_multiplicity
 _atom_site_fract_x
 _atom_site_fract_y
 _atom_site_fract_z
 _atom_site_occupancy
  Fe  Fe0  1  0.12566945  0.12479037  0.87686862  1
  Fe  Fe1  1  0.00152040  -0.00019491  0.24711999  1
  Fe  Fe2  1  0.74936859  0.25178838  -0.00042350  1
  Fe  Fe3  1  0.25030461  0.75063575  0.74805551  1
  Fe  Fe4  1  0.24502559  0.74976166  0.25102487  1
  Fe  Fe5  1  0.62266409  0.87318036  0.87309651  1
  Fe  Fe6  1  0.87803798  0.37162812  0.62530296  1
  Fe  Fe7  1  0.25169791  0.00061756  0.74856101  1
  Fe  Fe8  1  0.75046020  0.75142348  0.50034340  1
  Fe  Fe9  1  0.25079246  -0.00250743  0.50270268  1
  Fe  Fe10  1  0.87815634  0.37458324  0.37381650  1
  Fe  Fe11  1  0.50123405  0.24861555  0.50250205  1
  Fe  Fe12  1  0.24486659  0.75114898  0.50531169  1
  Fe  Fe13  1  0.37460893  0.87342895  0.37879327  1
  Fe  Fe14  1  0.37717088  0.87480380  0.87174570  1
  Fe  Fe15  1  0.37214452  0.37876676  0.12390491  1
  Fe  Fe16  1  0.24740920  0.49374683  0.75200814  1
  Fe  Fe17  1  0.37684643  0.37481252  0.37563399  1
  Fe  Fe18  1  0.00124895  0.49714547  0.74956360  1
  Fe  Fe19  1  0.49876828  0.00479117  0.74467435  1
  Fe  Fe20  1  0.87755833  0.37374244  0.87614059  1
  Fe  Fe21  1  0.75118297  0.49818365  0.49815639  1
  Fe  Fe22  1  0.24906843  0.25095917  0.25031931  1
  Fe  Fe23  1  0.62563483  0.12350243  0.12465058  1
  Fe  Fe24  1  0.75005386  -0.00209480  0.00037135  1
  Fe  Fe25  1  0.74916848  0.49950101  0.75149538  1
  Fe  Fe26  1  0.49841173  0.50011657  0.25136573  1
  Fe  Fe27  1  0.12748824  0.37892705  0.12330591  1
  Fe  Fe28  1  0.62659637  0.62341459  0.12364197  1
  Fe  Fe29  1  0.00317226  0.24725620  0.24805034  1
  Fe  Fe30  1  0.00047678  0.24545937  0.00397387  1
  Fe  Fe31  1  0.62595162  0.37804079  0.12499495  1
  Fe  Fe32  1  0.87449220  0.12865766  0.62623644  1
  Fe  Fe33  1  0.62255967  0.87507428  0.37611701  1
  Fe  Fe34  1  0.87525200  0.12368755  0.37285138  1
  Fe  Fe35  1  0.87704334  0.87350429  0.62463722  1
  Fe  Fe36  1  0.00104990  0.50150046  0.50123843  1
  Fe  Fe37  1  0.62369834  0.62302314  0.37706861  1
  Fe  Fe38  1  0.36973547  0.62201881  0.12571617  1
  Fe  Fe39  1  0.37614984  0.62142105  0.87315769  1
  Fe  Fe40  1  0.74968802  0.75161289  0.25076920  1
  Fe  Fe41  1  0.37436830  0.12811467  0.87207775  1
  Fe  Fe42  1  0.75130783  0.25129782  0.49769777  1
  Fe  Fe43  1  0.62486474  0.37419033  0.62559842  1
  Fe  Fe44  1  0.12679088  0.12277991  0.37421729  1
  Fe  Fe45  1  0.87738392  0.87342635  0.12361560  1
  Fe  Fe46  1  0.00025960  -0.00076667  0.50029398  1
  Fe  Fe47  1  0.12511268  0.12792799  0.62564670  1
  Fe  Fe48  1  0.49892032  0.25053407  0.24858250  1
  Fe  Fe49  1  0.37326428  0.62574933  0.37865151  1
  Fe  Fe50  1  0.12646656  0.87781430  0.12062230  1
  Fe  Fe51  1  0.37580726  0.37285548  0.62966005  1
  Fe  Fe52  1  0.75025483  -0.00128071  0.50006682  1
  Fe  Fe53  1  0.24941642  0.49859348  0.50144184  1
  Fe  Fe54  1  0.87507239  0.37546959  0.12553726  1
  Fe  Fe55  1  0.50025229  0.74535893  0.74677235  1
  Fe  Fe56  1  0.74880594  0.75015630  -0.00147756  1
  Fe  Fe57  1  0.24817294  0.25165339  0.50035120  1
  Fe  Fe58  1  0.75012132  -0.00135706  0.74860515  1
  Fe  Fe59  1  0.37319240  0.87518946  0.12436811  1
  Fe  Fe60  1  0.49906694  0.74760364  0.00089730  1
  Fe  Fe61  1  0.37132188  0.12360027  0.12454189  1
  Fe  Fe62  1  0.62394685  0.12457191  0.37538776  1
  Fe  Fe63  1  0.62523020  0.62322655  0.62251666  1
  Fe  Fe64  1  0.62632832  0.12481804  0.87329846  1
  Fe  Fe65  1  0.12470641  0.62429676  0.87326387  1
  Fe  Fe66  1  0.74987836  -0.00297851  0.24904886  1
  Fe  Fe67  1  0.75115384  0.50029061  0.25250699  1
  Fe  Fe68  1  0.74966962  0.25116726  0.25124327  1
  Fe  Fe69  1  0.87610711  0.62641193  0.62549679  1
  Fe  Fe70  1  0.49812720  -0.00019195  -0.00028995  1
  Fe  Fe71  1  0.12377889  0.87702475  0.87495418  1
  Fe  Fe72  1  0.49715363  -0.00103246  0.25030660  1
  Fe  Fe73  1  0.49937924  0.25049256  0.00020733  1
  Fe  Fe74  1  0.12326864  0.37626902  0.37606838  1
  Fe  Fe75  1  0.62088955  0.37825895  0.87520329  1
  Fe  Fe76  1  0.87581774  0.87355543  0.87466171  1
  Fe  Fe77  1  0.62151484  0.87528675  0.62392576  1
  Fe  Fe78  1  0.25083507  0.25310054  -0.00332618  1
  Fe  Fe79  1  0.24968140  0.74931286  -0.00289044  1
  Fe  Fe80  1  0.87961269  0.63016948  0.37583798  1
  Fe  Fe81  1  0.00308216  0.50359243  0.24977043  1
  Fe  Fe82  1  0.87318941  0.62699915  0.87301145  1
  Fe  Fe83  1  -0.00043638  0.50414843  0.00060867  1
  Fe  Fe84  1  0.87317144  0.12658907  0.87489605  1
  Fe  Fe85  1  -0.00129901  0.00226960  0.75105043  1
  Fe  Fe86  1  0.37429629  0.12467597  0.37640652  1
  Fe  Fe87  1  0.87605904  0.62771154  0.12589572  1
  Fe  Fe88  1  0.00089268  0.75063276  0.74857419  1
  Fe  Fe89  1  0.49977777  0.74922449  0.24979425  1
  Co  Co90  1  0.50226202  0.24671959  0.74873408  1
  Co  Co91  1  0.00559438  0.75138202  0.24839475  1
  Co  Co92  1  0.87079500  0.12504696  0.12634696  1
  Co  Co93  1  0.11915844  0.37425586  0.87993052  1
  Co  Co94  1  0.38143691  0.37557434  0.87206117  1
  Co  Co95  1  0.12869533  0.62254858  0.12352274  1
  Co  Co96  1  0.12353169  0.87736169  0.62966642  1
  Co  Co97  1  0.62310267  0.37482788  0.37459599  1
  Co  Co98  1  0.36990509  0.12922971  0.62532326  1
  Co  Co99  1  0.62991288  0.12674240  0.62446480  1
  Co  Co100  1  0.49831285  0.00293224  0.50210349  1
  Co  Co101  1  0.62338057  0.87479670  0.12413356  1
  Co  Co102  1  0.25368994  -0.00126767  -0.00461270  1
  Co  Co103  1  0.74814045  0.75013243  0.74726852  1
  Co  Co104  1  0.49825849  0.49823896  0.50113216  1
  Co  Co105  1  0.62540253  0.62523681  0.87634122  1
  Co  Co106  1  0.24533634  0.25424837  0.75348127  1
  Co  Co107  1  0.49837101  0.50250832  0.00238331  1
  Co  Co108  1  0.12456997  0.62515343  0.37833401  1
  Co  Co109  1  0.12172356  0.37289583  0.62258977  1
  Co  Co110  1  0.24967738  0.49997953  0.25533789  1
  Co  Co111  1  0.87750345  0.87320825  0.37505472  1
  Co  Co112  1  0.75020164  0.25318021  0.75218581  1
  Co  Co113  1  0.37148091  0.62307368  0.62489183  1
  Co  Co114  1  0.00396892  0.75125763  0.50332600  1
  Co  Co115  1  0.25062657  0.49946473  -0.00610926  1
  Co  Co116  1  0.37695478  0.87353786  0.62522183  1
  Co  Co117  1  0.12545324  0.62250960  0.62818865  1
  Co  Co118  1  0.25175720  -0.00222435  0.25206133  1
  Co  Co119  1  0.12412827  0.87604734  0.37591081  1
  Co  Co120  1  0.00238864  0.74820218  -0.00135428  1
  Co  Co121  1  0.49978027  0.74772864  0.50119851  1
  Co  Co122  1  0.13180885  0.12201493  0.12370728  1
  Co  Co123  1  0.00219165  0.24917639  0.75137651  1
  Co  Co124  1  -0.00205293  0.00285925  0.00041011  1
  Co  Co125  1  -0.00030558  0.24751560  0.49678914  1
  Co  Co126  1  0.75265042  0.50083148  -0.00201986  1
  Co  Co127  1  0.50174138  0.50379269  0.74756575  1
