# generated using pymatgen
data_Fe45Co19
_symmetry_space_group_name_H-M   'P 1'
_cell_length_a   11.41589364
_cell_length_b   11.41600470
_cell_length_c   11.41487764
_cell_angle_alpha   89.99440602
_cell_angle_beta   89.99578065
_cell_angle_gamma   89.99586838
_symmetry_Int_Tables_number   1
_chemical_formula_structural   Fe45Co19
_chemical_formula_sum   'Fe90 Co38'
_cell_volume   1487.63130580
_cell_formula_units_Z   2
loop_
 _symmetry_equiv_pos_site_id
 _symmetry_equiv_pos_as_xyz
  1  'x, y, z'
loop_
 _atom_site_type_symbol
 _atom_site_label
 _atom_site_symmetry_multiplicity
 _atom_site_fract_x
 _atom_site_fract_y
 _atom_site_fract_z
 _atom_site_occupancy
  Fe  Fe0  1  0.50042881  0.74615667  0.49758528  1
  Fe  Fe1  1  -0.00020940  0.75083068  0.50021358  1
  Fe  Fe2  1  0.24838389  0.49967891  0.50003037  1
  Fe  Fe3  1  0.37589098  0.87254485  0.12103963  1
  Fe  Fe4  1  0.62468057  0.37577350  0.87465855  1
  Fe  Fe5  1  0.87642578  0.12356274  0.12489539  1
  Fe  Fe6  1  0.74972252  0.75243354  0.75112586  1
  Fe  Fe7  1  0.24952409  -0.00270726  0.25045833  1
  Fe  Fe8  1  0.62195878  0.87527283  0.12270750  1
  Fe  Fe9  1  0.25094278  0.75083873  0.49759377  1
  Fe  Fe10  1  0.75096498  0.24898942  0.50178628  1
  Fe  Fe11  1  0.87681406  0.37505328  0.62657759  1
  Fe  Fe12  1  0.62549482  0.87293399  0.37496342  1
  Fe  Fe13  1  0.74810073  0.50362572  0.50190653  1
  Fe  Fe14  1  0.49980773  0.25389165  0.74797566  1
  Fe  Fe15  1  0.37310394  0.12564281  0.62622175  1
  Fe  Fe16  1  0.24715971  0.49763804  0.75080057  1
  Fe  Fe17  1  0.62510795  0.12726918  0.12412765  1
  Fe  Fe18  1  0.87261413  0.62910176  0.37270472  1
  Fe  Fe19  1  0.37372202  0.12695880  0.12419473  1
  Fe  Fe20  1  0.24913295  0.25381270  -0.00215774  1
  Fe  Fe21  1  0.12333159  0.37550831  0.37663969  1
  Fe  Fe22  1  -0.00008343  0.25125180  0.24936983  1
  Fe  Fe23  1  0.24801588  0.25535752  0.75061313  1
  Fe  Fe24  1  0.74888360  0.75002045  0.00102342  1
  Fe  Fe25  1  0.49863223  0.00022668  0.49995784  1
  Fe  Fe26  1  0.24805151  0.25070692  0.25083360  1
  Fe  Fe27  1  0.62326222  0.87283000  0.62580004  1
  Fe  Fe28  1  0.12846665  0.87521959  0.62799800  1
  Fe  Fe29  1  0.87346085  0.62843608  0.62739566  1
  Fe  Fe30  1  0.25044015  0.74375349  0.00015241  1
  Fe  Fe31  1  0.25056421  0.50220676  0.24634022  1
  Fe  Fe32  1  0.00292698  -0.00456222  0.24630003  1
  Fe  Fe33  1  0.75077134  0.49925729  0.00024332  1
  Fe  Fe34  1  0.24956812  0.75018545  0.24995387  1
  Fe  Fe35  1  0.37419346  0.12287693  0.37568952  1
  Fe  Fe36  1  0.50263465  0.50197955  0.50074884  1
  Fe  Fe37  1  0.49949993  0.00064154  0.24889702  1
  Fe  Fe38  1  0.62618338  0.12399851  0.62793712  1
  Fe  Fe39  1  0.50085817  0.49843479  0.74741859  1
  Fe  Fe40  1  0.37415360  0.62351988  0.62451502  1
  Fe  Fe41  1  0.49522274  -0.00082335  0.75408223  1
  Fe  Fe42  1  0.87351311  0.12134369  0.63099211  1
  Fe  Fe43  1  0.49921554  0.25142985  0.25023921  1
  Fe  Fe44  1  0.75351840  0.25278351  0.24955525  1
  Fe  Fe45  1  0.62669794  0.12496250  0.37508572  1
  Fe  Fe46  1  0.62692522  0.37622160  0.37544091  1
  Fe  Fe47  1  0.75169089  0.25152003  -0.00114853  1
  Fe  Fe48  1  0.00281621  -0.00076151  -0.00010197  1
  Fe  Fe49  1  0.49939679  0.25388039  0.00181655  1
  Fe  Fe50  1  0.49637238  0.74936560  0.75303390  1
  Fe  Fe51  1  -0.00081526  0.24877416  0.50158934  1
  Fe  Fe52  1  0.12413362  0.12175310  0.37492987  1
  Fe  Fe53  1  0.00093412  0.74976158  0.75129631  1
  Fe  Fe54  1  0.37691269  0.62001691  0.87788943  1
  Fe  Fe55  1  -0.00070569  0.50250014  0.50013636  1
  Fe  Fe56  1  0.12687627  0.12258439  0.62691563  1
  Fe  Fe57  1  -0.00041770  -0.00251633  0.50235024  1
  Fe  Fe58  1  0.62327782  0.12540181  0.87410691  1
  Fe  Fe59  1  0.87598730  0.12338114  0.37348993  1
  Fe  Fe60  1  0.24876858  0.25041931  0.49996651  1
  Fe  Fe61  1  0.00013448  0.50317414  -0.00097607  1
  Fe  Fe62  1  0.37420352  0.37661684  0.37620253  1
  Fe  Fe63  1  0.87478496  0.12243563  0.87113176  1
  Fe  Fe64  1  0.62479107  0.62369249  0.87479823  1
  Fe  Fe65  1  0.62194483  0.87577467  0.87708424  1
  Fe  Fe66  1  0.12350051  0.37657449  0.12290078  1
  Fe  Fe67  1  0.00050571  0.24809766  -0.00040398  1
  Fe  Fe68  1  0.12588767  0.62578702  0.62559376  1
  Fe  Fe69  1  0.12599578  0.12561745  0.87303899  1
  Fe  Fe70  1  0.00075078  0.75061130  0.00068370  1
  Fe  Fe71  1  0.50046035  0.25092217  0.50048765  1
  Fe  Fe72  1  0.49914558  0.74758078  0.25129954  1
  Fe  Fe73  1  0.25345978  0.00257538  -0.00304198  1
  Fe  Fe74  1  0.75074758  -0.00324965  0.50189831  1
  Fe  Fe75  1  0.75292391  0.49793984  0.24809383  1
  Fe  Fe76  1  0.87931697  0.37571219  0.87284967  1
  Fe  Fe77  1  0.75121905  0.50024701  0.74981431  1
  Fe  Fe78  1  -0.00192250  0.49942524  0.25094687  1
  Fe  Fe79  1  0.37261537  0.87432077  0.62603596  1
  Fe  Fe80  1  0.49791350  0.49928552  0.24756622  1
  Fe  Fe81  1  0.87680383  0.62789316  0.12528188  1
  Fe  Fe82  1  0.12444745  0.62734431  0.37261926  1
  Fe  Fe83  1  0.62352676  0.62357334  0.12454056  1
  Fe  Fe84  1  0.87534412  0.87602412  0.87494581  1
  Fe  Fe85  1  0.74943155  -0.00165897  0.24795198  1
  Fe  Fe86  1  0.74848004  0.00059981  -0.00005814  1
  Fe  Fe87  1  0.12971999  0.87360501  0.87384320  1
  Fe  Fe88  1  0.87376333  0.87176315  0.37325433  1
  Fe  Fe89  1  0.12353721  0.62259859  0.87521252  1
  Co  Co90  1  0.00353386  -0.00179839  0.75149294  1
  Co  Co91  1  0.74814716  0.74957261  0.50145412  1
  Co  Co92  1  0.25198481  0.74505575  0.75207196  1
  Co  Co93  1  0.87561752  0.87372756  0.62814792  1
  Co  Co94  1  0.62469375  0.62805540  0.62943997  1
  Co  Co95  1  0.24896862  0.50085111  0.00118761  1
  Co  Co96  1  0.49708546  0.00272559  -0.00132425  1
  Co  Co97  1  0.87438083  0.37533718  0.37941942  1
  Co  Co98  1  0.12427917  0.87498471  0.37707324  1
  Co  Co99  1  0.37407239  0.37658452  0.62340514  1
  Co  Co100  1  0.75054349  0.25151283  0.75149758  1
  Co  Co101  1  0.37247206  0.87163547  0.87863556  1
  Co  Co102  1  0.74817808  0.75058945  0.24534664  1
  Co  Co103  1  0.12181897  0.62456325  0.12608050  1
  Co  Co104  1  0.50130238  0.49718312  0.00317465  1
  Co  Co105  1  0.37614104  0.37773413  0.87513993  1
  Co  Co106  1  0.62683283  0.37491620  0.62447743  1
  Co  Co107  1  0.62752381  0.62369866  0.37151014  1
  Co  Co108  1  0.37735698  0.62694660  0.12245737  1
  Co  Co109  1  0.00181141  0.24851702  0.74913728  1
  Co  Co110  1  0.25353789  0.00108805  0.75372764  1
  Co  Co111  1  0.00035753  0.50343079  0.74846161  1
  Co  Co112  1  0.62672847  0.37371588  0.12628777  1
  Co  Co113  1  0.12952261  0.87428956  0.12018643  1
  Co  Co114  1  0.37343170  0.62351376  0.37544500  1
  Co  Co115  1  0.37653369  0.13172485  0.87425731  1
  Co  Co116  1  0.50153288  0.74719875  -0.00225933  1
  Co  Co117  1  0.74670134  -0.00336843  0.75127548  1
  Co  Co118  1  0.87489331  0.87554413  0.12246396  1
  Co  Co119  1  0.00228795  0.75336863  0.24765110  1
  Co  Co120  1  0.12037718  0.37776795  0.87667638  1
  Co  Co121  1  0.25058185  -0.00079618  0.49967167  1
  Co  Co122  1  0.12658593  0.12463774  0.12428997  1
  Co  Co123  1  0.87836301  0.37503170  0.12121752  1
  Co  Co124  1  0.37640307  0.87524184  0.37519039  1
  Co  Co125  1  0.12195398  0.37647782  0.62368949  1
  Co  Co126  1  0.37206805  0.37410990  0.12417875  1
  Co  Co127  1  0.87405394  0.62659669  0.87526556  1
