# generated using pymatgen
data_Fe45Co19
_symmetry_space_group_name_H-M   'P 1'
_cell_length_a   11.41523173
_cell_length_b   11.41619729
_cell_length_c   11.41480631
_cell_angle_alpha   89.99907504
_cell_angle_beta   90.00376024
_cell_angle_gamma   90.00098990
_symmetry_Int_Tables_number   1
_chemical_formula_structural   Fe45Co19
_chemical_formula_sum   'Fe90 Co38'
_cell_volume   1487.56086197
_cell_formula_units_Z   2
loop_
 _symmetry_equiv_pos_site_id
 _symmetry_equiv_pos_as_xyz
  1  'x, y, z'
loop_
 _atom_site_type_symbol
 _atom_site_label
 _atom_site_symmetry_multiplicity
 _atom_site_fract_x
 _atom_site_fract_y
 _atom_site_fract_z
 _atom_site_occupancy
  Fe  Fe0  1  0.37580406  0.62320211  0.87858973  1
  Fe  Fe1  1  0.37945972  0.12455604  0.87796479  1
  Fe  Fe2  1  -0.00033558  0.74867886  0.50251036  1
  Fe  Fe3  1  0.62259862  0.62637065  0.87525056  1
  Fe  Fe4  1  0.87629540  0.62374278  0.37644441  1
  Fe  Fe5  1  0.25020727  0.74911118  0.49930462  1
  Fe  Fe6  1  0.24787753  -0.00167155  -0.00066722  1
  Fe  Fe7  1  0.62458044  0.37579895  0.37534036  1
  Fe  Fe8  1  0.75141909  0.74724780  0.74890235  1
  Fe  Fe9  1  0.62402921  0.37744542  0.87244198  1
  Fe  Fe10  1  -0.00018048  0.00011664  0.00067388  1
  Fe  Fe11  1  0.62796102  0.62793684  0.37609340  1
  Fe  Fe12  1  0.50266803  -0.00020692  0.75058727  1
  Fe  Fe13  1  0.62905752  0.12583570  0.62777627  1
  Fe  Fe14  1  0.62728141  0.87181702  0.12606405  1
  Fe  Fe15  1  0.87206738  0.12698990  0.12479035  1
  Fe  Fe16  1  0.37751833  0.12458781  0.37676862  1
  Fe  Fe17  1  0.87375112  0.12630105  0.37656978  1
  Fe  Fe18  1  0.00587844  0.49732247  0.00214551  1
  Fe  Fe19  1  -0.00253108  0.74638841  0.24395136  1
  Fe  Fe20  1  0.87394028  0.87710013  0.12588765  1
  Fe  Fe21  1  0.87694157  0.37694668  0.37330243  1
  Fe  Fe22  1  0.88050616  0.62371010  0.87591578  1
  Fe  Fe23  1  0.25173948  0.24921139  0.24988912  1
  Fe  Fe24  1  0.37465915  0.12314233  0.62396787  1
  Fe  Fe25  1  0.74909750  -0.00003313  -0.00241612  1
  Fe  Fe26  1  0.37150760  0.62296316  0.12259540  1
  Fe  Fe27  1  0.24965468  0.25081157  0.49983163  1
  Fe  Fe28  1  0.62406519  0.62077555  0.62351251  1
  Fe  Fe29  1  -0.00317275  0.25056673  0.24815664  1
  Fe  Fe30  1  0.62567632  0.12681415  0.37580525  1
  Fe  Fe31  1  0.24850633  0.00105026  0.25036055  1
  Fe  Fe32  1  0.75036366  0.25488549  0.50264642  1
  Fe  Fe33  1  0.12417580  0.62437406  0.62648948  1
  Fe  Fe34  1  0.12293736  0.62346212  0.37400414  1
  Fe  Fe35  1  0.25224084  0.24894555  0.75070514  1
  Fe  Fe36  1  0.12196650  0.37521721  0.37373283  1
  Fe  Fe37  1  0.24730062  0.50163594  0.75534067  1
  Fe  Fe38  1  0.12160305  0.87444768  0.37215376  1
  Fe  Fe39  1  0.62825805  0.62700317  0.12562991  1
  Fe  Fe40  1  0.00108324  0.00241790  0.74746892  1
  Fe  Fe41  1  0.12403832  0.12565096  0.12511250  1
  Fe  Fe42  1  0.12301956  0.12662121  0.37583138  1
  Fe  Fe43  1  0.37509248  0.37771891  0.12287920  1
  Fe  Fe44  1  0.62785603  0.37577341  0.12604639  1
  Fe  Fe45  1  0.50025198  0.25087423  0.24831850  1
  Fe  Fe46  1  0.87675167  0.87391746  0.87285621  1
  Fe  Fe47  1  0.25003706  0.25180963  0.00042705  1
  Fe  Fe48  1  0.74872186  -0.00273914  0.49906641  1
  Fe  Fe49  1  0.75395670  0.74930452  -0.00069143  1
  Fe  Fe50  1  0.87295629  0.37967779  0.63089037  1
  Fe  Fe51  1  0.75295125  0.49996783  0.25145530  1
  Fe  Fe52  1  0.50147995  0.25196387  0.75005193  1
  Fe  Fe53  1  0.00004521  0.00220596  0.50176953  1
  Fe  Fe54  1  0.24905953  0.00013894  0.75197849  1
  Fe  Fe55  1  0.87603988  0.87319905  0.37421095  1
  Fe  Fe56  1  -0.00149475  0.25002803  0.50631127  1
  Fe  Fe57  1  0.12572843  0.37445150  0.62894042  1
  Fe  Fe58  1  0.37877018  0.87408133  0.37644083  1
  Fe  Fe59  1  0.62369433  0.86937114  0.37506147  1
  Fe  Fe60  1  0.37595734  0.37742950  0.87792283  1
  Fe  Fe61  1  0.24593683  0.49875128  0.24785056  1
  Fe  Fe62  1  0.12130343  0.87012831  0.87605799  1
  Fe  Fe63  1  0.12413805  0.12806628  0.87341349  1
  Fe  Fe64  1  0.62288936  0.87134289  0.62383645  1
  Fe  Fe65  1  0.37627347  0.62306339  0.62494859  1
  Fe  Fe66  1  0.37682813  0.87451174  0.62430043  1
  Fe  Fe67  1  0.62494775  0.12627156  0.12249732  1
  Fe  Fe68  1  0.25007277  0.75074238  0.24938330  1
  Fe  Fe69  1  0.87425869  0.87596675  0.62571035  1
  Fe  Fe70  1  0.24830446  0.49979865  0.49959941  1
  Fe  Fe71  1  0.87559118  0.62078818  0.62556360  1
  Fe  Fe72  1  0.50211658  -0.00076751  0.24946223  1
  Fe  Fe73  1  0.24903452  -0.00052585  0.49823715  1
  Fe  Fe74  1  0.74936989  0.49977168  -0.00312794  1
  Fe  Fe75  1  0.87182857  0.12499554  0.86978744  1
  Fe  Fe76  1  0.50056057  0.50339377  0.25094485  1
  Fe  Fe77  1  0.49877171  0.74991725  0.00211382  1
  Fe  Fe78  1  -0.00207205  0.25262858  -0.00205699  1
  Fe  Fe79  1  0.37674275  0.37851137  0.62460521  1
  Fe  Fe80  1  0.37537880  0.37701170  0.37495980  1
  Fe  Fe81  1  0.74994961  0.00091752  0.25137016  1
  Fe  Fe82  1  0.37766303  0.87469007  0.87448623  1
  Fe  Fe83  1  0.12613729  0.87492443  0.62566317  1
  Fe  Fe84  1  0.74932563  0.25195143  -0.00408803  1
  Fe  Fe85  1  0.50147911  0.25185305  0.50237269  1
  Fe  Fe86  1  0.37817900  0.12424459  0.12187391  1
  Fe  Fe87  1  0.62502807  0.87241529  0.87490780  1
  Fe  Fe88  1  0.37468834  0.87577556  0.12492853  1
  Fe  Fe89  1  0.25036255  0.74874691  0.75239361  1
  Co  Co90  1  0.12398132  0.87515759  0.12574408  1
  Co  Co91  1  0.00054620  0.50157917  0.24464280  1
  Co  Co92  1  0.49969734  0.74768538  0.74990352  1
  Co  Co93  1  0.12123960  0.63145103  0.87848092  1
  Co  Co94  1  0.00106436  0.49840669  0.50221861  1
  Co  Co95  1  0.50252780  0.25414508  -0.00025156  1
  Co  Co96  1  -0.00302547  0.24779432  0.74657755  1
  Co  Co97  1  0.75180091  0.74905071  0.50321110  1
  Co  Co98  1  0.62439576  0.12452540  0.87454191  1
  Co  Co99  1  -0.00363135  0.75117721  0.00641560  1
  Co  Co100  1  -0.00228777  0.00270531  0.24913135  1
  Co  Co101  1  0.37011324  0.62337534  0.37352695  1
  Co  Co102  1  0.49775548  0.74683573  0.24908650  1
  Co  Co103  1  0.50284188  0.00063176  0.50122509  1
  Co  Co104  1  0.12506581  0.37054297  0.12686929  1
  Co  Co105  1  0.12435873  0.36978315  0.87116704  1
  Co  Co106  1  0.74927797  0.50347930  0.75337242  1
  Co  Co107  1  0.75145015  0.49894399  0.49809688  1
  Co  Co108  1  0.75028572  0.25061979  0.25065914  1
  Co  Co109  1  0.86822656  0.12281075  0.62674151  1
  Co  Co110  1  0.12959248  0.62835568  0.12147206  1
  Co  Co111  1  0.75517748  0.74894827  0.24920455  1
  Co  Co112  1  0.49912995  0.50195129  0.49600544  1
  Co  Co113  1  0.74938552  0.25427922  0.75177110  1
  Co  Co114  1  0.12851619  0.12559486  0.62508012  1
  Co  Co115  1  0.87226923  0.37581603  0.12321102  1
  Co  Co116  1  0.49746574  0.74445242  0.49876902  1
  Co  Co117  1  0.25222360  0.75329491  -0.00203442  1
  Co  Co118  1  0.24296736  0.49696885  -0.00301365  1
  Co  Co119  1  0.49902456  0.50000387  0.75227123  1
  Co  Co120  1  0.00435433  0.50057858  0.75251252  1
  Co  Co121  1  0.87686476  0.37877406  0.87373074  1
  Co  Co122  1  0.50259949  -0.00358872  0.00008837  1
  Co  Co123  1  0.74767268  -0.00453620  0.75104263  1
  Co  Co124  1  -0.00155066  0.74929714  0.74615590  1
  Co  Co125  1  0.62462463  0.38046622  0.62580793  1
  Co  Co126  1  0.50323572  0.50072018  0.00176056  1
  Co  Co127  1  0.87230320  0.61957051  0.12144703  1
