# generated using pymatgen
data_Fe45Co19
_symmetry_space_group_name_H-M   'P 1'
_cell_length_a   11.41633993
_cell_length_b   11.41587973
_cell_length_c   11.41485463
_cell_angle_alpha   89.99913042
_cell_angle_beta   90.00177001
_cell_angle_gamma   90.00532980
_symmetry_Int_Tables_number   1
_chemical_formula_structural   Fe45Co19
_chemical_formula_sum   'Fe90 Co38'
_cell_volume   1487.67018575
_cell_formula_units_Z   2
loop_
 _symmetry_equiv_pos_site_id
 _symmetry_equiv_pos_as_xyz
  1  'x, y, z'
loop_
 _atom_site_type_symbol
 _atom_site_label
 _atom_site_symmetry_multiplicity
 _atom_site_fract_x
 _atom_site_fract_y
 _atom_site_fract_z
 _atom_site_occupancy
  Fe  Fe0  1  0.00172251  0.25079899  0.49934015  1
  Fe  Fe1  1  0.50008753  0.50543258  0.49907858  1
  Fe  Fe2  1  0.37682383  0.87373293  0.12310718  1
  Fe  Fe3  1  0.12612230  0.12231099  0.37627138  1
  Fe  Fe4  1  0.24985016  -0.00128104  -0.00145996  1
  Fe  Fe5  1  0.24684845  0.75110892  -0.00180076  1
  Fe  Fe6  1  0.37444262  0.86875132  0.62626320  1
  Fe  Fe7  1  -0.00005691  0.50288861  0.50036147  1
  Fe  Fe8  1  0.37953904  0.37644977  0.62645979  1
  Fe  Fe9  1  0.37713383  0.63050476  0.62725269  1
  Fe  Fe10  1  0.37520167  0.12210920  0.37584568  1
  Fe  Fe11  1  0.12557883  0.37602574  0.62473942  1
  Fe  Fe12  1  0.37610433  0.12441227  0.12427737  1
  Fe  Fe13  1  0.50066484  -0.00241297  0.50229886  1
  Fe  Fe14  1  0.75052619  0.50122965  0.74448402  1
  Fe  Fe15  1  0.00102767  0.25106625  0.25128224  1
  Fe  Fe16  1  0.74822935  0.74756303  0.49885093  1
  Fe  Fe17  1  0.37512496  0.12502748  0.62433653  1
  Fe  Fe18  1  -0.00121782  0.49675540  0.00232307  1
  Fe  Fe19  1  0.75091053  0.49745143  0.00299831  1
  Fe  Fe20  1  0.24974118  -0.00375207  0.25004534  1
  Fe  Fe21  1  0.12232935  0.87479620  0.12521115  1
  Fe  Fe22  1  0.74977633  0.74760626  0.75108981  1
  Fe  Fe23  1  0.00433110  0.74767394  0.49709946  1
  Fe  Fe24  1  -0.00190759  0.49974319  0.25027659  1
  Fe  Fe25  1  0.87278327  0.62266879  0.87578571  1
  Fe  Fe26  1  0.74827033  0.25061910  0.25086656  1
  Fe  Fe27  1  0.12432961  0.37694330  0.87390435  1
  Fe  Fe28  1  0.87579383  0.12841651  0.12291748  1
  Fe  Fe29  1  0.75112060  -0.00277643  0.50131822  1
  Fe  Fe30  1  0.37630449  0.37413084  0.12650077  1
  Fe  Fe31  1  0.87481199  0.87325808  0.12400587  1
  Fe  Fe32  1  0.24778569  0.25133043  -0.00017906  1
  Fe  Fe33  1  0.87463080  0.12444991  0.37709787  1
  Fe  Fe34  1  0.87724831  0.87318078  0.37556318  1
  Fe  Fe35  1  0.74993959  0.74961840  0.25066095  1
  Fe  Fe36  1  0.75123894  0.25374332  -0.00131163  1
  Fe  Fe37  1  0.12688733  0.62818645  0.62548962  1
  Fe  Fe38  1  0.62569303  0.12358385  0.87344928  1
  Fe  Fe39  1  -0.00031233  0.74916953  -0.00208753  1
  Fe  Fe40  1  0.37712290  0.37603895  0.87296215  1
  Fe  Fe41  1  0.75209605  -0.00039123  0.00007435  1
  Fe  Fe42  1  0.25256318  0.50249076  0.74945723  1
  Fe  Fe43  1  0.74789814  0.25323282  0.74662348  1
  Fe  Fe44  1  0.12625024  0.62250357  0.87580279  1
  Fe  Fe45  1  0.62318160  0.87138165  0.62636025  1
  Fe  Fe46  1  0.49969282  0.50208653  -0.00139902  1
  Fe  Fe47  1  0.24642233  -0.00479500  0.50415792  1
  Fe  Fe48  1  0.37723279  0.37399012  0.37534993  1
  Fe  Fe49  1  0.12731333  0.62507901  0.12939949  1
  Fe  Fe50  1  0.62672172  0.87581817  0.87656386  1
  Fe  Fe51  1  -0.00222411  0.25001144  0.75085078  1
  Fe  Fe52  1  -0.00366379  0.00018380  -0.00439933  1
  Fe  Fe53  1  0.37515043  0.12442984  0.87494869  1
  Fe  Fe54  1  0.87864542  0.86899329  0.62667039  1
  Fe  Fe55  1  0.75060638  -0.00107505  0.24959640  1
  Fe  Fe56  1  0.50150465  -0.00233565  0.24824662  1
  Fe  Fe57  1  0.25157557  0.25038690  0.74890846  1
  Fe  Fe58  1  0.49914801  -0.00064931  0.74997893  1
  Fe  Fe59  1  -0.00163495  -0.00078799  0.24995583  1
  Fe  Fe60  1  0.62324447  0.37862007  0.37421850  1
  Fe  Fe61  1  0.25224088  0.50390165  0.49966453  1
  Fe  Fe62  1  0.50086827  0.24983819  -0.00154956  1
  Fe  Fe63  1  0.24978654  0.25033158  0.50068788  1
  Fe  Fe64  1  0.62398422  0.62432633  0.12776321  1
  Fe  Fe65  1  0.50274591  0.74871363  -0.00246233  1
  Fe  Fe66  1  0.87357649  0.12716259  0.62350969  1
  Fe  Fe67  1  0.74941041  0.74898279  0.00007594  1
  Fe  Fe68  1  0.62337790  0.37842481  0.87100225  1
  Fe  Fe69  1  0.00242024  -0.00132023  0.50509364  1
  Fe  Fe70  1  0.12297802  0.87659434  0.86834495  1
  Fe  Fe71  1  0.12371728  0.12534519  0.12301688  1
  Fe  Fe72  1  0.75413729  -0.00184534  0.74894859  1
  Fe  Fe73  1  0.87497435  0.62533456  0.12656738  1
  Fe  Fe74  1  0.25040612  0.25065386  0.25055302  1
  Fe  Fe75  1  0.37304683  0.62756737  0.12547555  1
  Fe  Fe76  1  0.12791760  0.37898099  0.37519472  1
  Fe  Fe77  1  0.62324772  0.87327734  0.37476534  1
  Fe  Fe78  1  0.74602399  0.25164220  0.50204918  1
  Fe  Fe79  1  0.37410195  0.63119444  0.37141350  1
  Fe  Fe80  1  0.12503078  0.12299114  0.87199903  1
  Fe  Fe81  1  -0.00240367  0.50244274  0.74727003  1
  Fe  Fe82  1  0.37434753  0.87382250  0.87470832  1
  Fe  Fe83  1  0.62242103  0.37629847  0.12842912  1
  Fe  Fe84  1  0.74866562  0.50332147  0.50276947  1
  Fe  Fe85  1  0.62410248  0.12420548  0.12358714  1
  Fe  Fe86  1  0.87254566  0.37693317  0.37633003  1
  Fe  Fe87  1  0.50309336  0.24831947  0.50159348  1
  Fe  Fe88  1  0.62488861  0.12226266  0.37634442  1
  Fe  Fe89  1  0.25019747  0.49796927  0.00176758  1
  Co  Co90  1  0.87399578  0.37824355  0.87289002  1
  Co  Co91  1  0.37675131  0.87563641  0.37654575  1
  Co  Co92  1  0.62546524  0.62501521  0.37290996  1
  Co  Co93  1  0.49726216  0.50201708  0.25080057  1
  Co  Co94  1  -0.00072753  0.74502107  0.75427974  1
  Co  Co95  1  0.12524583  0.37567805  0.12699681  1
  Co  Co96  1  0.87421487  0.87163123  0.87488955  1
  Co  Co97  1  0.00106015  0.25217092  -0.00356935  1
  Co  Co98  1  0.87416221  0.62474769  0.37533821  1
  Co  Co99  1  0.75096021  0.50021155  0.24911816  1
  Co  Co100  1  0.50074125  0.24816740  0.25132664  1
  Co  Co101  1  -0.00058279  0.74983079  0.25034990  1
  Co  Co102  1  0.50125399  0.24704505  0.74852185  1
  Co  Co103  1  0.62673987  0.12070681  0.62567447  1
  Co  Co104  1  0.50122695  0.75191671  0.24870135  1
  Co  Co105  1  0.62656068  0.87473246  0.12282151  1
  Co  Co106  1  0.12692511  0.62331038  0.37043075  1
  Co  Co107  1  0.25428407  0.49845998  0.25073173  1
  Co  Co108  1  0.87647148  0.37451807  0.62256171  1
  Co  Co109  1  0.49847119  0.50660523  0.75273170  1
  Co  Co110  1  0.62172919  0.62783252  0.62531777  1
  Co  Co111  1  0.12367072  0.86962870  0.63098122  1
  Co  Co112  1  0.37217610  0.62539585  0.87886006  1
  Co  Co113  1  0.62987565  0.62185685  0.87547311  1
  Co  Co114  1  0.50178619  0.74827231  0.75676309  1
  Co  Co115  1  0.87595443  0.37226064  0.12652385  1
  Co  Co116  1  0.24712913  0.75144115  0.49736749  1
  Co  Co117  1  0.24982324  0.74735887  0.75331354  1
  Co  Co118  1  0.87167317  0.12786135  0.87476734  1
  Co  Co119  1  0.61917984  0.37986543  0.62533784  1
  Co  Co120  1  0.12263993  0.87611084  0.37445592  1
  Co  Co121  1  0.25214542  -0.00043176  0.74659582  1
  Co  Co122  1  0.12497600  0.12719758  0.62683475  1
  Co  Co123  1  0.50012852  -0.00040965  -0.00110019  1
  Co  Co124  1  0.50080634  0.74903175  0.49813210  1
  Co  Co125  1  -0.00484027  0.00154581  0.74806517  1
  Co  Co126  1  0.24930643  0.75544540  0.25155438  1
  Co  Co127  1  0.87520004  0.62866969  0.62345091  1
