# generated using pymatgen
data_Fe45Co19
_symmetry_space_group_name_H-M   'P 1'
_cell_length_a   11.41460716
_cell_length_b   11.41513222
_cell_length_c   11.41478794
_cell_angle_alpha   89.99842683
_cell_angle_beta   89.98657701
_cell_angle_gamma   90.00386188
_symmetry_Int_Tables_number   1
_chemical_formula_structural   Fe45Co19
_chemical_formula_sum   'Fe90 Co38'
_cell_volume   1487.33826168
_cell_formula_units_Z   2
loop_
 _symmetry_equiv_pos_site_id
 _symmetry_equiv_pos_as_xyz
  1  'x, y, z'
loop_
 _atom_site_type_symbol
 _atom_site_label
 _atom_site_symmetry_multiplicity
 _atom_site_fract_x
 _atom_site_fract_y
 _atom_site_fract_z
 _atom_site_occupancy
  Fe  Fe0  1  0.74839673  0.74933704  0.00163761  1
  Fe  Fe1  1  0.74754558  0.75155411  0.75103996  1
  Fe  Fe2  1  0.50152471  0.25057051  0.75172642  1
  Fe  Fe3  1  0.25080814  0.50304638  0.75024391  1
  Fe  Fe4  1  0.25096518  0.74900113  0.50162260  1
  Fe  Fe5  1  0.49978889  0.24933530  0.49842473  1
  Fe  Fe6  1  -0.00072957  0.24900546  0.49979754  1
  Fe  Fe7  1  0.49811221  0.24986394  0.24720662  1
  Fe  Fe8  1  0.62601520  0.37446518  0.37209982  1
  Fe  Fe9  1  -0.00231402  0.74942022  0.75023554  1
  Fe  Fe10  1  0.87429674  0.87547858  0.62351257  1
  Fe  Fe11  1  0.87541679  0.37055716  0.87426639  1
  Fe  Fe12  1  0.62388720  0.87695388  0.37511216  1
  Fe  Fe13  1  0.24684369  0.49822835  0.25033286  1
  Fe  Fe14  1  0.12199449  0.12234190  0.87662958  1
  Fe  Fe15  1  0.87417422  0.12660529  0.37482746  1
  Fe  Fe16  1  0.50109411  0.50035024  0.75023804  1
  Fe  Fe17  1  0.24646983  0.50276598  0.00001093  1
  Fe  Fe18  1  0.75109990  0.25073381  0.24454652  1
  Fe  Fe19  1  0.12411385  0.87476485  0.37597169  1
  Fe  Fe20  1  0.12328342  0.62483147  0.62741610  1
  Fe  Fe21  1  0.75086969  0.75101081  0.49787719  1
  Fe  Fe22  1  0.74974344  0.74955157  0.24991112  1
  Fe  Fe23  1  0.24961575  0.75036890  0.25057147  1
  Fe  Fe24  1  0.50137294  0.50059140  0.24805407  1
  Fe  Fe25  1  0.37687442  0.62848176  0.87336893  1
  Fe  Fe26  1  0.50127573  0.75173288  0.24565690  1
  Fe  Fe27  1  0.37573149  0.62540322  0.37441372  1
  Fe  Fe28  1  0.37715435  0.87288646  0.87451162  1
  Fe  Fe29  1  0.75044242  0.49913539  0.74997417  1
  Fe  Fe30  1  -0.00202943  0.00042873  0.49769216  1
  Fe  Fe31  1  0.62527262  0.62604442  0.62420625  1
  Fe  Fe32  1  0.25088120  0.50055549  0.50022624  1
  Fe  Fe33  1  0.12585623  0.87595118  0.12589053  1
  Fe  Fe34  1  0.87498634  0.37378034  0.37349944  1
  Fe  Fe35  1  0.24794244  0.24907632  0.00044082  1
  Fe  Fe36  1  0.00234261  0.49931139  0.00017632  1
  Fe  Fe37  1  0.62432218  0.62644409  0.87720423  1
  Fe  Fe38  1  0.75053429  0.00341904  0.75107924  1
  Fe  Fe39  1  0.49933607  -0.00131404  0.24626120  1
  Fe  Fe40  1  0.25057314  0.00100275  0.25049499  1
  Fe  Fe41  1  0.75135594  0.49891899  0.49978377  1
  Fe  Fe42  1  0.88121944  0.12735304  0.11995039  1
  Fe  Fe43  1  0.87661413  0.62540681  0.37565090  1
  Fe  Fe44  1  0.37704311  0.87448579  0.62604388  1
  Fe  Fe45  1  0.87505166  0.62307096  0.12564432  1
  Fe  Fe46  1  0.49931359  0.50038032  0.50007888  1
  Fe  Fe47  1  0.00089737  0.75057262  0.00043817  1
  Fe  Fe48  1  0.12470702  0.87728925  0.62610382  1
  Fe  Fe49  1  0.12488127  0.12330333  0.62516588  1
  Fe  Fe50  1  -0.00457394  0.00351270  0.75100746  1
  Fe  Fe51  1  0.24755980  0.74876063  -0.00101325  1
  Fe  Fe52  1  0.74976691  0.49719310  0.00275138  1
  Fe  Fe53  1  0.87400540  0.87520381  0.12497844  1
  Fe  Fe54  1  0.12456458  0.37346605  0.62645708  1
  Fe  Fe55  1  0.62686841  0.12639363  0.62316048  1
  Fe  Fe56  1  0.12335326  0.62484006  0.37591451  1
  Fe  Fe57  1  0.37395689  0.37445459  0.37442719  1
  Fe  Fe58  1  0.50026330  0.50070835  0.00075718  1
  Fe  Fe59  1  0.37410154  0.12397738  0.12381781  1
  Fe  Fe60  1  0.37613823  0.12472481  0.62637940  1
  Fe  Fe61  1  0.62513550  0.37237126  0.87764574  1
  Fe  Fe62  1  0.62647529  0.37260453  0.62494388  1
  Fe  Fe63  1  0.24944905  -0.00113037  -0.00108101  1
  Fe  Fe64  1  -0.00227887  0.49911465  0.50323079  1
  Fe  Fe65  1  0.12436825  0.37660510  0.87186844  1
  Fe  Fe66  1  0.25257880  0.00122779  0.49889206  1
  Fe  Fe67  1  0.87298720  0.36879125  0.62834087  1
  Fe  Fe68  1  0.37484995  0.37469955  0.62678902  1
  Fe  Fe69  1  0.87311726  0.87646432  0.87630819  1
  Fe  Fe70  1  0.87542736  0.62367758  0.87464845  1
  Fe  Fe71  1  0.25234543  0.24895807  0.49856726  1
  Fe  Fe72  1  0.00168892  0.49765097  0.24947252  1
  Fe  Fe73  1  0.62472462  0.62457441  0.37418676  1
  Fe  Fe74  1  0.37341591  0.37618020  0.12341838  1
  Fe  Fe75  1  0.75050203  0.00036912  0.49912111  1
  Fe  Fe76  1  -0.00045555  0.75138989  0.25014788  1
  Fe  Fe77  1  0.37734174  0.12419570  0.87545405  1
  Fe  Fe78  1  0.37725830  0.87580160  0.37614263  1
  Fe  Fe79  1  0.37380726  0.62636829  0.12462218  1
  Fe  Fe80  1  0.50360437  -0.00238932  0.75025069  1
  Fe  Fe81  1  0.37380377  0.37479687  0.87462303  1
  Fe  Fe82  1  0.75000282  0.00204964  0.00141613  1
  Fe  Fe83  1  -0.00058418  -0.00017923  0.25019889  1
  Fe  Fe84  1  0.24837909  0.24680955  0.75126521  1
  Fe  Fe85  1  0.62450014  0.12501085  0.37364246  1
  Fe  Fe86  1  0.62367405  0.12542944  0.88081457  1
  Fe  Fe87  1  0.12476769  0.87492889  0.87209095  1
  Fe  Fe88  1  0.75115867  0.00169352  0.24736288  1
  Fe  Fe89  1  0.12642526  0.12865250  0.37166032  1
  Co  Co90  1  0.37640519  0.12426289  0.37313877  1
  Co  Co91  1  0.00099611  0.75079895  0.50158837  1
  Co  Co92  1  0.49778337  0.25208172  0.00103255  1
  Co  Co93  1  0.37746705  0.62500301  0.62738510  1
  Co  Co94  1  0.12497290  0.37310333  0.37662805  1
  Co  Co95  1  0.00449879  0.25341440  -0.00133856  1
  Co  Co96  1  0.37102567  0.87455976  0.12389048  1
  Co  Co97  1  0.25169373  0.00047516  0.75127696  1
  Co  Co98  1  0.62676171  0.87657467  0.87889260  1
  Co  Co99  1  0.62855454  0.87645655  0.12404176  1
  Co  Co100  1  0.49923447  0.74901362  0.49993047  1
  Co  Co101  1  0.62188660  0.12536123  0.12276787  1
  Co  Co102  1  0.00055157  0.24532862  0.75122295  1
  Co  Co103  1  0.12574381  0.37291557  0.12656867  1
  Co  Co104  1  0.87597825  0.12687909  0.88116908  1
  Co  Co105  1  0.12211819  0.62487386  0.87208724  1
  Co  Co106  1  0.87680109  0.37637922  0.12423689  1
  Co  Co107  1  0.50142863  0.75153409  0.00328505  1
  Co  Co108  1  0.74928281  0.25115356  0.00384645  1
  Co  Co109  1  0.00113662  -0.00455698  -0.00009616  1
  Co  Co110  1  0.50030366  0.00169969  0.50104806  1
  Co  Co111  1  0.24964103  0.74929788  0.74898485  1
  Co  Co112  1  0.62721116  0.87503360  0.62207641  1
  Co  Co113  1  0.75092280  0.49932426  0.25044873  1
  Co  Co114  1  -0.00105213  0.25115063  0.24887618  1
  Co  Co115  1  0.12437102  0.12378653  0.12553763  1
  Co  Co116  1  0.50458678  0.75200984  0.75018240  1
  Co  Co117  1  -0.00394564  0.49958545  0.74838415  1
  Co  Co118  1  0.87200034  0.62786379  0.62583669  1
  Co  Co119  1  0.62649529  0.62317113  0.12470094  1
  Co  Co120  1  0.87272780  0.12692251  0.62236683  1
  Co  Co121  1  0.74912472  0.24559210  0.75406776  1
  Co  Co122  1  0.87475173  0.87476165  0.37486724  1
  Co  Co123  1  0.49853858  -0.00353393  0.00201747  1
  Co  Co124  1  0.62334702  0.37579480  0.12513902  1
  Co  Co125  1  0.12428113  0.62607678  0.12680565  1
  Co  Co126  1  0.25180953  0.25077628  0.24853767  1
  Co  Co127  1  0.74912080  0.25126902  0.49661610  1
