# generated using pymatgen
data_Fe45Co19
_symmetry_space_group_name_H-M   'P 1'
_cell_length_a   11.41499532
_cell_length_b   11.41463559
_cell_length_c   11.41516554
_cell_angle_alpha   90.00149483
_cell_angle_beta   90.00495193
_cell_angle_gamma   89.99718516
_symmetry_Int_Tables_number   1
_chemical_formula_structural   Fe45Co19
_chemical_formula_sum   'Fe90 Co38'
_cell_volume   1487.37336679
_cell_formula_units_Z   2
loop_
 _symmetry_equiv_pos_site_id
 _symmetry_equiv_pos_as_xyz
  1  'x, y, z'
loop_
 _atom_site_type_symbol
 _atom_site_label
 _atom_site_symmetry_multiplicity
 _atom_site_fract_x
 _atom_site_fract_y
 _atom_site_fract_z
 _atom_site_occupancy
  Fe  Fe0  1  -0.00286846  -0.00144404  0.49859984  1
  Fe  Fe1  1  0.62412948  0.12157917  0.62094387  1
  Fe  Fe2  1  0.87473813  0.12517369  0.87457695  1
  Fe  Fe3  1  0.49223880  0.00457915  0.49812495  1
  Fe  Fe4  1  0.62478276  0.87921817  0.37779207  1
  Fe  Fe5  1  0.12594140  0.62439184  0.37353605  1
  Fe  Fe6  1  0.37493255  0.37257105  0.37441589  1
  Fe  Fe7  1  0.50221050  0.24832210  0.74769426  1
  Fe  Fe8  1  0.12485491  0.12243513  0.62387149  1
  Fe  Fe9  1  0.87592174  0.62373367  0.12661608  1
  Fe  Fe10  1  -0.00106239  0.49885517  0.74941487  1
  Fe  Fe11  1  0.00018198  -0.00220104  0.75052013  1
  Fe  Fe12  1  0.87427142  0.37380679  0.87360768  1
  Fe  Fe13  1  0.12472165  0.37554119  0.62293808  1
  Fe  Fe14  1  0.00133307  0.24995474  0.24991299  1
  Fe  Fe15  1  0.74835351  0.75466063  0.50368596  1
  Fe  Fe16  1  0.74780523  0.49979406  -0.00133247  1
  Fe  Fe17  1  0.62370448  0.37446597  0.87546442  1
  Fe  Fe18  1  0.75067755  -0.00295025  0.74720473  1
  Fe  Fe19  1  0.49655568  0.25061917  -0.00139715  1
  Fe  Fe20  1  0.49838757  0.49982934  0.49859889  1
  Fe  Fe21  1  0.87518748  0.87613805  0.12602681  1
  Fe  Fe22  1  0.62615478  0.12480086  0.87521460  1
  Fe  Fe23  1  0.37534711  0.87422489  0.87448435  1
  Fe  Fe24  1  0.62573004  0.62445450  0.37761761  1
  Fe  Fe25  1  0.50440282  0.75021813  0.74701859  1
  Fe  Fe26  1  0.86956860  0.62821817  0.87050447  1
  Fe  Fe27  1  0.37575299  0.37367284  0.62674026  1
  Fe  Fe28  1  -0.00142468  0.50074263  -0.00213567  1
  Fe  Fe29  1  0.62075195  0.62207906  0.12431796  1
  Fe  Fe30  1  0.24759925  0.25050513  0.24824456  1
  Fe  Fe31  1  0.00178389  0.24991215  0.74918344  1
  Fe  Fe32  1  0.25244385  0.75051233  0.00067069  1
  Fe  Fe33  1  0.87610593  0.12669106  0.62265918  1
  Fe  Fe34  1  0.12596175  0.12436549  0.37674676  1
  Fe  Fe35  1  0.75137459  0.00194274  0.25452989  1
  Fe  Fe36  1  0.87540396  0.12542461  0.12650192  1
  Fe  Fe37  1  0.87514591  0.62799289  0.37366778  1
  Fe  Fe38  1  0.75284390  0.49929120  0.50056197  1
  Fe  Fe39  1  0.75036343  0.00055204  -0.00001690  1
  Fe  Fe40  1  0.24970201  0.49935577  0.74981468  1
  Fe  Fe41  1  0.12479351  0.37600155  0.37734700  1
  Fe  Fe42  1  0.74929466  0.75092804  0.00136352  1
  Fe  Fe43  1  0.12801332  0.87465418  0.37825157  1
  Fe  Fe44  1  0.25056975  -0.00115658  0.24976630  1
  Fe  Fe45  1  0.49853485  0.00069699  0.75053817  1
  Fe  Fe46  1  -0.00178974  0.50152217  0.50129495  1
  Fe  Fe47  1  0.37011919  0.12847111  0.87241597  1
  Fe  Fe48  1  0.49970777  0.75096220  0.00198922  1
  Fe  Fe49  1  0.87682297  0.37221509  0.37538749  1
  Fe  Fe50  1  0.49921235  0.75194537  0.24953506  1
  Fe  Fe51  1  0.37526360  0.12422016  0.12748366  1
  Fe  Fe52  1  0.49769025  0.00124462  -0.00045933  1
  Fe  Fe53  1  0.25209478  0.24689465  0.50264855  1
  Fe  Fe54  1  0.74868950  0.24983486  0.74834217  1
  Fe  Fe55  1  0.12690679  0.62292443  0.12452584  1
  Fe  Fe56  1  0.49964667  0.74997795  0.50143011  1
  Fe  Fe57  1  0.25734792  0.49420468  0.00158918  1
  Fe  Fe58  1  0.74812756  0.24811462  0.49699050  1
  Fe  Fe59  1  0.62560191  0.87575458  0.87558988  1
  Fe  Fe60  1  0.12630039  0.62787678  0.62775734  1
  Fe  Fe61  1  0.25163229  0.49976674  0.24901291  1
  Fe  Fe62  1  0.87584206  0.37510227  0.12594599  1
  Fe  Fe63  1  0.12625443  0.12527437  0.12025740  1
  Fe  Fe64  1  0.25111598  0.50169580  0.50040964  1
  Fe  Fe65  1  0.50473800  0.50202895  0.75022081  1
  Fe  Fe66  1  0.00168874  0.74970813  0.50115126  1
  Fe  Fe67  1  0.50530253  0.24778712  0.25616467  1
  Fe  Fe68  1  0.00255743  0.75039615  0.24916102  1
  Fe  Fe69  1  0.12740208  0.62460839  0.87532871  1
  Fe  Fe70  1  0.37320727  0.62711880  0.37351490  1
  Fe  Fe71  1  0.25006059  -0.00195441  0.74776619  1
  Fe  Fe72  1  0.00004055  -0.00068213  0.25216761  1
  Fe  Fe73  1  0.62485234  0.37511159  0.62159147  1
  Fe  Fe74  1  0.37476941  0.62633724  0.62594457  1
  Fe  Fe75  1  0.74903260  0.49919790  0.25206431  1
  Fe  Fe76  1  0.12277785  0.37529725  0.12254208  1
  Fe  Fe77  1  0.37706019  0.62375246  0.87513371  1
  Fe  Fe78  1  0.87188607  0.62775432  0.62969667  1
  Fe  Fe79  1  -0.00100961  0.74952095  -0.00153357  1
  Fe  Fe80  1  0.62387392  0.87861382  0.12611468  1
  Fe  Fe81  1  0.12672057  0.37121390  0.87675735  1
  Fe  Fe82  1  0.62341905  0.12349829  0.12667546  1
  Fe  Fe83  1  0.74964290  0.24983990  0.00240581  1
  Fe  Fe84  1  0.12700974  0.87539866  0.12297296  1
  Fe  Fe85  1  0.74762183  0.75083440  0.24960508  1
  Fe  Fe86  1  0.37126278  0.87410731  0.37588997  1
  Fe  Fe87  1  0.62140272  0.37712590  0.12713229  1
  Fe  Fe88  1  0.12581538  0.87411437  0.87414337  1
  Fe  Fe89  1  0.00022511  0.00056825  -0.00282770  1
  Co  Co90  1  0.62514699  0.12009540  0.37819003  1
  Co  Co91  1  0.87235607  0.87391350  0.87495229  1
  Co  Co92  1  0.61963014  0.88276391  0.62060640  1
  Co  Co93  1  0.62706433  0.62264059  0.62174160  1
  Co  Co94  1  0.25362765  0.00265659  0.50197521  1
  Co  Co95  1  0.87689200  0.12913805  0.37510658  1
  Co  Co96  1  0.37499807  0.87338096  0.62392069  1
  Co  Co97  1  0.12745767  0.12656560  0.87564654  1
  Co  Co98  1  0.00326204  0.24966998  0.50024692  1
  Co  Co99  1  0.24554271  0.25031408  0.74586323  1
  Co  Co100  1  0.49968283  0.50309353  0.25533556  1
  Co  Co101  1  0.00161162  0.75098080  0.75209543  1
  Co  Co102  1  0.49834171  -0.00211095  0.25204956  1
  Co  Co103  1  0.24938519  0.75057915  0.24882984  1
  Co  Co104  1  0.49675088  0.49671509  -0.00200217  1
  Co  Co105  1  0.37648723  0.62474072  0.12549710  1
  Co  Co106  1  0.37481513  0.12648913  0.62902156  1
  Co  Co107  1  0.37215189  0.12759187  0.37064986  1
  Co  Co108  1  0.87821896  0.87238925  0.62576657  1
  Co  Co109  1  0.87434530  0.37241279  0.62426518  1
  Co  Co110  1  0.87559809  0.87119320  0.37382589  1
  Co  Co111  1  -0.00190331  0.24825763  -0.00065881  1
  Co  Co112  1  0.37574966  0.37297767  0.86738808  1
  Co  Co113  1  0.62566871  0.62668024  0.87692155  1
  Co  Co114  1  0.25156359  0.00025141  -0.00171898  1
  Co  Co115  1  0.25194866  0.75048499  0.75064961  1
  Co  Co116  1  0.25496440  0.25304184  0.00206852  1
  Co  Co117  1  0.24949584  0.74775371  0.50154169  1
  Co  Co118  1  0.49831321  0.24820205  0.49919191  1
  Co  Co119  1  0.62484223  0.37731271  0.37782591  1
  Co  Co120  1  0.75625542  -0.00097983  0.49914738  1
  Co  Co121  1  0.00008058  0.49949044  0.25155892  1
  Co  Co122  1  0.74706913  0.49754383  0.74976498  1
  Co  Co123  1  0.74243315  0.75590266  0.74574799  1
  Co  Co124  1  0.74736702  0.24984086  0.25060241  1
  Co  Co125  1  0.38127637  0.37271465  0.13215535  1
  Co  Co126  1  0.37395275  0.87683432  0.12472589  1
  Co  Co127  1  0.12639211  0.87402316  0.62316447  1
