# generated using pymatgen
data_Fe45Co19
_symmetry_space_group_name_H-M   'P 1'
_cell_length_a   11.41571281
_cell_length_b   11.41545864
_cell_length_c   11.41464874
_cell_angle_alpha   89.99856169
_cell_angle_beta   89.99727974
_cell_angle_gamma   89.99721269
_symmetry_Int_Tables_number   1
_chemical_formula_structural   Fe45Co19
_chemical_formula_sum   'Fe90 Co38'
_cell_volume   1487.50676609
_cell_formula_units_Z   2
loop_
 _symmetry_equiv_pos_site_id
 _symmetry_equiv_pos_as_xyz
  1  'x, y, z'
loop_
 _atom_site_type_symbol
 _atom_site_label
 _atom_site_symmetry_multiplicity
 _atom_site_fract_x
 _atom_site_fract_y
 _atom_site_fract_z
 _atom_site_occupancy
  Fe  Fe0  1  0.50037827  0.75239364  -0.00172444  1
  Fe  Fe1  1  0.62501233  0.87621787  0.37628405  1
  Fe  Fe2  1  0.62439683  0.12701673  0.12286350  1
  Fe  Fe3  1  0.25041229  0.50127678  0.74871321  1
  Fe  Fe4  1  -0.00075959  0.75007655  0.00006112  1
  Fe  Fe5  1  0.87592513  0.87585562  0.12534184  1
  Fe  Fe6  1  0.37806089  0.62463707  0.62434640  1
  Fe  Fe7  1  0.00261892  0.49982299  0.50323859  1
  Fe  Fe8  1  0.75074060  -0.00021981  -0.00091892  1
  Fe  Fe9  1  0.62532055  0.62198351  0.37603518  1
  Fe  Fe10  1  0.87661642  0.62540418  0.87365089  1
  Fe  Fe11  1  0.49983133  0.25183628  0.24911152  1
  Fe  Fe12  1  -0.00069000  0.74913111  0.25044008  1
  Fe  Fe13  1  0.37278433  0.87622950  0.62382282  1
  Fe  Fe14  1  0.00153998  0.25053054  0.50164765  1
  Fe  Fe15  1  0.24985749  0.75164435  -0.00198303  1
  Fe  Fe16  1  0.12474694  0.87305882  0.38010050  1
  Fe  Fe17  1  0.12642955  0.37317633  0.87410189  1
  Fe  Fe18  1  0.12432843  0.62618627  0.87229454  1
  Fe  Fe19  1  0.87856621  0.12346504  0.87200416  1
  Fe  Fe20  1  0.75094819  0.74975585  0.25043440  1
  Fe  Fe21  1  0.25042517  0.75214512  0.74873297  1
  Fe  Fe22  1  0.62604023  0.62618997  0.12393488  1
  Fe  Fe23  1  0.37255751  0.37437576  0.12275862  1
  Fe  Fe24  1  0.50029077  0.49893979  -0.00228840  1
  Fe  Fe25  1  0.25217478  0.24417878  -0.00641284  1
  Fe  Fe26  1  0.12947108  0.37029868  0.62658508  1
  Fe  Fe27  1  0.75008241  0.00026457  0.25009444  1
  Fe  Fe28  1  0.12345013  0.87806881  0.87588810  1
  Fe  Fe29  1  0.62654028  0.37558305  0.37639243  1
  Fe  Fe30  1  0.36971443  0.12393942  0.62707048  1
  Fe  Fe31  1  0.49773671  0.25005676  0.50089309  1
  Fe  Fe32  1  0.24822961  0.24937465  0.25204940  1
  Fe  Fe33  1  0.87725410  0.12361273  0.12635763  1
  Fe  Fe34  1  0.50069942  0.75058149  0.25084242  1
  Fe  Fe35  1  0.75224929  0.25004623  0.25028652  1
  Fe  Fe36  1  0.87533895  0.87567703  0.37907410  1
  Fe  Fe37  1  0.62367905  0.12601710  0.37580036  1
  Fe  Fe38  1  0.62409562  0.87634086  0.87275209  1
  Fe  Fe39  1  0.00061036  0.75421148  0.74696409  1
  Fe  Fe40  1  0.12340191  0.12596548  0.37575616  1
  Fe  Fe41  1  0.50187620  -0.00132381  0.24759626  1
  Fe  Fe42  1  0.00196546  -0.00131591  0.74459778  1
  Fe  Fe43  1  0.00172548  0.00041442  0.50495594  1
  Fe  Fe44  1  0.24775772  0.50260514  -0.00099476  1
  Fe  Fe45  1  0.87489281  0.37473863  0.87484465  1
  Fe  Fe46  1  0.37260408  0.37617390  0.37656502  1
  Fe  Fe47  1  0.87463258  0.37488403  0.12438621  1
  Fe  Fe48  1  0.50081318  0.49858345  0.24968099  1
  Fe  Fe49  1  0.37432633  0.87604801  0.12448213  1
  Fe  Fe50  1  0.75063697  0.50195161  -0.00199348  1
  Fe  Fe51  1  0.74918329  0.00344326  0.50339039  1
  Fe  Fe52  1  0.62650904  0.37252216  0.12218215  1
  Fe  Fe53  1  0.37558644  0.62429014  0.37807602  1
  Fe  Fe54  1  0.00139796  0.50231966  0.00066361  1
  Fe  Fe55  1  0.87301720  0.37405998  0.62610992  1
  Fe  Fe56  1  0.12516450  0.62503101  0.37747621  1
  Fe  Fe57  1  0.62605255  0.37465355  0.87436233  1
  Fe  Fe58  1  0.00035124  0.49749183  0.74954780  1
  Fe  Fe59  1  0.37681516  0.88153593  0.87386925  1
  Fe  Fe60  1  0.12637862  0.37321511  0.12375191  1
  Fe  Fe61  1  0.37377142  0.62511954  0.12448127  1
  Fe  Fe62  1  0.24801414  -0.00084499  0.25074346  1
  Fe  Fe63  1  0.37656973  0.62465921  0.87412453  1
  Fe  Fe64  1  0.62578048  0.87402841  0.62504909  1
  Fe  Fe65  1  0.74996984  0.74721077  0.50120750  1
  Fe  Fe66  1  0.75104337  0.75111949  -0.00267094  1
  Fe  Fe67  1  0.37507356  0.87533295  0.37827098  1
  Fe  Fe68  1  0.37644362  0.12416457  0.12324931  1
  Fe  Fe69  1  0.74955820  0.00252562  0.74738019  1
  Fe  Fe70  1  0.62122771  0.62246979  0.62756562  1
  Fe  Fe71  1  0.37215986  0.37514239  0.62464346  1
  Fe  Fe72  1  -0.00056295  0.24827879  -0.00147547  1
  Fe  Fe73  1  0.87414636  0.62195911  0.37557019  1
  Fe  Fe74  1  0.37614126  0.12359714  0.37428704  1
  Fe  Fe75  1  0.12255279  0.12339093  0.12480597  1
  Fe  Fe76  1  0.00169395  0.50089063  0.24650023  1
  Fe  Fe77  1  0.74926046  0.74779759  0.75054943  1
  Fe  Fe78  1  0.24964354  0.75063743  0.25136574  1
  Fe  Fe79  1  0.87636201  0.62488278  0.62657362  1
  Fe  Fe80  1  0.49446423  0.25041988  0.75334092  1
  Fe  Fe81  1  0.50084239  0.00116816  0.50317299  1
  Fe  Fe82  1  0.87589398  0.37705907  0.37443255  1
  Fe  Fe83  1  0.62082648  0.12495515  0.87514378  1
  Fe  Fe84  1  0.24795331  0.50038266  0.25053140  1
  Fe  Fe85  1  0.75083500  0.24923315  0.50011407  1
  Fe  Fe86  1  0.87727701  0.12461041  0.37573178  1
  Fe  Fe87  1  0.75191412  0.24859442  0.75086025  1
  Fe  Fe88  1  0.62529704  0.37452274  0.62700314  1
  Fe  Fe89  1  0.12412779  0.87536813  0.12384102  1
  Co  Co90  1  0.50282089  -0.00259225  0.00327961  1
  Co  Co91  1  0.49616257  0.25115224  -0.00379038  1
  Co  Co92  1  0.12830148  0.13011385  0.62762375  1
  Co  Co93  1  0.24796123  0.50159934  0.50205634  1
  Co  Co94  1  0.00147876  -0.00229967  0.25231988  1
  Co  Co95  1  0.24550626  -0.00122377  0.75100131  1
  Co  Co96  1  0.50220158  0.00005091  0.74418491  1
  Co  Co97  1  0.62754035  0.87272916  0.12545979  1
  Co  Co98  1  0.37938810  0.11580214  0.87435400  1
  Co  Co99  1  0.25449051  0.24750735  0.75736113  1
  Co  Co100  1  0.50069322  0.49756786  0.50041051  1
  Co  Co101  1  0.87613076  0.12659185  0.62541378  1
  Co  Co102  1  0.62395450  0.13034619  0.62597336  1
  Co  Co103  1  0.24834872  0.00228531  0.49882053  1
  Co  Co104  1  -0.00156164  0.00001641  -0.00088179  1
  Co  Co105  1  0.37141172  0.37921036  0.87690375  1
  Co  Co106  1  0.12681072  0.62768268  0.12444001  1
  Co  Co107  1  0.12359986  0.62647108  0.62809500  1
  Co  Co108  1  0.25023960  0.24897165  0.49622723  1
  Co  Co109  1  0.87383507  0.62602717  0.12400693  1
  Co  Co110  1  0.00005349  0.25099362  0.24941507  1
  Co  Co111  1  0.25096697  0.74651670  0.50212968  1
  Co  Co112  1  0.24738297  0.00188188  -0.00047646  1
  Co  Co113  1  0.12793874  0.87357879  0.62117456  1
  Co  Co114  1  -0.00153959  0.74856303  0.50172385  1
  Co  Co115  1  0.87165091  0.87474835  0.62403336  1
  Co  Co116  1  0.62310729  0.62504449  0.87437155  1
  Co  Co117  1  0.49876327  0.49740871  0.75182500  1
  Co  Co118  1  0.12075982  0.12408416  0.87111956  1
  Co  Co119  1  0.50125080  0.75091507  0.50057226  1
  Co  Co120  1  0.12414889  0.37594698  0.37549133  1
  Co  Co121  1  0.74972466  0.50028431  0.50335934  1
  Co  Co122  1  0.87457459  0.87596200  0.87147488  1
  Co  Co123  1  0.75108737  0.50126462  0.75058401  1
  Co  Co124  1  -0.00110702  0.25173509  0.74999614  1
  Co  Co125  1  0.74923032  0.49853110  0.24799490  1
  Co  Co126  1  0.75308200  0.24706751  -0.00188515  1
  Co  Co127  1  0.49853590  0.75211876  0.75049550  1
