# generated using pymatgen
data_Fe45Co19
_symmetry_space_group_name_H-M   'P 1'
_cell_length_a   11.41433966
_cell_length_b   11.41493150
_cell_length_c   11.41425534
_cell_angle_alpha   89.99930802
_cell_angle_beta   89.99218053
_cell_angle_gamma   89.99503440
_symmetry_Int_Tables_number   1
_chemical_formula_structural   Fe45Co19
_chemical_formula_sum   'Fe90 Co38'
_cell_volume   1487.20788581
_cell_formula_units_Z   2
loop_
 _symmetry_equiv_pos_site_id
 _symmetry_equiv_pos_as_xyz
  1  'x, y, z'
loop_
 _atom_site_type_symbol
 _atom_site_label
 _atom_site_symmetry_multiplicity
 _atom_site_fract_x
 _atom_site_fract_y
 _atom_site_fract_z
 _atom_site_occupancy
  Fe  Fe0  1  0.37505150  0.87664244  0.62481837  1
  Fe  Fe1  1  0.25046413  0.25183185  0.24821057  1
  Fe  Fe2  1  -0.00387747  0.74992301  0.50112908  1
  Fe  Fe3  1  0.12371839  0.12683338  0.12324054  1
  Fe  Fe4  1  0.87513177  0.88029936  0.37441202  1
  Fe  Fe5  1  0.37282393  0.12344697  0.87451097  1
  Fe  Fe6  1  0.37543244  0.87451468  0.87484550  1
  Fe  Fe7  1  0.50119890  0.24998276  0.25199745  1
  Fe  Fe8  1  0.87461856  0.87695465  0.87449406  1
  Fe  Fe9  1  0.37552399  0.62274796  0.37254357  1
  Fe  Fe10  1  0.24794269  0.75020333  0.74803277  1
  Fe  Fe11  1  0.25522062  0.25180622  0.50318329  1
  Fe  Fe12  1  0.75061456  0.75377971  0.74683743  1
  Fe  Fe13  1  0.62602980  0.87547015  0.37796029  1
  Fe  Fe14  1  0.37420324  0.87488291  0.37377472  1
  Fe  Fe15  1  0.50254514  0.00014340  0.25083536  1
  Fe  Fe16  1  0.49934414  0.25175744  -0.00273544  1
  Fe  Fe17  1  0.87361053  0.62360877  0.12615514  1
  Fe  Fe18  1  0.12423200  0.87138641  0.37348133  1
  Fe  Fe19  1  0.24758174  -0.00127523  0.00148970  1
  Fe  Fe20  1  0.12065954  0.87252307  0.12788651  1
  Fe  Fe21  1  0.25168612  0.74750132  0.49958811  1
  Fe  Fe22  1  0.12444036  0.62619219  0.37387398  1
  Fe  Fe23  1  0.37687534  0.62235804  0.12717744  1
  Fe  Fe24  1  0.12350991  0.37344045  0.37588180  1
  Fe  Fe25  1  0.50122933  0.74845834  0.74913063  1
  Fe  Fe26  1  0.37499242  0.12503651  0.37431480  1
  Fe  Fe27  1  0.75198317  0.75328738  0.24987954  1
  Fe  Fe28  1  0.62755977  0.62542702  0.87498396  1
  Fe  Fe29  1  0.12444955  0.62524223  0.87659828  1
  Fe  Fe30  1  0.50191962  0.00027231  0.75121425  1
  Fe  Fe31  1  0.37377544  0.62204369  0.87299731  1
  Fe  Fe32  1  0.12520742  0.12788535  0.87659143  1
  Fe  Fe33  1  0.00115366  0.00206830  0.49873638  1
  Fe  Fe34  1  -0.00352561  0.75019823  0.00012276  1
  Fe  Fe35  1  0.37611590  0.37981854  0.87061335  1
  Fe  Fe36  1  0.24772651  0.00065174  0.25013628  1
  Fe  Fe37  1  0.25365807  0.25249806  0.74702325  1
  Fe  Fe38  1  0.62721963  0.87660501  0.12338048  1
  Fe  Fe39  1  0.12493755  0.37516396  0.62297519  1
  Fe  Fe40  1  0.62917916  0.62667914  0.62269412  1
  Fe  Fe41  1  0.62552756  0.37449540  0.12623044  1
  Fe  Fe42  1  0.12189519  0.37492217  0.87825241  1
  Fe  Fe43  1  0.87657121  0.12493524  0.62475151  1
  Fe  Fe44  1  -0.00054239  0.25114456  0.74824702  1
  Fe  Fe45  1  0.75069428  0.24754149  0.49865902  1
  Fe  Fe46  1  0.87538389  0.37391595  0.87517094  1
  Fe  Fe47  1  -0.00402626  0.24863568  0.24827774  1
  Fe  Fe48  1  -0.00122913  0.49945170  0.74852111  1
  Fe  Fe49  1  0.75310769  0.75418742  0.50344674  1
  Fe  Fe50  1  0.12225123  0.62600515  0.62422165  1
  Fe  Fe51  1  0.87595730  0.12313920  0.87386756  1
  Fe  Fe52  1  0.37565950  0.12575073  0.12470974  1
  Fe  Fe53  1  0.24947964  0.49868072  0.24847964  1
  Fe  Fe54  1  0.37412045  0.61807587  0.62643806  1
  Fe  Fe55  1  0.62328156  0.36997894  0.62669085  1
  Fe  Fe56  1  0.37644428  0.37698229  0.37510323  1
  Fe  Fe57  1  0.87039307  0.62306020  0.37864176  1
  Fe  Fe58  1  0.75104495  0.49841208  -0.00108486  1
  Fe  Fe59  1  0.62670971  0.12893158  0.87412540  1
  Fe  Fe60  1  0.12418514  0.12923976  0.37545988  1
  Fe  Fe61  1  0.50279340  0.00025124  -0.00188466  1
  Fe  Fe62  1  0.25122348  0.74928087  0.00249956  1
  Fe  Fe63  1  0.62235773  0.12788561  0.62490975  1
  Fe  Fe64  1  0.74957951  0.49667571  0.74740861  1
  Fe  Fe65  1  0.37568272  0.87583452  0.12607080  1
  Fe  Fe66  1  0.74694279  0.49798318  0.25375712  1
  Fe  Fe67  1  0.25261197  0.25391284  0.00038782  1
  Fe  Fe68  1  -0.00239337  0.50100118  0.25168355  1
  Fe  Fe69  1  -0.00237163  0.49897109  0.50149326  1
  Fe  Fe70  1  0.75110117  0.75247504  0.00034635  1
  Fe  Fe71  1  0.50104183  0.00213030  0.49967014  1
  Fe  Fe72  1  0.62623842  0.12564230  0.12614408  1
  Fe  Fe73  1  0.50102329  0.74945570  -0.00102494  1
  Fe  Fe74  1  0.24920167  0.00016410  0.49857337  1
  Fe  Fe75  1  0.50132575  0.49916896  -0.00120570  1
  Fe  Fe76  1  0.74708771  -0.00060388  0.74767496  1
  Fe  Fe77  1  0.24696117  -0.00290820  0.74956749  1
  Fe  Fe78  1  0.87408667  0.37270247  0.37640545  1
  Fe  Fe79  1  0.87445539  0.11844681  0.12609400  1
  Fe  Fe80  1  0.49865984  0.74794923  0.50030440  1
  Fe  Fe81  1  0.12307382  0.62406845  0.12540065  1
  Fe  Fe82  1  0.12031178  0.37631066  0.12182476  1
  Fe  Fe83  1  0.00455524  -0.00292705  0.75048931  1
  Fe  Fe84  1  0.62573387  0.62434088  0.12650048  1
  Fe  Fe85  1  0.12669951  0.12587546  0.62401857  1
  Fe  Fe86  1  0.50608367  0.49997961  0.49750903  1
  Fe  Fe87  1  0.87428275  0.62558212  0.87062223  1
  Fe  Fe88  1  0.75388738  0.24996207  0.00181156  1
  Fe  Fe89  1  0.50210083  0.74982853  0.25126250  1
  Co  Co90  1  0.00231031  0.00218117  0.25234542  1
  Co  Co91  1  0.37454715  0.12059949  0.62624139  1
  Co  Co92  1  0.12579772  0.87169202  0.87776490  1
  Co  Co93  1  0.49532186  0.24966198  0.50156339  1
  Co  Co94  1  0.87363233  0.62400743  0.62581991  1
  Co  Co95  1  0.87773092  0.87885614  0.62616658  1
  Co  Co96  1  -0.00560740  0.24810189  0.00179442  1
  Co  Co97  1  0.25138317  0.74866558  0.24959427  1
  Co  Co98  1  0.74776627  0.00049766  -0.00215242  1
  Co  Co99  1  0.87617384  0.87923734  0.12437395  1
  Co  Co100  1  0.62562993  0.36966182  0.37453629  1
  Co  Co101  1  0.50407409  0.50104350  0.25321321  1
  Co  Co102  1  0.12478178  0.87324453  0.62015111  1
  Co  Co103  1  0.25137452  0.49858399  0.00136169  1
  Co  Co104  1  0.75326350  0.24879262  0.24863161  1
  Co  Co105  1  0.37750109  0.38285687  0.62618780  1
  Co  Co106  1  -0.00080171  0.24934381  0.50143852  1
  Co  Co107  1  0.74726451  0.49575670  0.50149282  1
  Co  Co108  1  0.00260443  -0.00042232  -0.00190618  1
  Co  Co109  1  0.62239701  0.87450503  0.62302036  1
  Co  Co110  1  0.62753481  0.37228383  0.87518861  1
  Co  Co111  1  0.37899253  0.37503514  0.12728115  1
  Co  Co112  1  0.24383797  0.49971396  0.75050323  1
  Co  Co113  1  0.87477611  0.37911656  0.12662086  1
  Co  Co114  1  -0.00564499  0.74799555  0.25121463  1
  Co  Co115  1  0.87370126  0.37263655  0.62319799  1
  Co  Co116  1  0.62979514  0.62961935  0.37666896  1
  Co  Co117  1  0.87447936  0.12477563  0.37542066  1
  Co  Co118  1  0.62509940  0.87285782  0.87394758  1
  Co  Co119  1  0.74910276  0.00230706  0.50260354  1
  Co  Co120  1  0.50780199  0.50160642  0.74988363  1
  Co  Co121  1  0.00083418  0.75206804  0.74964161  1
  Co  Co122  1  0.62507923  0.12592776  0.37529190  1
  Co  Co123  1  0.75292948  0.24927719  0.75015181  1
  Co  Co124  1  0.49508939  0.24924479  0.75058839  1
  Co  Co125  1  0.74790024  0.00017865  0.25217104  1
  Co  Co126  1  0.24792323  0.50032991  0.49831082  1
  Co  Co127  1  -0.00378813  0.50294160  -0.00186636  1
