# generated using pymatgen
data_Fe45Co19
_symmetry_space_group_name_H-M   'P 1'
_cell_length_a   11.41478556
_cell_length_b   11.41540954
_cell_length_c   11.41456095
_cell_angle_alpha   90.00185872
_cell_angle_beta   89.99612211
_cell_angle_gamma   90.00601149
_symmetry_Int_Tables_number   1
_chemical_formula_structural   Fe45Co19
_chemical_formula_sum   'Fe90 Co38'
_cell_volume   1487.36809648
_cell_formula_units_Z   2
loop_
 _symmetry_equiv_pos_site_id
 _symmetry_equiv_pos_as_xyz
  1  'x, y, z'
loop_
 _atom_site_type_symbol
 _atom_site_label
 _atom_site_symmetry_multiplicity
 _atom_site_fract_x
 _atom_site_fract_y
 _atom_site_fract_z
 _atom_site_occupancy
  Fe  Fe0  1  0.24965661  0.50008024  0.00361858  1
  Fe  Fe1  1  0.62251562  0.37710756  0.12399153  1
  Fe  Fe2  1  0.74895308  0.74913543  0.00047573  1
  Fe  Fe3  1  0.62495668  0.12634624  0.87552093  1
  Fe  Fe4  1  0.87675432  0.37767530  0.37723877  1
  Fe  Fe5  1  0.00148088  0.75098905  0.75284274  1
  Fe  Fe6  1  0.49689363  0.24838057  -0.00105363  1
  Fe  Fe7  1  0.37597631  0.37747594  0.12878454  1
  Fe  Fe8  1  0.87293270  0.87561893  0.12620579  1
  Fe  Fe9  1  0.37581839  0.12103185  0.12714723  1
  Fe  Fe10  1  0.25016115  0.24981784  0.49926012  1
  Fe  Fe11  1  0.25177190  0.24849268  -0.00058953  1
  Fe  Fe12  1  0.24759332  0.25108563  0.74986007  1
  Fe  Fe13  1  0.25267737  0.75348432  0.49835791  1
  Fe  Fe14  1  0.37822395  0.62132049  0.12836583  1
  Fe  Fe15  1  0.12694984  0.62456753  0.87514230  1
  Fe  Fe16  1  0.50249679  0.75071126  0.24638663  1
  Fe  Fe17  1  0.50087281  0.00068640  0.75096233  1
  Fe  Fe18  1  0.87464951  0.87199220  0.62586649  1
  Fe  Fe19  1  0.87202765  0.62295405  0.37588902  1
  Fe  Fe20  1  0.37390934  0.12206936  0.37398661  1
  Fe  Fe21  1  0.49804087  0.50268519  0.49634723  1
  Fe  Fe22  1  0.00288665  -0.00070520  0.50272037  1
  Fe  Fe23  1  0.75201823  0.25094079  0.74885958  1
  Fe  Fe24  1  0.87174230  0.62757661  0.62439682  1
  Fe  Fe25  1  0.75053633  0.00077630  0.00082213  1
  Fe  Fe26  1  0.00005039  0.25177168  0.25092511  1
  Fe  Fe27  1  -0.00019226  0.50125136  0.74939522  1
  Fe  Fe28  1  0.37385648  0.62298903  0.87332257  1
  Fe  Fe29  1  0.00004045  0.75025168  0.00046297  1
  Fe  Fe30  1  0.00419544  0.50087462  0.24758328  1
  Fe  Fe31  1  0.87582780  0.12414239  0.37549528  1
  Fe  Fe32  1  0.25159726  0.50162318  0.49842241  1
  Fe  Fe33  1  0.75074047  0.50105178  0.74932307  1
  Fe  Fe34  1  0.62346227  0.87447396  0.87766660  1
  Fe  Fe35  1  0.87400642  0.62327344  0.12496027  1
  Fe  Fe36  1  0.49868336  -0.00065141  0.49912515  1
  Fe  Fe37  1  0.87667097  0.87622893  0.87521598  1
  Fe  Fe38  1  0.49895016  0.24960725  0.25170014  1
  Fe  Fe39  1  0.62533111  0.87516775  0.37371873  1
  Fe  Fe40  1  0.62542076  0.87309833  0.62574155  1
  Fe  Fe41  1  0.12229834  0.12187354  0.87368935  1
  Fe  Fe42  1  0.62411470  0.12236096  0.12559938  1
  Fe  Fe43  1  0.12548600  0.12266059  0.37558451  1
  Fe  Fe44  1  0.75201321  0.25113998  0.00103290  1
  Fe  Fe45  1  0.75141996  0.49969056  -0.00144239  1
  Fe  Fe46  1  0.24989871  0.24996458  0.25032142  1
  Fe  Fe47  1  0.87791367  0.12348815  0.87343200  1
  Fe  Fe48  1  0.49951981  0.74926462  0.75128606  1
  Fe  Fe49  1  0.37626151  0.87620030  0.87599427  1
  Fe  Fe50  1  0.24562900  -0.00571055  0.74836646  1
  Fe  Fe51  1  0.62749243  0.62826794  0.62208988  1
  Fe  Fe52  1  0.37217318  0.12262047  0.62663971  1
  Fe  Fe53  1  0.87884115  0.12724056  0.62525333  1
  Fe  Fe54  1  0.50008704  0.50044478  0.74925000  1
  Fe  Fe55  1  0.49743665  0.75109398  0.49832507  1
  Fe  Fe56  1  -0.00071574  0.74802537  0.49813818  1
  Fe  Fe57  1  0.75081834  -0.00091962  0.74961464  1
  Fe  Fe58  1  0.62312672  0.37206915  0.37992301  1
  Fe  Fe59  1  0.75083294  -0.00069680  0.50013533  1
  Fe  Fe60  1  0.87661892  0.87620426  0.37398620  1
  Fe  Fe61  1  0.62563381  0.12530958  0.37608763  1
  Fe  Fe62  1  0.37398018  0.37570820  0.87379186  1
  Fe  Fe63  1  0.12589260  0.37681016  0.37518914  1
  Fe  Fe64  1  0.87470014  0.12566445  0.12658819  1
  Fe  Fe65  1  0.49778374  0.24855836  0.74976894  1
  Fe  Fe66  1  0.37585173  0.37452084  0.62324660  1
  Fe  Fe67  1  0.74498213  0.50062493  0.25158657  1
  Fe  Fe68  1  0.12433623  0.12639245  0.12446358  1
  Fe  Fe69  1  0.62514656  0.37398862  0.87483642  1
  Fe  Fe70  1  0.12846694  0.62846017  0.62674727  1
  Fe  Fe71  1  0.00008551  0.74914816  0.24927913  1
  Fe  Fe72  1  0.12453263  0.37645952  0.87641817  1
  Fe  Fe73  1  0.87832003  0.37420994  0.62214492  1
  Fe  Fe74  1  0.24913602  -0.00517882  0.49998697  1
  Fe  Fe75  1  0.62332249  0.37279419  0.62198615  1
  Fe  Fe76  1  0.12295932  0.37465245  0.62253215  1
  Fe  Fe77  1  0.62376510  0.62485325  0.87750339  1
  Fe  Fe78  1  0.37278349  0.62708224  0.62688915  1
  Fe  Fe79  1  0.25063031  0.75272783  0.24806018  1
  Fe  Fe80  1  0.62513390  0.12660933  0.62355362  1
  Fe  Fe81  1  0.25054406  0.00050103  0.00094817  1
  Fe  Fe82  1  -0.00224639  0.25208515  -0.00003692  1
  Fe  Fe83  1  0.25291070  0.74967917  0.00048019  1
  Fe  Fe84  1  0.00001508  0.49921500  0.00261978  1
  Fe  Fe85  1  0.75036867  0.25087609  0.25119874  1
  Fe  Fe86  1  0.74733973  0.74936287  0.24862938  1
  Fe  Fe87  1  0.12796146  0.62666626  0.37368520  1
  Fe  Fe88  1  0.00184792  -0.00051170  0.24744950  1
  Fe  Fe89  1  0.12605397  0.87459523  0.12400121  1
  Co  Co90  1  0.00261053  0.25124223  0.75138892  1
  Co  Co91  1  0.24720720  0.49993619  0.24891384  1
  Co  Co92  1  0.00199990  0.50506415  0.50078685  1
  Co  Co93  1  0.74909727  0.74981305  0.75408340  1
  Co  Co94  1  0.12313176  0.87378470  0.37424703  1
  Co  Co95  1  0.37402616  0.37551338  0.37329383  1
  Co  Co96  1  0.87652358  0.62504258  0.87646803  1
  Co  Co97  1  0.87486190  0.37566666  0.87403547  1
  Co  Co98  1  0.75017458  0.00035761  0.25089571  1
  Co  Co99  1  0.50386859  0.50094958  0.25611723  1
  Co  Co100  1  0.12588472  0.37175826  0.12457774  1
  Co  Co101  1  0.49904744  0.00192695  -0.00122558  1
  Co  Co102  1  0.74885629  0.49905404  0.50129739  1
  Co  Co103  1  0.00195742  0.24904246  0.49724425  1
  Co  Co104  1  0.37350094  0.62704504  0.37051022  1
  Co  Co105  1  0.87389826  0.37711988  0.12723913  1
  Co  Co106  1  0.49707504  0.74968219  0.00284608  1
  Co  Co107  1  0.12402622  0.87610914  0.87913917  1
  Co  Co108  1  0.75160071  0.75346555  0.49711664  1
  Co  Co109  1  0.37578226  0.87509504  0.37111787  1
  Co  Co110  1  0.00165476  -0.00320620  0.74633052  1
  Co  Co111  1  0.62549453  0.87802855  0.12309578  1
  Co  Co112  1  0.49740746  0.49839845  -0.00268857  1
  Co  Co113  1  0.12512682  0.62790691  0.12441666  1
  Co  Co114  1  0.37531575  0.87928307  0.12552878  1
  Co  Co115  1  0.12370617  0.86925539  0.62253548  1
  Co  Co116  1  0.37246651  0.12266018  0.87080491  1
  Co  Co117  1  0.62600504  0.62897766  0.37849283  1
  Co  Co118  1  0.75319671  0.24949549  0.49986650  1
  Co  Co119  1  -0.00102107  -0.00045277  0.00446936  1
  Co  Co120  1  0.25005929  0.75398658  0.75357990  1
  Co  Co121  1  0.12646113  0.12512052  0.62541802  1
  Co  Co122  1  0.62325709  0.62147853  0.12163306  1
  Co  Co123  1  0.24932864  0.49745406  0.74802173  1
  Co  Co124  1  0.49584638  0.24648746  0.49975065  1
  Co  Co125  1  0.50182200  -0.00063703  0.25100234  1
  Co  Co126  1  0.37723142  0.87483349  0.62674600  1
  Co  Co127  1  0.24686868  -0.00133726  0.24958383  1
