# generated using pymatgen
data_Fe45Co19
_symmetry_space_group_name_H-M   'P 1'
_cell_length_a   11.41651781
_cell_length_b   11.41531838
_cell_length_c   11.41502256
_cell_angle_alpha   89.99556734
_cell_angle_beta   89.99062201
_cell_angle_gamma   90.00732615
_symmetry_Int_Tables_number   1
_chemical_formula_structural   Fe45Co19
_chemical_formula_sum   'Fe90 Co38'
_cell_volume   1487.64206603
_cell_formula_units_Z   2
loop_
 _symmetry_equiv_pos_site_id
 _symmetry_equiv_pos_as_xyz
  1  'x, y, z'
loop_
 _atom_site_type_symbol
 _atom_site_label
 _atom_site_symmetry_multiplicity
 _atom_site_fract_x
 _atom_site_fract_y
 _atom_site_fract_z
 _atom_site_occupancy
  Fe  Fe0  1  -0.00136588  0.24990041  0.50252127  1
  Fe  Fe1  1  0.62318380  0.37593562  0.37334657  1
  Fe  Fe2  1  0.50139378  0.24983784  -0.00112365  1
  Fe  Fe3  1  0.37720992  0.37571432  0.37338481  1
  Fe  Fe4  1  0.12682985  0.62495946  0.37406739  1
  Fe  Fe5  1  -0.00136576  0.50303681  -0.00333298  1
  Fe  Fe6  1  0.24988729  0.25036433  0.50008032  1
  Fe  Fe7  1  0.75190504  0.75065652  0.74566055  1
  Fe  Fe8  1  0.62117521  0.37631450  0.62611618  1
  Fe  Fe9  1  0.37635507  0.62519160  0.12546096  1
  Fe  Fe10  1  0.62541612  0.12535577  0.87198132  1
  Fe  Fe11  1  0.49839920  -0.00231569  0.75118885  1
  Fe  Fe12  1  0.75017100  0.75109524  0.24943543  1
  Fe  Fe13  1  0.12756592  0.87521880  0.37771325  1
  Fe  Fe14  1  0.24741590  0.00339637  0.25019152  1
  Fe  Fe15  1  0.00036589  0.00004532  0.50089302  1
  Fe  Fe16  1  0.00068840  0.00054658  -0.00144391  1
  Fe  Fe17  1  0.50238887  0.50097667  -0.00080956  1
  Fe  Fe18  1  0.25097182  0.49818785  0.24980203  1
  Fe  Fe19  1  0.49968084  0.74861808  0.25040047  1
  Fe  Fe20  1  0.62501970  0.37478645  0.12567176  1
  Fe  Fe21  1  0.49707132  0.49795944  0.75030510  1
  Fe  Fe22  1  0.87676607  0.87462902  0.12400138  1
  Fe  Fe23  1  0.62620279  0.62565798  0.12481922  1
  Fe  Fe24  1  0.37766683  0.37408097  0.12617162  1
  Fe  Fe25  1  0.12420242  0.87315705  0.62346791  1
  Fe  Fe26  1  0.62454225  0.87402107  0.37605160  1
  Fe  Fe27  1  0.25033597  0.75017306  0.24903619  1
  Fe  Fe28  1  0.12547084  0.12461387  0.62599081  1
  Fe  Fe29  1  -0.00109197  0.25001760  -0.00116992  1
  Fe  Fe30  1  0.87521654  0.87096615  0.87578804  1
  Fe  Fe31  1  -0.00045991  0.74917661  0.25113144  1
  Fe  Fe32  1  0.25004560  0.50071068  0.00055165  1
  Fe  Fe33  1  0.62534546  0.12402736  0.12448459  1
  Fe  Fe34  1  0.75178174  -0.00197656  0.74809097  1
  Fe  Fe35  1  0.12517279  0.37679775  0.87431154  1
  Fe  Fe36  1  0.87297712  0.37272333  0.87301785  1
  Fe  Fe37  1  -0.00043668  0.50156576  0.49945719  1
  Fe  Fe38  1  0.12374123  0.37309413  0.37236422  1
  Fe  Fe39  1  0.75075838  -0.00224564  0.50298304  1
  Fe  Fe40  1  0.37454130  0.62569097  0.87435633  1
  Fe  Fe41  1  0.62388237  0.12421972  0.62657144  1
  Fe  Fe42  1  0.86980681  0.62667206  0.38052725  1
  Fe  Fe43  1  0.62595330  0.62881504  0.87329120  1
  Fe  Fe44  1  0.87352631  0.12748237  0.87149915  1
  Fe  Fe45  1  0.62218290  0.87460869  0.62632547  1
  Fe  Fe46  1  0.24972227  0.74958074  0.74893067  1
  Fe  Fe47  1  0.37454363  0.12398810  0.12507280  1
  Fe  Fe48  1  -0.00292992  0.50176112  0.25118562  1
  Fe  Fe49  1  0.50059998  0.50598560  0.49870734  1
  Fe  Fe50  1  0.50135302  0.00171802  0.25276323  1
  Fe  Fe51  1  0.75274047  0.50072944  0.74769875  1
  Fe  Fe52  1  0.87412737  0.37569300  0.12323517  1
  Fe  Fe53  1  -0.00287470  0.50522621  0.75219218  1
  Fe  Fe54  1  0.12700675  0.12512277  0.87474174  1
  Fe  Fe55  1  0.87543814  0.12424904  0.12478050  1
  Fe  Fe56  1  0.50085987  0.24835190  0.49921658  1
  Fe  Fe57  1  0.12610786  0.87517267  0.12186390  1
  Fe  Fe58  1  0.49905899  0.00067089  0.49966847  1
  Fe  Fe59  1  0.37434493  0.87204539  0.87694425  1
  Fe  Fe60  1  0.49946515  -0.00337649  -0.00228798  1
  Fe  Fe61  1  0.12437343  0.62602029  0.62551219  1
  Fe  Fe62  1  0.50072455  0.74487716  0.50040643  1
  Fe  Fe63  1  0.25176017  0.50198975  0.49997534  1
  Fe  Fe64  1  0.62330126  0.87555535  0.12441364  1
  Fe  Fe65  1  0.25086003  -0.00228564  0.74937297  1
  Fe  Fe66  1  0.25258226  0.25410373  0.74901144  1
  Fe  Fe67  1  0.37319384  0.87383873  0.37618266  1
  Fe  Fe68  1  0.87469366  0.37550485  0.37603282  1
  Fe  Fe69  1  0.12222029  0.37384521  0.12669067  1
  Fe  Fe70  1  0.25003056  0.25032518  0.00061833  1
  Fe  Fe71  1  0.62651894  0.37273868  0.87385108  1
  Fe  Fe72  1  0.12409474  0.62457847  0.12436743  1
  Fe  Fe73  1  0.75066375  0.25253067  0.50484707  1
  Fe  Fe74  1  0.37469540  0.87243845  0.62252946  1
  Fe  Fe75  1  0.37404983  0.12539924  0.37503581  1
  Fe  Fe76  1  0.37558745  0.12595666  0.62654092  1
  Fe  Fe77  1  0.74966889  0.24871450  0.24979951  1
  Fe  Fe78  1  0.87308619  0.62540977  0.12145949  1
  Fe  Fe79  1  0.00270678  0.00230395  0.25104129  1
  Fe  Fe80  1  0.12552677  0.87170820  0.87758941  1
  Fe  Fe81  1  -0.00019735  -0.00142059  0.74990820  1
  Fe  Fe82  1  0.87456946  0.87342251  0.37717372  1
  Fe  Fe83  1  0.74955928  0.49996148  0.25028484  1
  Fe  Fe84  1  0.37502910  0.12636812  0.87366974  1
  Fe  Fe85  1  0.74975664  -0.00137918  -0.00181070  1
  Fe  Fe86  1  0.25304267  0.49752736  0.74907701  1
  Fe  Fe87  1  0.87381575  0.12472896  0.37672359  1
  Fe  Fe88  1  0.12328555  0.37651894  0.62601609  1
  Fe  Fe89  1  0.74857097  -0.00006844  0.25141395  1
  Co  Co90  1  0.00280890  0.74923407  0.49743710  1
  Co  Co91  1  0.12904406  0.62529231  0.87452015  1
  Co  Co92  1  0.87483328  0.62617878  0.61952160  1
  Co  Co93  1  0.12401047  0.12644100  0.12257506  1
  Co  Co94  1  0.37471884  0.87726871  0.12735054  1
  Co  Co95  1  0.87936184  0.87185592  0.62336633  1
  Co  Co96  1  0.74960442  0.24908560  0.00016200  1
  Co  Co97  1  0.25124873  -0.00017966  -0.00099757  1
  Co  Co98  1  0.50002998  0.75109211  0.00034741  1
  Co  Co99  1  0.50108650  0.50198553  0.24941207  1
  Co  Co100  1  0.12321845  0.12728413  0.37752075  1
  Co  Co101  1  0.62473973  0.62385368  0.62877563  1
  Co  Co102  1  0.74757384  0.49702374  0.50279936  1
  Co  Co103  1  0.74869022  0.25118917  0.74526031  1
  Co  Co104  1  0.00105456  0.74739733  -0.00028163  1
  Co  Co105  1  0.37748251  0.37609310  0.62017089  1
  Co  Co106  1  0.62655733  0.87338151  0.87350570  1
  Co  Co107  1  0.25061255  0.00167439  0.50114744  1
  Co  Co108  1  0.87060868  0.62882236  0.87749605  1
  Co  Co109  1  0.25031522  0.74652795  0.50081928  1
  Co  Co110  1  0.62873050  0.12479602  0.37830238  1
  Co  Co111  1  -0.00241741  0.24896347  0.24970061  1
  Co  Co112  1  0.37342474  0.62484467  0.37248635  1
  Co  Co113  1  0.25004929  0.24949993  0.25022631  1
  Co  Co114  1  0.49821937  0.25261919  0.75036064  1
  Co  Co115  1  0.00213932  0.24983089  0.75020579  1
  Co  Co116  1  0.87887313  0.37758416  0.62709124  1
  Co  Co117  1  0.49898690  0.75127560  0.74996883  1
  Co  Co118  1  0.74807182  0.49981353  -0.00224242  1
  Co  Co119  1  0.74769936  0.75238957  0.00192385  1
  Co  Co120  1  0.25213943  0.74833421  0.00166406  1
  Co  Co121  1  0.74506205  0.75211620  0.50376926  1
  Co  Co122  1  0.37499423  0.37563116  0.87880963  1
  Co  Co123  1  0.87613517  0.12444802  0.62650748  1
  Co  Co124  1  0.37507704  0.62487056  0.62790175  1
  Co  Co125  1  0.62876888  0.62499226  0.37362262  1
  Co  Co126  1  -0.00068706  0.74678932  0.75119141  1
  Co  Co127  1  0.50130471  0.24710744  0.25052326  1
