# generated using pymatgen
data_Fe45Co19
_symmetry_space_group_name_H-M   'P 1'
_cell_length_a   11.41567890
_cell_length_b   11.41563986
_cell_length_c   11.41512777
_cell_angle_alpha   89.98714220
_cell_angle_beta   89.99583507
_cell_angle_gamma   89.99714566
_symmetry_Int_Tables_number   1
_chemical_formula_structural   Fe45Co19
_chemical_formula_sum   'Fe90 Co38'
_cell_volume   1487.58834793
_cell_formula_units_Z   2
loop_
 _symmetry_equiv_pos_site_id
 _symmetry_equiv_pos_as_xyz
  1  'x, y, z'
loop_
 _atom_site_type_symbol
 _atom_site_label
 _atom_site_symmetry_multiplicity
 _atom_site_fract_x
 _atom_site_fract_y
 _atom_site_fract_z
 _atom_site_occupancy
  Fe  Fe0  1  0.62332709  0.37493541  0.12376857  1
  Fe  Fe1  1  0.24851860  0.25368339  0.25085114  1
  Fe  Fe2  1  0.62375949  0.62516283  0.12557874  1
  Fe  Fe3  1  0.87784657  0.87543260  0.37796667  1
  Fe  Fe4  1  0.00219170  0.25003624  0.25201894  1
  Fe  Fe5  1  0.87156269  0.62423795  0.87243886  1
  Fe  Fe6  1  0.37272308  0.62508630  0.37192966  1
  Fe  Fe7  1  0.49649109  0.74603966  -0.00203103  1
  Fe  Fe8  1  0.12256534  0.87623267  0.62344165  1
  Fe  Fe9  1  0.37650304  0.37438432  0.62457022  1
  Fe  Fe10  1  0.87598290  0.12109838  0.37249659  1
  Fe  Fe11  1  0.87150321  0.12942609  0.62786658  1
  Fe  Fe12  1  0.62074909  0.87741369  0.12371433  1
  Fe  Fe13  1  0.87681263  0.87481294  0.12440825  1
  Fe  Fe14  1  0.62406550  0.87595673  0.37639768  1
  Fe  Fe15  1  0.49802811  0.24780783  -0.00052655  1
  Fe  Fe16  1  0.24999768  -0.00064123  0.74814337  1
  Fe  Fe17  1  0.00067729  0.74342279  0.50259077  1
  Fe  Fe18  1  0.37637105  0.87456520  0.62436497  1
  Fe  Fe19  1  0.62305111  0.37645048  0.87644627  1
  Fe  Fe20  1  0.37201155  0.12487126  0.37465743  1
  Fe  Fe21  1  0.62649571  0.62462572  0.62637966  1
  Fe  Fe22  1  0.87843247  0.37627293  0.37743894  1
  Fe  Fe23  1  0.62459048  0.12288611  0.12492887  1
  Fe  Fe24  1  0.49725534  0.50508071  -0.00309823  1
  Fe  Fe25  1  0.75226994  0.49802611  0.50216849  1
  Fe  Fe26  1  0.50119679  0.49865068  0.25178994  1
  Fe  Fe27  1  0.75147456  0.50023348  0.00093523  1
  Fe  Fe28  1  -0.00021487  0.74694926  -0.00198402  1
  Fe  Fe29  1  0.00382641  0.50008200  0.25112874  1
  Fe  Fe30  1  0.49861595  0.24908160  0.49862273  1
  Fe  Fe31  1  0.74949826  0.49845668  0.24947730  1
  Fe  Fe32  1  -0.00051972  0.00220595  0.00131024  1
  Fe  Fe33  1  0.12582348  0.87369298  0.12094022  1
  Fe  Fe34  1  0.12763844  0.12440438  0.62410515  1
  Fe  Fe35  1  0.25045961  -0.00388701  0.25134784  1
  Fe  Fe36  1  0.75011956  0.49288838  0.74732672  1
  Fe  Fe37  1  0.74921248  0.75467127  0.74602833  1
  Fe  Fe38  1  0.37343839  0.62452796  0.62818334  1
  Fe  Fe39  1  0.37232450  0.12558329  0.87315516  1
  Fe  Fe40  1  0.49706762  0.00156588  0.50006577  1
  Fe  Fe41  1  0.62689780  0.62476376  0.37522040  1
  Fe  Fe42  1  0.24947638  0.49743907  0.74873056  1
  Fe  Fe43  1  0.25005778  0.25057769  0.49881637  1
  Fe  Fe44  1  0.75032724  0.25133287  0.25072710  1
  Fe  Fe45  1  0.62617929  0.87620893  0.87580526  1
  Fe  Fe46  1  0.50047060  0.74770327  0.49902717  1
  Fe  Fe47  1  0.37498281  0.12121691  0.12468435  1
  Fe  Fe48  1  0.87306880  0.62651552  0.37446215  1
  Fe  Fe49  1  0.00183107  0.75061156  0.25101504  1
  Fe  Fe50  1  0.62672012  0.12344989  0.37486465  1
  Fe  Fe51  1  0.75118705  -0.00179799  0.24732309  1
  Fe  Fe52  1  0.75130274  0.25098544  0.00002349  1
  Fe  Fe53  1  0.37407318  0.37579103  0.87554869  1
  Fe  Fe54  1  0.49821595  0.75259883  0.25015650  1
  Fe  Fe55  1  0.37216580  0.87548939  0.87776240  1
  Fe  Fe56  1  0.74886673  0.75180665  0.25029682  1
  Fe  Fe57  1  0.62907529  0.12354515  0.87392441  1
  Fe  Fe58  1  0.12573474  0.87576501  0.87710714  1
  Fe  Fe59  1  0.87192901  0.12472974  0.87326470  1
  Fe  Fe60  1  0.24917949  0.74813916  0.50155571  1
  Fe  Fe61  1  -0.00022007  0.24853999  -0.00051624  1
  Fe  Fe62  1  0.24620979  0.49736520  0.25000138  1
  Fe  Fe63  1  0.50129424  0.25071832  0.74983215  1
  Fe  Fe64  1  0.12814503  0.62369048  0.87635352  1
  Fe  Fe65  1  0.74967539  0.74999422  0.00111103  1
  Fe  Fe66  1  0.24842399  0.25240971  0.74969564  1
  Fe  Fe67  1  0.75220873  -0.00329821  0.50483721  1
  Fe  Fe68  1  0.12637107  0.12481002  0.87451916  1
  Fe  Fe69  1  0.62734930  0.12738889  0.62540390  1
  Fe  Fe70  1  -0.00179055  0.49955913  0.74873362  1
  Fe  Fe71  1  0.50025106  0.74770897  0.75279487  1
  Fe  Fe72  1  0.25072097  0.75269712  0.24733587  1
  Fe  Fe73  1  0.00161752  0.74727161  0.74971777  1
  Fe  Fe74  1  0.00064555  0.24565875  0.49752395  1
  Fe  Fe75  1  0.00122072  0.25258842  0.75113227  1
  Fe  Fe76  1  0.12552267  0.37681463  0.88077722  1
  Fe  Fe77  1  0.62417007  0.37428222  0.37680667  1
  Fe  Fe78  1  0.87496116  0.87691630  0.87388487  1
  Fe  Fe79  1  0.49965652  0.00090462  0.74991000  1
  Fe  Fe80  1  0.12554473  0.12581404  0.12661083  1
  Fe  Fe81  1  0.12219225  0.37811549  0.61903520  1
  Fe  Fe82  1  0.37523230  0.37602361  0.12419738  1
  Fe  Fe83  1  -0.00140539  0.00122563  0.74756653  1
  Fe  Fe84  1  0.87667971  0.62535781  0.12672838  1
  Fe  Fe85  1  0.50006191  0.24936354  0.25113815  1
  Fe  Fe86  1  0.24788640  0.75173454  0.74959795  1
  Fe  Fe87  1  0.87825460  0.37507412  0.12431361  1
  Fe  Fe88  1  0.49787286  0.50053602  0.50049143  1
  Fe  Fe89  1  0.12330957  0.87714519  0.37962640  1
  Co  Co90  1  0.37003907  0.62393407  0.86995246  1
  Co  Co91  1  -0.00082072  0.00452839  0.50328652  1
  Co  Co92  1  0.37395624  0.12721796  0.62644553  1
  Co  Co93  1  0.12308535  0.37603288  0.38027133  1
  Co  Co94  1  0.75132534  -0.00069833  0.00211703  1
  Co  Co95  1  0.37455369  0.87309907  0.37813561  1
  Co  Co96  1  0.62993364  0.62457041  0.87257302  1
  Co  Co97  1  0.12792052  0.62198732  0.62724665  1
  Co  Co98  1  0.12326091  0.37409119  0.12092259  1
  Co  Co99  1  0.61913093  0.87467953  0.62443163  1
  Co  Co100  1  0.50002784  0.00203035  -0.00439119  1
  Co  Co101  1  0.50127615  0.50004055  0.74970473  1
  Co  Co102  1  -0.00084709  0.50371881  -0.00069795  1
  Co  Co103  1  0.87102971  0.62594563  0.62797450  1
  Co  Co104  1  0.87556587  0.12691788  0.12635196  1
  Co  Co105  1  0.37600722  0.62319629  0.13033023  1
  Co  Co106  1  0.74862767  0.25609893  0.75209469  1
  Co  Co107  1  0.25121813  0.24892580  0.00017203  1
  Co  Co108  1  0.24829206  0.00262918  -0.00078689  1
  Co  Co109  1  0.12730946  0.12189612  0.37383038  1
  Co  Co110  1  0.87918279  0.37122673  0.62201937  1
  Co  Co111  1  0.12751759  0.62607419  0.37373688  1
  Co  Co112  1  0.37677835  0.87820870  0.12048052  1
  Co  Co113  1  0.75191827  0.25041885  0.49600704  1
  Co  Co114  1  0.25186041  -0.00002467  0.50169520  1
  Co  Co115  1  -0.00200632  0.50699591  0.50096450  1
  Co  Co116  1  0.62310014  0.37199124  0.62158642  1
  Co  Co117  1  0.25309459  0.74602707  0.00206422  1
  Co  Co118  1  0.37524066  0.37484128  0.37468877  1
  Co  Co119  1  0.25254805  0.50146872  0.49860772  1
  Co  Co120  1  0.74892052  0.75238706  0.50105770  1
  Co  Co121  1  0.00178967  -0.00179205  0.24737430  1
  Co  Co122  1  0.87729210  0.37490132  0.87650348  1
  Co  Co123  1  0.12334503  0.62603189  0.12551905  1
  Co  Co124  1  0.88111793  0.87165348  0.62439545  1
  Co  Co125  1  0.75057713  -0.00381679  0.74571812  1
  Co  Co126  1  0.49766571  -0.00030390  0.25360134  1
  Co  Co127  1  0.25161726  0.50317272  0.00319480  1
