# generated using pymatgen
data_Fe45Co19
_symmetry_space_group_name_H-M   'P 1'
_cell_length_a   11.41501999
_cell_length_b   11.41468379
_cell_length_c   11.41482880
_cell_angle_alpha   89.99919360
_cell_angle_beta   89.99930895
_cell_angle_gamma   90.00160089
_symmetry_Int_Tables_number   1
_chemical_formula_structural   Fe45Co19
_chemical_formula_sum   'Fe90 Co38'
_cell_volume   1487.33899245
_cell_formula_units_Z   2
loop_
 _symmetry_equiv_pos_site_id
 _symmetry_equiv_pos_as_xyz
  1  'x, y, z'
loop_
 _atom_site_type_symbol
 _atom_site_label
 _atom_site_symmetry_multiplicity
 _atom_site_fract_x
 _atom_site_fract_y
 _atom_site_fract_z
 _atom_site_occupancy
  Fe  Fe0  1  0.62206746  0.12405716  0.37410906  1
  Fe  Fe1  1  0.87552807  0.37958314  0.12779409  1
  Fe  Fe2  1  0.24693196  0.49761681  0.24835254  1
  Fe  Fe3  1  0.37465348  0.12466990  0.13101576  1
  Fe  Fe4  1  0.62451826  0.37762256  0.12771469  1
  Fe  Fe5  1  -0.00041060  0.24981651  0.24902106  1
  Fe  Fe6  1  0.50088611  0.74892033  0.75102607  1
  Fe  Fe7  1  0.25001478  0.25141247  0.74990316  1
  Fe  Fe8  1  0.12657455  0.12845874  0.87825588  1
  Fe  Fe9  1  0.00202583  -0.00046479  0.24945945  1
  Fe  Fe10  1  0.49883296  0.25277090  0.00244687  1
  Fe  Fe11  1  0.74872401  0.24956428  0.24944005  1
  Fe  Fe12  1  0.74928199  -0.00167269  0.49790221  1
  Fe  Fe13  1  0.12257879  0.62387568  0.12455766  1
  Fe  Fe14  1  0.12393371  0.87384320  0.12326867  1
  Fe  Fe15  1  0.74803508  -0.00320004  0.25039441  1
  Fe  Fe16  1  -0.00019451  0.50041124  -0.00213808  1
  Fe  Fe17  1  0.12325929  0.87226182  0.37538043  1
  Fe  Fe18  1  0.24854330  0.49777903  0.75178441  1
  Fe  Fe19  1  0.12682936  0.62428823  0.87497154  1
  Fe  Fe20  1  0.75068203  0.25378938  0.00222542  1
  Fe  Fe21  1  0.75120902  -0.00370796  -0.00250239  1
  Fe  Fe22  1  0.74948848  -0.00044879  0.75365503  1
  Fe  Fe23  1  0.25021739  0.74848933  0.00036060  1
  Fe  Fe24  1  0.62111222  0.86874398  0.37355358  1
  Fe  Fe25  1  0.12497089  0.87334423  0.87484837  1
  Fe  Fe26  1  0.12697302  0.12615554  0.12578035  1
  Fe  Fe27  1  0.37575557  0.62247594  0.62529866  1
  Fe  Fe28  1  0.62535513  0.12320488  0.12400685  1
  Fe  Fe29  1  0.37676112  0.12495275  0.62403366  1
  Fe  Fe30  1  0.62335411  0.37462363  0.62369204  1
  Fe  Fe31  1  0.87363519  0.62359546  0.62514996  1
  Fe  Fe32  1  0.12648008  0.87509155  0.62605971  1
  Fe  Fe33  1  0.62951567  0.62626072  0.87642753  1
  Fe  Fe34  1  -0.00165808  0.24838989  0.75084659  1
  Fe  Fe35  1  0.87086355  0.62461005  0.87484874  1
  Fe  Fe36  1  0.87667328  0.87051095  0.37287450  1
  Fe  Fe37  1  0.12298468  0.37520677  0.62581717  1
  Fe  Fe38  1  0.49957515  0.25013282  0.49648872  1
  Fe  Fe39  1  0.37865380  0.87455442  0.37233089  1
  Fe  Fe40  1  0.37670234  0.37488464  0.37075640  1
  Fe  Fe41  1  0.00003541  0.74706519  0.74934231  1
  Fe  Fe42  1  0.12445472  0.62760194  0.37497564  1
  Fe  Fe43  1  0.12528713  0.12454628  0.62391376  1
  Fe  Fe44  1  0.25252614  0.25810324  0.00513631  1
  Fe  Fe45  1  0.75002199  0.25032099  0.74989876  1
  Fe  Fe46  1  0.37338047  0.62243622  0.87517774  1
  Fe  Fe47  1  0.12790078  0.62507587  0.62447701  1
  Fe  Fe48  1  0.12315854  0.37434434  0.37410112  1
  Fe  Fe49  1  0.25265307  0.00038750  0.49739494  1
  Fe  Fe50  1  0.25046935  0.00070887  0.75165337  1
  Fe  Fe51  1  0.87546922  0.37647129  0.62525406  1
  Fe  Fe52  1  0.87230013  0.37846354  0.87273197  1
  Fe  Fe53  1  0.87449379  0.12397322  0.37401984  1
  Fe  Fe54  1  0.00006735  0.50221674  0.49858139  1
  Fe  Fe55  1  0.75015974  0.24923786  0.49872407  1
  Fe  Fe56  1  0.37496425  0.12777553  0.87602736  1
  Fe  Fe57  1  0.50404247  0.49875466  0.75268276  1
  Fe  Fe58  1  0.37606060  0.87565762  0.62695896  1
  Fe  Fe59  1  0.62505951  0.12723595  0.87778626  1
  Fe  Fe60  1  -0.00125754  0.00327374  0.75181312  1
  Fe  Fe61  1  -0.00260796  0.25180293  0.00049391  1
  Fe  Fe62  1  0.62224541  0.62458252  0.62103955  1
  Fe  Fe63  1  0.62560607  0.12459526  0.62400753  1
  Fe  Fe64  1  0.49857774  0.74868383  0.00054012  1
  Fe  Fe65  1  0.62339556  0.87412712  0.62494808  1
  Fe  Fe66  1  0.62701929  0.62599072  0.12412522  1
  Fe  Fe67  1  0.87455893  0.87555881  0.62761855  1
  Fe  Fe68  1  0.87410796  0.37588132  0.37427724  1
  Fe  Fe69  1  0.25226930  -0.00047073  0.00189661  1
  Fe  Fe70  1  0.37633928  0.87409270  0.87696251  1
  Fe  Fe71  1  -0.00155992  0.24790184  0.49993485  1
  Fe  Fe72  1  0.12813774  0.12541621  0.37272378  1
  Fe  Fe73  1  0.25326348  0.74990143  0.50082082  1
  Fe  Fe74  1  0.75088218  0.75002025  0.50085406  1
  Fe  Fe75  1  0.87332277  0.12206070  0.12471288  1
  Fe  Fe76  1  0.37783875  0.37550268  0.62662628  1
  Fe  Fe77  1  0.37400464  0.62187372  0.12496481  1
  Fe  Fe78  1  0.50378716  0.50481813  0.25477310  1
  Fe  Fe79  1  0.25153913  0.49853291  0.49899296  1
  Fe  Fe80  1  0.25161737  0.75125346  0.24795609  1
  Fe  Fe81  1  -0.00112067  0.00018965  0.50037160  1
  Fe  Fe82  1  0.75457968  0.75270535  0.00303966  1
  Fe  Fe83  1  0.50152536  0.00108699  0.75281816  1
  Fe  Fe84  1  0.25171543  0.25014827  0.49803962  1
  Fe  Fe85  1  0.50209407  0.49865089  -0.00248429  1
  Fe  Fe86  1  0.75092536  0.50627975  0.25275011  1
  Fe  Fe87  1  0.74824132  0.50109897  0.49754878  1
  Fe  Fe88  1  0.62176218  0.87441354  0.12403354  1
  Fe  Fe89  1  -0.00160982  -0.00061196  -0.00153313  1
  Co  Co90  1  0.87636019  0.62940684  0.37667238  1
  Co  Co91  1  0.87251550  0.12339098  0.62412376  1
  Co  Co92  1  0.87716290  0.62273312  0.12345262  1
  Co  Co93  1  0.74890138  0.49821665  0.00190855  1
  Co  Co94  1  0.62732597  0.37560800  0.37392255  1
  Co  Co95  1  0.12522005  0.37361780  0.87513356  1
  Co  Co96  1  0.24858303  0.25505032  0.24730681  1
  Co  Co97  1  0.87700612  0.87751926  0.12635018  1
  Co  Co98  1  0.00065767  0.74936723  0.50448300  1
  Co  Co99  1  -0.00076157  0.50187819  0.25327181  1
  Co  Co100  1  0.11979854  0.37689436  0.12461992  1
  Co  Co101  1  -0.00139964  0.74874056  -0.00102711  1
  Co  Co102  1  0.37547770  0.37651439  0.87410877  1
  Co  Co103  1  0.62332711  0.87290817  0.87737976  1
  Co  Co104  1  0.50322991  0.24935873  0.24926368  1
  Co  Co105  1  0.37265329  0.62434658  0.37333715  1
  Co  Co106  1  0.24992698  -0.00422250  0.24975511  1
  Co  Co107  1  0.74768343  0.74900281  0.74832214  1
  Co  Co108  1  0.87259417  0.12607739  0.87739244  1
  Co  Co109  1  0.49854301  0.74689409  0.24712865  1
  Co  Co110  1  0.50074773  -0.00146789  0.24813249  1
  Co  Co111  1  0.24867153  0.49672841  0.00126368  1
  Co  Co112  1  0.50028978  -0.00047646  0.49928724  1
  Co  Co113  1  0.25129814  0.74977059  0.75074997  1
  Co  Co114  1  0.38062449  0.38124242  0.12886708  1
  Co  Co115  1  0.49777792  0.00229512  0.00036430  1
  Co  Co116  1  0.50091630  0.24926056  0.75131534  1
  Co  Co117  1  0.37657950  0.87354211  0.12299995  1
  Co  Co118  1  -0.00173942  0.74885117  0.24659047  1
  Co  Co119  1  0.00066090  0.50247424  0.75054941  1
  Co  Co120  1  0.62619403  0.37295309  0.87564296  1
  Co  Co121  1  0.49513444  0.74887433  0.50141593  1
  Co  Co122  1  0.49904269  0.49848430  0.49586424  1
  Co  Co123  1  0.87617706  0.87230774  0.87189714  1
  Co  Co124  1  0.74580571  0.50027060  0.74782384  1
  Co  Co125  1  0.37552795  0.12558681  0.37070522  1
  Co  Co126  1  0.62490628  0.63136635  0.37842927  1
  Co  Co127  1  0.75095583  0.74842104  0.24647966  1
