# generated using pymatgen
data_Fe45Co19
_symmetry_space_group_name_H-M   'P 1'
_cell_length_a   11.41524662
_cell_length_b   11.41473867
_cell_length_c   11.41536720
_cell_angle_alpha   90.00180034
_cell_angle_beta   89.99910477
_cell_angle_gamma   90.00292473
_symmetry_Int_Tables_number   1
_chemical_formula_structural   Fe45Co19
_chemical_formula_sum   'Fe90 Co38'
_cell_volume   1487.44582540
_cell_formula_units_Z   2
loop_
 _symmetry_equiv_pos_site_id
 _symmetry_equiv_pos_as_xyz
  1  'x, y, z'
loop_
 _atom_site_type_symbol
 _atom_site_label
 _atom_site_symmetry_multiplicity
 _atom_site_fract_x
 _atom_site_fract_y
 _atom_site_fract_z
 _atom_site_occupancy
  Fe  Fe0  1  0.62339323  0.37504033  0.62924061  1
  Fe  Fe1  1  0.37603457  0.87507629  0.37459192  1
  Fe  Fe2  1  0.62506124  0.62967170  0.37293950  1
  Fe  Fe3  1  0.37716432  0.62470753  0.37241369  1
  Fe  Fe4  1  0.37910374  0.12781630  0.37294313  1
  Fe  Fe5  1  0.25181340  0.00150728  0.25090992  1
  Fe  Fe6  1  0.12470846  0.87548709  0.87641191  1
  Fe  Fe7  1  0.87679033  0.87466897  0.87566124  1
  Fe  Fe8  1  0.74775945  -0.00151908  -0.00080495  1
  Fe  Fe9  1  0.87077639  0.87599405  0.37382105  1
  Fe  Fe10  1  0.25135747  0.49618219  0.49712340  1
  Fe  Fe11  1  0.37316735  0.87353023  0.87586915  1
  Fe  Fe12  1  0.74837405  0.50312004  -0.00175664  1
  Fe  Fe13  1  0.37733584  0.37879362  0.12508153  1
  Fe  Fe14  1  0.87833027  0.62303412  0.12420709  1
  Fe  Fe15  1  0.12401575  0.37243818  0.12978671  1
  Fe  Fe16  1  0.00213615  0.00224115  0.74941711  1
  Fe  Fe17  1  0.74419886  -0.00084443  0.50039133  1
  Fe  Fe18  1  0.25252539  0.25127304  0.49916231  1
  Fe  Fe19  1  0.62571411  0.87224770  0.12643873  1
  Fe  Fe20  1  0.00347297  0.49811956  0.00130175  1
  Fe  Fe21  1  0.50229769  -0.00302081  -0.00141619  1
  Fe  Fe22  1  -0.00294027  0.74929890  0.74635238  1
  Fe  Fe23  1  0.37523296  0.87572435  0.12561636  1
  Fe  Fe24  1  0.37756290  0.12446402  0.12404129  1
  Fe  Fe25  1  0.87221669  0.12379650  0.12470538  1
  Fe  Fe26  1  0.24985917  0.74614185  0.00554140  1
  Fe  Fe27  1  0.37293777  0.62289901  0.62410084  1
  Fe  Fe28  1  0.50445888  0.25201000  0.24589725  1
  Fe  Fe29  1  0.12456969  0.62407355  0.62194348  1
  Fe  Fe30  1  0.87405245  0.87727839  0.12546346  1
  Fe  Fe31  1  0.87320570  0.12278594  0.62344768  1
  Fe  Fe32  1  0.74917016  0.50007985  0.25062856  1
  Fe  Fe33  1  -0.00139241  0.24870467  0.49972812  1
  Fe  Fe34  1  0.00039298  0.24888788  0.00067953  1
  Fe  Fe35  1  0.50035626  -0.00101884  0.75082738  1
  Fe  Fe36  1  0.62521661  0.86738213  0.87014423  1
  Fe  Fe37  1  0.87414813  0.12449876  0.87639317  1
  Fe  Fe38  1  0.62532239  0.62833613  0.62941465  1
  Fe  Fe39  1  0.75052164  0.24958986  0.74890017  1
  Fe  Fe40  1  0.25102743  0.74909368  0.24795657  1
  Fe  Fe41  1  0.12391465  0.62437815  0.37386741  1
  Fe  Fe42  1  0.25076596  0.75074272  0.49856255  1
  Fe  Fe43  1  0.75337306  0.50522704  0.75263145  1
  Fe  Fe44  1  0.00022382  0.24851885  0.74876713  1
  Fe  Fe45  1  0.62414979  0.12651666  0.87501578  1
  Fe  Fe46  1  0.12646073  0.12462569  0.12512109  1
  Fe  Fe47  1  0.61973618  0.62223410  0.12745691  1
  Fe  Fe48  1  0.87523472  0.37542117  0.87621199  1
  Fe  Fe49  1  0.50430013  -0.00094757  0.49835485  1
  Fe  Fe50  1  0.12694591  0.12686797  0.37562005  1
  Fe  Fe51  1  0.62598445  0.37075093  0.37507211  1
  Fe  Fe52  1  0.87474538  0.37730942  0.62542573  1
  Fe  Fe53  1  0.00281064  0.75114697  0.00357052  1
  Fe  Fe54  1  0.24943429  -0.00044261  -0.00012427  1
  Fe  Fe55  1  0.12619438  0.87699984  0.37466665  1
  Fe  Fe56  1  0.86780662  0.12742423  0.37437165  1
  Fe  Fe57  1  0.24986561  0.49778084  0.25191960  1
  Fe  Fe58  1  0.50020732  0.25317988  -0.00094501  1
  Fe  Fe59  1  0.74753208  -0.00128130  0.74961497  1
  Fe  Fe60  1  0.50067320  0.49978961  0.49873215  1
  Fe  Fe61  1  0.37517285  0.12373874  0.62643781  1
  Fe  Fe62  1  0.74793586  0.49892172  0.49989569  1
  Fe  Fe63  1  -0.00152902  0.75263941  0.50030298  1
  Fe  Fe64  1  0.25092577  0.24991289  0.74879374  1
  Fe  Fe65  1  0.37037587  0.37891393  0.87580001  1
  Fe  Fe66  1  0.50604768  -0.00180775  0.25189345  1
  Fe  Fe67  1  0.24990909  0.75103678  0.74755061  1
  Fe  Fe68  1  0.49662851  0.74477071  -0.00084566  1
  Fe  Fe69  1  0.12525304  0.37396203  0.62326924  1
  Fe  Fe70  1  0.37515753  0.12445726  0.87674885  1
  Fe  Fe71  1  0.87527907  0.37481742  0.12632381  1
  Fe  Fe72  1  0.50129323  0.25046956  0.50388086  1
  Fe  Fe73  1  0.62591098  0.37580811  0.87433371  1
  Fe  Fe74  1  0.87445853  0.62536217  0.37658468  1
  Fe  Fe75  1  0.87334175  0.37166544  0.37261133  1
  Fe  Fe76  1  0.74782218  0.25068399  0.00233196  1
  Fe  Fe77  1  0.74984633  0.74680180  -0.00032047  1
  Fe  Fe78  1  0.12775246  0.37522936  0.87529712  1
  Fe  Fe79  1  0.75126303  0.75184933  0.50480654  1
  Fe  Fe80  1  0.49692954  0.50248040  0.75299837  1
  Fe  Fe81  1  0.49961090  0.75120501  0.50078602  1
  Fe  Fe82  1  -0.00092110  0.75091931  0.24991962  1
  Fe  Fe83  1  0.12670588  0.12558520  0.87664855  1
  Fe  Fe84  1  0.00009428  0.49742590  0.49676351  1
  Fe  Fe85  1  0.12539536  0.88039052  0.62121434  1
  Fe  Fe86  1  0.12688364  0.62442322  0.87528212  1
  Fe  Fe87  1  0.37415222  0.87808569  0.62346898  1
  Fe  Fe88  1  -0.00000325  0.50138828  0.75022914  1
  Fe  Fe89  1  -0.00127505  0.00146678  0.25084360  1
  Co  Co90  1  0.87661752  0.62122583  0.62068070  1
  Co  Co91  1  0.00061025  0.00177671  0.00093953  1
  Co  Co92  1  0.74956688  0.25220761  0.50507970  1
  Co  Co93  1  0.49190979  0.74837657  0.74980748  1
  Co  Co94  1  0.24975622  -0.00011442  0.75220347  1
  Co  Co95  1  0.62391846  0.87103555  0.62912067  1
  Co  Co96  1  0.62499206  0.62938611  0.87052791  1
  Co  Co97  1  0.49706789  0.25086269  0.75323860  1
  Co  Co98  1  0.62768757  0.86953767  0.37399957  1
  Co  Co99  1  0.24824067  0.49929568  0.74588249  1
  Co  Co100  1  0.37820136  0.37166986  0.37477763  1
  Co  Co101  1  -0.00232735  0.49974000  0.25240410  1
  Co  Co102  1  0.25352140  0.00202064  0.49637406  1
  Co  Co103  1  0.37927929  0.61978689  0.12930610  1
  Co  Co104  1  -0.00128594  0.24578971  0.25055668  1
  Co  Co105  1  0.62303347  0.12333131  0.12161479  1
  Co  Co106  1  0.37704720  0.37615521  0.62508951  1
  Co  Co107  1  0.25237292  0.25039126  0.24943067  1
  Co  Co108  1  0.62360672  0.12652183  0.62729381  1
  Co  Co109  1  0.62356212  0.38078313  0.12180988  1
  Co  Co110  1  0.75208272  0.74651209  0.24652447  1
  Co  Co111  1  0.36701032  0.62306199  0.87461441  1
  Co  Co112  1  0.49840767  0.75255097  0.24945208  1
  Co  Co113  1  0.25120079  0.25057537  0.00201895  1
  Co  Co114  1  0.12374279  0.37231508  0.37319441  1
  Co  Co115  1  0.24740761  0.50179489  0.00592194  1
  Co  Co116  1  0.75911327  0.74761321  0.74828494  1
  Co  Co117  1  0.74526733  0.00120833  0.25002946  1
  Co  Co118  1  0.12599382  0.87800029  0.12698073  1
  Co  Co119  1  0.88039288  0.62544572  0.87965597  1
  Co  Co120  1  0.12251740  0.62367088  0.12934924  1
  Co  Co121  1  0.50284763  0.49676946  0.25607954  1
  Co  Co122  1  0.49980800  0.50281630  -0.00680454  1
  Co  Co123  1  0.87609688  0.88078304  0.62419428  1
  Co  Co124  1  0.62618463  0.13065458  0.37568806  1
  Co  Co125  1  0.74574277  0.25122303  0.24381822  1
  Co  Co126  1  0.12769539  0.12400077  0.62206490  1
  Co  Co127  1  -0.00111663  0.00278669  0.49551558  1
