# generated using pymatgen
data_Fe45Co19
_symmetry_space_group_name_H-M   'P 1'
_cell_length_a   11.41525189
_cell_length_b   11.41517241
_cell_length_c   11.41553622
_cell_angle_alpha   90.00527468
_cell_angle_beta   90.00094116
_cell_angle_gamma   90.00155721
_symmetry_Int_Tables_number   1
_chemical_formula_structural   Fe45Co19
_chemical_formula_sum   'Fe90 Co38'
_cell_volume   1487.52505201
_cell_formula_units_Z   2
loop_
 _symmetry_equiv_pos_site_id
 _symmetry_equiv_pos_as_xyz
  1  'x, y, z'
loop_
 _atom_site_type_symbol
 _atom_site_label
 _atom_site_symmetry_multiplicity
 _atom_site_fract_x
 _atom_site_fract_y
 _atom_site_fract_z
 _atom_site_occupancy
  Fe  Fe0  1  0.12440401  0.87658480  0.12244845  1
  Fe  Fe1  1  0.00157674  0.49892596  0.24654403  1
  Fe  Fe2  1  0.24914859  -0.00016056  0.24882392  1
  Fe  Fe3  1  0.12591032  0.62379974  0.87515767  1
  Fe  Fe4  1  0.37653025  0.87345019  0.12621532  1
  Fe  Fe5  1  0.87480524  0.62228109  0.87511310  1
  Fe  Fe6  1  0.37527421  0.12552944  0.37496318  1
  Fe  Fe7  1  0.50218397  0.00040586  0.25196266  1
  Fe  Fe8  1  0.62580735  0.62271257  0.62468464  1
  Fe  Fe9  1  0.62155827  0.62107818  0.87649829  1
  Fe  Fe10  1  0.00035488  0.74735004  0.74725091  1
  Fe  Fe11  1  0.00376108  0.24983581  -0.00319823  1
  Fe  Fe12  1  0.37186005  0.37541358  0.12768280  1
  Fe  Fe13  1  -0.00033717  0.24966027  0.50001662  1
  Fe  Fe14  1  0.75245308  0.00029429  -0.00002498  1
  Fe  Fe15  1  0.63069799  0.87898023  0.37553075  1
  Fe  Fe16  1  -0.00069862  0.50147523  0.50214376  1
  Fe  Fe17  1  0.74909314  0.74863781  0.75055122  1
  Fe  Fe18  1  0.75004557  0.24966104  0.24955235  1
  Fe  Fe19  1  0.74934738  0.25228756  -0.00050507  1
  Fe  Fe20  1  0.00084930  0.50065297  0.74938065  1
  Fe  Fe21  1  -0.00425681  -0.00182778  0.50169474  1
  Fe  Fe22  1  0.37830987  0.62437912  0.37531316  1
  Fe  Fe23  1  0.25157784  -0.00206439  0.50136170  1
  Fe  Fe24  1  0.25079979  0.50274703  -0.00009705  1
  Fe  Fe25  1  0.50410237  0.75070597  0.25209504  1
  Fe  Fe26  1  0.12482240  0.62776392  0.12468164  1
  Fe  Fe27  1  0.25043241  0.50122911  0.49764697  1
  Fe  Fe28  1  0.62702789  0.87602972  0.62234650  1
  Fe  Fe29  1  0.87381734  0.12333772  0.37395023  1
  Fe  Fe30  1  0.75702398  0.74993953  0.49884803  1
  Fe  Fe31  1  0.12640609  0.37513770  0.62633016  1
  Fe  Fe32  1  0.62202233  0.37847715  0.87633736  1
  Fe  Fe33  1  0.49839047  -0.00074861  -0.00012647  1
  Fe  Fe34  1  0.12173842  0.62757913  0.37704350  1
  Fe  Fe35  1  0.75066924  0.24920266  0.49933728  1
  Fe  Fe36  1  0.87462739  0.37514800  0.62670958  1
  Fe  Fe37  1  0.00254912  0.25059152  0.75330459  1
  Fe  Fe38  1  0.74919090  0.74804266  -0.00066530  1
  Fe  Fe39  1  0.49885843  0.25159839  0.25107651  1
  Fe  Fe40  1  0.25130763  -0.00043282  0.74967082  1
  Fe  Fe41  1  0.50140379  -0.00086942  0.74867614  1
  Fe  Fe42  1  0.62579701  0.62293513  0.37652392  1
  Fe  Fe43  1  0.87683735  0.12784511  0.12248115  1
  Fe  Fe44  1  -0.00118979  0.00069688  0.75163671  1
  Fe  Fe45  1  0.37528481  0.37448298  0.62413121  1
  Fe  Fe46  1  0.62206215  0.62406598  0.12270377  1
  Fe  Fe47  1  -0.00385570  0.75204407  0.25141731  1
  Fe  Fe48  1  0.37519844  0.12505655  0.12507897  1
  Fe  Fe49  1  0.25272731  0.50112794  0.75051402  1
  Fe  Fe50  1  0.87579502  0.37791150  0.87778231  1
  Fe  Fe51  1  0.37615061  0.87387776  0.87440261  1
  Fe  Fe52  1  0.87561238  0.37665810  0.37307519  1
  Fe  Fe53  1  0.12545994  0.12587903  0.62658452  1
  Fe  Fe54  1  0.37481142  0.37299643  0.87509154  1
  Fe  Fe55  1  0.87326797  0.12553902  0.62898749  1
  Fe  Fe56  1  0.62426478  0.37708733  0.62652946  1
  Fe  Fe57  1  0.37633830  0.87388874  0.37689245  1
  Fe  Fe58  1  0.12512618  0.87737589  0.87718419  1
  Fe  Fe59  1  0.87489201  0.62519422  0.12483402  1
  Fe  Fe60  1  0.12501102  0.12290170  0.37499037  1
  Fe  Fe61  1  0.50098094  0.74910659  0.74927337  1
  Fe  Fe62  1  0.37590872  0.62762686  0.62244404  1
  Fe  Fe63  1  0.25128448  0.75174765  0.00008950  1
  Fe  Fe64  1  0.62290116  0.37616325  0.12338789  1
  Fe  Fe65  1  0.12382698  0.87158782  0.62249584  1
  Fe  Fe66  1  0.62373099  0.12569800  0.87707955  1
  Fe  Fe67  1  0.62468129  0.87501793  0.87614853  1
  Fe  Fe68  1  -0.00199079  -0.00111855  0.24606557  1
  Fe  Fe69  1  0.62275467  0.12642177  0.12447428  1
  Fe  Fe70  1  0.37744879  0.62682711  0.12586074  1
  Fe  Fe71  1  0.24931969  0.24996057  0.49931942  1
  Fe  Fe72  1  0.62553273  0.12436610  0.62330409  1
  Fe  Fe73  1  0.49998401  0.25074702  0.49813084  1
  Fe  Fe74  1  0.75139916  0.49840320  0.50126588  1
  Fe  Fe75  1  0.24967435  0.75017406  0.25181349  1
  Fe  Fe76  1  0.12775039  0.37386013  0.12464118  1
  Fe  Fe77  1  0.74912949  0.25133444  0.75248362  1
  Fe  Fe78  1  0.12691743  0.37471387  0.37357173  1
  Fe  Fe79  1  0.75006100  0.49955370  0.24692272  1
  Fe  Fe80  1  0.62775950  0.87423269  0.12554131  1
  Fe  Fe81  1  0.12258994  0.87347453  0.37743649  1
  Fe  Fe82  1  0.00232677  0.24987065  0.24997823  1
  Fe  Fe83  1  0.24965892  0.75010547  0.74894979  1
  Fe  Fe84  1  0.87341921  0.87521057  0.87322499  1
  Fe  Fe85  1  0.50020737  0.25012494  0.75066827  1
  Fe  Fe86  1  -0.00145380  0.75077238  -0.00093418  1
  Fe  Fe87  1  0.37565592  0.12504558  0.62591661  1
  Fe  Fe88  1  0.24887120  0.24489535  -0.00280060  1
  Fe  Fe89  1  0.62412196  0.37517407  0.37446040  1
  Co  Co90  1  0.12389028  0.12256640  0.12319286  1
  Co  Co91  1  0.50052189  0.49898440  0.24954478  1
  Co  Co92  1  0.74914375  0.74600254  0.25076256  1
  Co  Co93  1  0.00169361  0.50081302  0.00253245  1
  Co  Co94  1  0.12583994  0.12044545  0.87499894  1
  Co  Co95  1  0.75043444  0.00461322  0.24534202  1
  Co  Co96  1  0.49529780  0.49898005  -0.00019234  1
  Co  Co97  1  0.37333931  0.37579154  0.37312407  1
  Co  Co98  1  0.87108820  0.87190543  0.12524873  1
  Co  Co99  1  0.49676203  0.50113934  0.75014286  1
  Co  Co100  1  0.87342356  0.87599519  0.62996336  1
  Co  Co101  1  0.87176839  0.87830175  0.37117647  1
  Co  Co102  1  0.24835413  0.50411934  0.25072996  1
  Co  Co103  1  0.12703253  0.62548037  0.62389927  1
  Co  Co104  1  0.62543900  0.12465506  0.37551891  1
  Co  Co105  1  0.49827991  0.25131764  0.00102045  1
  Co  Co106  1  0.37631180  0.87253865  0.62502645  1
  Co  Co107  1  0.87679169  0.37322573  0.12373945  1
  Co  Co108  1  0.37544565  0.62923682  0.87599222  1
  Co  Co109  1  0.75310119  0.00177351  0.50242693  1
  Co  Co110  1  0.12702988  0.37868852  0.87466509  1
  Co  Co111  1  0.74970338  0.49837705  0.75205599  1
  Co  Co112  1  0.24830261  0.24653162  0.25053670  1
  Co  Co113  1  0.87373767  0.12628981  0.87457537  1
  Co  Co114  1  0.25353095  0.00015742  0.00037780  1
  Co  Co115  1  0.87274803  0.62277295  0.62740426  1
  Co  Co116  1  0.50044947  0.75168004  0.00010856  1
  Co  Co117  1  -0.00718023  0.75038214  0.50156513  1
  Co  Co118  1  0.75029552  0.50012668  0.00180229  1
  Co  Co119  1  0.25049730  0.75019609  0.49795696  1
  Co  Co120  1  0.37708895  0.12429462  0.87300782  1
  Co  Co121  1  0.74696519  0.00110876  0.75163035  1
  Co  Co122  1  -0.00442392  -0.00154220  -0.00060455  1
  Co  Co123  1  0.50281591  0.75139984  0.49876473  1
  Co  Co124  1  0.24872683  0.24955752  0.75117545  1
  Co  Co125  1  0.50073154  0.49851937  0.50033742  1
  Co  Co126  1  0.49944153  -0.00056283  0.49962096  1
  Co  Co127  1  0.87609007  0.62065267  0.37244737  1
