# generated using pymatgen
data_Fe45Co19
_symmetry_space_group_name_H-M   'P 1'
_cell_length_a   11.41647657
_cell_length_b   11.41558470
_cell_length_c   11.41473502
_cell_angle_alpha   90.00456821
_cell_angle_beta   89.99743362
_cell_angle_gamma   90.00228951
_symmetry_Int_Tables_number   1
_chemical_formula_structural   Fe45Co19
_chemical_formula_sum   'Fe90 Co38'
_cell_volume   1487.63395496
_cell_formula_units_Z   2
loop_
 _symmetry_equiv_pos_site_id
 _symmetry_equiv_pos_as_xyz
  1  'x, y, z'
loop_
 _atom_site_type_symbol
 _atom_site_label
 _atom_site_symmetry_multiplicity
 _atom_site_fract_x
 _atom_site_fract_y
 _atom_site_fract_z
 _atom_site_occupancy
  Fe  Fe0  1  0.87549464  0.62615183  0.37220339  1
  Fe  Fe1  1  0.12258072  0.87387224  0.62438718  1
  Fe  Fe2  1  0.74747403  0.24809420  0.00113862  1
  Fe  Fe3  1  0.62532709  0.62395951  0.62385364  1
  Fe  Fe4  1  0.37477745  0.62712038  0.87687356  1
  Fe  Fe5  1  0.62291168  0.37624955  0.12448026  1
  Fe  Fe6  1  -0.00103533  0.50054286  0.49986900  1
  Fe  Fe7  1  0.50254561  0.75040435  0.74932935  1
  Fe  Fe8  1  0.49675067  0.50333605  0.49993152  1
  Fe  Fe9  1  0.87315149  0.87459222  0.87533999  1
  Fe  Fe10  1  0.49628541  0.50230198  0.24676901  1
  Fe  Fe11  1  -0.00043874  0.00144219  0.25148000  1
  Fe  Fe12  1  -0.00298306  0.00030149  0.49916696  1
  Fe  Fe13  1  0.00238813  0.75211321  0.24817262  1
  Fe  Fe14  1  0.50181990  0.00196861  -0.00007193  1
  Fe  Fe15  1  0.25255646  -0.00227962  0.25008124  1
  Fe  Fe16  1  0.00418348  0.25073447  -0.00051283  1
  Fe  Fe17  1  0.37420823  0.12608130  0.62464022  1
  Fe  Fe18  1  0.00160998  0.75110853  0.00234469  1
  Fe  Fe19  1  0.74828683  -0.00280140  0.75000793  1
  Fe  Fe20  1  0.50081233  0.24966156  0.75084540  1
  Fe  Fe21  1  -0.00055818  0.49518239  0.24701570  1
  Fe  Fe22  1  0.75167315  0.49836554  0.00064397  1
  Fe  Fe23  1  0.25254989  -0.00141205  0.49961406  1
  Fe  Fe24  1  0.12617045  0.62455751  0.37120095  1
  Fe  Fe25  1  0.12358707  0.62320672  0.87551798  1
  Fe  Fe26  1  0.87585218  0.37483829  0.87502127  1
  Fe  Fe27  1  0.37568246  0.86907959  0.37330914  1
  Fe  Fe28  1  0.87494559  0.62492347  0.12574089  1
  Fe  Fe29  1  -0.00317724  0.00170402  -0.00045261  1
  Fe  Fe30  1  0.87591691  0.87207888  0.62564919  1
  Fe  Fe31  1  -0.00049900  0.49796921  0.00250019  1
  Fe  Fe32  1  0.24930687  0.49933448  0.74872028  1
  Fe  Fe33  1  0.74884448  0.24828434  0.49618455  1
  Fe  Fe34  1  0.24674311  0.25002801  0.75303716  1
  Fe  Fe35  1  0.75288338  0.49609089  0.24906803  1
  Fe  Fe36  1  0.37266836  0.63045106  0.37042789  1
  Fe  Fe37  1  0.37718475  0.87180612  0.62359597  1
  Fe  Fe38  1  0.37457423  0.37356877  0.87780218  1
  Fe  Fe39  1  0.37429361  0.37427361  0.62481060  1
  Fe  Fe40  1  0.75129054  0.49961715  0.74918799  1
  Fe  Fe41  1  0.12600029  0.87522552  0.37536297  1
  Fe  Fe42  1  0.49888671  0.49962640  0.75136637  1
  Fe  Fe43  1  0.62367266  0.87581065  0.37445226  1
  Fe  Fe44  1  0.87645432  0.62815097  0.62631192  1
  Fe  Fe45  1  0.12240405  0.62654406  0.62516413  1
  Fe  Fe46  1  0.62341793  0.37680487  0.37476554  1
  Fe  Fe47  1  0.25124105  0.50151520  0.00338527  1
  Fe  Fe48  1  0.12411771  0.87911659  0.87644395  1
  Fe  Fe49  1  0.25265612  0.00074034  0.00091359  1
  Fe  Fe50  1  0.62254457  0.12399808  0.12916246  1
  Fe  Fe51  1  0.74817644  0.75130160  0.00349380  1
  Fe  Fe52  1  0.00357663  0.24785021  0.49584002  1
  Fe  Fe53  1  0.49942143  0.24827380  0.49694887  1
  Fe  Fe54  1  0.75323271  0.49906207  0.49929508  1
  Fe  Fe55  1  0.62608903  0.62518596  0.87656221  1
  Fe  Fe56  1  0.87418756  0.12537892  0.87348759  1
  Fe  Fe57  1  0.62359042  0.37471274  0.87675378  1
  Fe  Fe58  1  0.87457300  0.87470567  0.37395858  1
  Fe  Fe59  1  0.75062968  0.00272912  0.25161769  1
  Fe  Fe60  1  0.87535606  0.62611797  0.87358745  1
  Fe  Fe61  1  0.74833070  0.25108578  0.74969644  1
  Fe  Fe62  1  0.25094656  0.50302975  0.50114839  1
  Fe  Fe63  1  0.87399602  0.87682986  0.12538645  1
  Fe  Fe64  1  0.62604938  0.62368910  0.37343597  1
  Fe  Fe65  1  0.49771535  0.00151101  0.49631962  1
  Fe  Fe66  1  0.12494335  0.12321677  0.62544249  1
  Fe  Fe67  1  0.37678211  0.87247579  0.87816805  1
  Fe  Fe68  1  0.87456217  0.12522288  0.62501110  1
  Fe  Fe69  1  0.25120942  -0.00092623  0.75047587  1
  Fe  Fe70  1  0.00429960  0.25140561  0.75208598  1
  Fe  Fe71  1  0.74915541  0.75114309  0.50010106  1
  Fe  Fe72  1  0.24852130  0.75115838  0.74958193  1
  Fe  Fe73  1  0.62544482  0.12267176  0.62287880  1
  Fe  Fe74  1  0.37391084  0.37513919  0.37558173  1
  Fe  Fe75  1  0.12598664  0.12362744  0.12537147  1
  Fe  Fe76  1  0.50059285  -0.00096456  0.75155192  1
  Fe  Fe77  1  0.37562446  0.12586318  0.87506516  1
  Fe  Fe78  1  0.37774521  0.87271007  0.12588352  1
  Fe  Fe79  1  0.62403578  0.37589634  0.62277040  1
  Fe  Fe80  1  0.74737000  0.75050663  0.24746050  1
  Fe  Fe81  1  0.87699280  0.37311174  0.62428803  1
  Fe  Fe82  1  0.24779849  0.24975787  0.49792720  1
  Fe  Fe83  1  0.37611570  0.12744647  0.12798808  1
  Fe  Fe84  1  0.87570620  0.12979898  0.12906104  1
  Fe  Fe85  1  0.37457822  0.37186166  0.12291364  1
  Fe  Fe86  1  0.24694657  0.25157856  0.25237577  1
  Fe  Fe87  1  0.87688010  0.37031445  0.37252735  1
  Fe  Fe88  1  0.50491875  0.74741535  0.00623659  1
  Fe  Fe89  1  0.24525526  0.75104253  0.00473086  1
  Co  Co90  1  0.25366941  0.49861560  0.24770487  1
  Co  Co91  1  0.24555368  0.75354107  0.24529275  1
  Co  Co92  1  0.75266874  -0.00066530  0.49857763  1
  Co  Co93  1  0.12274225  0.88109052  0.12413612  1
  Co  Co94  1  0.62483756  0.12349649  0.37402196  1
  Co  Co95  1  0.12483046  0.12005378  0.87570535  1
  Co  Co96  1  0.74581389  0.25136618  0.25083557  1
  Co  Co97  1  0.12344292  0.62233538  0.12788264  1
  Co  Co98  1  0.12860062  0.37475384  0.12341896  1
  Co  Co99  1  -0.00078270  0.49893272  0.74881935  1
  Co  Co100  1  -0.00133713  -0.00068203  0.74972885  1
  Co  Co101  1  0.49675245  -0.00054292  0.25289132  1
  Co  Co102  1  0.49773635  0.50167939  0.00116124  1
  Co  Co103  1  0.12695522  0.11993049  0.37469585  1
  Co  Co104  1  0.87492190  0.37006560  0.12511840  1
  Co  Co105  1  0.87530563  0.12787683  0.37219055  1
  Co  Co106  1  0.24833674  0.24665675  -0.00196746  1
  Co  Co107  1  0.62944041  0.61927443  0.12614585  1
  Co  Co108  1  0.24907476  0.74876514  0.50103698  1
  Co  Co109  1  0.62518205  0.87450402  0.87886675  1
  Co  Co110  1  0.62214477  0.87727617  0.62189505  1
  Co  Co111  1  -0.00009968  0.75001448  0.49639872  1
  Co  Co112  1  0.75076585  0.00386423  0.00099279  1
  Co  Co113  1  0.50495772  0.74780053  0.24597657  1
  Co  Co114  1  0.00707354  0.25116107  0.25158574  1
  Co  Co115  1  0.62586709  0.88089664  0.12623871  1
  Co  Co116  1  0.50137728  0.24756830  -0.00011438  1
  Co  Co117  1  0.37229428  0.12636848  0.37382978  1
  Co  Co118  1  0.37566060  0.62656001  0.62773406  1
  Co  Co119  1  0.12510143  0.37496051  0.62322158  1
  Co  Co120  1  0.12611729  0.38024307  0.37600764  1
  Co  Co121  1  0.37206620  0.62954747  0.12595158  1
  Co  Co122  1  0.62580796  0.12386336  0.87310441  1
  Co  Co123  1  0.00150075  0.75089665  0.75355645  1
  Co  Co124  1  0.74768052  0.75108609  0.74862668  1
  Co  Co125  1  0.12626393  0.37877764  0.87754434  1
  Co  Co126  1  0.50080211  0.74707250  0.49934241  1
  Co  Co127  1  0.49959117  0.25162113  0.25258018  1
