# generated using pymatgen
data_Fe45Co19
_symmetry_space_group_name_H-M   'P 1'
_cell_length_a   11.41439004
_cell_length_b   11.41575858
_cell_length_c   11.41585258
_cell_angle_alpha   90.00042288
_cell_angle_beta   90.00102719
_cell_angle_gamma   89.99949520
_symmetry_Int_Tables_number   1
_chemical_formula_structural   Fe45Co19
_chemical_formula_sum   'Fe90 Co38'
_cell_volume   1487.53035323
_cell_formula_units_Z   2
loop_
 _symmetry_equiv_pos_site_id
 _symmetry_equiv_pos_as_xyz
  1  'x, y, z'
loop_
 _atom_site_type_symbol
 _atom_site_label
 _atom_site_symmetry_multiplicity
 _atom_site_fract_x
 _atom_site_fract_y
 _atom_site_fract_z
 _atom_site_occupancy
  Fe  Fe0  1  0.74910617  0.75013094  0.75040279  1
  Fe  Fe1  1  0.62597606  0.12333181  0.12305398  1
  Fe  Fe2  1  0.25242996  0.00099736  0.24890138  1
  Fe  Fe3  1  0.37457877  0.87165669  0.62469852  1
  Fe  Fe4  1  0.12438672  0.37537607  0.37758811  1
  Fe  Fe5  1  -0.00135348  0.24845840  0.50294343  1
  Fe  Fe6  1  0.12733938  0.12613787  0.12450922  1
  Fe  Fe7  1  0.00096141  0.00244544  0.50292537  1
  Fe  Fe8  1  0.25183607  0.49985284  0.00278326  1
  Fe  Fe9  1  0.25308091  -0.00078915  0.00078807  1
  Fe  Fe10  1  0.49692904  0.00286059  0.00007921  1
  Fe  Fe11  1  0.00132611  0.74947515  0.75092896  1
  Fe  Fe12  1  0.74867842  0.25137231  -0.00263932  1
  Fe  Fe13  1  0.87299868  0.12552773  0.87341888  1
  Fe  Fe14  1  0.87627267  0.37819936  0.37373442  1
  Fe  Fe15  1  0.62302606  0.87514145  0.62384713  1
  Fe  Fe16  1  0.50122869  0.50109393  0.25162844  1
  Fe  Fe17  1  0.12678986  0.62634091  0.62356572  1
  Fe  Fe18  1  0.25167743  0.24999960  -0.00137070  1
  Fe  Fe19  1  0.25347556  0.49852349  0.50173466  1
  Fe  Fe20  1  0.74760034  0.25291955  0.75015142  1
  Fe  Fe21  1  0.87529461  0.62362042  0.87412871  1
  Fe  Fe22  1  -0.00032642  0.75043091  0.00006791  1
  Fe  Fe23  1  0.87742357  0.87364435  0.62445938  1
  Fe  Fe24  1  0.62446694  0.62273520  0.37605398  1
  Fe  Fe25  1  0.61973660  0.88074815  0.37570479  1
  Fe  Fe26  1  0.74690618  -0.00096151  0.24918818  1
  Fe  Fe27  1  0.87760414  0.62194407  0.37239602  1
  Fe  Fe28  1  0.37230618  0.12832767  0.62640516  1
  Fe  Fe29  1  0.62054569  0.37885890  0.62359477  1
  Fe  Fe30  1  0.24759029  0.75275486  0.49672950  1
  Fe  Fe31  1  0.49818979  0.00096406  0.74966563  1
  Fe  Fe32  1  0.87761757  0.87604620  0.37452127  1
  Fe  Fe33  1  0.49715146  0.74707306  0.75262221  1
  Fe  Fe34  1  0.00066373  0.49824329  0.74962181  1
  Fe  Fe35  1  0.12678646  0.12458147  0.37567476  1
  Fe  Fe36  1  0.87527810  0.62471193  0.62377165  1
  Fe  Fe37  1  0.37630978  0.37251824  0.37482142  1
  Fe  Fe38  1  0.12573817  0.37380732  0.62343540  1
  Fe  Fe39  1  0.74945851  0.75163103  0.49879516  1
  Fe  Fe40  1  -0.00029940  0.25165425  0.74924759  1
  Fe  Fe41  1  0.75072346  -0.00287192  0.75055870  1
  Fe  Fe42  1  0.49945674  0.75085914  0.49670810  1
  Fe  Fe43  1  0.12737488  0.12539180  0.87429603  1
  Fe  Fe44  1  0.12363669  0.87534359  0.12666167  1
  Fe  Fe45  1  0.49740246  0.50108995  0.00025448  1
  Fe  Fe46  1  0.75081618  0.75112554  -0.00106131  1
  Fe  Fe47  1  0.00304507  0.74877871  0.49628146  1
  Fe  Fe48  1  0.24988997  -0.00218179  0.74900087  1
  Fe  Fe49  1  0.12970002  0.62555615  0.87635698  1
  Fe  Fe50  1  0.87440962  0.87440376  0.12542337  1
  Fe  Fe51  1  0.87605579  0.62449167  0.12850521  1
  Fe  Fe52  1  -0.00036324  0.00178323  0.24870192  1
  Fe  Fe53  1  0.49645080  0.74742270  -0.00055298  1
  Fe  Fe54  1  0.62419219  0.62622015  0.12595451  1
  Fe  Fe55  1  0.25565960  0.50100590  0.74620873  1
  Fe  Fe56  1  0.74975597  0.25137107  0.49961486  1
  Fe  Fe57  1  0.74686973  0.75182181  0.25103786  1
  Fe  Fe58  1  0.50215298  0.24634971  0.25145078  1
  Fe  Fe59  1  0.24827856  0.75170866  0.25160705  1
  Fe  Fe60  1  0.74891088  0.49915430  0.74982867  1
  Fe  Fe61  1  0.00002772  0.49722741  0.00055411  1
  Fe  Fe62  1  0.74796197  0.25051315  0.25222144  1
  Fe  Fe63  1  0.24891578  0.49773332  0.24965713  1
  Fe  Fe64  1  0.37925537  0.87270622  0.12861466  1
  Fe  Fe65  1  0.50276395  0.24891494  0.75168365  1
  Fe  Fe66  1  0.00018871  0.25220505  -0.00260073  1
  Fe  Fe67  1  0.62509758  0.37519403  0.12609910  1
  Fe  Fe68  1  0.37512655  0.12380682  0.37450054  1
  Fe  Fe69  1  0.62119230  0.62348905  0.62330587  1
  Fe  Fe70  1  0.00068419  0.00031935  0.74947515  1
  Fe  Fe71  1  0.25024685  -0.00055187  0.50169122  1
  Fe  Fe72  1  0.37364722  0.62638971  0.37391050  1
  Fe  Fe73  1  0.12525636  0.62653953  0.12668489  1
  Fe  Fe74  1  0.37676079  0.37539398  0.87364691  1
  Fe  Fe75  1  0.87244426  0.12376350  0.37631399  1
  Fe  Fe76  1  0.37624243  0.37243710  0.12723958  1
  Fe  Fe77  1  0.24962639  0.25227413  0.74974863  1
  Fe  Fe78  1  0.62374020  0.62214244  0.87534164  1
  Fe  Fe79  1  0.87408638  0.12675141  0.12425062  1
  Fe  Fe80  1  0.75000771  0.49946310  0.49924986  1
  Fe  Fe81  1  0.62350176  0.87659791  0.87789290  1
  Fe  Fe82  1  -0.00126203  0.00018051  -0.00152890  1
  Fe  Fe83  1  0.75107082  0.49855995  0.00123394  1
  Fe  Fe84  1  0.00116417  0.25068367  0.25010719  1
  Fe  Fe85  1  0.62833489  0.12183056  0.62216817  1
  Fe  Fe86  1  0.12580676  0.37202740  0.12458700  1
  Fe  Fe87  1  0.50109586  0.24800937  0.49915636  1
  Fe  Fe88  1  0.12801138  0.87209961  0.87511790  1
  Fe  Fe89  1  0.50015818  0.24793544  -0.00228891  1
  Co  Co90  1  0.37895425  0.37087159  0.62496170  1
  Co  Co91  1  0.37326254  0.12887152  0.12566620  1
  Co  Co92  1  0.25065014  0.25045629  0.49932637  1
  Co  Co93  1  0.00340785  0.49735693  0.24696251  1
  Co  Co94  1  0.87154862  0.12460781  0.62646491  1
  Co  Co95  1  0.37440666  0.87424626  0.87469538  1
  Co  Co96  1  0.50307312  0.74839312  0.25302980  1
  Co  Co97  1  0.12402974  0.87969492  0.37369656  1
  Co  Co98  1  0.74787117  0.50002783  0.24972602  1
  Co  Co99  1  0.37016932  0.62506667  0.87733449  1
  Co  Co100  1  0.37509908  0.62559869  0.12957357  1
  Co  Co101  1  0.49533010  0.50371996  0.74993456  1
  Co  Co102  1  0.49623420  0.49997383  0.49793574  1
  Co  Co103  1  0.12817377  0.37751125  0.87403515  1
  Co  Co104  1  0.37697277  0.63013260  0.62046950  1
  Co  Co105  1  0.62289922  0.37877493  0.87530632  1
  Co  Co106  1  0.50037935  0.00395926  0.24661290  1
  Co  Co107  1  0.12568175  0.62188697  0.37408707  1
  Co  Co108  1  0.00114418  0.50074888  0.50236858  1
  Co  Co109  1  0.87334675  0.37538478  0.87442791  1
  Co  Co110  1  0.49541049  0.00192442  0.50437761  1
  Co  Co111  1  0.12724910  0.12688334  0.62590094  1
  Co  Co112  1  0.37717746  0.87686865  0.37349522  1
  Co  Co113  1  0.62177032  0.87441530  0.12173577  1
  Co  Co114  1  0.62514208  0.12061859  0.37847218  1
  Co  Co115  1  0.24860199  0.25028103  0.25161814  1
  Co  Co116  1  0.87550302  0.87406254  0.87393731  1
  Co  Co117  1  0.00119913  0.75026067  0.25161941  1
  Co  Co118  1  0.62402408  0.37571532  0.37559127  1
  Co  Co119  1  0.37288283  0.12585152  0.87268555  1
  Co  Co120  1  0.75175469  -0.00420004  0.50036383  1
  Co  Co121  1  0.87363880  0.37383292  0.12610305  1
  Co  Co122  1  0.87440465  0.37644289  0.62494235  1
  Co  Co123  1  0.25211831  0.75147505  0.00444007  1
  Co  Co124  1  0.12393977  0.87362171  0.62487487  1
  Co  Co125  1  0.25169380  0.74847889  0.74892109  1
  Co  Co126  1  0.62632719  0.12128533  0.87489394  1
  Co  Co127  1  0.75216812  -0.00094938  -0.00003747  1
