# generated using pymatgen
data_Fe45Co19
_symmetry_space_group_name_H-M   'P 1'
_cell_length_a   11.41510342
_cell_length_b   11.41619837
_cell_length_c   11.41538083
_cell_angle_alpha   89.99973844
_cell_angle_beta   89.99154417
_cell_angle_gamma   89.99760424
_symmetry_Int_Tables_number   1
_chemical_formula_structural   Fe45Co19
_chemical_formula_sum   'Fe90 Co38'
_cell_volume   1487.61913671
_cell_formula_units_Z   2
loop_
 _symmetry_equiv_pos_site_id
 _symmetry_equiv_pos_as_xyz
  1  'x, y, z'
loop_
 _atom_site_type_symbol
 _atom_site_label
 _atom_site_symmetry_multiplicity
 _atom_site_fract_x
 _atom_site_fract_y
 _atom_site_fract_z
 _atom_site_occupancy
  Fe  Fe0  1  0.25111359  0.75076713  0.00069185  1
  Fe  Fe1  1  0.37601753  0.88150376  0.37326375  1
  Fe  Fe2  1  0.24508687  -0.00214670  -0.00175729  1
  Fe  Fe3  1  0.37493552  0.62218196  0.12908781  1
  Fe  Fe4  1  0.24616440  0.49826683  0.49537540  1
  Fe  Fe5  1  0.62570530  0.87252746  0.62607476  1
  Fe  Fe6  1  0.49739770  0.75055952  0.50109104  1
  Fe  Fe7  1  0.00011125  0.75136584  0.49953411  1
  Fe  Fe8  1  0.24944650  0.49923011  0.00189886  1
  Fe  Fe9  1  0.37186575  0.87959763  0.12784537  1
  Fe  Fe10  1  0.24876847  0.49959475  0.75014432  1
  Fe  Fe11  1  0.25069511  0.25086757  0.50056943  1
  Fe  Fe12  1  0.62533187  0.37359572  0.62583848  1
  Fe  Fe13  1  0.87653655  0.62448335  0.12466025  1
  Fe  Fe14  1  0.49738410  0.74783631  0.74640063  1
  Fe  Fe15  1  0.12600218  0.37426172  0.87216830  1
  Fe  Fe16  1  0.87619840  0.62426440  0.37394712  1
  Fe  Fe17  1  0.12670627  0.87379135  0.62736449  1
  Fe  Fe18  1  -0.00260089  0.24707193  0.25051874  1
  Fe  Fe19  1  0.24914084  0.75209679  0.25193244  1
  Fe  Fe20  1  0.87533840  0.37318872  0.12636885  1
  Fe  Fe21  1  0.75117360  0.75151023  -0.00027059  1
  Fe  Fe22  1  0.49849213  0.00042180  0.74748625  1
  Fe  Fe23  1  0.12570723  0.12657228  0.12284761  1
  Fe  Fe24  1  0.25536972  0.24649911  0.25277517  1
  Fe  Fe25  1  0.25154182  0.75114700  0.49853382  1
  Fe  Fe26  1  0.75354111  0.24556891  -0.00069877  1
  Fe  Fe27  1  0.62506334  0.87349303  0.87352069  1
  Fe  Fe28  1  0.50161464  0.49880857  0.49949724  1
  Fe  Fe29  1  0.25361682  0.25236607  -0.00355797  1
  Fe  Fe30  1  0.49283686  0.24552396  0.24982869  1
  Fe  Fe31  1  0.75147231  0.24870750  0.49884698  1
  Fe  Fe32  1  0.50058137  0.49865387  0.00313141  1
  Fe  Fe33  1  0.37574413  0.62183181  0.37195823  1
  Fe  Fe34  1  0.62306608  0.62732778  0.37298990  1
  Fe  Fe35  1  0.50043366  0.50154506  0.74839082  1
  Fe  Fe36  1  0.87519445  0.37622134  0.62450609  1
  Fe  Fe37  1  0.74810062  0.49915154  0.24948598  1
  Fe  Fe38  1  0.12645469  0.12750811  0.87267394  1
  Fe  Fe39  1  0.75024642  0.75017077  0.49970543  1
  Fe  Fe40  1  0.62362037  0.37032705  0.37310602  1
  Fe  Fe41  1  0.37440693  0.12357271  0.62356812  1
  Fe  Fe42  1  0.00312956  0.49727458  0.49676917  1
  Fe  Fe43  1  0.00408329  0.00038225  0.24987224  1
  Fe  Fe44  1  -0.00315061  0.74966549  0.75223507  1
  Fe  Fe45  1  0.12466994  0.12517745  0.37834511  1
  Fe  Fe46  1  0.62153413  0.12646660  0.87511267  1
  Fe  Fe47  1  0.37583939  0.62328585  0.87574029  1
  Fe  Fe48  1  0.87583201  0.12422743  0.62446183  1
  Fe  Fe49  1  0.25298428  0.74923786  0.74874606  1
  Fe  Fe50  1  0.00188746  -0.00081641  0.75233567  1
  Fe  Fe51  1  0.87277324  0.87605909  0.62686304  1
  Fe  Fe52  1  0.62473851  0.62705562  0.87556471  1
  Fe  Fe53  1  0.12482103  0.62782401  0.12654466  1
  Fe  Fe54  1  0.12493142  0.62458363  0.62428374  1
  Fe  Fe55  1  0.49471431  0.25011841  0.75038190  1
  Fe  Fe56  1  -0.00007736  0.25176178  0.50081907  1
  Fe  Fe57  1  0.62335156  0.37313812  0.87521061  1
  Fe  Fe58  1  0.74787317  0.00104954  0.49934483  1
  Fe  Fe59  1  0.00197890  -0.00140884  0.50219640  1
  Fe  Fe60  1  0.75024375  0.00195260  0.75323786  1
  Fe  Fe61  1  0.74952113  0.49862540  0.00095116  1
  Fe  Fe62  1  0.74823205  0.49907101  0.49774566  1
  Fe  Fe63  1  0.75040104  0.50219232  0.75169647  1
  Fe  Fe64  1  0.75203700  0.75206854  0.24984288  1
  Fe  Fe65  1  0.37415704  0.87746145  0.87352935  1
  Fe  Fe66  1  0.62049093  0.12440049  0.37633529  1
  Fe  Fe67  1  0.87482866  0.88356349  0.12152887  1
  Fe  Fe68  1  0.87504487  0.62321060  0.62451462  1
  Fe  Fe69  1  0.00160589  0.49774717  -0.00014876  1
  Fe  Fe70  1  0.49443862  0.24929770  -0.00004567  1
  Fe  Fe71  1  0.62226988  0.87727578  0.37253861  1
  Fe  Fe72  1  0.50183002  0.00079143  0.00291678  1
  Fe  Fe73  1  0.75149111  0.24812362  0.75101089  1
  Fe  Fe74  1  0.75518734  0.24319698  0.25100476  1
  Fe  Fe75  1  0.37331507  0.37646001  0.62453287  1
  Fe  Fe76  1  0.62704050  0.87798507  0.12783506  1
  Fe  Fe77  1  0.00342667  0.49876004  0.25153794  1
  Fe  Fe78  1  0.12473368  0.62611702  0.87554831  1
  Fe  Fe79  1  0.00012628  0.75392598  -0.00170454  1
  Fe  Fe80  1  0.62413807  0.36889808  0.12619181  1
  Fe  Fe81  1  0.62401353  0.62743144  0.12652572  1
  Fe  Fe82  1  0.87503566  0.87898619  0.37507636  1
  Fe  Fe83  1  0.24846441  -0.00076869  0.50237762  1
  Fe  Fe84  1  0.00218707  0.25048384  0.74738468  1
  Fe  Fe85  1  0.62382992  0.12705272  0.62467030  1
  Fe  Fe86  1  0.49771601  0.75179489  0.00319510  1
  Fe  Fe87  1  0.87673146  0.37375663  0.87456820  1
  Fe  Fe88  1  0.12773055  0.37184249  0.12747334  1
  Fe  Fe89  1  -0.00022797  0.75358503  0.25069667  1
  Co  Co90  1  0.12536143  0.87570848  0.37695169  1
  Co  Co91  1  0.25333405  0.24931444  0.74982796  1
  Co  Co92  1  0.24934323  0.00189575  0.74844724  1
  Co  Co93  1  0.62502989  0.12883317  0.12508242  1
  Co  Co94  1  0.24591418  0.49966481  0.25122428  1
  Co  Co95  1  0.24618076  0.00329448  0.25120325  1
  Co  Co96  1  0.12650884  0.37598382  0.62597980  1
  Co  Co97  1  0.12504956  0.12486565  0.62436909  1
  Co  Co98  1  0.74916288  0.00474671  0.25170324  1
  Co  Co99  1  0.37434804  0.11975672  0.87663614  1
  Co  Co100  1  0.87833500  0.12145674  0.37823993  1
  Co  Co101  1  0.62606758  0.62610417  0.62398611  1
  Co  Co102  1  0.12558239  0.87353911  0.12583812  1
  Co  Co103  1  0.37353268  0.87643905  0.62562844  1
  Co  Co104  1  0.87225263  0.87803612  0.87736548  1
  Co  Co105  1  0.37016568  0.12146129  0.12045705  1
  Co  Co106  1  0.49775960  0.75286290  0.24899052  1
  Co  Co107  1  0.37390958  0.37638951  0.12680448  1
  Co  Co108  1  0.75222164  0.74816399  0.75053483  1
  Co  Co109  1  0.49780949  0.25111635  0.50136649  1
  Co  Co110  1  0.87510539  0.62487245  0.87846940  1
  Co  Co111  1  0.37565223  0.11980881  0.38012606  1
  Co  Co112  1  0.37235621  0.62142860  0.62228712  1
  Co  Co113  1  0.00769639  -0.00157620  -0.00431595  1
  Co  Co114  1  0.50373247  0.49753600  0.24861112  1
  Co  Co115  1  0.37550629  0.37707982  0.37425862  1
  Co  Co116  1  0.12396278  0.62885819  0.37416331  1
  Co  Co117  1  0.74563138  0.00496117  -0.00305901  1
  Co  Co118  1  0.37549562  0.37889779  0.87436020  1
  Co  Co119  1  0.12526101  0.36943303  0.37204286  1
  Co  Co120  1  0.87886050  0.11930613  0.12000875  1
  Co  Co121  1  0.12869713  0.87135792  0.87127846  1
  Co  Co122  1  0.87974971  0.12498546  0.87663917  1
  Co  Co123  1  0.49944957  0.00484124  0.24603439  1
  Co  Co124  1  0.00090777  0.25214291  0.00029250  1
  Co  Co125  1  0.50170974  -0.00141354  0.50406254  1
  Co  Co126  1  -0.00006266  0.50036846  0.75147712  1
  Co  Co127  1  0.87484093  0.37527205  0.37388777  1
