# generated using pymatgen
data_Fe45Co19
_symmetry_space_group_name_H-M   'P 1'
_cell_length_a   11.41496487
_cell_length_b   11.41464326
_cell_length_c   11.41564184
_cell_angle_alpha   90.00312541
_cell_angle_beta   89.99884861
_cell_angle_gamma   90.00515617
_symmetry_Int_Tables_number   1
_chemical_formula_structural   Fe45Co19
_chemical_formula_sum   'Fe90 Co38'
_cell_volume   1487.43245855
_cell_formula_units_Z   2
loop_
 _symmetry_equiv_pos_site_id
 _symmetry_equiv_pos_as_xyz
  1  'x, y, z'
loop_
 _atom_site_type_symbol
 _atom_site_label
 _atom_site_symmetry_multiplicity
 _atom_site_fract_x
 _atom_site_fract_y
 _atom_site_fract_z
 _atom_site_occupancy
  Fe  Fe0  1  0.87411033  0.87583778  0.12460079  1
  Fe  Fe1  1  0.37619683  0.12594318  0.87526408  1
  Fe  Fe2  1  0.62293348  0.62586290  0.37379624  1
  Fe  Fe3  1  -0.00121945  0.49988530  0.00282122  1
  Fe  Fe4  1  0.37372516  0.87488000  0.62561218  1
  Fe  Fe5  1  0.50162445  0.25092890  0.74921378  1
  Fe  Fe6  1  0.75153685  0.24624396  -0.00168763  1
  Fe  Fe7  1  0.37614804  0.62234546  0.62411663  1
  Fe  Fe8  1  0.37402121  0.37676004  0.87225896  1
  Fe  Fe9  1  0.12343827  0.12538096  0.37685352  1
  Fe  Fe10  1  0.12611910  0.87546752  0.12662525  1
  Fe  Fe11  1  0.12315874  0.37692845  0.37545727  1
  Fe  Fe12  1  0.62471434  0.87440569  0.87610504  1
  Fe  Fe13  1  0.50089862  0.00076989  -0.00046571  1
  Fe  Fe14  1  0.49955756  0.25144327  0.49926224  1
  Fe  Fe15  1  0.12534694  0.37392371  0.12532660  1
  Fe  Fe16  1  0.37437144  0.12665377  0.62377603  1
  Fe  Fe17  1  0.37342264  0.87764759  0.12516773  1
  Fe  Fe18  1  0.12245533  0.12527504  0.12542512  1
  Fe  Fe19  1  0.37636925  0.62304940  0.37459012  1
  Fe  Fe20  1  0.12388946  0.62168305  0.62495026  1
  Fe  Fe21  1  0.74608462  0.74808990  0.00307029  1
  Fe  Fe22  1  0.50119884  0.74909958  0.74982830  1
  Fe  Fe23  1  0.37344504  0.87802385  0.37446932  1
  Fe  Fe24  1  0.75147689  0.00415226  -0.00178852  1
  Fe  Fe25  1  0.24820653  0.00235752  0.00079902  1
  Fe  Fe26  1  0.87503397  0.62417861  0.87462902  1
  Fe  Fe27  1  0.12408281  0.62156345  0.87631326  1
  Fe  Fe28  1  0.62625748  0.87361937  0.62485150  1
  Fe  Fe29  1  0.25123049  0.74777772  -0.00009525  1
  Fe  Fe30  1  0.62858862  0.37363015  0.87327352  1
  Fe  Fe31  1  0.37659899  0.37081016  0.12504226  1
  Fe  Fe32  1  0.24877737  0.74866589  0.25162592  1
  Fe  Fe33  1  -0.00276664  0.24948920  0.00092604  1
  Fe  Fe34  1  0.24930264  0.74712070  0.75038860  1
  Fe  Fe35  1  -0.00109039  0.25281320  0.74696106  1
  Fe  Fe36  1  -0.00002689  0.74941139  0.00150937  1
  Fe  Fe37  1  0.37855940  0.62260865  0.87605515  1
  Fe  Fe38  1  0.24910288  0.74800009  0.49778594  1
  Fe  Fe39  1  0.25080274  0.24983345  -0.00039998  1
  Fe  Fe40  1  0.50165465  -0.00054157  0.50108011  1
  Fe  Fe41  1  0.87192867  0.37397290  0.12605144  1
  Fe  Fe42  1  0.50145641  0.75344587  0.24732726  1
  Fe  Fe43  1  0.74817336  0.50180384  0.00208490  1
  Fe  Fe44  1  -0.00501391  0.24945318  0.25245397  1
  Fe  Fe45  1  0.37597723  0.87428995  0.87512332  1
  Fe  Fe46  1  0.75125188  0.00133949  0.25238898  1
  Fe  Fe47  1  0.24792497  0.25110467  0.50166738  1
  Fe  Fe48  1  0.75521271  0.25194719  0.49603472  1
  Fe  Fe49  1  0.12560026  0.37717505  0.87601396  1
  Fe  Fe50  1  0.37674535  0.62379487  0.12488896  1
  Fe  Fe51  1  0.50275850  0.49672462  0.00222519  1
  Fe  Fe52  1  0.62767963  0.37271502  0.37375494  1
  Fe  Fe53  1  0.74829755  0.49889378  0.24922370  1
  Fe  Fe54  1  0.50183853  0.49536167  0.24900394  1
  Fe  Fe55  1  0.74876538  0.74776750  0.75173532  1
  Fe  Fe56  1  0.12076460  0.12583023  0.87392518  1
  Fe  Fe57  1  0.62829631  0.12778118  0.62435910  1
  Fe  Fe58  1  0.62305037  0.13001706  0.12582549  1
  Fe  Fe59  1  0.74695012  0.75200941  0.24915641  1
  Fe  Fe60  1  0.87319595  0.37579070  0.87352619  1
  Fe  Fe61  1  0.12522973  0.37964776  0.62374628  1
  Fe  Fe62  1  0.37344283  0.37468921  0.37678335  1
  Fe  Fe63  1  0.87570269  0.12506552  0.62336940  1
  Fe  Fe64  1  -0.00087455  -0.00153284  0.49879032  1
  Fe  Fe65  1  0.24832757  0.25013812  0.74828257  1
  Fe  Fe66  1  0.74882923  0.75117966  0.49671990  1
  Fe  Fe67  1  0.50634800  0.49896004  0.74530446  1
  Fe  Fe68  1  0.12373163  0.87424648  0.87441007  1
  Fe  Fe69  1  0.87471799  0.62375979  0.37317016  1
  Fe  Fe70  1  -0.00082686  -0.00183473  0.74973063  1
  Fe  Fe71  1  0.24946913  0.50004175  0.24882354  1
  Fe  Fe72  1  0.87255154  0.62277748  0.62570573  1
  Fe  Fe73  1  0.12484733  0.87383347  0.62505202  1
  Fe  Fe74  1  -0.00134010  -0.00064411  0.25130248  1
  Fe  Fe75  1  0.24926000  0.00121891  0.74997888  1
  Fe  Fe76  1  0.00165484  0.74943328  0.25086783  1
  Fe  Fe77  1  0.50346107  0.49716794  0.50225705  1
  Fe  Fe78  1  0.49996769  0.75233081  0.49889818  1
  Fe  Fe79  1  0.00015512  0.50122799  0.24749223  1
  Fe  Fe80  1  0.62702426  0.12526129  0.37625739  1
  Fe  Fe81  1  0.75034255  0.00244728  0.75087141  1
  Fe  Fe82  1  0.25295879  0.24607097  0.25061047  1
  Fe  Fe83  1  0.00053876  0.74823792  0.49830619  1
  Fe  Fe84  1  0.50144378  0.00071841  0.74870489  1
  Fe  Fe85  1  0.49806169  0.00403544  0.25126530  1
  Fe  Fe86  1  0.24836346  -0.00016950  0.50026899  1
  Fe  Fe87  1  0.87423945  0.87343193  0.62431982  1
  Fe  Fe88  1  0.87077278  0.37901845  0.62487840  1
  Fe  Fe89  1  0.87553995  0.87469062  0.87603677  1
  Co  Co90  1  0.24997033  0.50116848  0.74952943  1
  Co  Co91  1  0.25158407  0.49886343  0.00230693  1
  Co  Co92  1  0.12593725  0.87608952  0.37459462  1
  Co  Co93  1  0.00029292  -0.00123668  0.00091293  1
  Co  Co94  1  0.25085175  0.00473229  0.24904963  1
  Co  Co95  1  0.37314495  0.12451332  0.38061778  1
  Co  Co96  1  0.87642705  0.37939308  0.37350828  1
  Co  Co97  1  0.62226176  0.62554683  0.87742953  1
  Co  Co98  1  0.74728129  0.50082341  0.49753940  1
  Co  Co99  1  0.62352179  0.12586596  0.87377609  1
  Co  Co100  1  0.50089427  0.75183220  0.00377097  1
  Co  Co101  1  0.75383113  0.24891272  0.25277443  1
  Co  Co102  1  0.75355407  0.24691478  0.75201071  1
  Co  Co103  1  0.62601781  0.88003149  0.12477907  1
  Co  Co104  1  0.87588521  0.12418538  0.12571339  1
  Co  Co105  1  -0.00189671  0.25345588  0.50120644  1
  Co  Co106  1  -0.00268366  0.50099863  0.49969236  1
  Co  Co107  1  0.74627570  0.50327932  0.74977235  1
  Co  Co108  1  0.62645756  0.62855018  0.62184819  1
  Co  Co109  1  0.87599696  0.12330124  0.37812495  1
  Co  Co110  1  0.37860726  0.12785892  0.12119218  1
  Co  Co111  1  0.62728291  0.36954545  0.12624647  1
  Co  Co112  1  0.87505432  0.87381112  0.37492875  1
  Co  Co113  1  0.49791106  0.24875467  0.25447508  1
  Co  Co114  1  0.12304168  0.12393864  0.62425976  1
  Co  Co115  1  0.25131336  0.50028487  0.49942071  1
  Co  Co116  1  0.62355851  0.87650422  0.37429992  1
  Co  Co117  1  0.87404758  0.62587401  0.12671335  1
  Co  Co118  1  0.63111432  0.37014361  0.62472769  1
  Co  Co119  1  0.37448457  0.37447564  0.62551817  1
  Co  Co120  1  -0.00004358  0.74859664  0.74964684  1
  Co  Co121  1  0.62285400  0.62330457  0.12672605  1
  Co  Co122  1  0.12479235  0.62140801  0.37460882  1
  Co  Co123  1  0.88119694  0.12489275  0.87325747  1
  Co  Co124  1  0.74981576  -0.00233520  0.49981555  1
  Co  Co125  1  -0.00168320  0.49881602  0.75054477  1
  Co  Co126  1  0.12586996  0.62491496  0.12401028  1
  Co  Co127  1  0.50104380  0.25330277  -0.00371909  1
