# generated using pymatgen
data_Fe45Co19
_symmetry_space_group_name_H-M   'P 1'
_cell_length_a   11.41435733
_cell_length_b   11.41548563
_cell_length_c   11.41485132
_cell_angle_alpha   90.00327297
_cell_angle_beta   90.00727984
_cell_angle_gamma   90.00242572
_symmetry_Int_Tables_number   1
_chemical_formula_structural   Fe45Co19
_chemical_formula_sum   'Fe90 Co38'
_cell_volume   1487.36004333
_cell_formula_units_Z   2
loop_
 _symmetry_equiv_pos_site_id
 _symmetry_equiv_pos_as_xyz
  1  'x, y, z'
loop_
 _atom_site_type_symbol
 _atom_site_label
 _atom_site_symmetry_multiplicity
 _atom_site_fract_x
 _atom_site_fract_y
 _atom_site_fract_z
 _atom_site_occupancy
  Fe  Fe0  1  0.12811413  0.12589450  0.12337962  1
  Fe  Fe1  1  0.25244950  0.75132434  0.74935133  1
  Fe  Fe2  1  0.62596483  0.62527565  0.12673864  1
  Fe  Fe3  1  0.37568338  0.62005315  0.87281759  1
  Fe  Fe4  1  0.12677294  0.87849117  0.62335716  1
  Fe  Fe5  1  0.37364855  0.12559425  0.88200013  1
  Fe  Fe6  1  0.87349941  0.12406786  0.87595354  1
  Fe  Fe7  1  0.74909091  0.75195283  -0.00052901  1
  Fe  Fe8  1  0.74744272  0.75153933  0.49708216  1
  Fe  Fe9  1  0.24941222  0.25035877  0.74942766  1
  Fe  Fe10  1  0.12436975  0.87370457  0.12594409  1
  Fe  Fe11  1  0.87278242  0.62622078  0.12504043  1
  Fe  Fe12  1  0.62372166  0.87672981  0.37148398  1
  Fe  Fe13  1  0.24945849  0.49657407  0.00112512  1
  Fe  Fe14  1  -0.00039980  0.74930012  -0.00139374  1
  Fe  Fe15  1  0.00058612  0.74672611  0.25311877  1
  Fe  Fe16  1  0.87035175  0.62156223  0.37611018  1
  Fe  Fe17  1  0.50058476  0.25105816  0.49776706  1
  Fe  Fe18  1  -0.00119278  0.00243573  0.25094846  1
  Fe  Fe19  1  0.74987455  -0.00260762  0.24932092  1
  Fe  Fe20  1  0.25204979  0.75089170  0.50060838  1
  Fe  Fe21  1  0.62560408  0.12489536  0.37307645  1
  Fe  Fe22  1  0.87466968  0.37549224  0.87440797  1
  Fe  Fe23  1  0.87092123  0.62560225  0.62448106  1
  Fe  Fe24  1  0.12460157  0.87568989  0.37640378  1
  Fe  Fe25  1  0.37711488  0.36976156  0.12351089  1
  Fe  Fe26  1  0.62336230  0.88102633  0.87641419  1
  Fe  Fe27  1  0.24955081  0.25174270  0.50006757  1
  Fe  Fe28  1  -0.00239546  0.00401439  0.49995599  1
  Fe  Fe29  1  0.00105407  0.50043787  0.00063428  1
  Fe  Fe30  1  0.12553616  0.37530654  0.87189457  1
  Fe  Fe31  1  0.12607392  0.62540037  0.87523331  1
  Fe  Fe32  1  0.00232286  0.24965763  -0.00096403  1
  Fe  Fe33  1  0.25335281  0.00030421  0.74789078  1
  Fe  Fe34  1  0.00013326  0.50097148  0.50124444  1
  Fe  Fe35  1  0.37544277  0.87607997  0.37506841  1
  Fe  Fe36  1  -0.00106007  0.75086848  0.74839980  1
  Fe  Fe37  1  0.50065620  0.74749940  0.25183075  1
  Fe  Fe38  1  0.74601947  0.49897357  0.74505184  1
  Fe  Fe39  1  0.62736440  0.61830545  0.37340562  1
  Fe  Fe40  1  0.12561789  0.62550243  0.62473520  1
  Fe  Fe41  1  0.62083986  0.37305762  0.12928862  1
  Fe  Fe42  1  0.37596261  0.62246825  0.37679622  1
  Fe  Fe43  1  0.37568688  0.12404204  0.37524533  1
  Fe  Fe44  1  0.62532760  0.62292639  0.87440189  1
  Fe  Fe45  1  0.00215979  0.50339574  0.24921186  1
  Fe  Fe46  1  0.50008710  0.49738060  0.00023121  1
  Fe  Fe47  1  0.87290236  0.62333461  0.87405970  1
  Fe  Fe48  1  0.37397610  0.12431318  0.62212263  1
  Fe  Fe49  1  0.87221588  0.87719671  0.62219710  1
  Fe  Fe50  1  0.37699624  0.37482554  0.62824703  1
  Fe  Fe51  1  0.25045415  0.75292497  -0.00196673  1
  Fe  Fe52  1  -0.00090453  0.24601707  0.50087391  1
  Fe  Fe53  1  0.49866392  0.24681068  0.75243479  1
  Fe  Fe54  1  0.87425001  0.87804173  0.87551710  1
  Fe  Fe55  1  0.62780358  0.12611345  0.62356744  1
  Fe  Fe56  1  -0.00330027  0.00357233  0.74615293  1
  Fe  Fe57  1  0.87245748  0.12737596  0.12665613  1
  Fe  Fe58  1  -0.00112678  0.00052007  0.00226527  1
  Fe  Fe59  1  -0.00100644  0.74942971  0.49901105  1
  Fe  Fe60  1  0.24990035  0.50007070  0.24866630  1
  Fe  Fe61  1  0.75196250  0.24835400  0.75181435  1
  Fe  Fe62  1  0.74780748  0.25075537  0.00140037  1
  Fe  Fe63  1  0.87434223  0.87234272  0.12685754  1
  Fe  Fe64  1  0.37401349  0.62649741  0.12312349  1
  Fe  Fe65  1  0.25212189  0.00108362  0.24903717  1
  Fe  Fe66  1  0.12271569  0.37511721  0.37459373  1
  Fe  Fe67  1  0.12569937  0.12355475  0.87431609  1
  Fe  Fe68  1  0.87533467  0.37209697  0.62497091  1
  Fe  Fe69  1  0.37887611  0.37670918  0.37453723  1
  Fe  Fe70  1  0.37875972  0.88000770  0.87579887  1
  Fe  Fe71  1  0.50547165  0.49920457  0.50562866  1
  Fe  Fe72  1  0.24921239  0.74829484  0.25138008  1
  Fe  Fe73  1  0.49981086  -0.00055502  0.49999297  1
  Fe  Fe74  1  0.00045916  0.49958580  0.74828926  1
  Fe  Fe75  1  0.62028833  0.87403255  0.62731901  1
  Fe  Fe76  1  0.38021168  0.62779505  0.62688672  1
  Fe  Fe77  1  0.50084261  0.75006614  -0.00173226  1
  Fe  Fe78  1  0.12733026  0.12431715  0.37624805  1
  Fe  Fe79  1  0.12379989  0.87695077  0.87316745  1
  Fe  Fe80  1  0.62313638  0.37440693  0.87314427  1
  Fe  Fe81  1  0.75072326  0.25549934  0.25415295  1
  Fe  Fe82  1  0.74891279  0.75270213  0.75200982  1
  Fe  Fe83  1  0.74997685  0.25508213  0.49419463  1
  Fe  Fe84  1  0.25081846  0.25031771  0.25029780  1
  Fe  Fe85  1  0.87951693  0.37317629  0.12671932  1
  Fe  Fe86  1  0.37804524  0.87621943  0.12536888  1
  Fe  Fe87  1  0.74908662  0.49733162  0.00298335  1
  Fe  Fe88  1  0.25008421  0.49895772  0.50288263  1
  Fe  Fe89  1  0.62701190  0.12148769  0.87613583  1
  Co  Co90  1  0.62817371  0.12788719  0.13010697  1
  Co  Co91  1  0.37645698  0.37552507  0.87293009  1
  Co  Co92  1  0.25233300  -0.00058542  0.49905092  1
  Co  Co93  1  0.50468353  0.49923224  0.74694330  1
  Co  Co94  1  0.50424263  0.24807813  -0.00089620  1
  Co  Co95  1  0.75264137  0.49485101  0.24790777  1
  Co  Co96  1  0.49976023  0.75047568  0.75604208  1
  Co  Co97  1  0.50191777  0.75030220  0.49360494  1
  Co  Co98  1  0.00127303  0.24530322  0.25145668  1
  Co  Co99  1  0.37217096  0.12790007  0.12112326  1
  Co  Co100  1  0.49861584  0.00247394  0.24806412  1
  Co  Co101  1  0.24683509  0.25379774  -0.00071623  1
  Co  Co102  1  0.74885223  0.75052978  0.25259791  1
  Co  Co103  1  -0.00061626  0.24772976  0.74932616  1
  Co  Co104  1  0.75020410  -0.00028040  0.00465724  1
  Co  Co105  1  0.24906139  -0.00327499  0.00126468  1
  Co  Co106  1  0.49620262  0.50186630  0.24694393  1
  Co  Co107  1  0.74643999  0.49493119  0.50369569  1
  Co  Co108  1  0.74991123  -0.00048706  0.74822155  1
  Co  Co109  1  0.49748034  0.24634395  0.25125098  1
  Co  Co110  1  0.37892287  0.87353824  0.62379462  1
  Co  Co111  1  0.87061055  0.12385536  0.37449316  1
  Co  Co112  1  0.62465413  0.36638254  0.62746855  1
  Co  Co113  1  0.88113857  0.37695508  0.37497215  1
  Co  Co114  1  0.86832531  0.12669996  0.62246846  1
  Co  Co115  1  0.12284292  0.37408771  0.12815881  1
  Co  Co116  1  0.12736016  0.62698989  0.12223105  1
  Co  Co117  1  0.24928213  0.50034860  0.74670507  1
  Co  Co118  1  0.87622329  0.87615194  0.37527699  1
  Co  Co119  1  0.62303182  0.87254532  0.12548232  1
  Co  Co120  1  0.61948184  0.37907349  0.37134531  1
  Co  Co121  1  0.74664779  -0.00258074  0.49901097  1
  Co  Co122  1  0.62448980  0.63200908  0.62544752  1
  Co  Co123  1  0.49811888  0.00480929  0.74846958  1
  Co  Co124  1  0.12355965  0.37315017  0.62385470  1
  Co  Co125  1  0.12818549  0.12430966  0.62487206  1
  Co  Co126  1  0.12760938  0.62430032  0.37714437  1
  Co  Co127  1  0.50294901  0.00488572  0.00633411  1
