# generated using pymatgen
data_Fe45Co19
_symmetry_space_group_name_H-M   'P 1'
_cell_length_a   11.41551691
_cell_length_b   11.41511204
_cell_length_c   11.41631632
_cell_angle_alpha   89.99057862
_cell_angle_beta   90.00878843
_cell_angle_gamma   90.01288217
_symmetry_Int_Tables_number   1
_chemical_formula_structural   Fe45Co19
_chemical_formula_sum   'Fe90 Co38'
_cell_volume   1487.65330574
_cell_formula_units_Z   2
loop_
 _symmetry_equiv_pos_site_id
 _symmetry_equiv_pos_as_xyz
  1  'x, y, z'
loop_
 _atom_site_type_symbol
 _atom_site_label
 _atom_site_symmetry_multiplicity
 _atom_site_fract_x
 _atom_site_fract_y
 _atom_site_fract_z
 _atom_site_occupancy
  Fe  Fe0  1  0.62712666  0.37283022  0.37537772  1
  Fe  Fe1  1  0.25066779  -0.00001410  0.50110756  1
  Fe  Fe2  1  0.86938117  0.87260822  0.37398375  1
  Fe  Fe3  1  0.62653111  0.87471177  0.87462430  1
  Fe  Fe4  1  0.24798936  0.24991425  0.50211678  1
  Fe  Fe5  1  0.50124360  0.25299454  0.74676244  1
  Fe  Fe6  1  0.75301682  -0.00154116  0.74849701  1
  Fe  Fe7  1  0.50064549  0.74838986  0.25236201  1
  Fe  Fe8  1  0.37982944  0.38080357  0.12332622  1
  Fe  Fe9  1  0.49351781  -0.00349248  0.75394635  1
  Fe  Fe10  1  0.75110536  0.49925091  0.24993259  1
  Fe  Fe11  1  0.50271478  0.25034142  0.00141479  1
  Fe  Fe12  1  0.24989070  0.50072759  0.50241483  1
  Fe  Fe13  1  0.75257070  0.75106900  0.75072771  1
  Fe  Fe14  1  0.12272129  0.37859453  0.62627946  1
  Fe  Fe15  1  0.37588287  0.87404794  0.12329624  1
  Fe  Fe16  1  0.50265747  0.74919618  -0.00102915  1
  Fe  Fe17  1  0.00077797  0.24984642  -0.00100984  1
  Fe  Fe18  1  0.87206710  0.12974092  0.37812691  1
  Fe  Fe19  1  0.74407287  0.49836712  -0.00240934  1
  Fe  Fe20  1  0.50113607  0.00056020  0.25223537  1
  Fe  Fe21  1  0.87590962  0.62220680  0.12273718  1
  Fe  Fe22  1  0.50209624  0.25059642  0.24792075  1
  Fe  Fe23  1  0.50035445  0.50093935  0.49726824  1
  Fe  Fe24  1  0.12898742  0.37893201  0.87368311  1
  Fe  Fe25  1  0.00007847  0.25152344  0.75072050  1
  Fe  Fe26  1  0.12589986  0.37653258  0.37467937  1
  Fe  Fe27  1  0.62413452  0.62316061  0.62813759  1
  Fe  Fe28  1  0.74998904  0.00181447  -0.00028032  1
  Fe  Fe29  1  -0.00323118  0.00048383  0.25053324  1
  Fe  Fe30  1  0.12406294  0.87711150  0.12394469  1
  Fe  Fe31  1  0.62673602  0.62671339  0.37364385  1
  Fe  Fe32  1  0.12324329  0.12231535  0.62682677  1
  Fe  Fe33  1  0.25274139  -0.00083948  0.24902898  1
  Fe  Fe34  1  0.12493285  0.87500894  0.37374647  1
  Fe  Fe35  1  0.24725953  0.74403623  0.00382351  1
  Fe  Fe36  1  0.25199640  0.75222224  0.74838526  1
  Fe  Fe37  1  -0.00329989  0.49991888  0.25352534  1
  Fe  Fe38  1  0.49905150  0.49856800  0.75375863  1
  Fe  Fe39  1  0.50308442  -0.00063660  0.49697887  1
  Fe  Fe40  1  0.12807484  0.12207180  0.87504769  1
  Fe  Fe41  1  0.87205010  0.37384354  0.87798395  1
  Fe  Fe42  1  0.62517855  0.12696492  0.87371912  1
  Fe  Fe43  1  -0.00300040  0.74927190  0.25094322  1
  Fe  Fe44  1  0.87657787  0.37379464  0.62109725  1
  Fe  Fe45  1  0.12593629  0.62435934  0.37336133  1
  Fe  Fe46  1  0.00134148  0.74812211  -0.00298025  1
  Fe  Fe47  1  0.74842147  0.00261635  0.50067139  1
  Fe  Fe48  1  0.00309003  0.50189543  -0.00466960  1
  Fe  Fe49  1  0.74877048  0.25012025  0.74484933  1
  Fe  Fe50  1  0.24875188  0.74935609  0.50218699  1
  Fe  Fe51  1  0.87538416  0.12575885  0.12266418  1
  Fe  Fe52  1  0.75114594  0.49900965  0.75187301  1
  Fe  Fe53  1  0.12162302  0.62247810  0.62980991  1
  Fe  Fe54  1  -0.00289922  0.00029774  0.49898378  1
  Fe  Fe55  1  0.25096213  0.24980421  0.00305794  1
  Fe  Fe56  1  0.62352441  0.87538362  0.62549173  1
  Fe  Fe57  1  0.87675301  0.62441181  0.62539072  1
  Fe  Fe58  1  0.25354912  0.50325114  0.24696935  1
  Fe  Fe59  1  -0.00363515  0.75123041  0.75426566  1
  Fe  Fe60  1  0.62038018  0.61970030  0.12621625  1
  Fe  Fe61  1  0.12564221  0.12480885  0.37349843  1
  Fe  Fe62  1  0.37444090  0.37417223  0.37679194  1
  Fe  Fe63  1  0.87388217  0.12604556  0.87446927  1
  Fe  Fe64  1  0.12380873  0.87592982  0.62579381  1
  Fe  Fe65  1  0.37270034  0.37491574  0.87644599  1
  Fe  Fe66  1  0.74717010  0.74863401  0.50145602  1
  Fe  Fe67  1  -0.00021002  0.74818134  0.49854539  1
  Fe  Fe68  1  -0.00058884  0.25075029  0.24928927  1
  Fe  Fe69  1  0.37310857  0.62485376  0.87770379  1
  Fe  Fe70  1  0.74731831  0.74805418  0.00143345  1
  Fe  Fe71  1  -0.00337440  -0.00277498  0.75130324  1
  Fe  Fe72  1  0.62577654  0.87827723  0.12749298  1
  Fe  Fe73  1  0.37626702  0.12408234  0.62579011  1
  Fe  Fe74  1  0.25035640  0.25084686  0.74702253  1
  Fe  Fe75  1  0.25189241  0.74735674  0.24725517  1
  Fe  Fe76  1  0.25080411  0.25131639  0.24756000  1
  Fe  Fe77  1  0.49782582  0.75183555  0.75061993  1
  Fe  Fe78  1  0.12581487  0.12286929  0.12475486  1
  Fe  Fe79  1  0.75075822  0.50072307  0.49904327  1
  Fe  Fe80  1  0.37729689  0.62536397  0.62340450  1
  Fe  Fe81  1  0.50462223  0.24962557  0.50297667  1
  Fe  Fe82  1  0.87402722  0.37111447  0.37863489  1
  Fe  Fe83  1  0.49626900  0.00165252  -0.00256801  1
  Fe  Fe84  1  0.37548118  0.87142745  0.37798241  1
  Fe  Fe85  1  0.12846264  0.87778317  0.87750487  1
  Fe  Fe86  1  0.74886433  0.25087779  0.24370694  1
  Fe  Fe87  1  0.87357501  0.87501017  0.12411064  1
  Fe  Fe88  1  0.12277139  0.37769464  0.12561971  1
  Fe  Fe89  1  0.37561100  0.12735939  0.37449177  1
  Co  Co90  1  0.37456421  0.13082290  0.87322421  1
  Co  Co91  1  0.37675982  0.12572063  0.12724410  1
  Co  Co92  1  0.75145510  0.00406444  0.25017729  1
  Co  Co93  1  0.74835339  0.24990340  0.00386178  1
  Co  Co94  1  0.62160209  0.11965992  0.62974950  1
  Co  Co95  1  0.00495054  0.25052202  0.49986038  1
  Co  Co96  1  0.49959701  0.50049430  0.25700748  1
  Co  Co97  1  0.62368082  0.12242713  0.12366228  1
  Co  Co98  1  0.74830398  0.74583768  0.24514685  1
  Co  Co99  1  0.24798107  0.50339127  0.00360397  1
  Co  Co100  1  0.62918225  0.87361328  0.37249660  1
  Co  Co101  1  0.87219488  0.62459668  0.87771566  1
  Co  Co102  1  0.62477403  0.38111872  0.62502323  1
  Co  Co103  1  0.25474124  0.00305741  0.00113734  1
  Co  Co104  1  0.37719012  0.37509552  0.62206470  1
  Co  Co105  1  0.74394393  0.24757423  0.50667340  1
  Co  Co106  1  0.87773957  0.12678230  0.62449390  1
  Co  Co107  1  0.87470079  0.87317514  0.62164667  1
  Co  Co108  1  0.12779209  0.62301695  0.86839182  1
  Co  Co109  1  0.25537472  0.49909280  0.74763791  1
  Co  Co110  1  0.87675375  0.37824776  0.12148578  1
  Co  Co111  1  -0.00017222  0.50097372  0.49814535  1
  Co  Co112  1  -0.00485550  0.49802528  0.75313494  1
  Co  Co113  1  0.87291435  0.87444234  0.87924110  1
  Co  Co114  1  0.37282710  0.62717953  0.37731489  1
  Co  Co115  1  -0.00155918  0.00104139  -0.00058589  1
  Co  Co116  1  0.38220425  0.62212793  0.12237307  1
  Co  Co117  1  0.62641426  0.12845362  0.37234501  1
  Co  Co118  1  0.50444641  0.49863095  -0.00853233  1
  Co  Co119  1  0.87300619  0.62700820  0.37521064  1
  Co  Co120  1  0.37069502  0.86976178  0.88070442  1
  Co  Co121  1  0.62208314  0.37887966  0.12609780  1
  Co  Co122  1  0.62561377  0.62794661  0.87113921  1
  Co  Co123  1  0.62706829  0.36933369  0.87267903  1
  Co  Co124  1  0.37713249  0.87506728  0.62006933  1
  Co  Co125  1  0.50464229  0.74883183  0.49901642  1
  Co  Co126  1  0.11934426  0.62419348  0.12888915  1
  Co  Co127  1  0.25463174  -0.00219626  0.75024045  1
