# generated using pymatgen
data_Fe45Co19
_symmetry_space_group_name_H-M   'P 1'
_cell_length_a   11.41541142
_cell_length_b   11.41515013
_cell_length_c   11.41472390
_cell_angle_alpha   90.00462369
_cell_angle_beta   89.99824089
_cell_angle_gamma   90.00774377
_symmetry_Int_Tables_number   1
_chemical_formula_structural   Fe45Co19
_chemical_formula_sum   'Fe90 Co38'
_cell_volume   1487.43707338
_cell_formula_units_Z   2
loop_
 _symmetry_equiv_pos_site_id
 _symmetry_equiv_pos_as_xyz
  1  'x, y, z'
loop_
 _atom_site_type_symbol
 _atom_site_label
 _atom_site_symmetry_multiplicity
 _atom_site_fract_x
 _atom_site_fract_y
 _atom_site_fract_z
 _atom_site_occupancy
  Fe  Fe0  1  0.37323368  0.12601846  0.87251024  1
  Fe  Fe1  1  0.62719139  0.12479792  0.87523712  1
  Fe  Fe2  1  0.75079944  0.49662375  0.50271684  1
  Fe  Fe3  1  0.87250218  0.87676339  0.37439223  1
  Fe  Fe4  1  0.12802971  0.12731675  0.87067108  1
  Fe  Fe5  1  0.12489793  0.62281274  0.62611328  1
  Fe  Fe6  1  0.50174837  0.74916956  0.49850414  1
  Fe  Fe7  1  0.50213112  0.74824038  0.75205738  1
  Fe  Fe8  1  0.24931606  0.75012180  0.24990820  1
  Fe  Fe9  1  0.24964659  0.49479560  0.74780922  1
  Fe  Fe10  1  0.37623199  0.62590914  0.12376201  1
  Fe  Fe11  1  0.24897618  0.00094112  0.00040921  1
  Fe  Fe12  1  -0.00028684  0.49813598  -0.00264096  1
  Fe  Fe13  1  0.00066795  0.25123114  -0.00325967  1
  Fe  Fe14  1  0.12457631  0.12413362  0.37650828  1
  Fe  Fe15  1  -0.00130359  -0.00108218  0.50137116  1
  Fe  Fe16  1  0.74696819  0.75094771  -0.00175504  1
  Fe  Fe17  1  0.75335079  0.24729893  0.25204094  1
  Fe  Fe18  1  0.37869612  0.12680667  0.12603138  1
  Fe  Fe19  1  0.87379691  0.87188165  0.62695984  1
  Fe  Fe20  1  0.37519927  0.12624319  0.62546969  1
  Fe  Fe21  1  -0.00077202  -0.00067050  0.00102531  1
  Fe  Fe22  1  0.24859126  0.25297767  0.50469308  1
  Fe  Fe23  1  0.62340610  0.62532052  0.12330437  1
  Fe  Fe24  1  0.87081766  0.62351582  0.87340923  1
  Fe  Fe25  1  -0.00042674  0.75037064  0.25033325  1
  Fe  Fe26  1  -0.00120307  0.74953570  0.50022076  1
  Fe  Fe27  1  0.87242224  0.12578607  0.87595596  1
  Fe  Fe28  1  0.37255720  0.62479812  0.37764071  1
  Fe  Fe29  1  0.12266007  0.12501793  0.12557120  1
  Fe  Fe30  1  0.75214138  0.00348715  0.24317356  1
  Fe  Fe31  1  0.37669646  0.87393963  0.12444586  1
  Fe  Fe32  1  0.62739084  0.12841067  0.62381596  1
  Fe  Fe33  1  0.50059513  0.50063230  0.49947695  1
  Fe  Fe34  1  0.74938249  0.24971948  0.00119370  1
  Fe  Fe35  1  0.87508134  0.62562917  0.12442695  1
  Fe  Fe36  1  0.12333945  0.87497780  0.62807995  1
  Fe  Fe37  1  0.24699813  0.75141132  0.75109428  1
  Fe  Fe38  1  0.37562877  0.87633603  0.87435322  1
  Fe  Fe39  1  0.12472265  0.62482315  0.12367147  1
  Fe  Fe40  1  0.37429821  0.62450723  0.87517362  1
  Fe  Fe41  1  0.87587405  0.87521090  0.87448599  1
  Fe  Fe42  1  0.37443410  0.87496813  0.37654975  1
  Fe  Fe43  1  0.50089836  0.00375411  0.25216873  1
  Fe  Fe44  1  0.12451624  0.37551371  0.37590670  1
  Fe  Fe45  1  0.62381161  0.87627889  0.87590040  1
  Fe  Fe46  1  0.62748333  0.62525455  0.62605242  1
  Fe  Fe47  1  0.87450156  0.12736739  0.62377399  1
  Fe  Fe48  1  0.50118346  0.24824415  0.49635995  1
  Fe  Fe49  1  0.62501335  0.37331827  0.12735881  1
  Fe  Fe50  1  0.74953971  -0.00111532  0.74943029  1
  Fe  Fe51  1  0.37472288  0.37442922  0.12430979  1
  Fe  Fe52  1  0.75211948  0.25511279  0.74731041  1
  Fe  Fe53  1  0.87258753  0.62235028  0.37464575  1
  Fe  Fe54  1  0.87341674  0.62562930  0.62781928  1
  Fe  Fe55  1  0.25031860  0.24940058  0.24888010  1
  Fe  Fe56  1  0.62862044  0.37808248  0.87457915  1
  Fe  Fe57  1  0.62823786  0.87826945  0.37534485  1
  Fe  Fe58  1  0.24966686  -0.00072235  0.50262670  1
  Fe  Fe59  1  0.50233526  0.74931918  0.25257050  1
  Fe  Fe60  1  0.50024516  0.49968654  -0.00105559  1
  Fe  Fe61  1  0.37605066  0.87345448  0.62573868  1
  Fe  Fe62  1  0.37316490  0.62451737  0.62372293  1
  Fe  Fe63  1  0.87444584  0.37522125  0.12498424  1
  Fe  Fe64  1  0.49987637  0.25167764  0.75145530  1
  Fe  Fe65  1  0.50141596  0.00109492  0.74869498  1
  Fe  Fe66  1  0.62619954  0.87301384  0.62423666  1
  Fe  Fe67  1  -0.00175898  0.49546070  0.75490237  1
  Fe  Fe68  1  -0.00033261  0.50070755  0.49805349  1
  Fe  Fe69  1  0.12710903  0.62542582  0.37647359  1
  Fe  Fe70  1  0.37035598  0.37316858  0.87617468  1
  Fe  Fe71  1  0.25027606  0.00115801  0.24943433  1
  Fe  Fe72  1  0.12485175  0.87504555  0.37424699  1
  Fe  Fe73  1  0.00278141  0.75045113  -0.00321379  1
  Fe  Fe74  1  0.24982348  0.50007716  0.24978074  1
  Fe  Fe75  1  0.50126639  0.00237696  0.49960923  1
  Fe  Fe76  1  0.74828103  0.74757411  0.25128172  1
  Fe  Fe77  1  0.50059363  0.50009686  0.25134306  1
  Fe  Fe78  1  0.62769533  0.37468518  0.37419247  1
  Fe  Fe79  1  0.00025296  0.49974407  0.24939384  1
  Fe  Fe80  1  0.50109346  0.49935784  0.75065969  1
  Fe  Fe81  1  -0.00286205  -0.00045761  0.24727853  1
  Fe  Fe82  1  -0.00198576  0.24969479  0.25181276  1
  Fe  Fe83  1  0.50269466  0.00092754  0.00111160  1
  Fe  Fe84  1  0.12656332  0.37539262  0.12179434  1
  Fe  Fe85  1  -0.00061815  0.00285732  0.74957835  1
  Fe  Fe86  1  0.24731692  0.75050636  -0.00229464  1
  Fe  Fe87  1  -0.00293976  0.25006201  0.49821781  1
  Fe  Fe88  1  0.37379878  0.37475161  0.37604406  1
  Fe  Fe89  1  0.50057735  0.25073669  -0.00117984  1
  Co  Co90  1  0.74821165  0.75180048  0.75237885  1
  Co  Co91  1  0.75004106  0.50018162  0.00341412  1
  Co  Co92  1  0.74973510  -0.00066232  0.00205651  1
  Co  Co93  1  0.25002738  0.25320022  0.74381325  1
  Co  Co94  1  0.87721668  0.12803902  0.12120646  1
  Co  Co95  1  0.38047747  0.37550024  0.62349396  1
  Co  Co96  1  0.24868336  0.49706380  0.50172052  1
  Co  Co97  1  0.12310059  0.87910615  0.87296293  1
  Co  Co98  1  0.62686942  0.62195242  0.37771393  1
  Co  Co99  1  0.11783969  0.37567493  0.62498280  1
  Co  Co100  1  0.00124860  0.74828140  0.75074865  1
  Co  Co101  1  0.87999363  0.37504683  0.62384943  1
  Co  Co102  1  0.62747085  0.62134688  0.87416344  1
  Co  Co103  1  0.13002655  0.37211137  0.87676915  1
  Co  Co104  1  0.75056258  -0.00017504  0.50418754  1
  Co  Co105  1  0.62324421  0.12788993  0.12471574  1
  Co  Co106  1  0.63019552  0.12396680  0.37610173  1
  Co  Co107  1  0.12277868  0.12592642  0.62553662  1
  Co  Co108  1  0.75024901  0.49598865  0.74619434  1
  Co  Co109  1  0.25040691  0.50222621  0.00056993  1
  Co  Co110  1  0.87092786  0.37467770  0.87724453  1
  Co  Co111  1  0.87459206  0.37858834  0.37303518  1
  Co  Co112  1  0.75136111  0.74997567  0.49859245  1
  Co  Co113  1  0.25084342  0.24576794  0.00353241  1
  Co  Co114  1  0.12554655  0.62124526  0.87314232  1
  Co  Co115  1  0.87485822  0.12145877  0.37712128  1
  Co  Co116  1  0.25107648  -0.00020990  0.74757765  1
  Co  Co117  1  0.62413967  0.87472877  0.12661248  1
  Co  Co118  1  0.74918767  0.50166442  0.24751320  1
  Co  Co119  1  -0.00155268  0.25154208  0.75330349  1
  Co  Co120  1  0.12462287  0.87466390  0.12494344  1
  Co  Co121  1  0.87475708  0.87084622  0.12368260  1
  Co  Co122  1  0.49920322  0.24878256  0.25371699  1
  Co  Co123  1  0.62200821  0.37317942  0.62361555  1
  Co  Co124  1  0.75350910  0.25315161  0.49898398  1
  Co  Co125  1  0.50120333  0.74929273  -0.00247749  1
  Co  Co126  1  0.24790849  0.75157126  0.50166426  1
  Co  Co127  1  0.37121700  0.12584138  0.37719375  1
