# generated using pymatgen
data_Fe45Co19
_symmetry_space_group_name_H-M   'P 1'
_cell_length_a   11.41601172
_cell_length_b   11.41512230
_cell_length_c   11.41667224
_cell_angle_alpha   90.00320725
_cell_angle_beta   89.99874264
_cell_angle_gamma   90.00148742
_symmetry_Int_Tables_number   1
_chemical_formula_structural   Fe45Co19
_chemical_formula_sum   'Fe90 Co38'
_cell_volume   1487.76558002
_cell_formula_units_Z   2
loop_
 _symmetry_equiv_pos_site_id
 _symmetry_equiv_pos_as_xyz
  1  'x, y, z'
loop_
 _atom_site_type_symbol
 _atom_site_label
 _atom_site_symmetry_multiplicity
 _atom_site_fract_x
 _atom_site_fract_y
 _atom_site_fract_z
 _atom_site_occupancy
  Fe  Fe0  1  0.37370573  0.37360326  0.37665673  1
  Fe  Fe1  1  0.25142267  0.50334919  0.00034903  1
  Fe  Fe2  1  0.12673533  0.87454611  0.37562409  1
  Fe  Fe3  1  0.75418094  -0.00108988  0.74750477  1
  Fe  Fe4  1  0.50391824  0.74555901  0.50031183  1
  Fe  Fe5  1  0.75048105  0.25010869  0.74769014  1
  Fe  Fe6  1  0.37421034  0.12554964  0.37531295  1
  Fe  Fe7  1  0.75290714  0.49794290  0.75074169  1
  Fe  Fe8  1  0.11827924  0.87751150  0.62554941  1
  Fe  Fe9  1  0.37518203  0.87374625  0.62328699  1
  Fe  Fe10  1  0.49789824  0.50130493  0.25252309  1
  Fe  Fe11  1  0.37423096  0.37521638  0.62305202  1
  Fe  Fe12  1  0.12171700  0.12183129  0.62320170  1
  Fe  Fe13  1  0.37615016  0.37332003  0.12344775  1
  Fe  Fe14  1  0.37395144  0.87297647  0.87435740  1
  Fe  Fe15  1  0.25109884  -0.00177535  0.24945221  1
  Fe  Fe16  1  0.62563991  0.37749088  0.62292591  1
  Fe  Fe17  1  0.62507471  0.11940058  0.12328654  1
  Fe  Fe18  1  0.62815969  0.87738585  0.61927005  1
  Fe  Fe19  1  0.75211945  0.50442265  0.49591811  1
  Fe  Fe20  1  0.75262331  0.50133897  0.00176313  1
  Fe  Fe21  1  0.50069071  0.50467344  0.49903144  1
  Fe  Fe22  1  0.24895555  0.74722704  0.00018353  1
  Fe  Fe23  1  0.37418835  0.12838489  0.87732441  1
  Fe  Fe24  1  0.12115170  0.87477446  0.87370983  1
  Fe  Fe25  1  0.62893224  0.62665072  0.87382565  1
  Fe  Fe26  1  0.50091723  0.74947713  0.00002887  1
  Fe  Fe27  1  0.12390097  0.37499327  0.87641872  1
  Fe  Fe28  1  -0.00198639  0.74788258  -0.00155358  1
  Fe  Fe29  1  0.87510960  0.12604439  0.13037827  1
  Fe  Fe30  1  0.50095807  -0.00391868  0.25158398  1
  Fe  Fe31  1  0.25005752  0.00014089  0.50012058  1
  Fe  Fe32  1  0.37544968  0.87326492  0.12393816  1
  Fe  Fe33  1  0.74681591  0.24875335  0.49996711  1
  Fe  Fe34  1  0.87253203  0.12916542  0.37160481  1
  Fe  Fe35  1  0.24772951  0.74821409  0.74930154  1
  Fe  Fe36  1  0.50198807  0.74968999  0.74857798  1
  Fe  Fe37  1  0.12214113  0.62488240  0.12692805  1
  Fe  Fe38  1  0.12019816  0.62303878  0.62698179  1
  Fe  Fe39  1  -0.00187735  0.74919009  0.49859125  1
  Fe  Fe40  1  0.50204854  0.25077723  0.75034068  1
  Fe  Fe41  1  0.49970454  -0.00176887  0.75064727  1
  Fe  Fe42  1  0.87858174  0.12329915  0.62217511  1
  Fe  Fe43  1  0.24944875  0.50254915  0.49914807  1
  Fe  Fe44  1  0.62632706  0.12067414  0.37452940  1
  Fe  Fe45  1  0.12646487  0.12564616  0.37307136  1
  Fe  Fe46  1  0.24808362  0.00034784  0.75023601  1
  Fe  Fe47  1  0.12371973  0.37760684  0.62361329  1
  Fe  Fe48  1  0.86845838  0.86978182  0.37483802  1
  Fe  Fe49  1  0.50382886  0.75224497  0.25115897  1
  Fe  Fe50  1  0.50109200  0.24896032  0.49959529  1
  Fe  Fe51  1  0.62866674  0.87733466  0.87815979  1
  Fe  Fe52  1  0.87603624  0.62779931  0.13089067  1
  Fe  Fe53  1  0.87410534  0.12575962  0.87455871  1
  Fe  Fe54  1  0.24762364  0.24975094  0.74891179  1
  Fe  Fe55  1  0.25050279  0.50237191  0.75196349  1
  Fe  Fe56  1  0.62690870  0.37525397  0.87531788  1
  Fe  Fe57  1  0.87762938  0.62321340  0.62665569  1
  Fe  Fe58  1  0.12328961  0.37674584  0.12523546  1
  Fe  Fe59  1  0.75382082  0.75332739  0.74659893  1
  Fe  Fe60  1  0.37506325  0.12452465  0.62461255  1
  Fe  Fe61  1  0.24933705  0.74904381  0.24877294  1
  Fe  Fe62  1  0.50366439  0.25049161  0.24991483  1
  Fe  Fe63  1  0.49981575  0.50171376  -0.00088455  1
  Fe  Fe64  1  0.00349457  0.25232373  0.49607125  1
  Fe  Fe65  1  0.74805597  0.24928441  0.00293884  1
  Fe  Fe66  1  0.62571876  0.37679737  0.12563965  1
  Fe  Fe67  1  0.12334128  0.62455765  0.37350245  1
  Fe  Fe68  1  0.62673160  0.12180562  0.87681059  1
  Fe  Fe69  1  0.25202563  0.50220753  0.24950484  1
  Fe  Fe70  1  -0.00163711  -0.00245366  0.25396833  1
  Fe  Fe71  1  0.24900229  0.00106632  -0.00001087  1
  Fe  Fe72  1  0.75285957  0.75293155  0.00483612  1
  Fe  Fe73  1  0.37480805  0.37244609  0.87806237  1
  Fe  Fe74  1  0.37586453  0.12596383  0.12288612  1
  Fe  Fe75  1  -0.00318642  0.50277441  -0.00148826  1
  Fe  Fe76  1  0.37529251  0.87230848  0.37798155  1
  Fe  Fe77  1  0.87618842  0.37592461  0.62114526  1
  Fe  Fe78  1  0.24750615  0.74793756  0.50169670  1
  Fe  Fe79  1  0.24782727  0.25023854  0.24724438  1
  Fe  Fe80  1  0.62432889  0.12199090  0.62479024  1
  Fe  Fe81  1  0.12232216  0.87615356  0.12465255  1
  Fe  Fe82  1  0.87492985  0.37313922  0.87763204  1
  Fe  Fe83  1  -0.00337690  0.49510784  0.25507742  1
  Fe  Fe84  1  -0.00163438  0.00138192  -0.00120684  1
  Fe  Fe85  1  -0.00007796  0.25104753  0.74932778  1
  Fe  Fe86  1  0.00208853  0.24760569  0.00299249  1
  Fe  Fe87  1  0.62490323  0.62390061  0.12756863  1
  Fe  Fe88  1  0.49924559  0.50184195  0.75023975  1
  Fe  Fe89  1  0.75331099  0.49647381  0.25221314  1
  Co  Co90  1  0.87559511  0.87532660  0.87466919  1
  Co  Co91  1  0.74502547  0.25184115  0.24854366  1
  Co  Co92  1  0.12480845  0.12586576  0.87429454  1
  Co  Co93  1  0.75444434  0.00211853  0.49909412  1
  Co  Co94  1  0.12416155  0.62512438  0.87410851  1
  Co  Co95  1  0.87441584  0.62983836  0.36915724  1
  Co  Co96  1  0.62236485  0.87939581  0.12036872  1
  Co  Co97  1  0.49806579  0.00046330  0.49969043  1
  Co  Co98  1  -0.00224651  -0.00116423  0.49163472  1
  Co  Co99  1  0.74400122  0.75555468  0.24467390  1
  Co  Co100  1  0.87527367  0.37235574  0.12421957  1
  Co  Co101  1  0.75631816  -0.00173914  0.00301970  1
  Co  Co102  1  0.87122250  0.36935570  0.37736546  1
  Co  Co103  1  0.00293774  0.75314677  0.25240118  1
  Co  Co104  1  -0.00217080  0.00141268  0.75239926  1
  Co  Co105  1  0.49557338  -0.00057713  -0.00219338  1
  Co  Co106  1  0.75099916  0.74444396  0.50344639  1
  Co  Co107  1  0.37414663  0.62812551  0.37532068  1
  Co  Co108  1  0.00253418  0.25388514  0.25138687  1
  Co  Co109  1  -0.00291398  0.74866450  0.75091676  1
  Co  Co110  1  0.37682584  0.62768846  0.12560635  1
  Co  Co111  1  -0.00166356  0.49994655  0.49452899  1
  Co  Co112  1  0.50491177  0.25038750  0.00066152  1
  Co  Co113  1  0.24847586  0.24804267  0.50113753  1
  Co  Co114  1  0.62767985  0.62253451  0.62872111  1
  Co  Co115  1  0.62849400  0.62550471  0.37062709  1
  Co  Co116  1  0.37414170  0.62627957  0.62541757  1
  Co  Co117  1  0.62505641  0.37738302  0.37682810  1
  Co  Co118  1  0.62863006  0.87512167  0.38153132  1
  Co  Co119  1  0.87850801  0.87734594  0.62225971  1
  Co  Co120  1  -0.00222547  0.49852210  0.75355138  1
  Co  Co121  1  0.88062384  0.87449916  0.12771895  1
  Co  Co122  1  0.87104016  0.62632116  0.87373498  1
  Co  Co123  1  0.37625623  0.62690976  0.87407039  1
  Co  Co124  1  0.12250762  0.12120165  0.12907940  1
  Co  Co125  1  0.12953083  0.37552641  0.37449350  1
  Co  Co126  1  0.24563380  0.24961014  0.00372411  1
  Co  Co127  1  0.74932228  -0.00473819  0.24848440  1
