# generated using pymatgen
data_Fe45Co19
_symmetry_space_group_name_H-M   'P 1'
_cell_length_a   11.41415370
_cell_length_b   11.41479839
_cell_length_c   11.41484379
_cell_angle_alpha   89.99590272
_cell_angle_beta   90.00520128
_cell_angle_gamma   90.00498509
_symmetry_Int_Tables_number   1
_chemical_formula_structural   Fe45Co19
_chemical_formula_sum   'Fe90 Co38'
_cell_volume   1487.24298565
_cell_formula_units_Z   2
loop_
 _symmetry_equiv_pos_site_id
 _symmetry_equiv_pos_as_xyz
  1  'x, y, z'
loop_
 _atom_site_type_symbol
 _atom_site_label
 _atom_site_symmetry_multiplicity
 _atom_site_fract_x
 _atom_site_fract_y
 _atom_site_fract_z
 _atom_site_occupancy
  Fe  Fe0  1  -0.00231349  0.25013480  0.75103480  1
  Fe  Fe1  1  0.87605409  0.62490597  0.62291433  1
  Fe  Fe2  1  0.62586817  0.37551581  0.12660107  1
  Fe  Fe3  1  0.12537869  0.87333119  0.37309536  1
  Fe  Fe4  1  0.87667232  0.37552203  0.62284697  1
  Fe  Fe5  1  0.74644466  0.50249200  0.50010261  1
  Fe  Fe6  1  0.37304990  0.87322712  0.12107409  1
  Fe  Fe7  1  0.25130887  0.74700769  0.24888083  1
  Fe  Fe8  1  0.12787569  0.37492702  0.87262562  1
  Fe  Fe9  1  0.24956820  0.00033605  0.49900681  1
  Fe  Fe10  1  -0.00202421  0.50067118  0.75086474  1
  Fe  Fe11  1  0.74876165  0.74506310  0.75217083  1
  Fe  Fe12  1  0.87461695  0.12479677  0.87777657  1
  Fe  Fe13  1  0.00387918  -0.00244530  0.00327761  1
  Fe  Fe14  1  0.37556117  0.12564810  0.12222740  1
  Fe  Fe15  1  0.49970714  0.25069243  0.25198447  1
  Fe  Fe16  1  0.62473351  0.87414146  0.37196219  1
  Fe  Fe17  1  0.87721652  0.62365362  0.12144074  1
  Fe  Fe18  1  0.87174205  0.37902137  0.87882887  1
  Fe  Fe19  1  0.62724087  0.37961491  0.87385869  1
  Fe  Fe20  1  0.62398210  0.12514394  0.62606453  1
  Fe  Fe21  1  0.75235750  0.74813608  0.24881534  1
  Fe  Fe22  1  0.00266508  0.75012280  0.00159068  1
  Fe  Fe23  1  0.00521906  0.49962878  0.49663424  1
  Fe  Fe24  1  0.74639313  0.74757250  0.50077501  1
  Fe  Fe25  1  0.00363473  0.25174634  0.49863091  1
  Fe  Fe26  1  0.62458454  0.87252600  0.12618482  1
  Fe  Fe27  1  0.50272032  0.25106190  0.00029647  1
  Fe  Fe28  1  0.25392387  0.49978488  0.74625691  1
  Fe  Fe29  1  0.37189975  0.62582118  0.38176595  1
  Fe  Fe30  1  0.75036869  0.24938448  0.25007807  1
  Fe  Fe31  1  -0.00070106  0.74962106  0.75113967  1
  Fe  Fe32  1  0.25213112  0.24973899  0.25004576  1
  Fe  Fe33  1  0.24899864  0.50138463  0.00157932  1
  Fe  Fe34  1  0.37897891  0.62372246  0.87305860  1
  Fe  Fe35  1  0.62426572  0.87378011  0.62726075  1
  Fe  Fe36  1  0.12480542  0.87538565  0.62630611  1
  Fe  Fe37  1  0.75012060  0.50179653  0.24907705  1
  Fe  Fe38  1  0.12825184  0.87402664  0.87627833  1
  Fe  Fe39  1  0.37373039  0.37443185  0.87751167  1
  Fe  Fe40  1  0.12570468  0.12682259  0.62717245  1
  Fe  Fe41  1  0.00067391  0.50315417  0.25200536  1
  Fe  Fe42  1  0.12729398  0.37769481  0.12873607  1
  Fe  Fe43  1  -0.00100193  -0.00017763  0.50154285  1
  Fe  Fe44  1  0.37531051  0.37581988  0.12465052  1
  Fe  Fe45  1  0.75251284  0.00066551  0.74931295  1
  Fe  Fe46  1  0.75132364  0.25131615  0.74972905  1
  Fe  Fe47  1  0.87432337  0.12469212  0.12393306  1
  Fe  Fe48  1  -0.00056932  0.74906312  0.24926352  1
  Fe  Fe49  1  0.74468158  0.74264947  -0.00187341  1
  Fe  Fe50  1  0.37541195  0.12793944  0.62182125  1
  Fe  Fe51  1  0.87293051  0.87325637  0.87785502  1
  Fe  Fe52  1  0.62401635  0.12386348  0.37274911  1
  Fe  Fe53  1  0.49896504  0.25256201  0.75044619  1
  Fe  Fe54  1  0.25032053  0.00058195  0.24705576  1
  Fe  Fe55  1  0.50013870  -0.00075134  0.49882305  1
  Fe  Fe56  1  0.37614325  0.87277635  0.62452344  1
  Fe  Fe57  1  0.50316375  0.50034233  0.00107895  1
  Fe  Fe58  1  0.87239671  0.37798472  0.12248144  1
  Fe  Fe59  1  0.25251150  0.74847925  0.74965771  1
  Fe  Fe60  1  0.50342307  0.74916228  -0.00335832  1
  Fe  Fe61  1  0.12471935  0.62394970  0.87562408  1
  Fe  Fe62  1  -0.00215394  0.25103178  0.24930114  1
  Fe  Fe63  1  0.37717700  0.62516751  0.12379394  1
  Fe  Fe64  1  0.62413854  0.12462694  0.87509666  1
  Fe  Fe65  1  0.74652175  0.00121559  0.00319257  1
  Fe  Fe66  1  0.37437018  0.12607054  0.87883253  1
  Fe  Fe67  1  0.37465509  0.87433812  0.37593593  1
  Fe  Fe68  1  0.87404839  0.37702720  0.37541070  1
  Fe  Fe69  1  0.62282084  0.62569964  0.37200569  1
  Fe  Fe70  1  -0.00166393  0.00023387  0.75066903  1
  Fe  Fe71  1  0.62353778  0.37818572  0.62511609  1
  Fe  Fe72  1  0.12727873  0.62495532  0.62379966  1
  Fe  Fe73  1  0.74809478  0.25051811  0.49955366  1
  Fe  Fe74  1  -0.00065139  -0.00350247  0.24551528  1
  Fe  Fe75  1  0.49891706  -0.00148541  0.75206022  1
  Fe  Fe76  1  0.12507748  0.12476269  0.37168531  1
  Fe  Fe77  1  0.37366983  0.87584495  0.87839151  1
  Fe  Fe78  1  0.49730270  0.50007832  0.25377735  1
  Fe  Fe79  1  0.00141221  0.74905329  0.49765374  1
  Fe  Fe80  1  0.25142166  0.00119201  0.75110433  1
  Fe  Fe81  1  0.87490228  0.12393474  0.37580974  1
  Fe  Fe82  1  0.75060580  -0.00025896  0.50041009  1
  Fe  Fe83  1  0.37441460  0.37233823  0.61886679  1
  Fe  Fe84  1  0.87473508  0.87303610  0.62558360  1
  Fe  Fe85  1  0.37342779  0.37350942  0.37926291  1
  Fe  Fe86  1  0.00163209  0.25328488  0.00164510  1
  Fe  Fe87  1  0.12763040  0.12756029  0.87652266  1
  Fe  Fe88  1  0.87397817  0.87467313  0.37429897  1
  Fe  Fe89  1  0.49891762  -0.00057938  0.24766340  1
  Co  Co90  1  0.62760303  0.87701492  0.87502535  1
  Co  Co91  1  0.49533183  0.75028865  0.25147211  1
  Co  Co92  1  0.50133409  0.50146416  0.49738076  1
  Co  Co93  1  0.49967631  0.75406937  0.75257178  1
  Co  Co94  1  0.50403521  0.24968271  0.49786686  1
  Co  Co95  1  0.12500569  0.12810979  0.12686801  1
  Co  Co96  1  0.50292851  0.75029603  0.49939555  1
  Co  Co97  1  0.00393135  0.49687226  -0.00026644  1
  Co  Co98  1  0.12519120  0.62370705  0.12592721  1
  Co  Co99  1  0.74532378  0.50595164  0.00129015  1
  Co  Co100  1  0.25368251  0.25053475  0.74945045  1
  Co  Co101  1  0.50161627  -0.00136016  0.00202491  1
  Co  Co102  1  0.61931730  0.62268149  0.63027679  1
  Co  Co103  1  0.24876083  0.75344561  0.50179581  1
  Co  Co104  1  0.87343468  0.62407925  0.37600511  1
  Co  Co105  1  0.87542955  0.12737970  0.62382992  1
  Co  Co106  1  0.12656411  0.37543277  0.36832560  1
  Co  Co107  1  0.12921196  0.62645749  0.37455927  1
  Co  Co108  1  0.75031268  0.00041451  0.24876676  1
  Co  Co109  1  0.49311792  0.49454072  0.74654520  1
  Co  Co110  1  0.61956779  0.61783830  0.86723540  1
  Co  Co111  1  0.37699949  0.62664301  0.62182863  1
  Co  Co112  1  0.62333623  0.12736791  0.12673442  1
  Co  Co113  1  0.37485067  0.12571701  0.37630042  1
  Co  Co114  1  0.62572313  0.37664311  0.37288256  1
  Co  Co115  1  0.24619660  0.49662623  0.50139692  1
  Co  Co116  1  0.24426917  0.25076196  0.49835558  1
  Co  Co117  1  0.24700212  0.00184235  0.00201288  1
  Co  Co118  1  0.74838433  0.24987325  0.00027320  1
  Co  Co119  1  0.75499470  0.50189900  0.74819569  1
  Co  Co120  1  0.12381331  0.37458481  0.62997684  1
  Co  Co121  1  0.25124591  0.74442809  -0.00148286  1
  Co  Co122  1  0.87105702  0.87292832  0.12209643  1
  Co  Co123  1  0.87777194  0.62422414  0.87888733  1
  Co  Co124  1  0.24863197  0.25266235  0.00261089  1
  Co  Co125  1  0.61999563  0.62500860  0.13060772  1
  Co  Co126  1  0.12970195  0.87025020  0.12494920  1
  Co  Co127  1  0.25436437  0.50220561  0.24991403  1
