# generated using pymatgen
data_Fe45Co19
_symmetry_space_group_name_H-M   'P 1'
_cell_length_a   11.41458030
_cell_length_b   11.41445739
_cell_length_c   11.41434638
_cell_angle_alpha   89.99929734
_cell_angle_beta   89.99465048
_cell_angle_gamma   90.00565127
_symmetry_Int_Tables_number   1
_chemical_formula_structural   Fe45Co19
_chemical_formula_sum   'Fe90 Co38'
_cell_volume   1487.18933587
_cell_formula_units_Z   2
loop_
 _symmetry_equiv_pos_site_id
 _symmetry_equiv_pos_as_xyz
  1  'x, y, z'
loop_
 _atom_site_type_symbol
 _atom_site_label
 _atom_site_symmetry_multiplicity
 _atom_site_fract_x
 _atom_site_fract_y
 _atom_site_fract_z
 _atom_site_occupancy
  Fe  Fe0  1  0.12201294  0.12277524  0.62670309  1
  Fe  Fe1  1  0.74606924  0.50019431  0.75337212  1
  Fe  Fe2  1  0.74934077  0.50035776  0.49902904  1
  Fe  Fe3  1  0.87698846  0.12232667  0.12439551  1
  Fe  Fe4  1  0.12464316  0.12311479  0.37443030  1
  Fe  Fe5  1  0.25030695  0.24879541  0.74896585  1
  Fe  Fe6  1  0.74774233  0.00081816  0.50220895  1
  Fe  Fe7  1  0.50069294  -0.00230998  0.74983136  1
  Fe  Fe8  1  0.87642001  0.37697292  0.12552269  1
  Fe  Fe9  1  0.62444126  0.87399126  0.62596038  1
  Fe  Fe10  1  0.00007997  0.75179447  0.75225001  1
  Fe  Fe11  1  -0.00038913  0.24885568  0.24949003  1
  Fe  Fe12  1  0.37368775  0.37702402  0.37537917  1
  Fe  Fe13  1  0.62387246  0.12519438  0.37517750  1
  Fe  Fe14  1  0.37559889  0.87915606  0.37393646  1
  Fe  Fe15  1  0.49850547  0.24976007  0.25065084  1
  Fe  Fe16  1  0.12810103  0.87277331  0.87879946  1
  Fe  Fe17  1  0.37383056  0.62720846  0.62518129  1
  Fe  Fe18  1  0.74934112  0.00089242  0.24965735  1
  Fe  Fe19  1  0.74980699  0.00388942  0.74821589  1
  Fe  Fe20  1  0.62507401  0.37300627  0.12332467  1
  Fe  Fe21  1  0.49922606  0.25287165  0.75056930  1
  Fe  Fe22  1  0.49925845  0.75041970  0.75207582  1
  Fe  Fe23  1  0.12482344  0.37337611  0.12360147  1
  Fe  Fe24  1  0.37334780  0.37677708  0.62483472  1
  Fe  Fe25  1  0.87398848  0.62465575  0.87651189  1
  Fe  Fe26  1  0.62476580  0.62721233  0.37307683  1
  Fe  Fe27  1  0.37490101  0.12336236  0.12512216  1
  Fe  Fe28  1  0.24742540  -0.00218472  0.74841379  1
  Fe  Fe29  1  0.37405604  0.12379705  0.87516904  1
  Fe  Fe30  1  0.37614162  0.62320797  0.12319896  1
  Fe  Fe31  1  0.50182885  0.49954820  0.49970591  1
  Fe  Fe32  1  0.12415782  0.37602711  0.37537137  1
  Fe  Fe33  1  0.62429242  0.12779809  0.87414612  1
  Fe  Fe34  1  0.62455694  0.62612400  0.62548188  1
  Fe  Fe35  1  0.49910015  0.75211441  -0.00114695  1
  Fe  Fe36  1  0.62518643  0.62704143  0.12459425  1
  Fe  Fe37  1  0.00421071  -0.00547359  0.49975984  1
  Fe  Fe38  1  0.25486511  0.75031773  0.24895913  1
  Fe  Fe39  1  0.25102893  0.24866993  -0.00136117  1
  Fe  Fe40  1  0.00245468  0.50115900  0.74763858  1
  Fe  Fe41  1  0.24744959  -0.00210374  0.24765282  1
  Fe  Fe42  1  0.87388017  0.37634664  0.62548220  1
  Fe  Fe43  1  0.37668230  0.12074730  0.62246076  1
  Fe  Fe44  1  0.00105943  0.25204370  0.50176103  1
  Fe  Fe45  1  0.87278384  0.87664608  0.87605186  1
  Fe  Fe46  1  0.49670481  0.75071133  0.49812156  1
  Fe  Fe47  1  0.50192217  0.49687302  -0.00357072  1
  Fe  Fe48  1  0.37480699  0.12175392  0.37674473  1
  Fe  Fe49  1  0.74861226  0.74963366  0.75148435  1
  Fe  Fe50  1  0.12639227  0.37367060  0.87520754  1
  Fe  Fe51  1  -0.00453562  0.75331498  0.24544241  1
  Fe  Fe52  1  0.12615398  0.62776818  0.87822217  1
  Fe  Fe53  1  0.24673880  0.50198191  0.50080312  1
  Fe  Fe54  1  0.24829742  0.50159452  0.74992079  1
  Fe  Fe55  1  0.37338674  0.62396688  0.87633847  1
  Fe  Fe56  1  0.12516710  0.63232739  0.62222522  1
  Fe  Fe57  1  0.24717270  0.50161144  0.24886149  1
  Fe  Fe58  1  0.74941333  0.50106468  0.24904600  1
  Fe  Fe59  1  0.12422842  0.12510706  0.12362966  1
  Fe  Fe60  1  0.87606694  0.87649762  0.62728564  1
  Fe  Fe61  1  0.87708606  0.37652995  0.37481221  1
  Fe  Fe62  1  0.62433800  0.87317304  0.37186487  1
  Fe  Fe63  1  0.12373232  0.62934458  0.12293657  1
  Fe  Fe64  1  0.87798897  0.62344016  0.37343619  1
  Fe  Fe65  1  0.37262654  0.87584952  0.87643726  1
  Fe  Fe66  1  0.50060630  0.50008212  0.25102930  1
  Fe  Fe67  1  0.62389168  0.12690228  0.12506059  1
  Fe  Fe68  1  0.75171824  0.74978807  0.00162867  1
  Fe  Fe69  1  0.87489770  0.87723257  0.37204454  1
  Fe  Fe70  1  0.12259260  0.62970380  0.37642304  1
  Fe  Fe71  1  -0.00105853  0.24985821  0.75004784  1
  Fe  Fe72  1  0.50186013  0.25154254  0.50026403  1
  Fe  Fe73  1  0.75207092  0.24999482  -0.00042201  1
  Fe  Fe74  1  0.87768663  0.12363553  0.87507449  1
  Fe  Fe75  1  0.87697845  0.12351581  0.37683566  1
  Fe  Fe76  1  0.24907750  0.24827985  0.50112220  1
  Fe  Fe77  1  0.50057841  -0.00007233  0.00051261  1
  Fe  Fe78  1  0.00325525  -0.00133498  -0.00022498  1
  Fe  Fe79  1  0.00030727  0.50092934  0.00114664  1
  Fe  Fe80  1  0.87443374  0.37551871  0.87508665  1
  Fe  Fe81  1  0.50191564  0.49874480  0.75338015  1
  Fe  Fe82  1  0.75239967  0.75020486  0.49874608  1
  Fe  Fe83  1  0.62397993  0.87284869  0.12787629  1
  Fe  Fe84  1  0.74837624  0.24908705  0.50340842  1
  Fe  Fe85  1  0.37405681  0.37581315  0.12345324  1
  Fe  Fe86  1  0.87508047  0.62552318  0.62587654  1
  Fe  Fe87  1  0.74694727  0.00039029  0.00008454  1
  Fe  Fe88  1  0.75139908  0.24940480  0.25088822  1
  Fe  Fe89  1  0.25056139  0.25012395  0.25048934  1
  Co  Co90  1  0.24963671  0.00156339  0.00084223  1
  Co  Co91  1  -0.00519335  0.75297747  0.50017783  1
  Co  Co92  1  -0.00034975  0.24986556  0.00000622  1
  Co  Co93  1  0.25434387  0.75360642  0.49627439  1
  Co  Co94  1  0.50299970  -0.00242236  0.50013843  1
  Co  Co95  1  0.12526529  0.12601458  0.87416874  1
  Co  Co96  1  0.25070413  0.74977848  0.75264952  1
  Co  Co97  1  0.00267598  -0.00408687  0.75282332  1
  Co  Co98  1  0.12584615  0.87217130  0.12302806  1
  Co  Co99  1  -0.00405706  0.75118016  -0.00080049  1
  Co  Co100  1  0.87459053  0.62265846  0.12396825  1
  Co  Co101  1  0.37118016  0.37543155  0.87519501  1
  Co  Co102  1  0.62541863  0.62745596  0.87714844  1
  Co  Co103  1  0.62711867  0.87550222  0.87461744  1
  Co  Co104  1  0.12609299  0.86935248  0.62563991  1
  Co  Co105  1  0.24599296  -0.00273483  0.50139586  1
  Co  Co106  1  0.49518482  0.74860155  0.25159500  1
  Co  Co107  1  0.49663230  0.24897454  -0.00039716  1
  Co  Co108  1  0.00150839  -0.00005130  0.24846822  1
  Co  Co109  1  0.50127732  0.00166279  0.24922537  1
  Co  Co110  1  0.88112409  0.12198016  0.62302097  1
  Co  Co111  1  0.12488673  0.87100793  0.37112224  1
  Co  Co112  1  0.75422829  0.74966456  0.24906834  1
  Co  Co113  1  0.25401809  0.75009063  0.00193924  1
  Co  Co114  1  0.75344228  0.24571371  0.74802329  1
  Co  Co115  1  0.37380604  0.62048778  0.37578278  1
  Co  Co116  1  0.37468199  0.87497262  0.62570468  1
  Co  Co117  1  0.62159455  0.12523681  0.62704349  1
  Co  Co118  1  0.87358730  0.87954291  0.12292642  1
  Co  Co119  1  0.74929327  0.49956758  -0.00040436  1
  Co  Co120  1  0.00135728  0.50111546  0.50291836  1
  Co  Co121  1  0.12647620  0.37375019  0.62611053  1
  Co  Co122  1  0.62744446  0.36982974  0.87541152  1
  Co  Co123  1  0.62556358  0.37455168  0.37375197  1
  Co  Co124  1  0.24806075  0.50040019  0.00059917  1
  Co  Co125  1  0.37632891  0.87705611  0.12484600  1
  Co  Co126  1  0.62664600  0.37582227  0.62709370  1
  Co  Co127  1  0.00304008  0.50068391  0.24818189  1
