# generated using pymatgen
data_Fe45Co19
_symmetry_space_group_name_H-M   'P 1'
_cell_length_a   11.41501716
_cell_length_b   11.41523991
_cell_length_c   11.41437916
_cell_angle_alpha   90.00461235
_cell_angle_beta   90.00576725
_cell_angle_gamma   89.99672707
_symmetry_Int_Tables_number   1
_chemical_formula_structural   Fe45Co19
_chemical_formula_sum   'Fe90 Co38'
_cell_volume   1487.35248206
_cell_formula_units_Z   2
loop_
 _symmetry_equiv_pos_site_id
 _symmetry_equiv_pos_as_xyz
  1  'x, y, z'
loop_
 _atom_site_type_symbol
 _atom_site_label
 _atom_site_symmetry_multiplicity
 _atom_site_fract_x
 _atom_site_fract_y
 _atom_site_fract_z
 _atom_site_occupancy
  Fe  Fe0  1  0.24932030  0.00503427  0.74942763  1
  Fe  Fe1  1  0.62514067  0.62237174  0.37253074  1
  Fe  Fe2  1  0.12628006  0.62651477  0.37468686  1
  Fe  Fe3  1  0.49962020  0.25206277  0.49874522  1
  Fe  Fe4  1  0.37467864  0.87422696  0.12736722  1
  Fe  Fe5  1  0.24897685  0.25064377  0.00585856  1
  Fe  Fe6  1  0.87559264  0.12127886  0.37532951  1
  Fe  Fe7  1  0.75270022  0.49950646  0.75145931  1
  Fe  Fe8  1  0.24701723  0.75553406  0.49919525  1
  Fe  Fe9  1  0.12346536  0.62663968  0.87618333  1
  Fe  Fe10  1  0.87553218  0.37460529  0.37369440  1
  Fe  Fe11  1  0.62237198  0.37347006  0.87372760  1
  Fe  Fe12  1  0.50140415  0.75148629  0.00104850  1
  Fe  Fe13  1  0.49580678  0.24794152  0.75025573  1
  Fe  Fe14  1  0.00213669  0.24730034  0.74906256  1
  Fe  Fe15  1  0.37299406  0.12310090  0.61723985  1
  Fe  Fe16  1  -0.00020962  0.49948849  -0.00046258  1
  Fe  Fe17  1  0.49624799  0.24813064  0.24700205  1
  Fe  Fe18  1  0.87654763  0.37331025  0.87467485  1
  Fe  Fe19  1  0.62586077  0.62490228  0.87823254  1
  Fe  Fe20  1  0.74717768  -0.00197427  0.49846008  1
  Fe  Fe21  1  0.75113865  0.24670581  0.24971675  1
  Fe  Fe22  1  0.25444533  0.00326674  0.25361557  1
  Fe  Fe23  1  0.12422999  0.87537235  0.87259846  1
  Fe  Fe24  1  0.62366074  0.12511804  0.62371247  1
  Fe  Fe25  1  0.00320154  0.24861321  0.00358882  1
  Fe  Fe26  1  0.75110528  0.74908636  0.25049552  1
  Fe  Fe27  1  0.12775829  0.37298588  0.62610194  1
  Fe  Fe28  1  -0.00245385  0.74909908  0.75204445  1
  Fe  Fe29  1  0.49765826  0.50102785  0.75019280  1
  Fe  Fe30  1  -0.00027284  0.50032179  0.75005472  1
  Fe  Fe31  1  0.62104282  0.87733997  0.87115425  1
  Fe  Fe32  1  0.75161976  0.00077299  0.74998357  1
  Fe  Fe33  1  0.12483726  0.62565511  0.12438467  1
  Fe  Fe34  1  0.00173890  0.25183105  0.49878518  1
  Fe  Fe35  1  0.87529525  0.87295623  0.62218991  1
  Fe  Fe36  1  0.37313223  0.62788408  0.37663072  1
  Fe  Fe37  1  0.75161764  0.75023725  0.75352474  1
  Fe  Fe38  1  0.12745614  0.12400213  0.37600100  1
  Fe  Fe39  1  0.24996426  -0.00188888  0.00000490  1
  Fe  Fe40  1  0.62412884  0.87451984  0.37268173  1
  Fe  Fe41  1  0.87703593  0.12484667  0.62135321  1
  Fe  Fe42  1  0.37584560  0.12673159  0.88117764  1
  Fe  Fe43  1  0.25309574  0.74847437  0.75223175  1
  Fe  Fe44  1  0.12753976  0.37205137  0.87470676  1
  Fe  Fe45  1  0.62421535  0.87469140  0.12747311  1
  Fe  Fe46  1  0.00196914  0.49959185  0.50130037  1
  Fe  Fe47  1  0.37689787  0.87585608  0.87296895  1
  Fe  Fe48  1  0.12673138  0.37639806  0.37103366  1
  Fe  Fe49  1  0.87084813  0.62727834  0.11766219  1
  Fe  Fe50  1  0.75037750  0.49781993  0.49917755  1
  Fe  Fe51  1  0.49753572  0.00190491  0.25152832  1
  Fe  Fe52  1  0.37245133  0.37342185  0.37149004  1
  Fe  Fe53  1  0.00238464  -0.00075496  0.00097103  1
  Fe  Fe54  1  0.00492875  -0.00710836  0.49724461  1
  Fe  Fe55  1  0.25231859  0.50299659  0.24805338  1
  Fe  Fe56  1  0.62213846  0.12447026  0.87683359  1
  Fe  Fe57  1  0.87451849  0.87688895  0.12656518  1
  Fe  Fe58  1  0.87570995  0.12430656  0.87719901  1
  Fe  Fe59  1  0.62476698  0.37746024  0.36916325  1
  Fe  Fe60  1  0.62528963  0.62431497  0.62554508  1
  Fe  Fe61  1  0.12601946  0.62757013  0.62458926  1
  Fe  Fe62  1  0.24897858  0.49901153  0.00130392  1
  Fe  Fe63  1  0.00178329  0.00283166  0.74970785  1
  Fe  Fe64  1  0.12612159  0.87634868  0.12998317  1
  Fe  Fe65  1  0.50169111  0.75105728  0.50074760  1
  Fe  Fe66  1  0.37254548  0.37537834  0.62528664  1
  Fe  Fe67  1  0.49819587  0.49926016  0.49771304  1
  Fe  Fe68  1  0.62336465  0.12512721  0.37510073  1
  Fe  Fe69  1  0.00357133  0.24748096  0.24807003  1
  Fe  Fe70  1  0.37660955  0.87666904  0.62560243  1
  Fe  Fe71  1  0.62476777  0.37496370  0.62544997  1
  Fe  Fe72  1  0.75110713  0.24906176  0.74927901  1
  Fe  Fe73  1  0.37417686  0.62568572  0.62250643  1
  Fe  Fe74  1  0.74746878  0.25178105  0.00169188  1
  Fe  Fe75  1  -0.00329922  0.50335091  0.24917185  1
  Fe  Fe76  1  0.87475513  0.62920656  0.38034122  1
  Fe  Fe77  1  0.49815424  0.74518826  0.24754618  1
  Fe  Fe78  1  0.24827774  0.75159126  0.00061192  1
  Fe  Fe79  1  0.87454066  0.37441134  0.12612904  1
  Fe  Fe80  1  0.25077918  0.50081319  0.75131122  1
  Fe  Fe81  1  0.75038731  0.25116470  0.49894260  1
  Fe  Fe82  1  0.87565375  0.12220417  0.12543248  1
  Fe  Fe83  1  -0.00130114  0.75001150  0.25007010  1
  Fe  Fe84  1  0.62183299  0.12413099  0.12311705  1
  Fe  Fe85  1  0.37687787  0.62366899  0.87950168  1
  Fe  Fe86  1  0.50250228  0.49615437  0.00618906  1
  Fe  Fe87  1  0.87477707  0.62706780  0.62200434  1
  Fe  Fe88  1  0.62163635  0.87578002  0.62854386  1
  Fe  Fe89  1  0.74801883  -0.00208809  0.00007830  1
  Co  Co90  1  0.24922090  0.49925024  0.49933565  1
  Co  Co91  1  0.12532039  0.12492843  0.61981403  1
  Co  Co92  1  0.37350141  0.37510130  0.12745440  1
  Co  Co93  1  0.37613758  0.12306596  0.12226978  1
  Co  Co94  1  0.62963116  0.62400589  0.12432067  1
  Co  Co95  1  0.74768177  0.75679742  -0.00313748  1
  Co  Co96  1  0.37391012  0.37535917  0.87690197  1
  Co  Co97  1  0.87221484  0.87486429  0.37486250  1
  Co  Co98  1  0.12455104  0.37862194  0.12747563  1
  Co  Co99  1  -0.00037394  0.00030374  0.25237030  1
  Co  Co100  1  0.87545687  0.37401957  0.62508422  1
  Co  Co101  1  0.87455819  0.62478314  0.87935739  1
  Co  Co102  1  0.75571759  0.50291025  0.25071249  1
  Co  Co103  1  0.25120031  0.74708679  0.24786591  1
  Co  Co104  1  0.49650016  0.00623799  0.74989872  1
  Co  Co105  1  0.49471101  0.50430109  0.24775849  1
  Co  Co106  1  0.62697803  0.37686885  0.13327503  1
  Co  Co107  1  0.50169437  -0.00193722  0.49725662  1
  Co  Co108  1  0.87852364  0.87752506  0.87579390  1
  Co  Co109  1  0.50083685  0.25461867  0.00320303  1
  Co  Co110  1  0.00231840  0.75345917  0.00155704  1
  Co  Co111  1  0.12682588  0.11980826  0.12586257  1
  Co  Co112  1  0.74883649  0.49432003  -0.00086620  1
  Co  Co113  1  0.00537444  0.75399992  0.49771800  1
  Co  Co114  1  0.24780607  -0.00624157  0.49760180  1
  Co  Co115  1  0.74750917  0.00166645  0.24981862  1
  Co  Co116  1  0.49835934  0.74635078  0.75093441  1
  Co  Co117  1  0.74442604  0.75176517  0.50007609  1
  Co  Co118  1  0.12770669  0.87341928  0.36638296  1
  Co  Co119  1  0.24825947  0.24671098  0.24675382  1
  Co  Co120  1  0.37431666  0.12658162  0.37905023  1
  Co  Co121  1  0.24885208  0.25240937  0.49842572  1
  Co  Co122  1  0.37366358  0.62593323  0.12048133  1
  Co  Co123  1  0.49951035  -0.00387425  0.00078610  1
  Co  Co124  1  0.12592728  0.12627801  0.87843149  1
  Co  Co125  1  0.12635791  0.87407367  0.63139081  1
  Co  Co126  1  0.25258246  0.24561366  0.74923533  1
  Co  Co127  1  0.37683511  0.87200778  0.37360368  1
