# generated using pymatgen
data_Fe45Co19
_symmetry_space_group_name_H-M   'P 1'
_cell_length_a   11.41512465
_cell_length_b   11.41423995
_cell_length_c   11.41495350
_cell_angle_alpha   90.00885768
_cell_angle_beta   89.99662923
_cell_angle_gamma   89.99258281
_symmetry_Int_Tables_number   1
_chemical_formula_structural   Fe45Co19
_chemical_formula_sum   'Fe90 Co38'
_cell_volume   1487.31101200
_cell_formula_units_Z   2
loop_
 _symmetry_equiv_pos_site_id
 _symmetry_equiv_pos_as_xyz
  1  'x, y, z'
loop_
 _atom_site_type_symbol
 _atom_site_label
 _atom_site_symmetry_multiplicity
 _atom_site_fract_x
 _atom_site_fract_y
 _atom_site_fract_z
 _atom_site_occupancy
  Fe  Fe0  1  0.00006046  0.00148916  0.75092565  1
  Fe  Fe1  1  0.74679134  0.74810170  0.24971277  1
  Fe  Fe2  1  0.24924913  0.75079893  0.74955581  1
  Fe  Fe3  1  0.49921168  -0.00173477  0.75116676  1
  Fe  Fe4  1  0.62408281  0.12503582  0.37642668  1
  Fe  Fe5  1  0.00130794  0.25170284  0.24744629  1
  Fe  Fe6  1  0.37381497  0.87648947  0.62377457  1
  Fe  Fe7  1  0.75122700  0.00023995  0.49939189  1
  Fe  Fe8  1  0.00015564  0.25046256  0.00284544  1
  Fe  Fe9  1  0.37429265  0.12835638  0.87338336  1
  Fe  Fe10  1  0.62533358  0.12418155  0.12546797  1
  Fe  Fe11  1  0.87531244  0.62788648  0.37432853  1
  Fe  Fe12  1  0.74867568  0.75115350  0.75018354  1
  Fe  Fe13  1  0.00534203  0.74955902  0.24585014  1
  Fe  Fe14  1  0.49885303  0.00036422  -0.00207035  1
  Fe  Fe15  1  0.37373268  0.12131647  0.12488538  1
  Fe  Fe16  1  0.24958463  0.25129070  0.50182144  1
  Fe  Fe17  1  0.74923173  0.50179188  0.25177809  1
  Fe  Fe18  1  0.12590274  0.37491116  0.37421413  1
  Fe  Fe19  1  0.25173747  0.49694718  0.75462728  1
  Fe  Fe20  1  0.24893139  0.50146435  0.24914860  1
  Fe  Fe21  1  0.49987749  0.25032552  0.00066382  1
  Fe  Fe22  1  -0.00025927  0.49774377  0.00159309  1
  Fe  Fe23  1  0.62541945  0.87564065  0.62443296  1
  Fe  Fe24  1  0.75146710  0.25129869  -0.00009575  1
  Fe  Fe25  1  0.87595782  0.12728318  0.37533274  1
  Fe  Fe26  1  0.87721381  0.62486136  0.87347648  1
  Fe  Fe27  1  0.12366042  0.12460891  0.87541898  1
  Fe  Fe28  1  0.50153006  0.25355247  0.75047743  1
  Fe  Fe29  1  0.87645879  0.87437383  0.87630225  1
  Fe  Fe30  1  0.75028063  0.00056924  0.75145039  1
  Fe  Fe31  1  0.12226946  0.87536002  0.87951859  1
  Fe  Fe32  1  0.74969948  0.74804530  -0.00032156  1
  Fe  Fe33  1  0.62230908  0.12527838  0.62306770  1
  Fe  Fe34  1  0.49847181  0.74954450  0.50289723  1
  Fe  Fe35  1  0.49551199  0.49764519  0.49787007  1
  Fe  Fe36  1  0.24873042  -0.00572959  0.25342341  1
  Fe  Fe37  1  0.87580652  0.62306685  0.12592410  1
  Fe  Fe38  1  0.49912787  -0.00146882  0.25205347  1
  Fe  Fe39  1  0.62318215  0.62323841  0.62592818  1
  Fe  Fe40  1  0.25310209  0.50012321  0.49915283  1
  Fe  Fe41  1  0.75166029  0.49945322  -0.00267517  1
  Fe  Fe42  1  0.87862618  0.37114204  0.86856037  1
  Fe  Fe43  1  0.12766887  0.62934284  0.37533691  1
  Fe  Fe44  1  0.87380988  0.12501789  0.12672266  1
  Fe  Fe45  1  0.37439941  0.37551248  0.12525922  1
  Fe  Fe46  1  0.62273566  0.37681769  0.37342179  1
  Fe  Fe47  1  0.25066810  0.24908556  0.24927526  1
  Fe  Fe48  1  0.75114420  -0.00123167  0.25140740  1
  Fe  Fe49  1  0.12686316  0.12033413  0.12509196  1
  Fe  Fe50  1  -0.00117489  0.50213450  0.50026665  1
  Fe  Fe51  1  0.24823819  0.25048201  0.00034994  1
  Fe  Fe52  1  0.87493254  0.12762559  0.62744449  1
  Fe  Fe53  1  0.00398602  0.25053441  0.50471543  1
  Fe  Fe54  1  0.00195873  0.00109666  0.49799332  1
  Fe  Fe55  1  0.37494471  0.12595895  0.62457421  1
  Fe  Fe56  1  0.62286225  0.37719842  0.62507931  1
  Fe  Fe57  1  0.37612794  0.12545301  0.37716579  1
  Fe  Fe58  1  0.37454044  0.62573141  0.12443161  1
  Fe  Fe59  1  0.37636326  0.62259525  0.63074006  1
  Fe  Fe60  1  0.50165015  0.74869861  0.24649783  1
  Fe  Fe61  1  0.37727765  0.87025395  0.87724891  1
  Fe  Fe62  1  0.24846626  0.75117860  0.00396919  1
  Fe  Fe63  1  0.24506623  0.25326585  0.74839567  1
  Fe  Fe64  1  0.62465555  0.87538804  0.12185039  1
  Fe  Fe65  1  0.75241096  0.00164727  -0.00193070  1
  Fe  Fe66  1  0.49706313  0.50100171  -0.00385388  1
  Fe  Fe67  1  0.74896335  0.25144102  0.24947089  1
  Fe  Fe68  1  0.62136411  0.62744815  0.87345009  1
  Fe  Fe69  1  0.74915593  0.49806814  0.75103934  1
  Fe  Fe70  1  0.25069141  -0.00162732  0.75350297  1
  Fe  Fe71  1  0.00175277  0.74848905  0.74977369  1
  Fe  Fe72  1  0.87713055  0.87101829  0.37703861  1
  Fe  Fe73  1  0.87710941  0.37451283  0.37445881  1
  Fe  Fe74  1  0.62492035  0.37898435  0.12406634  1
  Fe  Fe75  1  0.62429469  0.87350984  0.37762404  1
  Fe  Fe76  1  0.12527415  0.87529615  0.62231671  1
  Fe  Fe77  1  0.37478016  0.62865004  0.37232909  1
  Fe  Fe78  1  0.87298152  0.62546165  0.62600570  1
  Fe  Fe79  1  0.74909649  0.25201791  0.50132265  1
  Fe  Fe80  1  0.25073522  0.49854782  -0.00145802  1
  Fe  Fe81  1  0.75121649  0.50058425  0.49905294  1
  Fe  Fe82  1  0.87730958  0.87378368  0.12319628  1
  Fe  Fe83  1  0.24982005  -0.00102696  0.49563965  1
  Fe  Fe84  1  0.62635869  0.12552483  0.87475689  1
  Fe  Fe85  1  0.12700976  0.62280336  0.62583028  1
  Fe  Fe86  1  0.12537568  0.62405408  0.87665128  1
  Fe  Fe87  1  0.87593171  0.87329920  0.62355622  1
  Fe  Fe88  1  0.49899937  0.25131014  0.25020483  1
  Fe  Fe89  1  0.00215231  -0.00162961  0.25226467  1
  Co  Co90  1  0.25350771  0.74732658  0.50458777  1
  Co  Co91  1  0.37652873  0.87665449  0.12391417  1
  Co  Co92  1  -0.00391789  0.00484105  -0.00105062  1
  Co  Co93  1  0.00042471  0.74575162  0.50436659  1
  Co  Co94  1  0.12592143  0.38170422  0.62393281  1
  Co  Co95  1  0.62500943  0.87407111  0.87657945  1
  Co  Co96  1  0.62597348  0.62074754  0.12269239  1
  Co  Co97  1  0.12712432  0.37605834  0.12687777  1
  Co  Co98  1  0.37362558  0.37131669  0.87528930  1
  Co  Co99  1  0.87561510  0.13081413  0.87059500  1
  Co  Co100  1  0.12166585  0.37592641  0.87508055  1
  Co  Co101  1  0.74853222  0.74901139  0.50025305  1
  Co  Co102  1  0.49790721  0.50031990  0.24936093  1
  Co  Co103  1  0.50087791  0.74792132  0.00217521  1
  Co  Co104  1  0.24745754  0.75276643  0.24377803  1
  Co  Co105  1  0.12917017  0.11943193  0.62518154  1
  Co  Co106  1  0.37394756  0.62938655  0.87411412  1
  Co  Co107  1  0.49869473  -0.00112605  0.49943744  1
  Co  Co108  1  0.49855795  0.25366941  0.49831839  1
  Co  Co109  1  0.00004004  0.50292740  0.74844072  1
  Co  Co110  1  0.12502032  0.12748172  0.37392821  1
  Co  Co111  1  0.37387408  0.37437019  0.62765640  1
  Co  Co112  1  0.12524961  0.86784430  0.37921107  1
  Co  Co113  1  0.12468621  0.62159377  0.12237002  1
  Co  Co114  1  0.49835192  0.49715319  0.75507609  1
  Co  Co115  1  0.12316464  0.88027150  0.12000053  1
  Co  Co116  1  0.62181725  0.62440465  0.37706706  1
  Co  Co117  1  0.25357520  -0.00018753  -0.00375177  1
  Co  Co118  1  0.37515233  0.86926989  0.37494756  1
  Co  Co119  1  -0.00001692  0.74645831  0.00085934  1
  Co  Co120  1  0.74553268  0.25182779  0.74826547  1
  Co  Co121  1  0.87596668  0.37490791  0.62738652  1
  Co  Co122  1  0.49956206  0.75268817  0.74752280  1
  Co  Co123  1  0.37175520  0.37513493  0.37211628  1
  Co  Co124  1  0.00217349  0.50131369  0.25194942  1
  Co  Co125  1  0.62534394  0.37541093  0.87736353  1
  Co  Co126  1  0.87331011  0.37819987  0.12718881  1
  Co  Co127  1  0.00680066  0.24892732  0.74405509  1
