# generated using pymatgen
data_Fe45Co19
_symmetry_space_group_name_H-M   'P 1'
_cell_length_a   11.41362037
_cell_length_b   11.41469243
_cell_length_c   11.41402721
_cell_angle_alpha   89.99204798
_cell_angle_beta   90.00265398
_cell_angle_gamma   90.00086398
_symmetry_Int_Tables_number   1
_chemical_formula_structural   Fe45Co19
_chemical_formula_sum   'Fe90 Co38'
_cell_volume   1487.05330292
_cell_formula_units_Z   2
loop_
 _symmetry_equiv_pos_site_id
 _symmetry_equiv_pos_as_xyz
  1  'x, y, z'
loop_
 _atom_site_type_symbol
 _atom_site_label
 _atom_site_symmetry_multiplicity
 _atom_site_fract_x
 _atom_site_fract_y
 _atom_site_fract_z
 _atom_site_occupancy
  Fe  Fe0  1  0.37342789  0.37597418  0.87400139  1
  Fe  Fe1  1  -0.00297245  0.74914638  0.75502874  1
  Fe  Fe2  1  0.87223833  0.62524521  0.37199252  1
  Fe  Fe3  1  0.12944153  0.87990246  0.37514321  1
  Fe  Fe4  1  0.00492901  0.24701257  0.75316358  1
  Fe  Fe5  1  0.87656452  0.87334866  0.12582627  1
  Fe  Fe6  1  0.74970607  0.25318685  0.24766367  1
  Fe  Fe7  1  0.62338713  0.87393301  0.12348813  1
  Fe  Fe8  1  0.00134182  0.00065401  0.25057289  1
  Fe  Fe9  1  0.62581068  0.62597440  0.62462282  1
  Fe  Fe10  1  0.49939247  0.24987573  0.75039444  1
  Fe  Fe11  1  0.37235004  0.12119011  0.87050660  1
  Fe  Fe12  1  0.87664434  0.37619181  0.87382008  1
  Fe  Fe13  1  0.62767175  0.62301370  0.87497672  1
  Fe  Fe14  1  0.74937346  -0.00080041  0.50145174  1
  Fe  Fe15  1  0.24914671  0.49957795  0.74667973  1
  Fe  Fe16  1  0.25036949  0.25014256  -0.00204072  1
  Fe  Fe17  1  0.49785950  0.50060994  0.49989320  1
  Fe  Fe18  1  0.12473803  0.37381376  0.12564094  1
  Fe  Fe19  1  0.75499603  0.49748118  0.50426271  1
  Fe  Fe20  1  0.25016390  0.50209012  0.00133910  1
  Fe  Fe21  1  0.49807777  0.25062236  0.25359412  1
  Fe  Fe22  1  0.50074141  0.75142685  0.75081735  1
  Fe  Fe23  1  0.74842749  -0.00237760  0.24921589  1
  Fe  Fe24  1  0.12274011  0.62963569  0.12137380  1
  Fe  Fe25  1  0.24470033  0.00136890  0.74248004  1
  Fe  Fe26  1  0.25009952  0.25016665  0.49851076  1
  Fe  Fe27  1  0.75537760  0.74966469  -0.00128408  1
  Fe  Fe28  1  0.50070279  0.50066264  0.25027696  1
  Fe  Fe29  1  0.12483826  0.62508864  0.87660580  1
  Fe  Fe30  1  0.49618243  0.74952291  -0.00188802  1
  Fe  Fe31  1  0.62279904  0.12574339  0.12569809  1
  Fe  Fe32  1  0.62477079  0.37556650  0.37714793  1
  Fe  Fe33  1  0.37256857  0.62618404  0.37465518  1
  Fe  Fe34  1  0.62393896  0.87673924  0.87639164  1
  Fe  Fe35  1  0.24869210  0.75076331  0.24934395  1
  Fe  Fe36  1  0.75005738  0.75163322  0.50017039  1
  Fe  Fe37  1  0.25064767  0.75112329  0.74938005  1
  Fe  Fe38  1  0.37964644  0.87732272  0.62332842  1
  Fe  Fe39  1  0.74916495  0.25093367  0.74799212  1
  Fe  Fe40  1  0.50017122  0.74923867  0.25189170  1
  Fe  Fe41  1  0.12326226  0.37513207  0.62053439  1
  Fe  Fe42  1  0.24702633  0.50122339  0.25153257  1
  Fe  Fe43  1  0.62370580  0.12323003  0.87630747  1
  Fe  Fe44  1  0.49871146  0.50221118  0.00186781  1
  Fe  Fe45  1  0.75103986  0.75091249  0.75168711  1
  Fe  Fe46  1  0.49927570  0.50007902  0.74935646  1
  Fe  Fe47  1  0.87526764  0.12582659  0.12607595  1
  Fe  Fe48  1  0.62570169  0.37689477  0.87530346  1
  Fe  Fe49  1  0.87778821  0.87565215  0.62711148  1
  Fe  Fe50  1  0.87360251  0.12288011  0.37483685  1
  Fe  Fe51  1  0.74753132  -0.00034296  0.74765433  1
  Fe  Fe52  1  0.00177648  0.50164798  0.25124213  1
  Fe  Fe53  1  0.37498390  0.62574476  0.62468943  1
  Fe  Fe54  1  0.37509034  0.37248547  0.62392158  1
  Fe  Fe55  1  0.49833603  -0.00119672  0.25130838  1
  Fe  Fe56  1  0.87662910  0.37551962  0.37386406  1
  Fe  Fe57  1  0.37506935  0.12525739  0.12530064  1
  Fe  Fe58  1  0.12633872  0.12308133  0.12472234  1
  Fe  Fe59  1  0.87939953  0.12369223  0.62547705  1
  Fe  Fe60  1  0.24841798  0.24897483  0.25348600  1
  Fe  Fe61  1  0.75079014  0.25191084  0.00217794  1
  Fe  Fe62  1  0.62237707  0.87429035  0.37758289  1
  Fe  Fe63  1  0.62643499  0.12528672  0.37473500  1
  Fe  Fe64  1  0.62854573  0.62400116  0.37542799  1
  Fe  Fe65  1  0.49805089  0.24937204  -0.00169984  1
  Fe  Fe66  1  0.25189000  -0.00306059  0.00231961  1
  Fe  Fe67  1  0.00367571  0.24684565  0.25303093  1
  Fe  Fe68  1  0.75434528  0.49762905  0.00632013  1
  Fe  Fe69  1  0.87530312  0.12228849  0.87363868  1
  Fe  Fe70  1  0.62115640  0.12542552  0.62305888  1
  Fe  Fe71  1  0.74958655  0.00063054  0.00200986  1
  Fe  Fe72  1  -0.00103090  0.50167469  0.74612453  1
  Fe  Fe73  1  0.00019100  -0.00120110  -0.00081634  1
  Fe  Fe74  1  0.75318518  0.49816861  0.74468248  1
  Fe  Fe75  1  0.00156901  0.24936558  -0.00195448  1
  Fe  Fe76  1  0.25066366  0.75191067  0.50067967  1
  Fe  Fe77  1  0.37116393  0.11961146  0.37884448  1
  Fe  Fe78  1  0.37329434  0.62568737  0.87442232  1
  Fe  Fe79  1  0.12574839  0.37787283  0.87541642  1
  Fe  Fe80  1  0.00067959  0.24785267  0.49546772  1
  Fe  Fe81  1  0.62841396  0.62615342  0.12684234  1
  Fe  Fe82  1  0.87447709  0.87713487  0.37491926  1
  Fe  Fe83  1  0.00208494  0.75176458  0.25212573  1
  Fe  Fe84  1  0.37479346  0.87259473  0.12602090  1
  Fe  Fe85  1  0.75011120  0.25146835  0.50270869  1
  Fe  Fe86  1  0.12376802  0.62642981  0.62149237  1
  Fe  Fe87  1  -0.00035884  0.75076319  0.49649944  1
  Fe  Fe88  1  0.37450034  0.37600107  0.12733379  1
  Fe  Fe89  1  0.12629678  0.87464586  0.87562111  1
  Co  Co90  1  0.49912644  0.74778370  0.49929136  1
  Co  Co91  1  0.87590389  0.63085530  0.62422838  1
  Co  Co92  1  0.12829401  0.11927597  0.37605286  1
  Co  Co93  1  0.12415382  0.87427809  0.12378320  1
  Co  Co94  1  -0.00378116  0.50322584  0.49987012  1
  Co  Co95  1  0.87622029  0.62883699  0.12951286  1
  Co  Co96  1  0.12205456  0.12923773  0.61996980  1
  Co  Co97  1  0.37298303  0.62553956  0.12737696  1
  Co  Co98  1  0.88158935  0.37194230  0.12772638  1
  Co  Co99  1  0.74902365  0.75415023  0.25125160  1
  Co  Co100  1  0.62390296  0.87288657  0.62360596  1
  Co  Co101  1  0.25169688  -0.00044646  0.24678603  1
  Co  Co102  1  0.12427247  0.37730830  0.37758032  1
  Co  Co103  1  0.24675812  -0.00216757  0.50763221  1
  Co  Co104  1  0.12900877  0.12093682  0.87796114  1
  Co  Co105  1  0.75050149  0.49556429  0.24701447  1
  Co  Co106  1  0.50138053  0.00091191  0.49841109  1
  Co  Co107  1  0.24706125  0.24948145  0.74923538  1
  Co  Co108  1  -0.00106277  0.50063426  0.00278664  1
  Co  Co109  1  0.87412038  0.88098191  0.87223640  1
  Co  Co110  1  0.25209630  0.75097980  -0.00089007  1
  Co  Co111  1  0.62133078  0.37524320  0.62416531  1
  Co  Co112  1  0.37377888  0.37706745  0.37403050  1
  Co  Co113  1  0.37271615  0.87526915  0.37630953  1
  Co  Co114  1  0.88117026  0.36959938  0.62563060  1
  Co  Co115  1  0.12704730  0.62582251  0.37887722  1
  Co  Co116  1  0.50271932  -0.00068040  0.74854630  1
  Co  Co117  1  0.49909473  0.24916606  0.49744257  1
  Co  Co118  1  0.00532176  0.00180472  0.74923663  1
  Co  Co119  1  0.37635253  0.12538619  0.62485192  1
  Co  Co120  1  0.62008186  0.37360730  0.12463805  1
  Co  Co121  1  -0.00383904  0.75101010  -0.00443039  1
  Co  Co122  1  0.00165266  -0.00171810  0.50032403  1
  Co  Co123  1  0.25172970  0.50049546  0.50074586  1
  Co  Co124  1  0.49734815  -0.00030186  0.00063580  1
  Co  Co125  1  0.87405471  0.61922021  0.87508386  1
  Co  Co126  1  0.37274598  0.87796781  0.87143808  1
  Co  Co127  1  0.11980370  0.86882572  0.62560920  1
