# generated using pymatgen
data_Fe45Co19
_symmetry_space_group_name_H-M   'P 1'
_cell_length_a   11.41553357
_cell_length_b   11.41547442
_cell_length_c   11.41610253
_cell_angle_alpha   89.99750070
_cell_angle_beta   90.00514425
_cell_angle_gamma   90.00843598
_symmetry_Int_Tables_number   1
_chemical_formula_structural   Fe45Co19
_chemical_formula_sum   'Fe90 Co38'
_cell_volume   1487.67489555
_cell_formula_units_Z   2
loop_
 _symmetry_equiv_pos_site_id
 _symmetry_equiv_pos_as_xyz
  1  'x, y, z'
loop_
 _atom_site_type_symbol
 _atom_site_label
 _atom_site_symmetry_multiplicity
 _atom_site_fract_x
 _atom_site_fract_y
 _atom_site_fract_z
 _atom_site_occupancy
  Fe  Fe0  1  0.50125918  0.74900523  0.24827680  1
  Fe  Fe1  1  0.12544984  0.37437653  0.37469623  1
  Fe  Fe2  1  0.62665915  0.12504813  0.37573915  1
  Fe  Fe3  1  0.37435925  0.87679159  0.12284431  1
  Fe  Fe4  1  0.37678253  0.37403167  0.87627719  1
  Fe  Fe5  1  0.00051322  0.74953822  0.74967638  1
  Fe  Fe6  1  0.50140955  0.74935668  0.50245891  1
  Fe  Fe7  1  0.62550328  0.87567664  0.37550005  1
  Fe  Fe8  1  0.62072770  0.87829541  0.87418625  1
  Fe  Fe9  1  0.49871478  0.24911027  0.49924296  1
  Fe  Fe10  1  0.37595986  0.37344412  0.62623133  1
  Fe  Fe11  1  0.75410201  0.00090364  0.50087488  1
  Fe  Fe12  1  0.50415398  0.50225888  0.25056888  1
  Fe  Fe13  1  0.74897130  0.49992498  -0.00077116  1
  Fe  Fe14  1  0.62512553  0.37564804  0.12319100  1
  Fe  Fe15  1  0.37583451  0.37597993  0.37286069  1
  Fe  Fe16  1  0.50072018  -0.00028064  0.24902089  1
  Fe  Fe17  1  0.62280010  0.62528503  0.87292069  1
  Fe  Fe18  1  0.12367664  0.87334895  0.12413205  1
  Fe  Fe19  1  0.62496997  0.87881653  0.62626460  1
  Fe  Fe20  1  0.24811025  -0.00078069  0.25041475  1
  Fe  Fe21  1  -0.00154042  -0.00046287  0.24994649  1
  Fe  Fe22  1  0.24753676  0.50111861  0.24881731  1
  Fe  Fe23  1  0.12424290  0.12566501  0.87747597  1
  Fe  Fe24  1  0.00196270  0.49827817  0.74945701  1
  Fe  Fe25  1  0.25055514  0.75012455  0.75108672  1
  Fe  Fe26  1  -0.00065160  0.00061536  0.74966539  1
  Fe  Fe27  1  0.37682013  0.12322199  0.87894809  1
  Fe  Fe28  1  0.62446029  0.37465050  0.37641816  1
  Fe  Fe29  1  0.74744528  0.50108008  0.50018606  1
  Fe  Fe30  1  0.62503654  0.12329286  0.87605845  1
  Fe  Fe31  1  0.00122268  0.49953069  0.00101275  1
  Fe  Fe32  1  0.00250123  0.50161309  0.24803442  1
  Fe  Fe33  1  0.37512271  0.87600900  0.62681568  1
  Fe  Fe34  1  0.37644202  0.62609064  0.37525144  1
  Fe  Fe35  1  0.00164789  0.50163555  0.50164640  1
  Fe  Fe36  1  0.74778584  0.75154123  0.74962613  1
  Fe  Fe37  1  0.49894827  0.00195133  0.50094650  1
  Fe  Fe38  1  0.12671861  0.62530627  0.62587517  1
  Fe  Fe39  1  0.87582011  0.12426341  0.12275172  1
  Fe  Fe40  1  -0.00096814  0.74852937  -0.00037724  1
  Fe  Fe41  1  0.87275898  0.62297768  0.12592026  1
  Fe  Fe42  1  0.87426354  0.87634684  0.87457461  1
  Fe  Fe43  1  0.75185207  0.25196304  0.24869129  1
  Fe  Fe44  1  0.74800118  0.25195305  0.74717830  1
  Fe  Fe45  1  0.50230788  0.50025844  -0.00137016  1
  Fe  Fe46  1  0.37898146  0.62310124  0.62775841  1
  Fe  Fe47  1  0.37585568  0.62425259  0.12348356  1
  Fe  Fe48  1  0.25196948  0.25045399  0.24783010  1
  Fe  Fe49  1  0.25271353  0.25049522  0.00298154  1
  Fe  Fe50  1  0.12069674  0.87111611  0.37639756  1
  Fe  Fe51  1  0.74609633  0.49722326  0.74842003  1
  Fe  Fe52  1  0.75158843  0.25054536  0.00079548  1
  Fe  Fe53  1  0.12407456  0.12650532  0.37582385  1
  Fe  Fe54  1  0.24857538  0.50036169  -0.00011250  1
  Fe  Fe55  1  0.87344558  0.12348212  0.87487096  1
  Fe  Fe56  1  0.25056086  0.49888903  0.75169229  1
  Fe  Fe57  1  0.12875668  0.37122949  0.62580496  1
  Fe  Fe58  1  0.75044798  0.74699994  0.25252429  1
  Fe  Fe59  1  0.37826064  0.62672112  0.87303636  1
  Fe  Fe60  1  0.37639943  0.87438659  0.37502653  1
  Fe  Fe61  1  0.12519850  0.37359846  0.87694997  1
  Fe  Fe62  1  0.87554319  0.62342505  0.87294163  1
  Fe  Fe63  1  0.37196146  0.12772013  0.62496029  1
  Fe  Fe64  1  0.25157967  0.49920790  0.49943845  1
  Fe  Fe65  1  0.25073297  0.74992252  -0.00257633  1
  Fe  Fe66  1  0.74838152  0.74992893  -0.00204559  1
  Fe  Fe67  1  -0.00124300  0.24929031  0.50232605  1
  Fe  Fe68  1  0.24937575  0.00098684  0.49872878  1
  Fe  Fe69  1  0.75186010  0.74945448  0.50044942  1
  Fe  Fe70  1  -0.00229476  0.25224711  0.24800035  1
  Fe  Fe71  1  0.25010284  0.74914781  0.50050683  1
  Fe  Fe72  1  0.49873907  0.24971111  0.24734331  1
  Fe  Fe73  1  0.75143447  0.00082212  0.25013313  1
  Fe  Fe74  1  0.50249704  0.25020999  0.75135839  1
  Fe  Fe75  1  0.87469658  0.37769776  0.37474002  1
  Fe  Fe76  1  0.62412916  0.12490691  0.12327397  1
  Fe  Fe77  1  0.25085122  0.00143758  0.75148691  1
  Fe  Fe78  1  0.62598522  0.87392429  0.12425316  1
  Fe  Fe79  1  0.87426196  0.37559761  0.87437595  1
  Fe  Fe80  1  0.12573338  0.87490041  0.87562191  1
  Fe  Fe81  1  0.87451362  0.87454062  0.12471934  1
  Fe  Fe82  1  0.37426414  0.12414955  0.37271554  1
  Fe  Fe83  1  0.12353819  0.87560734  0.62392474  1
  Fe  Fe84  1  0.12369716  0.12578368  0.12228556  1
  Fe  Fe85  1  0.24883101  0.74922221  0.25059421  1
  Fe  Fe86  1  0.75194328  0.24981979  0.50237474  1
  Fe  Fe87  1  -0.00365825  0.00156533  0.50122969  1
  Fe  Fe88  1  0.00029621  0.25034655  0.74966079  1
  Fe  Fe89  1  0.87373520  0.62439665  0.62713485  1
  Co  Co90  1  0.50245337  0.49562917  0.75172056  1
  Co  Co91  1  0.87425399  0.12524851  0.62820787  1
  Co  Co92  1  -0.00104603  -0.00146835  -0.00057489  1
  Co  Co93  1  0.87506798  0.37626548  0.62523203  1
  Co  Co94  1  0.37515424  0.12176389  0.12506044  1
  Co  Co95  1  0.12538272  0.62701348  0.37617257  1
  Co  Co96  1  0.12566461  0.37315326  0.12349890  1
  Co  Co97  1  0.87389654  0.37815142  0.12454181  1
  Co  Co98  1  0.87444661  0.12652523  0.37376774  1
  Co  Co99  1  0.62209456  0.37440391  0.62219140  1
  Co  Co100  1  0.12612809  0.62726696  0.12330272  1
  Co  Co101  1  0.25115770  0.25102481  0.49658637  1
  Co  Co102  1  0.62672369  0.37341525  0.87779585  1
  Co  Co103  1  0.74969534  -0.00098893  0.00055026  1
  Co  Co104  1  0.62357579  0.62375678  0.62677322  1
  Co  Co105  1  0.87536052  0.87442057  0.62709854  1
  Co  Co106  1  0.25015239  0.24907745  0.75408847  1
  Co  Co107  1  0.75027786  -0.00093431  0.75008582  1
  Co  Co108  1  -0.00342923  0.25130943  -0.00089712  1
  Co  Co109  1  0.87608449  0.87403160  0.37386052  1
  Co  Co110  1  -0.00163358  0.74693161  0.24900797  1
  Co  Co111  1  0.50104887  0.75229080  0.74850931  1
  Co  Co112  1  0.87564278  0.62217623  0.37454327  1
  Co  Co113  1  0.37691057  0.37894167  0.12490391  1
  Co  Co114  1  0.50070223  -0.00151277  0.00183551  1
  Co  Co115  1  0.12417754  0.62487497  0.87447655  1
  Co  Co116  1  0.62627482  0.12436437  0.62423274  1
  Co  Co117  1  0.49779857  0.00310072  0.74848291  1
  Co  Co118  1  0.12608882  0.12589006  0.62450191  1
  Co  Co119  1  0.50053205  0.75059623  0.00051036  1
  Co  Co120  1  0.49900594  0.50037463  0.49889159  1
  Co  Co121  1  0.74624039  0.49962250  0.25133354  1
  Co  Co122  1  0.24883573  -0.00056474  -0.00044337  1
  Co  Co123  1  0.37670403  0.87523227  0.87457836  1
  Co  Co124  1  0.49956382  0.25042719  0.00138846  1
  Co  Co125  1  0.62641933  0.62532222  0.12313653  1
  Co  Co126  1  0.62433010  0.62727558  0.37689546  1
  Co  Co127  1  -0.00294227  0.74692574  0.50166865  1
