# generated using pymatgen
data_Fe45Co19
_symmetry_space_group_name_H-M   'P 1'
_cell_length_a   11.41383941
_cell_length_b   11.41434858
_cell_length_c   11.41659272
_cell_angle_alpha   90.00684991
_cell_angle_beta   89.99710001
_cell_angle_gamma   90.00219107
_symmetry_Int_Tables_number   1
_chemical_formula_structural   Fe45Co19
_chemical_formula_sum   'Fe90 Co38'
_cell_volume   1487.37128616
_cell_formula_units_Z   2
loop_
 _symmetry_equiv_pos_site_id
 _symmetry_equiv_pos_as_xyz
  1  'x, y, z'
loop_
 _atom_site_type_symbol
 _atom_site_label
 _atom_site_symmetry_multiplicity
 _atom_site_fract_x
 _atom_site_fract_y
 _atom_site_fract_z
 _atom_site_occupancy
  Fe  Fe0  1  0.87321133  0.62263946  0.62691850  1
  Fe  Fe1  1  0.12342038  0.87484422  0.62400663  1
  Fe  Fe2  1  0.50223578  -0.00183136  0.25223051  1
  Fe  Fe3  1  0.37932154  0.62416573  0.12576440  1
  Fe  Fe4  1  0.74852060  0.74654084  0.00409531  1
  Fe  Fe5  1  0.87511793  0.37997017  0.12732559  1
  Fe  Fe6  1  0.12759239  0.62610646  0.37311215  1
  Fe  Fe7  1  0.74868334  -0.00177217  0.74960726  1
  Fe  Fe8  1  -0.00113607  0.50340242  -0.00066393  1
  Fe  Fe9  1  0.12682527  0.62528985  0.87198457  1
  Fe  Fe10  1  0.74821622  0.74980386  0.24759261  1
  Fe  Fe11  1  0.62546486  0.12392652  0.87302804  1
  Fe  Fe12  1  -0.00081385  0.74805996  -0.00082677  1
  Fe  Fe13  1  0.50056859  0.00003731  -0.00069685  1
  Fe  Fe14  1  0.12924610  0.87804591  0.87577813  1
  Fe  Fe15  1  0.24877261  -0.00047326  0.50127526  1
  Fe  Fe16  1  0.25139610  0.75063010  0.00176906  1
  Fe  Fe17  1  0.50012509  0.50016524  0.75068627  1
  Fe  Fe18  1  0.00001515  0.74736326  0.50057845  1
  Fe  Fe19  1  0.12547675  0.37465070  0.37572178  1
  Fe  Fe20  1  0.62325431  0.37388847  0.87904345  1
  Fe  Fe21  1  0.50169702  0.75148769  0.25056618  1
  Fe  Fe22  1  0.74865603  0.74662429  0.50017795  1
  Fe  Fe23  1  0.12759751  0.12372371  0.87359199  1
  Fe  Fe24  1  0.25248703  0.25214325  0.24937814  1
  Fe  Fe25  1  0.12640209  0.37545496  0.87483148  1
  Fe  Fe26  1  0.25149847  0.25075308  0.50209254  1
  Fe  Fe27  1  0.00071993  0.00016338  0.00042756  1
  Fe  Fe28  1  0.87434372  0.87657628  0.37682175  1
  Fe  Fe29  1  0.50168792  0.50147317  0.49986290  1
  Fe  Fe30  1  0.25267837  0.49891598  0.24921084  1
  Fe  Fe31  1  0.62509202  0.87322353  0.87826399  1
  Fe  Fe32  1  0.12607900  0.62585327  0.12608607  1
  Fe  Fe33  1  0.38173176  0.37575923  0.12172725  1
  Fe  Fe34  1  0.74877273  0.24966026  0.00075036  1
  Fe  Fe35  1  0.12385762  0.87543477  0.37516351  1
  Fe  Fe36  1  0.49788213  -0.00533277  0.74987910  1
  Fe  Fe37  1  0.25249483  0.25205307  0.74799811  1
  Fe  Fe38  1  0.00080448  0.49967148  0.50141165  1
  Fe  Fe39  1  0.74778115  0.74991139  0.74814400  1
  Fe  Fe40  1  -0.00364389  0.25199849  0.49995925  1
  Fe  Fe41  1  0.62191846  0.37081375  0.37439574  1
  Fe  Fe42  1  0.12381851  0.12457732  0.37461191  1
  Fe  Fe43  1  -0.00081141  0.25048281  0.00021265  1
  Fe  Fe44  1  0.87444759  0.87599703  0.12364195  1
  Fe  Fe45  1  0.00024055  0.75090979  0.24899664  1
  Fe  Fe46  1  0.62411330  0.12493264  0.12700152  1
  Fe  Fe47  1  0.62657878  0.37245873  0.62346578  1
  Fe  Fe48  1  0.25330686  0.50023665  -0.00081720  1
  Fe  Fe49  1  0.87370364  0.87481267  0.62284654  1
  Fe  Fe50  1  0.37529498  0.87201099  0.37911307  1
  Fe  Fe51  1  -0.00288028  0.49771037  0.75081826  1
  Fe  Fe52  1  -0.00017845  0.25081429  0.24965041  1
  Fe  Fe53  1  0.87327943  0.12450347  0.87484555  1
  Fe  Fe54  1  0.75024189  0.49801699  0.49597893  1
  Fe  Fe55  1  0.50453284  0.00341063  0.49744987  1
  Fe  Fe56  1  0.12542941  0.12412545  0.12642641  1
  Fe  Fe57  1  0.74631588  0.00388557  0.50016771  1
  Fe  Fe58  1  0.87224562  0.87426368  0.87675443  1
  Fe  Fe59  1  0.62261753  0.87316470  0.62160664  1
  Fe  Fe60  1  0.74828981  0.50299737  0.00290969  1
  Fe  Fe61  1  0.24845599  -0.00260040  0.24960172  1
  Fe  Fe62  1  0.25249511  0.49808299  0.74743657  1
  Fe  Fe63  1  -0.00141999  0.75095739  0.75123152  1
  Fe  Fe64  1  0.37796695  0.62823750  0.62338323  1
  Fe  Fe65  1  0.87503131  0.12367006  0.37444248  1
  Fe  Fe66  1  0.62377327  0.62764681  0.87456388  1
  Fe  Fe67  1  0.25280300  0.24968458  0.00015381  1
  Fe  Fe68  1  0.25382876  0.75439244  0.74616944  1
  Fe  Fe69  1  0.74936008  0.25345396  0.24974723  1
  Fe  Fe70  1  0.37666243  0.62784041  0.87438001  1
  Fe  Fe71  1  0.12403443  0.12689907  0.62546322  1
  Fe  Fe72  1  -0.00131899  0.00011224  0.74871344  1
  Fe  Fe73  1  0.24807888  0.50122443  0.50359306  1
  Fe  Fe74  1  0.37612250  0.87564702  0.12398880  1
  Fe  Fe75  1  0.75013133  0.49763073  0.75280782  1
  Fe  Fe76  1  0.87521890  0.62145104  0.37027627  1
  Fe  Fe77  1  0.37752857  0.12357354  0.62458988  1
  Fe  Fe78  1  0.37397627  0.62731550  0.37583763  1
  Fe  Fe79  1  0.74880876  -0.00154654  0.25041517  1
  Fe  Fe80  1  0.87427719  0.12329163  0.12535368  1
  Fe  Fe81  1  0.87067606  0.12766112  0.62609441  1
  Fe  Fe82  1  0.12589602  0.37581849  0.12382419  1
  Fe  Fe83  1  0.37677753  0.37372451  0.37819940  1
  Fe  Fe84  1  0.37599116  0.12612018  0.37411547  1
  Fe  Fe85  1  0.49916443  0.25173347  0.75026646  1
  Fe  Fe86  1  0.62505905  0.62575457  0.37227464  1
  Fe  Fe87  1  0.37245755  0.12188338  0.87416747  1
  Fe  Fe88  1  -0.00371846  0.25344971  0.75123027  1
  Fe  Fe89  1  0.37623140  0.12426995  0.12673725  1
  Co  Co90  1  0.74978779  0.24903759  0.49641682  1
  Co  Co91  1  0.50042596  0.75078467  0.00092016  1
  Co  Co92  1  0.87065959  0.37531129  0.62397210  1
  Co  Co93  1  0.62478602  0.12794302  0.37045920  1
  Co  Co94  1  0.62677846  0.62168220  0.62608927  1
  Co  Co95  1  0.87542894  0.62289054  0.12951905  1
  Co  Co96  1  0.87741285  0.37760536  0.37140107  1
  Co  Co97  1  0.62730072  0.87372382  0.37616042  1
  Co  Co98  1  0.62549963  0.87685121  0.12371871  1
  Co  Co99  1  0.25123602  0.75139552  0.24851387  1
  Co  Co100  1  0.74910033  0.00201498  -0.00080445  1
  Co  Co101  1  -0.00086612  0.00142141  0.50214133  1
  Co  Co102  1  0.62514731  0.12700975  0.62980302  1
  Co  Co103  1  0.12368245  0.62526707  0.62970494  1
  Co  Co104  1  0.12372994  0.87413999  0.12403650  1
  Co  Co105  1  0.00539880  0.50041105  0.24992869  1
  Co  Co106  1  0.61982770  0.62297922  0.12692073  1
  Co  Co107  1  0.12422226  0.37405767  0.62623739  1
  Co  Co108  1  0.75018039  0.25224388  0.75436562  1
  Co  Co109  1  0.49854115  0.25113497  0.24919351  1
  Co  Co110  1  0.74432969  0.49785421  0.25000189  1
  Co  Co111  1  0.49939835  0.24547299  -0.00206540  1
  Co  Co112  1  0.37791759  0.37566528  0.62265255  1
  Co  Co113  1  0.50032608  0.50259710  -0.00415112  1
  Co  Co114  1  0.87261015  0.62606306  0.87338465  1
  Co  Co115  1  0.37521244  0.37449769  0.87557463  1
  Co  Co116  1  0.50013362  0.75218419  0.75027808  1
  Co  Co117  1  0.49951683  0.49885607  0.25397281  1
  Co  Co118  1  0.50505984  0.74587696  0.49868744  1
  Co  Co119  1  0.24976968  0.00146551  0.00396917  1
  Co  Co120  1  0.37251153  0.87590192  0.87864095  1
  Co  Co121  1  0.62048413  0.37523838  0.12253545  1
  Co  Co122  1  0.25176778  -0.00233150  0.74415610  1
  Co  Co123  1  0.50162570  0.24637487  0.50098778  1
  Co  Co124  1  -0.00029797  -0.00087866  0.24896259  1
  Co  Co125  1  0.87422852  0.37606118  0.88026131  1
  Co  Co126  1  0.24619977  0.74936354  0.50245849  1
  Co  Co127  1  0.37993733  0.87332516  0.61718473  1
