# generated using pymatgen
data_Fe45Co19
_symmetry_space_group_name_H-M   'P 1'
_cell_length_a   11.41461770
_cell_length_b   11.41506991
_cell_length_c   11.41449022
_cell_angle_alpha   90.01012874
_cell_angle_beta   89.99840054
_cell_angle_gamma   89.99886984
_symmetry_Int_Tables_number   1
_chemical_formula_structural   Fe45Co19
_chemical_formula_sum   'Fe90 Co38'
_cell_volume   1487.29274354
_cell_formula_units_Z   2
loop_
 _symmetry_equiv_pos_site_id
 _symmetry_equiv_pos_as_xyz
  1  'x, y, z'
loop_
 _atom_site_type_symbol
 _atom_site_label
 _atom_site_symmetry_multiplicity
 _atom_site_fract_x
 _atom_site_fract_y
 _atom_site_fract_z
 _atom_site_occupancy
  Fe  Fe0  1  0.12330893  0.62494056  0.62578994  1
  Fe  Fe1  1  0.00003676  -0.00249873  0.74867478  1
  Fe  Fe2  1  0.12451936  0.12422274  0.37486290  1
  Fe  Fe3  1  0.74899496  0.24859498  0.49782565  1
  Fe  Fe4  1  0.74932645  0.50077538  -0.00059688  1
  Fe  Fe5  1  0.62341517  0.87619466  0.12316153  1
  Fe  Fe6  1  0.37540299  0.37167209  0.62520790  1
  Fe  Fe7  1  0.75141545  -0.00094764  0.24749400  1
  Fe  Fe8  1  0.62458028  0.62555502  0.12461184  1
  Fe  Fe9  1  0.50022593  0.24842747  0.49768956  1
  Fe  Fe10  1  0.25232245  0.50195451  0.25220308  1
  Fe  Fe11  1  0.12715121  0.12736853  0.12121348  1
  Fe  Fe12  1  0.25010889  0.75016486  0.50056125  1
  Fe  Fe13  1  0.49956761  0.00207494  0.75382837  1
  Fe  Fe14  1  0.49781304  0.50079116  0.25097980  1
  Fe  Fe15  1  0.87713993  0.12392902  0.37388866  1
  Fe  Fe16  1  0.49810083  0.75011473  -0.00113335  1
  Fe  Fe17  1  0.62324602  0.12694553  0.62670610  1
  Fe  Fe18  1  0.25096352  0.50060487  0.74901482  1
  Fe  Fe19  1  0.37216332  0.87562173  0.87756373  1
  Fe  Fe20  1  0.37414833  0.62802399  0.12535718  1
  Fe  Fe21  1  0.24979373  0.50257498  -0.00088441  1
  Fe  Fe22  1  0.75021984  0.24955711  -0.00021709  1
  Fe  Fe23  1  0.25012652  0.74653275  0.75325437  1
  Fe  Fe24  1  0.50001834  0.50256212  -0.00073176  1
  Fe  Fe25  1  0.49994826  -0.00037217  0.50078067  1
  Fe  Fe26  1  0.75008284  0.00057974  0.75011523  1
  Fe  Fe27  1  0.87699853  0.12731552  0.12542968  1
  Fe  Fe28  1  -0.00007241  0.74747914  -0.00291429  1
  Fe  Fe29  1  0.62328777  0.37506230  0.37431511  1
  Fe  Fe30  1  0.37566082  0.12692432  0.37270074  1
  Fe  Fe31  1  0.37034339  0.12753819  0.87923805  1
  Fe  Fe32  1  0.37516220  0.87341555  0.37237010  1
  Fe  Fe33  1  0.75000993  0.75037892  0.24969280  1
  Fe  Fe34  1  0.37587850  0.37554329  0.87415388  1
  Fe  Fe35  1  0.62343811  0.87658708  0.37300975  1
  Fe  Fe36  1  0.00079522  0.25315864  -0.00037421  1
  Fe  Fe37  1  0.37379945  0.12689825  0.62666966  1
  Fe  Fe38  1  0.74816053  0.00085624  0.50009145  1
  Fe  Fe39  1  0.00089714  0.50015574  0.00314493  1
  Fe  Fe40  1  0.24924497  0.74915829  0.25076950  1
  Fe  Fe41  1  0.87540688  0.12388952  0.87510073  1
  Fe  Fe42  1  -0.00106641  -0.00187411  0.00016517  1
  Fe  Fe43  1  0.50664090  0.49936652  0.75072142  1
  Fe  Fe44  1  0.25024619  -0.00069731  0.49894141  1
  Fe  Fe45  1  0.74586706  0.25227423  0.75191641  1
  Fe  Fe46  1  0.00205396  -0.00337904  0.50298494  1
  Fe  Fe47  1  0.62417885  0.37573453  0.12398797  1
  Fe  Fe48  1  0.62322085  0.62510934  0.37489976  1
  Fe  Fe49  1  0.25103216  -0.00107475  0.24590905  1
  Fe  Fe50  1  0.74927413  0.75029248  0.49988918  1
  Fe  Fe51  1  0.49678162  0.00060808  0.24568017  1
  Fe  Fe52  1  0.25017557  0.25011137  0.24970578  1
  Fe  Fe53  1  0.49999926  0.75062631  0.75280771  1
  Fe  Fe54  1  0.75439301  0.74486319  0.75003021  1
  Fe  Fe55  1  0.00146740  0.75450872  0.50411184  1
  Fe  Fe56  1  0.37562268  0.37293576  0.12533880  1
  Fe  Fe57  1  0.00148801  0.25048158  0.75088365  1
  Fe  Fe58  1  0.87500618  0.12545002  0.62515089  1
  Fe  Fe59  1  0.62411573  0.12325944  0.12312312  1
  Fe  Fe60  1  0.12447848  0.87321307  0.87398516  1
  Fe  Fe61  1  0.37279387  0.87594353  0.62722160  1
  Fe  Fe62  1  0.75301277  0.75177833  0.00091897  1
  Fe  Fe63  1  0.12491095  0.37696342  0.12769171  1
  Fe  Fe64  1  0.87248121  0.37814284  0.87509885  1
  Fe  Fe65  1  0.50056125  0.24831894  -0.00138847  1
  Fe  Fe66  1  0.87701983  0.37483344  0.37264606  1
  Fe  Fe67  1  0.75189247  0.50020959  0.24917387  1
  Fe  Fe68  1  0.87196308  0.37594876  0.62601635  1
  Fe  Fe69  1  0.49965118  0.75145089  0.49985980  1
  Fe  Fe70  1  0.12432161  0.62226088  0.37769426  1
  Fe  Fe71  1  0.12533612  0.37721748  0.87330931  1
  Fe  Fe72  1  0.87648033  0.87676870  0.37444176  1
  Fe  Fe73  1  0.62808924  0.87666978  0.87711061  1
  Fe  Fe74  1  0.87620205  0.62427801  0.12494492  1
  Fe  Fe75  1  0.00114279  0.25126643  0.49989122  1
  Fe  Fe76  1  0.24840485  0.00303280  0.75321646  1
  Fe  Fe77  1  0.12775258  0.37469558  0.62401024  1
  Fe  Fe78  1  0.49714887  0.50080264  0.49858615  1
  Fe  Fe79  1  0.37739336  0.62529233  0.62633539  1
  Fe  Fe80  1  0.62549787  0.87371766  0.62696826  1
  Fe  Fe81  1  0.12645097  0.12528345  0.62578701  1
  Fe  Fe82  1  0.87730408  0.62401537  0.37820275  1
  Fe  Fe83  1  0.12649691  0.37661963  0.37516028  1
  Fe  Fe84  1  0.74899712  0.50041162  0.50251066  1
  Fe  Fe85  1  0.12645664  0.87044759  0.12339465  1
  Fe  Fe86  1  0.00199118  -0.00062562  0.24734853  1
  Fe  Fe87  1  -0.00268567  0.50169329  0.74824695  1
  Fe  Fe88  1  0.00073912  0.74761610  0.25103473  1
  Fe  Fe89  1  0.74862488  0.24988082  0.24965083  1
  Co  Co90  1  0.87130154  0.87581579  0.62445741  1
  Co  Co91  1  0.50204704  0.74954185  0.24856151  1
  Co  Co92  1  0.75416295  -0.00093966  0.00316843  1
  Co  Co93  1  0.24896257  0.24897892  0.49976955  1
  Co  Co94  1  0.50048712  0.24853945  0.75414416  1
  Co  Co95  1  0.24726059  0.25563802  -0.00179336  1
  Co  Co96  1  0.62370195  0.12318922  0.37276090  1
  Co  Co97  1  0.25033309  0.74573675  -0.00452606  1
  Co  Co98  1  0.25318649  0.50151557  0.50095340  1
  Co  Co99  1  0.49684960  0.00046487  -0.00105817  1
  Co  Co100  1  0.37185035  0.12846513  0.12163480  1
  Co  Co101  1  0.37448668  0.37192655  0.37507615  1
  Co  Co102  1  0.62318612  0.37273367  0.62227056  1
  Co  Co103  1  0.24903408  -0.00252315  0.00179208  1
  Co  Co104  1  0.00051712  0.49593814  0.50102065  1
  Co  Co105  1  0.12344733  0.12469086  0.87748694  1
  Co  Co106  1  0.13043249  0.87473998  0.62919336  1
  Co  Co107  1  0.37295654  0.87053349  0.12354287  1
  Co  Co108  1  0.87431910  0.37442657  0.12502324  1
  Co  Co109  1  0.74553139  0.50157875  0.74870496  1
  Co  Co110  1  0.37706204  0.62170604  0.87338212  1
  Co  Co111  1  0.50133459  0.25003181  0.24833327  1
  Co  Co112  1  0.62483655  0.37541980  0.87829298  1
  Co  Co113  1  0.87543233  0.62108237  0.87613129  1
  Co  Co114  1  0.24841392  0.25003543  0.75212116  1
  Co  Co115  1  0.37537571  0.62871907  0.37447959  1
  Co  Co116  1  0.87660935  0.62320871  0.62218083  1
  Co  Co117  1  0.12578221  0.87547593  0.37309362  1
  Co  Co118  1  0.12638069  0.62535746  0.12529203  1
  Co  Co119  1  0.87886168  0.87243185  0.12685485  1
  Co  Co120  1  0.12247884  0.62264334  0.87250228  1
  Co  Co121  1  0.62294097  0.62709404  0.62391056  1
  Co  Co122  1  0.00196386  0.25108115  0.24983960  1
  Co  Co123  1  -0.00133789  0.50083601  0.24916077  1
  Co  Co124  1  0.62792583  0.12221946  0.87691673  1
  Co  Co125  1  0.62617827  0.62751431  0.87687090  1
  Co  Co126  1  -0.00322202  0.75103182  0.74848651  1
  Co  Co127  1  0.87436979  0.87605098  0.87403192  1
