# generated using pymatgen
data_Fe45Co19
_symmetry_space_group_name_H-M   'P 1'
_cell_length_a   11.41454994
_cell_length_b   11.41489106
_cell_length_c   11.41682014
_cell_angle_alpha   90.00211175
_cell_angle_beta   90.00560376
_cell_angle_gamma   89.98371369
_symmetry_Int_Tables_number   1
_chemical_formula_structural   Fe45Co19
_chemical_formula_sum   'Fe90 Co38'
_cell_volume   1487.56414869
_cell_formula_units_Z   2
loop_
 _symmetry_equiv_pos_site_id
 _symmetry_equiv_pos_as_xyz
  1  'x, y, z'
loop_
 _atom_site_type_symbol
 _atom_site_label
 _atom_site_symmetry_multiplicity
 _atom_site_fract_x
 _atom_site_fract_y
 _atom_site_fract_z
 _atom_site_occupancy
  Fe  Fe0  1  0.62615174  0.12333850  0.87575651  1
  Fe  Fe1  1  0.75067129  0.49754995  -0.00098220  1
  Fe  Fe2  1  0.12665084  0.62320624  0.37300260  1
  Fe  Fe3  1  0.12558064  0.87452871  0.62557846  1
  Fe  Fe4  1  -0.00180978  0.24957802  -0.00279921  1
  Fe  Fe5  1  0.12441165  0.37197529  0.62378012  1
  Fe  Fe6  1  0.12393604  0.37712384  0.87432111  1
  Fe  Fe7  1  0.24893653  0.00053966  0.00448416  1
  Fe  Fe8  1  0.49871022  0.49979555  0.00256034  1
  Fe  Fe9  1  0.50029645  0.75080526  0.49811007  1
  Fe  Fe10  1  0.12244113  0.12129698  0.87506234  1
  Fe  Fe11  1  0.12343083  0.62197416  0.12846587  1
  Fe  Fe12  1  0.12387316  0.87666965  0.37326648  1
  Fe  Fe13  1  0.37573147  0.12433563  0.87861354  1
  Fe  Fe14  1  0.24988373  0.49767884  0.00264661  1
  Fe  Fe15  1  0.49791403  0.74834670  0.75115762  1
  Fe  Fe16  1  0.24980422  0.00278278  0.24668199  1
  Fe  Fe17  1  0.24774794  0.75039764  0.00129460  1
  Fe  Fe18  1  0.87686089  0.87730656  0.87549188  1
  Fe  Fe19  1  0.62539408  0.62499761  0.87670857  1
  Fe  Fe20  1  0.25080861  0.75163167  0.49915174  1
  Fe  Fe21  1  0.49674616  0.50086615  0.24798102  1
  Fe  Fe22  1  0.00223589  0.00062220  0.50038671  1
  Fe  Fe23  1  0.87531552  0.37379005  0.62405572  1
  Fe  Fe24  1  -0.00293055  0.75041636  0.25348883  1
  Fe  Fe25  1  0.50198288  0.24871607  0.00211480  1
  Fe  Fe26  1  0.37628294  0.87639598  0.87812131  1
  Fe  Fe27  1  0.37788913  0.87700260  0.37004330  1
  Fe  Fe28  1  0.62271980  0.87549933  0.87499824  1
  Fe  Fe29  1  0.74580194  -0.00165787  0.50093246  1
  Fe  Fe30  1  0.25391764  0.49764905  0.74839323  1
  Fe  Fe31  1  0.37226693  0.62518724  0.87636671  1
  Fe  Fe32  1  0.74856780  -0.00064190  0.00053956  1
  Fe  Fe33  1  0.37756808  0.12523186  0.62327795  1
  Fe  Fe34  1  0.00164776  0.74926616  0.75105469  1
  Fe  Fe35  1  0.74652007  0.25084876  0.49752352  1
  Fe  Fe36  1  0.12490273  0.37588866  0.37398976  1
  Fe  Fe37  1  0.25185677  0.74999114  0.24860599  1
  Fe  Fe38  1  0.50259050  0.24696909  0.24937213  1
  Fe  Fe39  1  0.87308208  0.62809494  0.62132063  1
  Fe  Fe40  1  0.62269518  0.87598719  0.37023259  1
  Fe  Fe41  1  0.25018673  0.25011382  0.49931311  1
  Fe  Fe42  1  -0.00204110  0.24901912  0.25210134  1
  Fe  Fe43  1  0.75115209  0.24955717  0.75310852  1
  Fe  Fe44  1  0.12256783  0.87613051  0.12770511  1
  Fe  Fe45  1  0.87464334  0.62491263  0.87633236  1
  Fe  Fe46  1  -0.00018228  0.50130948  0.49922208  1
  Fe  Fe47  1  -0.00026035  0.50173148  0.74964158  1
  Fe  Fe48  1  0.12441223  0.12523463  0.37442620  1
  Fe  Fe49  1  0.62448926  0.62427481  0.62358721  1
  Fe  Fe50  1  0.87090237  0.62982094  0.37890436  1
  Fe  Fe51  1  0.49964782  0.24885892  0.75077088  1
  Fe  Fe52  1  0.87505324  0.62485809  0.12398411  1
  Fe  Fe53  1  0.87515823  0.37401104  0.12403745  1
  Fe  Fe54  1  0.74915773  0.75015198  0.74963219  1
  Fe  Fe55  1  0.87639041  0.87252500  0.62150177  1
  Fe  Fe56  1  0.75090155  -0.00001008  0.25002629  1
  Fe  Fe57  1  0.75020770  0.00020110  0.74892735  1
  Fe  Fe58  1  0.87401819  0.12300202  0.37659061  1
  Fe  Fe59  1  0.62797883  0.37323199  0.12717923  1
  Fe  Fe60  1  0.62130606  0.87527188  0.12787631  1
  Fe  Fe61  1  0.00214481  0.74890924  -0.00117383  1
  Fe  Fe62  1  0.12170053  0.37626490  0.12787585  1
  Fe  Fe63  1  0.87505091  0.12617224  0.62320080  1
  Fe  Fe64  1  0.87348224  0.12587945  0.12324412  1
  Fe  Fe65  1  0.25137142  0.00103315  0.74876868  1
  Fe  Fe66  1  0.12331671  0.87773475  0.87348076  1
  Fe  Fe67  1  0.25094196  0.00067286  0.50020902  1
  Fe  Fe68  1  0.62435315  0.37550745  0.87493261  1
  Fe  Fe69  1  0.75039160  0.50012093  0.74986663  1
  Fe  Fe70  1  -0.00074967  0.24731864  0.75139850  1
  Fe  Fe71  1  0.37656435  0.12443093  0.37434762  1
  Fe  Fe72  1  0.25079337  0.24921767  0.75071185  1
  Fe  Fe73  1  0.62726975  0.62505032  0.37339131  1
  Fe  Fe74  1  0.75257837  0.49959767  0.25101886  1
  Fe  Fe75  1  0.24895689  0.25106615  0.00108082  1
  Fe  Fe76  1  0.87416834  0.37464274  0.37741372  1
  Fe  Fe77  1  0.49986698  0.74824900  0.00453273  1
  Fe  Fe78  1  0.25306467  0.49702456  0.50020260  1
  Fe  Fe79  1  0.12871402  0.62698110  0.62575928  1
  Fe  Fe80  1  0.49668106  0.49950893  0.74922989  1
  Fe  Fe81  1  0.37358158  0.62462131  0.37395051  1
  Fe  Fe82  1  0.49832116  0.49776224  0.49938187  1
  Fe  Fe83  1  0.50350179  0.24940064  0.49733492  1
  Fe  Fe84  1  0.87754749  0.87616681  0.12601212  1
  Fe  Fe85  1  0.74861912  0.75117015  0.00245665  1
  Fe  Fe86  1  0.62090742  0.87682890  0.62743390  1
  Fe  Fe87  1  0.25046387  0.25083711  0.24889929  1
  Fe  Fe88  1  0.37701007  0.87530578  0.62505060  1
  Fe  Fe89  1  0.62501084  0.37492176  0.62507181  1
  Co  Co90  1  0.50163075  0.00205994  0.00314896  1
  Co  Co91  1  0.87543498  0.11989305  0.87609141  1
  Co  Co92  1  0.75137463  0.25119895  -0.00470744  1
  Co  Co93  1  0.37573383  0.37399627  0.87669005  1
  Co  Co94  1  0.87683524  0.37761203  0.87358844  1
  Co  Co95  1  0.00080421  0.50083477  -0.00073417  1
  Co  Co96  1  0.62465624  0.12562692  0.62566372  1
  Co  Co97  1  -0.00052937  0.00234686  0.25060117  1
  Co  Co98  1  0.25159585  0.75272995  0.75123375  1
  Co  Co99  1  0.74306865  0.75408959  0.50082671  1
  Co  Co100  1  0.37621277  0.37191476  0.12573954  1
  Co  Co101  1  0.87457273  0.87542839  0.37791216  1
  Co  Co102  1  0.37385393  0.12660263  0.12390700  1
  Co  Co103  1  -0.00476048  0.50063050  0.25390190  1
  Co  Co104  1  0.12529781  0.12635884  0.62438219  1
  Co  Co105  1  0.00440125  0.74932504  0.49787176  1
  Co  Co106  1  0.37653498  0.37248146  0.37359962  1
  Co  Co107  1  0.62474138  0.37716690  0.37171421  1
  Co  Co108  1  0.37116322  0.62539871  0.12401657  1
  Co  Co109  1  0.75107436  0.75151790  0.24849043  1
  Co  Co110  1  0.49922154  0.74525471  0.24759718  1
  Co  Co111  1  -0.00109600  0.00048211  0.74555446  1
  Co  Co112  1  0.37626628  0.37067843  0.62392510  1
  Co  Co113  1  0.25321901  0.49702396  0.24934167  1
  Co  Co114  1  0.00048334  0.24967078  0.49735546  1
  Co  Co115  1  0.75139982  0.24978724  0.25365743  1
  Co  Co116  1  0.50134685  -0.00028629  0.49898651  1
  Co  Co117  1  0.63064218  0.12737149  0.12466942  1
  Co  Co118  1  0.49936109  0.00550516  0.24613860  1
  Co  Co119  1  0.49826896  0.00224727  0.75199409  1
  Co  Co120  1  0.74968694  0.49774833  0.49989696  1
  Co  Co121  1  0.00138395  0.00072935  0.00317892  1
  Co  Co122  1  0.37428078  0.62679468  0.62375932  1
  Co  Co123  1  0.12811512  0.62272958  0.87345111  1
  Co  Co124  1  0.12280281  0.12824808  0.12536739  1
  Co  Co125  1  0.62592195  0.12217663  0.37373187  1
  Co  Co126  1  0.37627750  0.87539086  0.12652982  1
  Co  Co127  1  0.62832129  0.62264789  0.12582283  1
