# generated using pymatgen
data_Fe45Co19
_symmetry_space_group_name_H-M   'P 1'
_cell_length_a   11.41531327
_cell_length_b   11.41458253
_cell_length_c   11.41597469
_cell_angle_alpha   89.99929611
_cell_angle_beta   89.99412933
_cell_angle_gamma   89.99904964
_symmetry_Int_Tables_number   1
_chemical_formula_structural   Fe45Co19
_chemical_formula_sum   'Fe90 Co38'
_cell_volume   1487.51331422
_cell_formula_units_Z   2
loop_
 _symmetry_equiv_pos_site_id
 _symmetry_equiv_pos_as_xyz
  1  'x, y, z'
loop_
 _atom_site_type_symbol
 _atom_site_label
 _atom_site_symmetry_multiplicity
 _atom_site_fract_x
 _atom_site_fract_y
 _atom_site_fract_z
 _atom_site_occupancy
  Fe  Fe0  1  0.37585267  0.37663831  0.62484591  1
  Fe  Fe1  1  0.74952446  -0.00067380  0.49894364  1
  Fe  Fe2  1  0.62363992  0.62432292  0.87314594  1
  Fe  Fe3  1  0.62148589  0.12604941  0.12523122  1
  Fe  Fe4  1  0.37519471  0.87650364  0.12426760  1
  Fe  Fe5  1  0.25152746  0.24870004  0.75224756  1
  Fe  Fe6  1  0.12640567  0.12516763  0.62459350  1
  Fe  Fe7  1  0.87435383  0.37679878  0.62582511  1
  Fe  Fe8  1  0.74999193  0.74943339  0.00021667  1
  Fe  Fe9  1  0.87415311  0.87375203  0.12526179  1
  Fe  Fe10  1  0.49787328  0.00045094  0.24879316  1
  Fe  Fe11  1  0.87532631  0.12437519  0.87700059  1
  Fe  Fe12  1  0.74748336  0.49972343  -0.00109776  1
  Fe  Fe13  1  0.75029160  0.00113407  0.24953024  1
  Fe  Fe14  1  0.75324655  0.74655345  0.74951874  1
  Fe  Fe15  1  0.00008114  0.24923147  0.75047762  1
  Fe  Fe16  1  0.50040709  0.49867903  0.00041385  1
  Fe  Fe17  1  0.50195469  -0.00215158  0.50092394  1
  Fe  Fe18  1  0.12662852  0.12413489  0.87554355  1
  Fe  Fe19  1  0.37577379  0.12316915  0.88169012  1
  Fe  Fe20  1  0.87810140  0.12470664  0.37383160  1
  Fe  Fe21  1  0.62397838  0.12548680  0.62663699  1
  Fe  Fe22  1  0.12633375  0.62667247  0.62474897  1
  Fe  Fe23  1  0.25250704  0.75181475  0.74761662  1
  Fe  Fe24  1  0.00281314  -0.00232409  0.00252792  1
  Fe  Fe25  1  0.62150932  0.12386225  0.87372938  1
  Fe  Fe26  1  0.62452226  0.87563454  0.62777586  1
  Fe  Fe27  1  0.00083885  0.25157411  0.49866166  1
  Fe  Fe28  1  0.49538975  0.25049290  0.25249104  1
  Fe  Fe29  1  -0.00130989  0.50356527  0.75067949  1
  Fe  Fe30  1  0.00270073  -0.00303590  0.49863916  1
  Fe  Fe31  1  0.12587529  0.37467950  0.62783323  1
  Fe  Fe32  1  0.74806566  0.25252585  0.49987285  1
  Fe  Fe33  1  0.75035859  0.50220946  0.25019567  1
  Fe  Fe34  1  0.37617814  0.87336328  0.37843471  1
  Fe  Fe35  1  0.74613860  0.49846319  0.49992933  1
  Fe  Fe36  1  0.87403232  0.87548337  0.87539187  1
  Fe  Fe37  1  0.87690170  0.37709192  0.87571475  1
  Fe  Fe38  1  0.37419873  0.12300599  0.62128881  1
  Fe  Fe39  1  0.87455229  0.37631812  0.12440105  1
  Fe  Fe40  1  0.12409934  0.12482292  0.37347551  1
  Fe  Fe41  1  0.37677938  0.62083690  0.37976466  1
  Fe  Fe42  1  0.00089372  0.00051503  0.74960543  1
  Fe  Fe43  1  0.00302256  0.75111024  0.49814326  1
  Fe  Fe44  1  0.12790021  0.62330761  0.37563794  1
  Fe  Fe45  1  -0.00105029  0.74543779  0.24873073  1
  Fe  Fe46  1  0.87554929  0.87429920  0.62488136  1
  Fe  Fe47  1  0.00187613  0.50244524  0.24802667  1
  Fe  Fe48  1  -0.00294983  0.74754806  0.75155286  1
  Fe  Fe49  1  0.37416347  0.87884798  0.87523919  1
  Fe  Fe50  1  0.00321621  0.25197951  0.00077412  1
  Fe  Fe51  1  0.37249969  0.62223776  0.12173764  1
  Fe  Fe52  1  0.62170603  0.37632784  0.86874784  1
  Fe  Fe53  1  0.62447500  0.37421436  0.12837422  1
  Fe  Fe54  1  0.24571543  -0.00536490  0.50005172  1
  Fe  Fe55  1  0.74799681  0.74815454  0.49902333  1
  Fe  Fe56  1  0.75199843  0.24850657  0.25038619  1
  Fe  Fe57  1  0.00380865  0.50296310  0.00124082  1
  Fe  Fe58  1  0.37284244  0.37429187  0.12376307  1
  Fe  Fe59  1  0.87597921  0.37601632  0.37324412  1
  Fe  Fe60  1  0.37428725  0.62599325  0.87802083  1
  Fe  Fe61  1  0.37510502  0.62483419  0.62012138  1
  Fe  Fe62  1  0.62390110  0.62141538  0.62840611  1
  Fe  Fe63  1  0.62022891  0.62451200  0.37200425  1
  Fe  Fe64  1  0.25130048  0.50092079  0.75119172  1
  Fe  Fe65  1  0.24962029  0.25435238  0.49633575  1
  Fe  Fe66  1  0.12671090  0.12668876  0.12699426  1
  Fe  Fe67  1  0.62358007  0.62722508  0.12573077  1
  Fe  Fe68  1  0.74643933  -0.00047966  0.00131187  1
  Fe  Fe69  1  0.62308141  0.12609991  0.37474007  1
  Fe  Fe70  1  0.74735265  0.25144013  -0.00150191  1
  Fe  Fe71  1  0.25272879  0.25067298  0.25398402  1
  Fe  Fe72  1  0.49961624  0.75293243  0.00162696  1
  Fe  Fe73  1  0.87616477  0.87465770  0.37360720  1
  Fe  Fe74  1  0.25399471  0.74604623  0.25177724  1
  Fe  Fe75  1  0.87505605  0.12339699  0.62393139  1
  Fe  Fe76  1  0.87648384  0.12599205  0.12364826  1
  Fe  Fe77  1  0.25229700  0.00170996  0.25017795  1
  Fe  Fe78  1  0.75162580  0.74743162  0.25064039  1
  Fe  Fe79  1  0.12744052  0.87432773  0.87447175  1
  Fe  Fe80  1  0.37510789  0.37390181  0.87667565  1
  Fe  Fe81  1  0.12877131  0.37594512  0.12657616  1
  Fe  Fe82  1  0.75082140  0.24971381  0.75003393  1
  Fe  Fe83  1  0.62268144  0.87290507  0.37147789  1
  Fe  Fe84  1  0.49760682  0.75056808  0.74823540  1
  Fe  Fe85  1  0.00195151  0.49959895  0.50040340  1
  Fe  Fe86  1  0.12690594  0.87089054  0.12747089  1
  Fe  Fe87  1  0.12780327  0.62762378  0.87847101  1
  Fe  Fe88  1  0.62455196  0.87624683  0.87246615  1
  Fe  Fe89  1  0.50102577  0.25492130  0.49864963  1
  Co  Co90  1  0.75417371  0.50174221  0.75074031  1
  Co  Co91  1  0.75059546  0.00148545  0.74953015  1
  Co  Co92  1  0.49788508  0.49997421  0.24704561  1
  Co  Co93  1  0.87315651  0.62413280  0.12251884  1
  Co  Co94  1  0.50512747  0.49668672  0.50068649  1
  Co  Co95  1  0.13000142  0.62771919  0.12210955  1
  Co  Co96  1  0.87582985  0.62316722  0.37719539  1
  Co  Co97  1  0.37547443  0.38131549  0.37591494  1
  Co  Co98  1  0.49665650  0.00100125  0.74864274  1
  Co  Co99  1  -0.00056334  0.75054117  0.00095668  1
  Co  Co100  1  0.12417112  0.37631356  0.37362381  1
  Co  Co101  1  0.50245626  0.25321085  0.00021747  1
  Co  Co102  1  0.37541635  0.12755919  0.12130361  1
  Co  Co103  1  0.24915512  0.49779013  -0.00263388  1
  Co  Co104  1  0.37484230  0.87478964  0.62188783  1
  Co  Co105  1  0.62529545  0.87204224  0.12914180  1
  Co  Co106  1  0.12576634  0.87351874  0.36831651  1
  Co  Co107  1  0.25166058  0.00160553  0.74871291  1
  Co  Co108  1  0.12412774  0.37661502  0.87199242  1
  Co  Co109  1  0.49546160  0.24665171  0.74967873  1
  Co  Co110  1  0.37465213  0.12253687  0.37942569  1
  Co  Co111  1  0.24668309  0.25141103  -0.00168522  1
  Co  Co112  1  0.87521684  0.62525050  0.62060342  1
  Co  Co113  1  -0.00002382  -0.00040233  0.24760944  1
  Co  Co114  1  0.87446800  0.62367620  0.87964441  1
  Co  Co115  1  0.50278018  0.74883903  0.50151905  1
  Co  Co116  1  0.25281131  0.75334224  0.00063564  1
  Co  Co117  1  0.24737216  0.75181121  0.49926066  1
  Co  Co118  1  0.49452898  0.74803472  0.24860523  1
  Co  Co119  1  0.25038925  0.50163826  0.25059569  1
  Co  Co120  1  0.62502655  0.37440144  0.36982410  1
  Co  Co121  1  0.24715997  -0.00057421  0.00299974  1
  Co  Co122  1  0.62366678  0.37591159  0.63195919  1
  Co  Co123  1  0.12414999  0.87304322  0.62948721  1
  Co  Co124  1  0.50270100  -0.00337051  0.00258687  1
  Co  Co125  1  0.24748649  0.49779137  0.50164372  1
  Co  Co126  1  0.00046582  0.25208837  0.24898682  1
  Co  Co127  1  0.49412901  0.50214268  0.75086142  1
