# generated using pymatgen
data_Fe45Co19
_symmetry_space_group_name_H-M   'P 1'
_cell_length_a   11.41525137
_cell_length_b   11.41427225
_cell_length_c   11.41541727
_cell_angle_alpha   90.00310587
_cell_angle_beta   89.99810647
_cell_angle_gamma   90.00290076
_symmetry_Int_Tables_number   1
_chemical_formula_structural   Fe45Co19
_chemical_formula_sum   'Fe90 Co38'
_cell_volume   1487.39218665
_cell_formula_units_Z   2
loop_
 _symmetry_equiv_pos_site_id
 _symmetry_equiv_pos_as_xyz
  1  'x, y, z'
loop_
 _atom_site_type_symbol
 _atom_site_label
 _atom_site_symmetry_multiplicity
 _atom_site_fract_x
 _atom_site_fract_y
 _atom_site_fract_z
 _atom_site_occupancy
  Fe  Fe0  1  0.12411608  0.62307678  0.62320783  1
  Fe  Fe1  1  0.49961239  0.74743593  0.74837889  1
  Fe  Fe2  1  0.62658217  0.87511326  0.37506598  1
  Fe  Fe3  1  0.75033080  0.74681034  0.25194329  1
  Fe  Fe4  1  0.75241488  0.00373998  0.25098171  1
  Fe  Fe5  1  0.25183876  0.49760617  0.49590837  1
  Fe  Fe6  1  0.12464548  0.37530318  0.87541581  1
  Fe  Fe7  1  -0.00083587  0.00066495  0.24872031  1
  Fe  Fe8  1  0.37355655  0.87533004  0.12524693  1
  Fe  Fe9  1  0.37541205  0.12678840  0.62603143  1
  Fe  Fe10  1  0.37416638  0.37698650  0.12750522  1
  Fe  Fe11  1  -0.00118307  0.74932145  0.75099053  1
  Fe  Fe12  1  -0.00143674  0.75048948  0.50202265  1
  Fe  Fe13  1  0.62761283  0.87535480  0.12502253  1
  Fe  Fe14  1  0.00158252  0.49922554  0.00072982  1
  Fe  Fe15  1  0.24723529  0.25004008  0.24983113  1
  Fe  Fe16  1  0.50038739  0.74908731  0.25128389  1
  Fe  Fe17  1  0.50455548  0.25721838  0.74652185  1
  Fe  Fe18  1  -0.00152581  0.75050674  -0.00271665  1
  Fe  Fe19  1  0.62780904  0.87547444  0.62670310  1
  Fe  Fe20  1  0.37688051  0.12712772  0.37468768  1
  Fe  Fe21  1  0.24947388  0.74946930  -0.00001235  1
  Fe  Fe22  1  0.49984825  0.74977326  0.00114285  1
  Fe  Fe23  1  -0.00243479  0.49840102  0.49906377  1
  Fe  Fe24  1  0.62585868  0.62494222  0.12644070  1
  Fe  Fe25  1  0.74821127  0.49788261  0.74943490  1
  Fe  Fe26  1  0.49864990  -0.00196452  -0.00192596  1
  Fe  Fe27  1  0.37250373  0.62375805  0.12704271  1
  Fe  Fe28  1  0.12282897  0.12495736  0.37716881  1
  Fe  Fe29  1  0.75263739  0.74789568  -0.00359146  1
  Fe  Fe30  1  0.25038503  0.25131349  -0.00079935  1
  Fe  Fe31  1  0.62155787  0.12804271  0.87527801  1
  Fe  Fe32  1  0.87197161  0.36918108  0.62537292  1
  Fe  Fe33  1  0.37215407  0.87692539  0.62770268  1
  Fe  Fe34  1  0.62520170  0.12492447  0.12521884  1
  Fe  Fe35  1  0.37765388  0.37675854  0.87486044  1
  Fe  Fe36  1  0.49960265  0.74984785  0.49856730  1
  Fe  Fe37  1  0.86955432  0.87653528  0.62948268  1
  Fe  Fe38  1  0.12593517  0.62408384  0.12545392  1
  Fe  Fe39  1  0.37623615  0.62126479  0.62290472  1
  Fe  Fe40  1  0.62466854  0.12600951  0.37520272  1
  Fe  Fe41  1  0.00008392  0.49695094  0.74840669  1
  Fe  Fe42  1  0.62373341  0.62100194  0.87469719  1
  Fe  Fe43  1  0.87485830  0.62467647  0.62721199  1
  Fe  Fe44  1  0.25013388  0.25043925  0.49865112  1
  Fe  Fe45  1  0.25355250  0.00239124  -0.00575063  1
  Fe  Fe46  1  0.12934448  0.87676483  0.62815349  1
  Fe  Fe47  1  0.00100675  0.49952382  0.25200871  1
  Fe  Fe48  1  0.37655130  0.12586173  0.12574455  1
  Fe  Fe49  1  0.62861189  0.37716113  0.37654207  1
  Fe  Fe50  1  0.87379433  0.37241567  0.37468038  1
  Fe  Fe51  1  0.12409928  0.12458721  0.12168889  1
  Fe  Fe52  1  0.24964151  0.74975507  0.50076446  1
  Fe  Fe53  1  0.00360384  0.75156529  0.24917079  1
  Fe  Fe54  1  0.87600688  0.12820129  0.87186657  1
  Fe  Fe55  1  0.24873768  0.00000269  0.25047082  1
  Fe  Fe56  1  0.50026887  0.25499950  0.50092749  1
  Fe  Fe57  1  0.49873596  -0.00016808  0.75101869  1
  Fe  Fe58  1  0.50079616  0.50063831  0.25320359  1
  Fe  Fe59  1  0.12655050  0.37423184  0.62319182  1
  Fe  Fe60  1  0.25040981  0.50101112  0.75105037  1
  Fe  Fe61  1  0.49984868  -0.00039268  0.50044407  1
  Fe  Fe62  1  0.62677147  0.37588186  0.12782178  1
  Fe  Fe63  1  0.24630618  0.49882333  0.25358420  1
  Fe  Fe64  1  0.12547681  0.87548980  0.37732652  1
  Fe  Fe65  1  0.87412362  0.87514893  0.12413266  1
  Fe  Fe66  1  0.50025502  -0.00003638  0.24989575  1
  Fe  Fe67  1  0.62342719  0.61934505  0.62044469  1
  Fe  Fe68  1  -0.00206178  -0.00186913  -0.00178827  1
  Fe  Fe69  1  0.37345894  0.87486679  0.37521344  1
  Fe  Fe70  1  0.87643471  0.62475700  0.12560536  1
  Fe  Fe71  1  -0.00046589  0.00218736  0.74923538  1
  Fe  Fe72  1  0.12353520  0.62397125  0.87414925  1
  Fe  Fe73  1  0.87451065  0.87502802  0.37511733  1
  Fe  Fe74  1  0.12831507  0.87509321  0.87207075  1
  Fe  Fe75  1  0.37684439  0.62273122  0.87611824  1
  Fe  Fe76  1  0.75075978  0.74785997  0.50002984  1
  Fe  Fe77  1  0.50019278  0.25382058  0.00380907  1
  Fe  Fe78  1  0.74955985  0.50012078  0.00171200  1
  Fe  Fe79  1  0.87481051  0.37435668  0.12651538  1
  Fe  Fe80  1  0.75095817  0.00101341  -0.00320401  1
  Fe  Fe81  1  0.62622128  0.87292175  0.87268906  1
  Fe  Fe82  1  0.74964976  0.25061492  0.00010977  1
  Fe  Fe83  1  -0.00325186  0.00118893  0.50272985  1
  Fe  Fe84  1  0.24836589  0.24803119  0.75279716  1
  Fe  Fe85  1  -0.00104617  0.24803027  0.24957474  1
  Fe  Fe86  1  0.12490538  0.12578621  0.62460716  1
  Fe  Fe87  1  0.62843989  0.12507264  0.62432738  1
  Fe  Fe88  1  0.00051467  0.25189102  0.00011824  1
  Fe  Fe89  1  0.87450250  0.37549546  0.87435613  1
  Co  Co90  1  0.75147795  0.50146269  0.25012649  1
  Co  Co91  1  0.25205070  0.00599211  0.75333832  1
  Co  Co92  1  0.50296744  0.25123968  0.24949227  1
  Co  Co93  1  0.24887910  0.49857810  -0.00033911  1
  Co  Co94  1  0.87564055  0.61978839  0.87375912  1
  Co  Co95  1  0.62475849  0.62167553  0.37919015  1
  Co  Co96  1  0.50087800  0.49670294  0.74775872  1
  Co  Co97  1  0.50026085  0.50034023  0.00397766  1
  Co  Co98  1  0.12580410  0.87808969  0.12090637  1
  Co  Co99  1  0.87605033  0.12530750  0.12211992  1
  Co  Co100  1  0.75109975  0.24765680  0.24956467  1
  Co  Co101  1  0.12093284  0.12542762  0.87744445  1
  Co  Co102  1  0.62361364  0.37705312  0.87811123  1
  Co  Co103  1  0.12402464  0.37392736  0.12564533  1
  Co  Co104  1  0.37451415  0.37091421  0.37159147  1
  Co  Co105  1  0.75705751  0.50205266  0.49893753  1
  Co  Co106  1  0.25092317  0.00189357  0.49996637  1
  Co  Co107  1  0.74817532  0.00423376  0.75261566  1
  Co  Co108  1  0.87237699  0.12758970  0.62727417  1
  Co  Co109  1  0.25082729  0.74468490  0.74800556  1
  Co  Co110  1  0.62917220  0.37991494  0.61808308  1
  Co  Co111  1  0.75057671  0.00044347  0.49916498  1
  Co  Co112  1  0.74956876  0.24783738  0.49916639  1
  Co  Co113  1  0.87328009  0.87524914  0.87107383  1
  Co  Co114  1  -0.00090079  0.24917543  0.50173035  1
  Co  Co115  1  0.49395308  0.49471105  0.49676317  1
  Co  Co116  1  0.00211962  0.25119753  0.74890197  1
  Co  Co117  1  0.24665418  0.75227343  0.24975045  1
  Co  Co118  1  0.74573578  0.25242115  0.75149315  1
  Co  Co119  1  0.87626048  0.12606065  0.37788051  1
  Co  Co120  1  0.37348697  0.62696970  0.37418790  1
  Co  Co121  1  0.74851177  0.74438050  0.75016984  1
  Co  Co122  1  0.38172413  0.13111401  0.87384946  1
  Co  Co123  1  0.12360696  0.62580762  0.37771065  1
  Co  Co124  1  0.37430822  0.87150010  0.87190859  1
  Co  Co125  1  0.12247287  0.37291860  0.37716823  1
  Co  Co126  1  0.37095130  0.37451478  0.62716882  1
  Co  Co127  1  0.87806554  0.62695581  0.37360914  1
