# generated using pymatgen
data_Fe45Co19
_symmetry_space_group_name_H-M   'P 1'
_cell_length_a   11.41498369
_cell_length_b   11.41499398
_cell_length_c   11.41470937
_cell_angle_alpha   90.00147895
_cell_angle_beta   89.99527717
_cell_angle_gamma   90.00013631
_symmetry_Int_Tables_number   1
_chemical_formula_structural   Fe45Co19
_chemical_formula_sum   'Fe90 Co38'
_cell_volume   1487.35911255
_cell_formula_units_Z   2
loop_
 _symmetry_equiv_pos_site_id
 _symmetry_equiv_pos_as_xyz
  1  'x, y, z'
loop_
 _atom_site_type_symbol
 _atom_site_label
 _atom_site_symmetry_multiplicity
 _atom_site_fract_x
 _atom_site_fract_y
 _atom_site_fract_z
 _atom_site_occupancy
  Fe  Fe0  1  0.50125134  0.75256999  0.00324755  1
  Fe  Fe1  1  0.12827264  0.87922148  0.62368497  1
  Fe  Fe2  1  0.62603929  0.87657291  0.87490113  1
  Fe  Fe3  1  0.75168508  0.75155365  0.74999052  1
  Fe  Fe4  1  0.62606607  0.62520483  0.62554833  1
  Fe  Fe5  1  0.50119842  0.75269915  0.24590065  1
  Fe  Fe6  1  0.37186079  0.37315926  0.12660546  1
  Fe  Fe7  1  0.87585495  0.37164095  0.37784201  1
  Fe  Fe8  1  0.62415846  0.12320374  0.87256624  1
  Fe  Fe9  1  0.12243671  0.62579425  0.37724068  1
  Fe  Fe10  1  0.62671187  0.12301810  0.62737293  1
  Fe  Fe11  1  0.12536996  0.62423579  0.12592267  1
  Fe  Fe12  1  0.24845736  0.75104016  -0.00111203  1
  Fe  Fe13  1  0.37556305  0.37380682  0.87303444  1
  Fe  Fe14  1  0.49725329  0.24965697  0.50249375  1
  Fe  Fe15  1  0.87803924  0.87576054  0.87511859  1
  Fe  Fe16  1  0.87548222  0.62567525  0.12598500  1
  Fe  Fe17  1  -0.00207679  0.49370054  0.74311377  1
  Fe  Fe18  1  0.49798839  -0.00131486  0.24713144  1
  Fe  Fe19  1  0.12676772  0.61924960  0.62349085  1
  Fe  Fe20  1  0.87695354  0.62443761  0.87294359  1
  Fe  Fe21  1  0.87783316  0.87308040  0.37991231  1
  Fe  Fe22  1  0.00047350  0.75093425  0.74509444  1
  Fe  Fe23  1  0.74827870  0.24938767  0.25187508  1
  Fe  Fe24  1  0.62551352  0.37388093  0.12536706  1
  Fe  Fe25  1  0.87693961  0.37411696  0.12449645  1
  Fe  Fe26  1  0.24785081  0.49801306  0.25202665  1
  Fe  Fe27  1  0.75272809  0.24880615  -0.00181632  1
  Fe  Fe28  1  0.37362804  0.12551085  0.37199765  1
  Fe  Fe29  1  0.62371302  0.62531895  0.37450420  1
  Fe  Fe30  1  0.12666982  0.12467081  0.12514531  1
  Fe  Fe31  1  0.62611489  0.37340525  0.87427467  1
  Fe  Fe32  1  0.12534690  0.37337826  0.38285173  1
  Fe  Fe33  1  0.87647373  0.12515422  0.12659111  1
  Fe  Fe34  1  0.00005125  0.74937437  0.00112544  1
  Fe  Fe35  1  0.50054451  0.49881867  0.75010566  1
  Fe  Fe36  1  0.62127880  0.12458784  0.37376594  1
  Fe  Fe37  1  0.12079453  0.36906890  0.87158163  1
  Fe  Fe38  1  0.49900784  0.75117462  0.50284801  1
  Fe  Fe39  1  0.75214162  0.00037108  0.25399876  1
  Fe  Fe40  1  0.25000560  0.74886897  0.50143996  1
  Fe  Fe41  1  0.12421234  0.87517844  0.37805558  1
  Fe  Fe42  1  0.50043823  0.49929577  0.00075133  1
  Fe  Fe43  1  0.62748182  0.37317235  0.62330999  1
  Fe  Fe44  1  0.37233777  0.12034409  0.62969001  1
  Fe  Fe45  1  0.75233786  0.49831763  0.74925967  1
  Fe  Fe46  1  0.24823662  0.75200785  0.24959297  1
  Fe  Fe47  1  0.00107026  -0.00066024  0.25256442  1
  Fe  Fe48  1  0.37490717  0.37159839  0.37425833  1
  Fe  Fe49  1  0.00142227  0.49891919  0.00038153  1
  Fe  Fe50  1  0.75021026  0.49956578  0.25215764  1
  Fe  Fe51  1  0.12232138  0.62519019  0.87189146  1
  Fe  Fe52  1  0.24795119  0.49866402  -0.00349323  1
  Fe  Fe53  1  0.37518625  0.62532948  0.87452082  1
  Fe  Fe54  1  0.75514177  0.24906469  0.75324172  1
  Fe  Fe55  1  0.87482418  0.87587916  0.12380900  1
  Fe  Fe56  1  0.49850984  0.49842272  0.50043335  1
  Fe  Fe57  1  0.49817782  -0.00026079  0.50244995  1
  Fe  Fe58  1  0.49916014  0.75299313  0.74815104  1
  Fe  Fe59  1  0.50124379  0.49736979  0.24949750  1
  Fe  Fe60  1  0.75181808  0.50270142  0.49921960  1
  Fe  Fe61  1  0.12674744  0.12844582  0.62592019  1
  Fe  Fe62  1  0.37375003  0.62477285  0.12517763  1
  Fe  Fe63  1  0.37266897  0.87800181  0.87326430  1
  Fe  Fe64  1  0.00184326  0.00221386  0.75048427  1
  Fe  Fe65  1  0.74918560  0.24506049  0.49670017  1
  Fe  Fe66  1  0.49824640  0.00019086  0.00092318  1
  Fe  Fe67  1  0.37047458  0.12444617  0.12660836  1
  Fe  Fe68  1  0.49829889  0.24972453  0.74903869  1
  Fe  Fe69  1  0.62583815  0.12404587  0.12606842  1
  Fe  Fe70  1  0.37330330  0.62235765  0.62676142  1
  Fe  Fe71  1  0.87920434  0.62973235  0.37786236  1
  Fe  Fe72  1  0.87369286  0.12256209  0.62299968  1
  Fe  Fe73  1  0.49943568  0.24820517  0.00029787  1
  Fe  Fe74  1  0.37550480  0.62660372  0.37341883  1
  Fe  Fe75  1  0.00346630  0.25150533  0.24968560  1
  Fe  Fe76  1  0.74931607  0.75112136  0.24902841  1
  Fe  Fe77  1  0.00416466  0.00264918  -0.00298590  1
  Fe  Fe78  1  0.24857240  0.24887863  -0.00206952  1
  Fe  Fe79  1  0.12538896  0.12628916  0.37833221  1
  Fe  Fe80  1  0.62447895  0.87616411  0.37667358  1
  Fe  Fe81  1  0.62495708  0.62637171  0.87522506  1
  Fe  Fe82  1  0.87381397  0.87744663  0.62110828  1
  Fe  Fe83  1  0.12676031  0.87656699  0.12407138  1
  Fe  Fe84  1  0.24892816  0.75000230  0.74955887  1
  Fe  Fe85  1  0.74951746  0.50113667  -0.00016376  1
  Fe  Fe86  1  0.62788285  0.87830708  0.62416627  1
  Fe  Fe87  1  0.37310860  0.87553729  0.37610640  1
  Fe  Fe88  1  0.75151631  0.00125074  -0.00223365  1
  Fe  Fe89  1  0.00121861  0.49861921  0.25172650  1
  Co  Co90  1  0.36990883  0.87721392  0.62637923  1
  Co  Co91  1  0.24779963  -0.00082341  0.25262062  1
  Co  Co92  1  0.00106823  0.75219797  0.24794734  1
  Co  Co93  1  0.86948690  0.37185356  0.61890889  1
  Co  Co94  1  0.25074791  0.00236604  0.49916002  1
  Co  Co95  1  0.25312790  0.50041816  0.49696681  1
  Co  Co96  1  0.87914784  0.12403869  0.87585938  1
  Co  Co97  1  -0.00635484  0.25164476  0.74435394  1
  Co  Co98  1  0.87937852  0.12781585  0.37350106  1
  Co  Co99  1  0.75091178  0.74911963  -0.00117832  1
  Co  Co100  1  -0.00319289  0.49951184  0.50249829  1
  Co  Co101  1  0.00042160  0.00234123  0.49991498  1
  Co  Co102  1  0.37596236  0.12346408  0.87353650  1
  Co  Co103  1  0.87763385  0.37611898  0.87766957  1
  Co  Co104  1  0.62499679  0.37387189  0.37840659  1
  Co  Co105  1  0.75044929  0.00298233  0.49609522  1
  Co  Co106  1  0.24800570  0.49786070  0.75392875  1
  Co  Co107  1  0.24517136  0.25093532  0.25130042  1
  Co  Co108  1  0.50011511  -0.00180547  0.74881396  1
  Co  Co109  1  0.62473730  0.62460361  0.12612163  1
  Co  Co110  1  0.74813741  0.74932420  0.50060727  1
  Co  Co111  1  0.12908516  0.37291502  0.62242275  1
  Co  Co112  1  0.75267041  -0.00013669  0.75152809  1
  Co  Co113  1  0.12548775  0.37538625  0.12310744  1
  Co  Co114  1  0.50121266  0.25048595  0.24869678  1
  Co  Co115  1  -0.00065936  0.24856785  0.00254911  1
  Co  Co116  1  0.87464400  0.62664156  0.62503371  1
  Co  Co117  1  0.12315682  0.87214192  0.87374119  1
  Co  Co118  1  0.37040997  0.87744422  0.12402959  1
  Co  Co119  1  -0.00088168  0.24884056  0.50385293  1
  Co  Co120  1  0.25543843  0.24805494  0.50197468  1
  Co  Co121  1  0.37309144  0.37894109  0.62667739  1
  Co  Co122  1  0.62867671  0.87786044  0.12475911  1
  Co  Co123  1  0.25361486  0.25076271  0.74901374  1
  Co  Co124  1  0.12187524  0.13279979  0.87043905  1
  Co  Co125  1  0.24618827  0.00202680  -0.00586224  1
  Co  Co126  1  0.24595059  0.00201398  0.75524842  1
  Co  Co127  1  0.00338257  0.75008811  0.50567004  1
