# generated using pymatgen
data_Fe45Co19
_symmetry_space_group_name_H-M   'P 1'
_cell_length_a   11.41516221
_cell_length_b   11.41654065
_cell_length_c   11.41623305
_cell_angle_alpha   89.99171756
_cell_angle_beta   90.00720438
_cell_angle_gamma   89.99249396
_symmetry_Int_Tables_number   1
_chemical_formula_structural   Fe45Co19
_chemical_formula_sum   'Fe90 Co38'
_cell_volume   1487.78244056
_cell_formula_units_Z   2
loop_
 _symmetry_equiv_pos_site_id
 _symmetry_equiv_pos_as_xyz
  1  'x, y, z'
loop_
 _atom_site_type_symbol
 _atom_site_label
 _atom_site_symmetry_multiplicity
 _atom_site_fract_x
 _atom_site_fract_y
 _atom_site_fract_z
 _atom_site_occupancy
  Fe  Fe0  1  0.25121107  0.25151957  -0.00021199  1
  Fe  Fe1  1  0.87322368  0.87629206  0.12552982  1
  Fe  Fe2  1  0.62153384  0.62873983  0.87229163  1
  Fe  Fe3  1  0.62567708  0.87463354  0.37485144  1
  Fe  Fe4  1  0.74946634  0.24929708  0.00266392  1
  Fe  Fe5  1  0.37533407  0.12506921  0.87400218  1
  Fe  Fe6  1  0.49953544  0.25092997  0.00172195  1
  Fe  Fe7  1  0.75236488  0.24880522  0.74903715  1
  Fe  Fe8  1  0.87820971  0.62393356  0.87696453  1
  Fe  Fe9  1  0.12784052  0.12229248  0.12423748  1
  Fe  Fe10  1  0.75139858  0.74824415  0.74717025  1
  Fe  Fe11  1  0.12477323  0.87145511  0.87607130  1
  Fe  Fe12  1  0.25250315  0.25007310  0.74725600  1
  Fe  Fe13  1  -0.00109659  0.50014185  0.25114773  1
  Fe  Fe14  1  0.87449102  0.12685320  0.37587312  1
  Fe  Fe15  1  0.12537323  0.62382282  0.12431038  1
  Fe  Fe16  1  0.87357785  0.37810368  0.62215225  1
  Fe  Fe17  1  0.37572005  0.37313330  0.37576293  1
  Fe  Fe18  1  0.24856124  0.50310287  0.75266413  1
  Fe  Fe19  1  0.62493806  0.12648856  0.87415685  1
  Fe  Fe20  1  -0.00012026  0.75048574  0.24962926  1
  Fe  Fe21  1  0.50154363  0.75074344  0.50093497  1
  Fe  Fe22  1  0.50419380  0.49553973  0.50021399  1
  Fe  Fe23  1  0.50105515  -0.00106622  -0.00213506  1
  Fe  Fe24  1  0.87376850  0.87457381  0.87613663  1
  Fe  Fe25  1  0.37359928  0.12165762  0.12344585  1
  Fe  Fe26  1  0.62399924  0.12620689  0.62207208  1
  Fe  Fe27  1  -0.00234164  0.25248634  0.75038242  1
  Fe  Fe28  1  0.00203385  -0.00250832  0.00069059  1
  Fe  Fe29  1  0.49664013  0.25063286  0.74478987  1
  Fe  Fe30  1  0.25035352  -0.00035721  0.75020855  1
  Fe  Fe31  1  0.12729796  0.87426460  0.37240956  1
  Fe  Fe32  1  0.12489284  0.12677976  0.87486452  1
  Fe  Fe33  1  -0.00092281  0.24860313  0.24920688  1
  Fe  Fe34  1  0.87307118  0.87487143  0.37621635  1
  Fe  Fe35  1  0.24933951  0.74968298  0.49992779  1
  Fe  Fe36  1  0.74892600  0.50070217  0.00036372  1
  Fe  Fe37  1  0.25516011  0.75020874  0.24854445  1
  Fe  Fe38  1  0.87256750  0.37477628  0.12855720  1
  Fe  Fe39  1  0.62262431  0.87606281  0.12789104  1
  Fe  Fe40  1  0.12905396  0.12554913  0.37693123  1
  Fe  Fe41  1  0.00030704  0.25334963  0.49860482  1
  Fe  Fe42  1  0.49975288  -0.00025245  0.74739351  1
  Fe  Fe43  1  0.62406801  0.87211291  0.87359481  1
  Fe  Fe44  1  0.74747169  0.75013190  0.00155718  1
  Fe  Fe45  1  0.12095118  0.62543338  0.62385212  1
  Fe  Fe46  1  0.74977829  0.00041145  0.74922706  1
  Fe  Fe47  1  0.62400063  0.62454089  0.37485826  1
  Fe  Fe48  1  0.37567433  0.37844580  0.12572316  1
  Fe  Fe49  1  0.12364607  0.37660461  0.87511998  1
  Fe  Fe50  1  0.87491369  0.62304435  0.37832117  1
  Fe  Fe51  1  0.50082903  0.49994262  0.74940952  1
  Fe  Fe52  1  -0.00113154  0.25292797  0.00116571  1
  Fe  Fe53  1  0.25362233  0.74873751  0.00315422  1
  Fe  Fe54  1  0.49533965  0.74826885  0.25002992  1
  Fe  Fe55  1  0.62863814  0.37096650  0.37104328  1
  Fe  Fe56  1  0.12567224  0.37370189  0.37278991  1
  Fe  Fe57  1  0.37733494  0.87187942  0.87593139  1
  Fe  Fe58  1  0.87527405  0.62517780  0.12457343  1
  Fe  Fe59  1  0.62400574  0.37671043  0.12862988  1
  Fe  Fe60  1  0.12346149  0.87328578  0.62512360  1
  Fe  Fe61  1  0.37693147  0.62256293  0.62326593  1
  Fe  Fe62  1  0.25058828  0.74824387  0.74931209  1
  Fe  Fe63  1  0.00164287  -0.00150927  0.49872510  1
  Fe  Fe64  1  0.74995978  0.74778928  0.25124325  1
  Fe  Fe65  1  0.87484154  0.87347540  0.62142085  1
  Fe  Fe66  1  0.87808528  0.62468894  0.61973570  1
  Fe  Fe67  1  0.25393685  0.24727231  0.25081238  1
  Fe  Fe68  1  0.62317935  0.12975880  0.37842698  1
  Fe  Fe69  1  0.37464021  0.87695978  0.62183216  1
  Fe  Fe70  1  0.37477786  0.37608121  0.87336863  1
  Fe  Fe71  1  0.12528795  0.37607430  0.62625477  1
  Fe  Fe72  1  0.74984906  0.00332253  0.25115539  1
  Fe  Fe73  1  0.75043553  0.50254353  0.74853060  1
  Fe  Fe74  1  0.24797240  0.49941650  0.49844391  1
  Fe  Fe75  1  0.12052866  0.62491399  0.87798195  1
  Fe  Fe76  1  0.00154236  0.00041211  0.24944523  1
  Fe  Fe77  1  0.25383657  0.50208782  0.25180067  1
  Fe  Fe78  1  0.62215635  0.62337017  0.12770394  1
  Fe  Fe79  1  0.62365737  0.12336558  0.12536931  1
  Fe  Fe80  1  0.87434661  0.12397916  0.87799531  1
  Fe  Fe81  1  0.49901274  0.50158729  -0.00218169  1
  Fe  Fe82  1  0.12660531  0.12552545  0.62414561  1
  Fe  Fe83  1  0.62756891  0.87471019  0.62287612  1
  Fe  Fe84  1  0.87607840  0.12355831  0.62259033  1
  Fe  Fe85  1  0.12776238  0.37696776  0.12633510  1
  Fe  Fe86  1  0.00059808  -0.00175982  0.75061635  1
  Fe  Fe87  1  0.62640306  0.37337588  0.87285678  1
  Fe  Fe88  1  0.49494048  0.00319384  0.25595476  1
  Fe  Fe89  1  0.12532432  0.62615174  0.37389345  1
  Co  Co90  1  0.37625359  0.62494364  0.37980390  1
  Co  Co91  1  0.49844765  0.49965509  0.25399737  1
  Co  Co92  1  0.37471199  0.87311995  0.37779593  1
  Co  Co93  1  0.25382277  0.00076876  0.25369290  1
  Co  Co94  1  0.25052512  0.25425685  0.50241436  1
  Co  Co95  1  0.00295320  0.49737867  0.49689539  1
  Co  Co96  1  0.87189811  0.37600298  0.87483682  1
  Co  Co97  1  0.49999526  0.74917965  0.00425814  1
  Co  Co98  1  0.00172797  0.75167124  0.49661717  1
  Co  Co99  1  0.49724333  0.24797266  0.24913796  1
  Co  Co100  1  0.50175214  -0.00105804  0.49834280  1
  Co  Co101  1  0.87243920  0.37437837  0.37313335  1
  Co  Co102  1  0.37670418  0.87906224  0.12533743  1
  Co  Co103  1  0.75078226  0.25105905  0.50119121  1
  Co  Co104  1  0.87629329  0.12230848  0.12240022  1
  Co  Co105  1  -0.00155019  0.74958361  0.75008428  1
  Co  Co106  1  0.37664454  0.62084794  0.12558415  1
  Co  Co107  1  0.62864651  0.37404143  0.62960759  1
  Co  Co108  1  -0.00066680  0.75179685  0.00271939  1
  Co  Co109  1  0.49878842  0.75229250  0.74457143  1
  Co  Co110  1  0.49922979  0.25546852  0.50440904  1
  Co  Co111  1  0.37846850  0.62778017  0.87292533  1
  Co  Co112  1  0.25114224  0.50117559  -0.00247489  1
  Co  Co113  1  0.75017882  0.24558024  0.24691045  1
  Co  Co114  1  0.74605375  0.49965262  0.49903640  1
  Co  Co115  1  -0.00108204  0.49660250  0.00268609  1
  Co  Co116  1  0.12765287  0.87577058  0.12667079  1
  Co  Co117  1  0.74914072  0.00161076  0.49831410  1
  Co  Co118  1  0.62259314  0.62504782  0.62543966  1
  Co  Co119  1  0.25021966  -0.00133537  -0.00384507  1
  Co  Co120  1  -0.00063826  0.49985492  0.74947788  1
  Co  Co121  1  0.74642751  -0.00175143  -0.00003633  1
  Co  Co122  1  0.24719748  -0.00227258  0.49923819  1
  Co  Co123  1  0.75045043  0.50247997  0.25155974  1
  Co  Co124  1  0.74806969  0.74785714  0.49902225  1
  Co  Co125  1  0.37383462  0.12763805  0.38327890  1
  Co  Co126  1  0.37251172  0.38110007  0.62609126  1
  Co  Co127  1  0.37366470  0.12211079  0.61992553  1
