# generated using pymatgen
data_Fe45Co19
_symmetry_space_group_name_H-M   'P 1'
_cell_length_a   11.41550577
_cell_length_b   11.41489891
_cell_length_c   11.41448654
_cell_angle_alpha   89.99880286
_cell_angle_beta   90.00630007
_cell_angle_gamma   89.99928966
_symmetry_Int_Tables_number   1
_chemical_formula_structural   Fe45Co19
_chemical_formula_sum   'Fe90 Co38'
_cell_volume   1487.38571113
_cell_formula_units_Z   2
loop_
 _symmetry_equiv_pos_site_id
 _symmetry_equiv_pos_as_xyz
  1  'x, y, z'
loop_
 _atom_site_type_symbol
 _atom_site_label
 _atom_site_symmetry_multiplicity
 _atom_site_fract_x
 _atom_site_fract_y
 _atom_site_fract_z
 _atom_site_occupancy
  Fe  Fe0  1  -0.00103696  -0.00043158  0.24937012  1
  Fe  Fe1  1  0.37498713  0.87363439  0.62648297  1
  Fe  Fe2  1  0.50063883  0.50033503  0.50044882  1
  Fe  Fe3  1  0.49727496  -0.00084739  0.24952304  1
  Fe  Fe4  1  -0.00147911  0.50055727  0.25086521  1
  Fe  Fe5  1  0.87442749  0.87430307  0.12266801  1
  Fe  Fe6  1  0.49954771  0.25052726  0.24862993  1
  Fe  Fe7  1  0.87797787  0.37573271  0.62918393  1
  Fe  Fe8  1  0.49567095  0.00366182  0.74895667  1
  Fe  Fe9  1  0.37334118  0.62444177  0.62469029  1
  Fe  Fe10  1  0.49886446  0.00197700  0.50147905  1
  Fe  Fe11  1  0.37225782  0.86973913  0.87482555  1
  Fe  Fe12  1  0.75035306  -0.00119445  0.24813031  1
  Fe  Fe13  1  0.37695987  0.37387909  0.62643482  1
  Fe  Fe14  1  0.87476555  0.12319235  0.62715966  1
  Fe  Fe15  1  0.24809207  0.25024011  0.00292352  1
  Fe  Fe16  1  0.87726348  0.13022440  0.87791001  1
  Fe  Fe17  1  0.62274750  0.37545882  0.62858063  1
  Fe  Fe18  1  0.25027240  0.74705759  0.24483368  1
  Fe  Fe19  1  0.62426848  0.62242541  0.12234134  1
  Fe  Fe20  1  0.12222893  0.37849801  0.62648898  1
  Fe  Fe21  1  -0.00113208  0.50149275  0.49979283  1
  Fe  Fe22  1  0.00197610  0.00164389  -0.00223904  1
  Fe  Fe23  1  0.25105543  0.00028908  0.00227195  1
  Fe  Fe24  1  0.49662925  -0.00064601  -0.00054344  1
  Fe  Fe25  1  0.62453368  0.37741770  0.12397389  1
  Fe  Fe26  1  0.75240543  -0.00198625  0.75422448  1
  Fe  Fe27  1  0.75019919  0.50019404  0.24993679  1
  Fe  Fe28  1  0.25169137  0.50508431  0.00137563  1
  Fe  Fe29  1  0.12984553  0.87399914  0.87400567  1
  Fe  Fe30  1  0.50210503  0.74992835  0.24962873  1
  Fe  Fe31  1  0.37210953  0.12745685  0.37358156  1
  Fe  Fe32  1  0.12625969  0.12073505  0.62879040  1
  Fe  Fe33  1  0.87639256  0.87125763  0.87472653  1
  Fe  Fe34  1  0.75321187  0.49822258  -0.00331556  1
  Fe  Fe35  1  0.62418717  0.12369559  0.87613534  1
  Fe  Fe36  1  0.87353821  0.87290037  0.37382890  1
  Fe  Fe37  1  0.49940437  0.25354501  -0.00089820  1
  Fe  Fe38  1  0.74559084  0.74898484  0.75269326  1
  Fe  Fe39  1  0.37527064  0.37705796  0.87199203  1
  Fe  Fe40  1  0.49842886  0.74745431  -0.00110859  1
  Fe  Fe41  1  0.87515459  0.37275780  0.12183494  1
  Fe  Fe42  1  0.37256721  0.12707083  0.87629344  1
  Fe  Fe43  1  0.74875423  0.24984813  0.75160195  1
  Fe  Fe44  1  0.62498613  0.12392448  0.12164210  1
  Fe  Fe45  1  0.00503610  0.74693172  0.74908968  1
  Fe  Fe46  1  0.12408514  0.62561216  0.37553071  1
  Fe  Fe47  1  0.24943172  0.50408717  0.74927641  1
  Fe  Fe48  1  0.62742472  0.62606464  0.37615899  1
  Fe  Fe49  1  0.62343850  0.87664986  0.62704182  1
  Fe  Fe50  1  0.00092808  0.24857759  0.50334385  1
  Fe  Fe51  1  0.24886284  0.24935017  0.74982851  1
  Fe  Fe52  1  0.50118407  0.74473594  0.75095965  1
  Fe  Fe53  1  0.62445431  0.37364073  0.37596385  1
  Fe  Fe54  1  0.87353716  0.62773713  0.37515680  1
  Fe  Fe55  1  0.12689553  0.87656603  0.12510980  1
  Fe  Fe56  1  0.75240267  0.50302137  0.75180736  1
  Fe  Fe57  1  0.25133854  -0.00098583  0.50052463  1
  Fe  Fe58  1  0.12496518  0.37880977  0.12597064  1
  Fe  Fe59  1  0.37524858  0.62333199  0.37237596  1
  Fe  Fe60  1  0.37487193  0.37962045  0.12926271  1
  Fe  Fe61  1  -0.00222522  0.50049714  -0.00504003  1
  Fe  Fe62  1  0.00152889  0.24996274  0.24676075  1
  Fe  Fe63  1  0.00450310  0.74947124  -0.00029852  1
  Fe  Fe64  1  0.50069024  0.74974708  0.49986931  1
  Fe  Fe65  1  0.50102442  0.24739755  0.50361085  1
  Fe  Fe66  1  0.62257019  0.37885616  0.87221721  1
  Fe  Fe67  1  0.75031866  0.49842663  0.50091352  1
  Fe  Fe68  1  0.74925355  0.75376137  0.50074297  1
  Fe  Fe69  1  0.87531067  0.62694647  0.12244260  1
  Fe  Fe70  1  0.87543350  0.62788399  0.62464965  1
  Fe  Fe71  1  0.75072141  -0.00291063  0.50111570  1
  Fe  Fe72  1  0.00007533  0.75006243  0.24921736  1
  Fe  Fe73  1  0.87516776  0.12613094  0.37524927  1
  Fe  Fe74  1  0.62615593  0.12390618  0.37544073  1
  Fe  Fe75  1  0.87420455  0.12672380  0.12014488  1
  Fe  Fe76  1  -0.00135979  -0.00289039  0.50032971  1
  Fe  Fe77  1  0.74679755  0.75156404  -0.00145151  1
  Fe  Fe78  1  0.74981416  0.25026616  0.24865090  1
  Fe  Fe79  1  0.62445003  0.87690556  0.12305038  1
  Fe  Fe80  1  0.75030051  0.25035815  0.50235059  1
  Fe  Fe81  1  0.37452767  0.87404452  0.37357600  1
  Fe  Fe82  1  0.24792845  0.25259094  0.49860105  1
  Fe  Fe83  1  0.12467481  0.87693038  0.62713030  1
  Fe  Fe84  1  0.25024836  0.49715378  0.49601345  1
  Fe  Fe85  1  0.24868487  0.74998199  0.50172172  1
  Fe  Fe86  1  0.12311847  0.37646845  0.87331244  1
  Fe  Fe87  1  0.87666870  0.37297344  0.37567066  1
  Fe  Fe88  1  0.12613240  0.12482219  0.37157139  1
  Fe  Fe89  1  0.12699474  0.87447626  0.37313694  1
  Co  Co90  1  0.49605626  0.49829023  -0.00209625  1
  Co  Co91  1  0.25049565  0.74611115  0.00551418  1
  Co  Co92  1  0.00109055  0.75215173  0.50034235  1
  Co  Co93  1  0.24917059  0.25417089  0.24940100  1
  Co  Co94  1  0.37518894  0.12740944  0.12475672  1
  Co  Co95  1  0.00308335  0.24810991  0.74914059  1
  Co  Co96  1  -0.00190312  -0.00030225  0.75430582  1
  Co  Co97  1  0.37879217  0.37369840  0.37473708  1
  Co  Co98  1  0.00606261  0.25028805  0.00096110  1
  Co  Co99  1  0.12759586  0.12428547  0.87390579  1
  Co  Co100  1  0.37824538  0.62137684  0.12770485  1
  Co  Co101  1  0.12509261  0.62185975  0.62149113  1
  Co  Co102  1  0.12798799  0.62615320  0.87661365  1
  Co  Co103  1  0.62805197  0.12246339  0.62692886  1
  Co  Co104  1  0.37583374  0.87295140  0.12381341  1
  Co  Co105  1  0.12682948  0.12300424  0.12736533  1
  Co  Co106  1  -0.00146962  0.50491604  0.75326991  1
  Co  Co107  1  0.87778947  0.37034426  0.87316276  1
  Co  Co108  1  0.37058515  0.12805331  0.62409478  1
  Co  Co109  1  0.62449764  0.87638942  0.37543893  1
  Co  Co110  1  0.75198531  -0.00203279  -0.00313797  1
  Co  Co111  1  0.49851680  0.50500568  0.74883477  1
  Co  Co112  1  0.25370627  -0.00126477  0.24776900  1
  Co  Co113  1  0.24811037  0.49970706  0.25370110  1
  Co  Co114  1  0.24782030  0.74760390  0.74661175  1
  Co  Co115  1  0.62400965  0.62091406  0.87863512  1
  Co  Co116  1  0.62104746  0.87673034  0.87405559  1
  Co  Co117  1  0.37247001  0.62646229  0.87446440  1
  Co  Co118  1  0.87519790  0.63008259  0.87632640  1
  Co  Co119  1  0.25448979  -0.00058866  0.75107255  1
  Co  Co120  1  0.50388962  0.50066815  0.25283883  1
  Co  Co121  1  0.12012060  0.37365039  0.37471073  1
  Co  Co122  1  0.87548660  0.87218856  0.62872249  1
  Co  Co123  1  0.12145448  0.62196066  0.12492330  1
  Co  Co124  1  0.49944341  0.24654903  0.75142119  1
  Co  Co125  1  0.62676425  0.62526157  0.62275452  1
  Co  Co126  1  0.74834128  0.75043098  0.24706527  1
  Co  Co127  1  0.74566181  0.25294640  -0.00187479  1
