# generated using pymatgen
data_Fe45Co19
_symmetry_space_group_name_H-M   'P 1'
_cell_length_a   11.41611369
_cell_length_b   11.41551494
_cell_length_c   11.41462650
_cell_angle_alpha   89.99476823
_cell_angle_beta   90.00864350
_cell_angle_gamma   90.00515792
_symmetry_Int_Tables_number   1
_chemical_formula_structural   Fe45Co19
_chemical_formula_sum   'Fe90 Co38'
_cell_volume   1487.56341616
_cell_formula_units_Z   2
loop_
 _symmetry_equiv_pos_site_id
 _symmetry_equiv_pos_as_xyz
  1  'x, y, z'
loop_
 _atom_site_type_symbol
 _atom_site_label
 _atom_site_symmetry_multiplicity
 _atom_site_fract_x
 _atom_site_fract_y
 _atom_site_fract_z
 _atom_site_occupancy
  Fe  Fe0  1  -0.00023037  0.75299964  0.49988561  1
  Fe  Fe1  1  0.49934786  0.50019076  -0.00419359  1
  Fe  Fe2  1  0.12467421  0.12499530  0.37519123  1
  Fe  Fe3  1  0.87265428  0.37579307  0.12454837  1
  Fe  Fe4  1  0.37340748  0.37642780  0.87147265  1
  Fe  Fe5  1  0.25067278  0.74753583  0.74848365  1
  Fe  Fe6  1  0.37518419  0.87352610  0.37293905  1
  Fe  Fe7  1  0.12554046  0.87455018  0.37120040  1
  Fe  Fe8  1  0.24667574  0.49833451  0.50132627  1
  Fe  Fe9  1  0.62278350  0.12574831  0.62655420  1
  Fe  Fe10  1  0.74854718  0.25102170  0.24906190  1
  Fe  Fe11  1  -0.00149718  0.00038006  0.24849102  1
  Fe  Fe12  1  0.12312898  0.12451198  0.12239393  1
  Fe  Fe13  1  0.75233116  0.00236274  0.75177969  1
  Fe  Fe14  1  0.62469202  0.37526610  0.63069680  1
  Fe  Fe15  1  0.74874577  -0.00151527  0.50006157  1
  Fe  Fe16  1  0.74853799  0.00100507  0.24778163  1
  Fe  Fe17  1  0.87415485  0.87756117  0.11946698  1
  Fe  Fe18  1  0.50129522  0.75187160  0.50049778  1
  Fe  Fe19  1  0.87387161  0.62413147  0.37608486  1
  Fe  Fe20  1  0.50082096  -0.00040777  0.24920087  1
  Fe  Fe21  1  0.25201177  0.00162886  0.75034331  1
  Fe  Fe22  1  0.87484141  0.12562125  0.11965385  1
  Fe  Fe23  1  0.50148403  -0.00022389  -0.00114513  1
  Fe  Fe24  1  0.24825409  -0.00223408  0.00106638  1
  Fe  Fe25  1  0.62798902  0.87314519  0.87589160  1
  Fe  Fe26  1  0.87608390  0.37380804  0.62726850  1
  Fe  Fe27  1  0.25127358  -0.00141552  0.50048922  1
  Fe  Fe28  1  0.74938676  0.74730153  0.24600578  1
  Fe  Fe29  1  0.25093459  0.00103578  0.24802217  1
  Fe  Fe30  1  0.62469423  0.87337374  0.12196764  1
  Fe  Fe31  1  0.37393945  0.87314106  0.87694884  1
  Fe  Fe32  1  0.12836011  0.37786415  0.12926721  1
  Fe  Fe33  1  0.87238631  0.87507981  0.37358259  1
  Fe  Fe34  1  0.75471375  0.74812172  0.75202173  1
  Fe  Fe35  1  0.62713009  0.37474104  0.87069945  1
  Fe  Fe36  1  0.25080195  0.24709242  0.74879098  1
  Fe  Fe37  1  0.62504460  0.87484118  0.62824392  1
  Fe  Fe38  1  0.37551698  0.62305345  0.62508349  1
  Fe  Fe39  1  0.50061442  0.25202092  -0.00073171  1
  Fe  Fe40  1  0.49982165  0.25374834  0.49860477  1
  Fe  Fe41  1  0.87275295  0.37357604  0.87404806  1
  Fe  Fe42  1  0.37658547  0.12515851  0.62439207  1
  Fe  Fe43  1  0.37723363  0.62357609  0.12108436  1
  Fe  Fe44  1  0.12438247  0.12685073  0.87647359  1
  Fe  Fe45  1  0.62647834  0.62396929  0.62605064  1
  Fe  Fe46  1  0.00183471  0.49582022  -0.00121275  1
  Fe  Fe47  1  0.37531315  0.37659667  0.62868385  1
  Fe  Fe48  1  -0.00129335  -0.00042464  0.75358480  1
  Fe  Fe49  1  0.74927503  0.25117263  0.50118958  1
  Fe  Fe50  1  0.24969705  0.74698045  0.24637427  1
  Fe  Fe51  1  0.50049647  0.74920845  0.24827519  1
  Fe  Fe52  1  0.00134398  0.75336461  -0.00130271  1
  Fe  Fe53  1  0.12431243  0.62495913  0.37498081  1
  Fe  Fe54  1  0.37489593  0.62449970  0.37751440  1
  Fe  Fe55  1  0.62478663  0.12873379  0.87522880  1
  Fe  Fe56  1  0.37767814  0.12630381  0.12347530  1
  Fe  Fe57  1  0.87667941  0.62506250  0.62423659  1
  Fe  Fe58  1  0.62401477  0.12686225  0.37373317  1
  Fe  Fe59  1  -0.00202995  0.75103912  0.75265380  1
  Fe  Fe60  1  0.49808847  0.49848878  0.25357766  1
  Fe  Fe61  1  0.12451576  0.87602736  0.62744855  1
  Fe  Fe62  1  0.12634197  0.62405159  0.87702206  1
  Fe  Fe63  1  0.62784371  0.62429353  0.87674954  1
  Fe  Fe64  1  0.50014813  -0.00300209  0.49891031  1
  Fe  Fe65  1  0.12690372  0.37425364  0.87162323  1
  Fe  Fe66  1  0.49766155  0.00108364  0.75255497  1
  Fe  Fe67  1  0.37291125  0.37522228  0.12834205  1
  Fe  Fe68  1  0.87740594  0.12491628  0.62401841  1
  Fe  Fe69  1  0.00348754  0.25205190  0.50047754  1
  Fe  Fe70  1  0.00084311  0.50124596  0.74971874  1
  Fe  Fe71  1  0.24998273  0.75151213  0.50173107  1
  Fe  Fe72  1  0.24712093  0.25150096  0.50079537  1
  Fe  Fe73  1  0.00249821  0.49709805  0.49985317  1
  Fe  Fe74  1  -0.00093373  0.50057207  0.25133517  1
  Fe  Fe75  1  0.37636090  0.12846809  0.37363389  1
  Fe  Fe76  1  0.87529702  0.62199902  0.12006169  1
  Fe  Fe77  1  0.00090947  0.25026917  0.24860731  1
  Fe  Fe78  1  0.87600009  0.12803173  0.88106160  1
  Fe  Fe79  1  0.62561994  0.37855678  0.12638690  1
  Fe  Fe80  1  0.24933470  0.25195444  0.00137785  1
  Fe  Fe81  1  0.50034027  0.49709836  0.49930199  1
  Fe  Fe82  1  -0.00000718  -0.00255352  0.49926564  1
  Fe  Fe83  1  0.49828756  0.74670550  0.75264440  1
  Fe  Fe84  1  0.74936186  0.75217090  0.50031051  1
  Fe  Fe85  1  -0.00097811  0.74923938  0.24726548  1
  Fe  Fe86  1  0.24842617  0.75076841  0.00345672  1
  Fe  Fe87  1  0.62640868  0.62361567  0.37372884  1
  Fe  Fe88  1  0.87457581  0.12712692  0.37524450  1
  Fe  Fe89  1  0.75076055  0.49767826  0.49965853  1
  Co  Co90  1  0.87798591  0.62291589  0.87846579  1
  Co  Co91  1  0.12234212  0.62240325  0.12153465  1
  Co  Co92  1  0.24886343  0.50299832  0.74869238  1
  Co  Co93  1  0.36927897  0.37387670  0.37308087  1
  Co  Co94  1  -0.00073393  0.24764916  0.75088004  1
  Co  Co95  1  0.87465096  0.87549949  0.62587488  1
  Co  Co96  1  0.12357965  0.87580893  0.12772512  1
  Co  Co97  1  0.62237128  0.12700521  0.12552134  1
  Co  Co98  1  0.24863183  0.24564351  0.24842664  1
  Co  Co99  1  0.50045862  0.25314009  0.25035963  1
  Co  Co100  1  0.62266300  0.62048713  0.12491669  1
  Co  Co101  1  0.87110871  0.87615257  0.87936558  1
  Co  Co102  1  0.75203054  0.24704040  0.74939265  1
  Co  Co103  1  0.37670254  0.87479627  0.62719461  1
  Co  Co104  1  0.12404519  0.12285917  0.62596213  1
  Co  Co105  1  0.00303846  -0.00236513  -0.00243561  1
  Co  Co106  1  0.12684994  0.37570405  0.37005389  1
  Co  Co107  1  0.87594304  0.37294422  0.37472396  1
  Co  Co108  1  0.25131770  0.50641621  0.24983153  1
  Co  Co109  1  0.49755578  0.24812376  0.75137499  1
  Co  Co110  1  0.74623620  0.00336965  -0.00044107  1
  Co  Co111  1  0.74711423  0.25188334  0.00084598  1
  Co  Co112  1  0.75021942  0.74587589  0.00137633  1
  Co  Co113  1  0.74916548  0.49970523  -0.00183669  1
  Co  Co114  1  0.00228159  0.25492488  0.00177703  1
  Co  Co115  1  0.49981650  0.50409529  0.75237156  1
  Co  Co116  1  0.62729621  0.37547432  0.37382304  1
  Co  Co117  1  0.37665980  0.87525668  0.12340375  1
  Co  Co118  1  0.12268841  0.62691996  0.62491481  1
  Co  Co119  1  0.75235246  0.50088530  0.25088546  1
  Co  Co120  1  0.75240310  0.50223541  0.75006788  1
  Co  Co121  1  0.12474679  0.37360339  0.62981131  1
  Co  Co122  1  0.50102144  0.74792987  -0.00197861  1
  Co  Co123  1  0.25051515  0.49777962  0.00028457  1
  Co  Co124  1  0.37382789  0.12564466  0.87942183  1
  Co  Co125  1  0.62571568  0.87399267  0.37297238  1
  Co  Co126  1  0.37031632  0.62547536  0.87776039  1
  Co  Co127  1  0.12836387  0.87405944  0.87297131  1
