# generated using pymatgen
data_Fe45Co19
_symmetry_space_group_name_H-M   'P 1'
_cell_length_a   11.41520189
_cell_length_b   11.41542997
_cell_length_c   11.41471948
_cell_angle_alpha   90.00706244
_cell_angle_beta   90.00204088
_cell_angle_gamma   89.99777214
_symmetry_Int_Tables_number   1
_chemical_formula_structural   Fe45Co19
_chemical_formula_sum   'Fe90 Co38'
_cell_volume   1487.44566430
_cell_formula_units_Z   2
loop_
 _symmetry_equiv_pos_site_id
 _symmetry_equiv_pos_as_xyz
  1  'x, y, z'
loop_
 _atom_site_type_symbol
 _atom_site_label
 _atom_site_symmetry_multiplicity
 _atom_site_fract_x
 _atom_site_fract_y
 _atom_site_fract_z
 _atom_site_occupancy
  Fe  Fe0  1  0.87570014  0.37456778  0.37459424  1
  Fe  Fe1  1  0.37616181  0.37630631  0.87624135  1
  Fe  Fe2  1  0.00005534  0.24958289  0.24855206  1
  Fe  Fe3  1  0.37186836  0.37510527  0.12817308  1
  Fe  Fe4  1  0.87401588  0.37839944  0.12588674  1
  Fe  Fe5  1  0.87599110  0.12411449  0.37420911  1
  Fe  Fe6  1  0.12570929  0.12610298  0.87255643  1
  Fe  Fe7  1  0.87411011  0.12469562  0.62725617  1
  Fe  Fe8  1  0.62367206  0.87333720  0.87641380  1
  Fe  Fe9  1  0.50073116  0.75028252  0.50137010  1
  Fe  Fe10  1  0.12704171  0.12554417  0.37502187  1
  Fe  Fe11  1  0.62728313  0.62113192  0.12473161  1
  Fe  Fe12  1  0.37695808  0.87456838  0.87515579  1
  Fe  Fe13  1  0.37082126  0.37074725  0.37301047  1
  Fe  Fe14  1  0.74923252  0.49833925  0.49903786  1
  Fe  Fe15  1  0.87599242  0.37560336  0.62514133  1
  Fe  Fe16  1  -0.00112760  0.74767544  0.74603981  1
  Fe  Fe17  1  0.00044726  0.75189116  0.25125571  1
  Fe  Fe18  1  0.24849536  -0.00110302  0.25059219  1
  Fe  Fe19  1  0.25246805  0.75169858  0.74797447  1
  Fe  Fe20  1  0.49784018  0.25145504  0.74810622  1
  Fe  Fe21  1  0.00067323  0.24743187  0.50255968  1
  Fe  Fe22  1  0.25108353  0.75072843  0.00159923  1
  Fe  Fe23  1  0.74651748  0.75009685  0.25041808  1
  Fe  Fe24  1  0.74938371  0.75103515  0.50027455  1
  Fe  Fe25  1  0.75114605  0.74847698  0.00061260  1
  Fe  Fe26  1  0.25029713  -0.00030821  -0.00114148  1
  Fe  Fe27  1  0.12657595  0.62582793  0.87429576  1
  Fe  Fe28  1  0.49603131  0.24771511  0.49986830  1
  Fe  Fe29  1  0.50115848  0.49868918  0.74834278  1
  Fe  Fe30  1  0.37841344  0.87759456  0.62631328  1
  Fe  Fe31  1  0.74889347  -0.00024146  0.75227436  1
  Fe  Fe32  1  0.75040502  0.00108268  -0.00412843  1
  Fe  Fe33  1  -0.00252354  0.50224559  0.00011368  1
  Fe  Fe34  1  0.87480141  0.87677296  0.12476553  1
  Fe  Fe35  1  0.37459138  0.62371776  0.62480758  1
  Fe  Fe36  1  0.12228560  0.37385445  0.87402666  1
  Fe  Fe37  1  0.24930729  0.49897559  0.00109449  1
  Fe  Fe38  1  0.50155067  0.49916895  0.25127703  1
  Fe  Fe39  1  0.37248095  0.62470460  0.12851172  1
  Fe  Fe40  1  0.25281732  0.00119833  0.50023836  1
  Fe  Fe41  1  0.50079762  0.49733063  0.49820678  1
  Fe  Fe42  1  0.87295851  0.62503891  0.37405224  1
  Fe  Fe43  1  0.50063626  0.00137016  0.00046677  1
  Fe  Fe44  1  0.37495387  0.62407927  0.87471228  1
  Fe  Fe45  1  0.74804341  0.49745934  0.75046328  1
  Fe  Fe46  1  0.24956269  0.49945263  0.50023677  1
  Fe  Fe47  1  0.12322769  0.87662156  0.12361990  1
  Fe  Fe48  1  0.00131476  0.50051474  0.25121168  1
  Fe  Fe49  1  0.49880922  0.25010793  0.00203106  1
  Fe  Fe50  1  0.75230135  0.24974897  -0.00220615  1
  Fe  Fe51  1  0.62373452  0.37524461  0.87799261  1
  Fe  Fe52  1  0.12606674  0.37226851  0.37661982  1
  Fe  Fe53  1  0.00100259  0.50180225  0.74610561  1
  Fe  Fe54  1  0.37818649  0.87548086  0.12823992  1
  Fe  Fe55  1  0.62787795  0.37576694  0.12536189  1
  Fe  Fe56  1  0.87550700  0.87585236  0.62360816  1
  Fe  Fe57  1  0.74764974  0.75123134  0.74859850  1
  Fe  Fe58  1  0.75154875  0.24940748  0.49986032  1
  Fe  Fe59  1  0.62288672  0.62351206  0.87619176  1
  Fe  Fe60  1  0.37563297  0.12474875  0.12977983  1
  Fe  Fe61  1  0.24894464  0.49686693  0.74760896  1
  Fe  Fe62  1  0.00022045  -0.00015418  0.75040179  1
  Fe  Fe63  1  0.87663925  0.87695003  0.37728586  1
  Fe  Fe64  1  0.62515613  0.62424570  0.62303596  1
  Fe  Fe65  1  0.87640987  0.12132225  0.12441591  1
  Fe  Fe66  1  0.12937782  0.12703054  0.62832253  1
  Fe  Fe67  1  0.74685235  0.00053307  0.25244632  1
  Fe  Fe68  1  0.50226112  -0.00021741  0.75113904  1
  Fe  Fe69  1  0.50058814  0.00380673  0.49601795  1
  Fe  Fe70  1  0.24965755  0.25041546  0.00086029  1
  Fe  Fe71  1  0.12365698  0.87195933  0.62108947  1
  Fe  Fe72  1  0.62697930  0.37092451  0.37385956  1
  Fe  Fe73  1  0.75079059  0.25097962  0.75258217  1
  Fe  Fe74  1  0.12755549  0.62904817  0.37732790  1
  Fe  Fe75  1  -0.00218288  0.25005473  -0.00046818  1
  Fe  Fe76  1  0.37332323  0.12477332  0.87204653  1
  Fe  Fe77  1  0.12296914  0.87424892  0.37993544  1
  Fe  Fe78  1  0.12563043  0.62475314  0.12623113  1
  Fe  Fe79  1  0.12262712  0.12286573  0.12349559  1
  Fe  Fe80  1  -0.00251729  0.74933316  0.00088627  1
  Fe  Fe81  1  0.87423175  0.62507478  0.87293850  1
  Fe  Fe82  1  0.74728401  0.00101576  0.49870297  1
  Fe  Fe83  1  0.12360629  0.87320062  0.87547356  1
  Fe  Fe84  1  0.37905869  0.87389677  0.37067959  1
  Fe  Fe85  1  0.49966416  0.74789988  0.00213522  1
  Fe  Fe86  1  0.37512608  0.62781057  0.37227322  1
  Fe  Fe87  1  0.62414529  0.12622647  0.62529872  1
  Fe  Fe88  1  0.62508001  0.12610475  0.12645420  1
  Fe  Fe89  1  0.00056376  0.50385370  0.50240754  1
  Co  Co90  1  -0.00056415  -0.00122427  -0.00449706  1
  Co  Co91  1  0.50042263  0.74861571  0.74919889  1
  Co  Co92  1  0.87709355  0.37655548  0.87381404  1
  Co  Co93  1  0.00113583  -0.00060033  0.25252132  1
  Co  Co94  1  0.50112315  0.25232524  0.24960061  1
  Co  Co95  1  0.62236322  0.12712679  0.87473633  1
  Co  Co96  1  0.24832792  -0.00494718  0.75008351  1
  Co  Co97  1  0.00077394  0.00459539  0.50270596  1
  Co  Co98  1  0.24740194  0.75301278  0.25007214  1
  Co  Co99  1  -0.00420383  0.74552618  0.50096270  1
  Co  Co100  1  0.25555534  0.75313175  0.50070293  1
  Co  Co101  1  0.62570035  0.12976061  0.37446007  1
  Co  Co102  1  0.50483902  0.00159525  0.25206348  1
  Co  Co103  1  0.86947929  0.62332161  0.62509701  1
  Co  Co104  1  -0.00160009  0.24974916  0.74849715  1
  Co  Co105  1  0.37450634  0.12222908  0.62895136  1
  Co  Co106  1  0.25325256  0.25493672  0.74955186  1
  Co  Co107  1  0.62354014  0.87687606  0.62398145  1
  Co  Co108  1  0.24498598  0.24910012  0.24678792  1
  Co  Co109  1  0.50547884  0.74766598  0.24711982  1
  Co  Co110  1  0.87492552  0.62483294  0.12832455  1
  Co  Co111  1  0.62463361  0.62539758  0.37815671  1
  Co  Co112  1  0.87754277  0.12442892  0.87407167  1
  Co  Co113  1  0.75367426  0.24922062  0.24874699  1
  Co  Co114  1  0.13004950  0.62748986  0.62266061  1
  Co  Co115  1  0.62295162  0.87334723  0.37596395  1
  Co  Co116  1  0.49821007  0.50012308  0.00299606  1
  Co  Co117  1  0.37311527  0.12712048  0.36964200  1
  Co  Co118  1  0.87504189  0.87319706  0.87414336  1
  Co  Co119  1  0.75273052  0.50060104  -0.00204591  1
  Co  Co120  1  0.12341803  0.37695492  0.12394210  1
  Co  Co121  1  0.62497914  0.37236791  0.62308790  1
  Co  Co122  1  0.12393736  0.37367720  0.62335343  1
  Co  Co123  1  0.24780959  0.49983731  0.25195262  1
  Co  Co124  1  0.25234698  0.24751514  0.50341107  1
  Co  Co125  1  0.62583537  0.87726207  0.12286859  1
  Co  Co126  1  0.37492221  0.37657226  0.62197504  1
  Co  Co127  1  0.74850851  0.50002658  0.25285654  1
