# generated using pymatgen
data_Fe45Co19
_symmetry_space_group_name_H-M   'P 1'
_cell_length_a   11.41646643
_cell_length_b   11.41467693
_cell_length_c   11.41571318
_cell_angle_alpha   89.99442227
_cell_angle_beta   89.99977182
_cell_angle_gamma   90.00866166
_symmetry_Int_Tables_number   1
_chemical_formula_structural   Fe45Co19
_chemical_formula_sum   'Fe90 Co38'
_cell_volume   1487.64178933
_cell_formula_units_Z   2
loop_
 _symmetry_equiv_pos_site_id
 _symmetry_equiv_pos_as_xyz
  1  'x, y, z'
loop_
 _atom_site_type_symbol
 _atom_site_label
 _atom_site_symmetry_multiplicity
 _atom_site_fract_x
 _atom_site_fract_y
 _atom_site_fract_z
 _atom_site_occupancy
  Fe  Fe0  1  0.37625976  0.37746298  0.87707706  1
  Fe  Fe1  1  0.87422097  0.12336460  0.87584091  1
  Fe  Fe2  1  0.00051739  0.25030643  0.75032881  1
  Fe  Fe3  1  0.12809368  0.87307316  0.12199311  1
  Fe  Fe4  1  0.75021573  0.25052225  0.00121129  1
  Fe  Fe5  1  0.37380492  0.62251443  0.63070653  1
  Fe  Fe6  1  0.62122075  0.37706230  0.87901031  1
  Fe  Fe7  1  0.25084363  0.00046228  0.75155895  1
  Fe  Fe8  1  0.37494888  0.12626528  0.62698562  1
  Fe  Fe9  1  -0.00066925  0.25441757  0.25089091  1
  Fe  Fe10  1  0.12943521  0.62680148  0.86949329  1
  Fe  Fe11  1  0.12739006  0.62449099  0.37283422  1
  Fe  Fe12  1  0.75228402  0.25636783  0.25047871  1
  Fe  Fe13  1  0.00078933  0.00257241  0.49924214  1
  Fe  Fe14  1  0.37539068  0.37713832  0.37933481  1
  Fe  Fe15  1  0.75103523  -0.00107575  0.49859519  1
  Fe  Fe16  1  0.49768094  0.24872664  0.00379239  1
  Fe  Fe17  1  0.87503734  0.37560443  0.62283268  1
  Fe  Fe18  1  0.87492472  0.12658407  0.62485929  1
  Fe  Fe19  1  0.87688051  0.12606240  0.37473100  1
  Fe  Fe20  1  0.62481273  0.12576949  0.62579772  1
  Fe  Fe21  1  0.87494136  0.62201823  0.37277872  1
  Fe  Fe22  1  0.62344674  0.87574594  0.87570267  1
  Fe  Fe23  1  0.12247015  0.87070455  0.62491379  1
  Fe  Fe24  1  0.74909744  0.49900777  0.00262426  1
  Fe  Fe25  1  0.12586173  0.37417843  0.87551919  1
  Fe  Fe26  1  0.74968319  -0.00182381  0.75021747  1
  Fe  Fe27  1  0.62286095  0.12446894  0.87387426  1
  Fe  Fe28  1  0.62125174  0.37627005  0.37706091  1
  Fe  Fe29  1  0.00214256  0.50444654  0.50302155  1
  Fe  Fe30  1  0.75135250  0.75016139  0.49716065  1
  Fe  Fe31  1  0.62415761  0.12558241  0.12774210  1
  Fe  Fe32  1  0.62369097  0.87432887  0.62284279  1
  Fe  Fe33  1  0.25145463  0.24555050  -0.00259673  1
  Fe  Fe34  1  0.37446086  0.37607152  0.62077276  1
  Fe  Fe35  1  0.12766802  0.37644633  0.12322416  1
  Fe  Fe36  1  0.49795072  0.49831468  0.24635620  1
  Fe  Fe37  1  0.12640087  0.12788736  0.62724898  1
  Fe  Fe38  1  0.87688595  0.37674943  0.87604911  1
  Fe  Fe39  1  0.37109643  0.62882048  0.12850279  1
  Fe  Fe40  1  0.25043806  0.74738411  0.50119449  1
  Fe  Fe41  1  0.37624550  0.87599457  0.62393608  1
  Fe  Fe42  1  0.12816604  0.62551825  0.12827128  1
  Fe  Fe43  1  0.87402570  0.12532770  0.12518428  1
  Fe  Fe44  1  0.12541073  0.37625506  0.37900733  1
  Fe  Fe45  1  0.87468598  0.62162805  0.12775248  1
  Fe  Fe46  1  0.00048536  0.75026313  0.25057381  1
  Fe  Fe47  1  0.12826721  0.37374026  0.62274631  1
  Fe  Fe48  1  0.62165758  0.62189656  0.87372457  1
  Fe  Fe49  1  0.24843765  0.00281764  0.49950327  1
  Fe  Fe50  1  0.12780624  0.12478947  0.12710864  1
  Fe  Fe51  1  0.62342997  0.87384032  0.12386410  1
  Fe  Fe52  1  0.00010088  0.00051204  -0.00039581  1
  Fe  Fe53  1  0.87366838  0.62327167  0.87323401  1
  Fe  Fe54  1  0.74959136  0.75248390  0.25168502  1
  Fe  Fe55  1  0.50089780  0.00193822  0.49924992  1
  Fe  Fe56  1  0.25038501  0.25247510  0.25243810  1
  Fe  Fe57  1  0.00058339  -0.00139366  0.24980916  1
  Fe  Fe58  1  0.62495190  0.62446589  0.62688556  1
  Fe  Fe59  1  0.37457435  0.62605565  0.37173467  1
  Fe  Fe60  1  0.87800107  0.87059851  0.62380419  1
  Fe  Fe61  1  0.49923623  0.74741772  0.50061858  1
  Fe  Fe62  1  0.49807302  0.00231480  0.00129144  1
  Fe  Fe63  1  0.75048094  0.74974290  -0.00109013  1
  Fe  Fe64  1  0.12432731  0.87363142  0.37807265  1
  Fe  Fe65  1  0.74784568  0.50037774  0.49952483  1
  Fe  Fe66  1  0.74997119  -0.00310049  0.25114893  1
  Fe  Fe67  1  0.62519347  0.62447721  0.12748974  1
  Fe  Fe68  1  0.74766035  0.49742248  0.74843320  1
  Fe  Fe69  1  0.62312310  0.62534851  0.37187898  1
  Fe  Fe70  1  0.87445742  0.87438974  0.12321486  1
  Fe  Fe71  1  0.25183801  -0.00522328  0.25086766  1
  Fe  Fe72  1  0.49697563  -0.00610781  0.25068169  1
  Fe  Fe73  1  -0.00020355  0.74834310  -0.00170210  1
  Fe  Fe74  1  0.74922301  0.25084059  0.49884774  1
  Fe  Fe75  1  -0.00042441  -0.00065446  0.75123405  1
  Fe  Fe76  1  0.74848546  0.25278324  0.75040201  1
  Fe  Fe77  1  0.49730152  0.74582922  -0.00114164  1
  Fe  Fe78  1  0.00187655  0.50216463  0.74728942  1
  Fe  Fe79  1  0.37658724  0.87338636  0.87453313  1
  Fe  Fe80  1  0.75026061  0.75116752  0.75164270  1
  Fe  Fe81  1  0.37401424  0.12401191  0.37385191  1
  Fe  Fe82  1  0.62427941  0.12498666  0.37335521  1
  Fe  Fe83  1  0.00265092  0.50269869  0.00055748  1
  Fe  Fe84  1  0.12509475  0.87323721  0.87438547  1
  Fe  Fe85  1  0.25216467  0.50390869  -0.00103138  1
  Fe  Fe86  1  0.00068099  0.24888710  0.00066705  1
  Fe  Fe87  1  0.50031500  0.25383162  0.74734238  1
  Fe  Fe88  1  0.49695641  0.25280558  0.24898579  1
  Fe  Fe89  1  0.25283907  0.00268920  -0.00196054  1
  Co  Co90  1  0.62385844  0.37555568  0.62007840  1
  Co  Co91  1  0.37330968  0.12442920  0.12910681  1
  Co  Co92  1  0.37372215  0.87177718  0.12101533  1
  Co  Co93  1  0.87493183  0.87595149  0.87616288  1
  Co  Co94  1  0.62275648  0.87407025  0.37801963  1
  Co  Co95  1  0.74763510  0.00069618  0.00105989  1
  Co  Co96  1  0.25035183  0.24691522  0.49845115  1
  Co  Co97  1  0.62366573  0.37535790  0.12312732  1
  Co  Co98  1  0.12771095  0.62831215  0.62883303  1
  Co  Co99  1  0.50053539  -0.00141427  0.74842213  1
  Co  Co100  1  0.50099950  0.75065467  0.74901764  1
  Co  Co101  1  0.25117454  0.49710048  0.25089927  1
  Co  Co102  1  0.50108989  0.49661682  0.74774300  1
  Co  Co103  1  0.87687723  0.37839223  0.12174594  1
  Co  Co104  1  0.25013786  0.50369080  0.50038907  1
  Co  Co105  1  0.37465647  0.87332679  0.38066178  1
  Co  Co106  1  0.25259055  0.75375159  0.74869011  1
  Co  Co107  1  0.49956848  0.24629750  0.49996517  1
  Co  Co108  1  -0.00175488  0.74728760  0.75277219  1
  Co  Co109  1  0.37871025  0.12647764  0.87137728  1
  Co  Co110  1  0.24934964  0.75483688  0.25196361  1
  Co  Co111  1  0.24948059  0.49597942  0.74951969  1
  Co  Co112  1  0.74871041  0.49538249  0.25044954  1
  Co  Co113  1  0.37051996  0.37440263  0.12189180  1
  Co  Co114  1  0.00050401  0.74470888  0.49799542  1
  Co  Co115  1  0.87732863  0.37858980  0.38037098  1
  Co  Co116  1  0.12459438  0.12507549  0.87342627  1
  Co  Co117  1  0.87219047  0.62566655  0.62555899  1
  Co  Co118  1  0.49584169  0.50444424  0.00498245  1
  Co  Co119  1  0.00215397  0.49740104  0.24989283  1
  Co  Co120  1  0.49958373  0.50442161  0.50030843  1
  Co  Co121  1  0.37541407  0.62335714  0.86890928  1
  Co  Co122  1  0.49891903  0.75339719  0.25023750  1
  Co  Co123  1  0.12516011  0.12475404  0.37146756  1
  Co  Co124  1  0.25104074  0.74677846  -0.00281270  1
  Co  Co125  1  0.25180812  0.25169115  0.75111101  1
  Co  Co126  1  0.87796519  0.87483217  0.37596820  1
  Co  Co127  1  0.00182177  0.24814035  0.49990801  1
