# generated using pymatgen
data_Fe45Co19
_symmetry_space_group_name_H-M   'P 1'
_cell_length_a   11.41652779
_cell_length_b   11.41544287
_cell_length_c   11.41601184
_cell_angle_alpha   90.01082169
_cell_angle_beta   90.00069401
_cell_angle_gamma   89.99291697
_symmetry_Int_Tables_number   1
_chemical_formula_structural   Fe45Co19
_chemical_formula_sum   'Fe90 Co38'
_cell_volume   1487.78851635
_cell_formula_units_Z   2
loop_
 _symmetry_equiv_pos_site_id
 _symmetry_equiv_pos_as_xyz
  1  'x, y, z'
loop_
 _atom_site_type_symbol
 _atom_site_label
 _atom_site_symmetry_multiplicity
 _atom_site_fract_x
 _atom_site_fract_y
 _atom_site_fract_z
 _atom_site_occupancy
  Fe  Fe0  1  0.62284741  0.12638627  0.87429439  1
  Fe  Fe1  1  0.87566964  0.12304602  0.87465088  1
  Fe  Fe2  1  0.62266362  0.12569544  0.37808342  1
  Fe  Fe3  1  0.49736623  0.50239102  0.49796329  1
  Fe  Fe4  1  0.25337582  0.49714836  -0.00022839  1
  Fe  Fe5  1  0.37036051  0.38012536  0.37393061  1
  Fe  Fe6  1  0.50309226  0.49889383  0.75127745  1
  Fe  Fe7  1  0.25164135  -0.00027501  0.50086837  1
  Fe  Fe8  1  0.37638561  0.87376663  0.62803443  1
  Fe  Fe9  1  0.62361390  0.12754606  0.12523143  1
  Fe  Fe10  1  0.37968480  0.87377844  0.37095375  1
  Fe  Fe11  1  0.74985947  -0.00086959  0.49973273  1
  Fe  Fe12  1  0.87359273  0.62544146  0.37436196  1
  Fe  Fe13  1  0.37303026  0.62654633  0.12894152  1
  Fe  Fe14  1  0.24734901  0.25160638  0.75075112  1
  Fe  Fe15  1  0.74994045  0.25244065  -0.00079958  1
  Fe  Fe16  1  0.50160273  -0.00078849  -0.00021685  1
  Fe  Fe17  1  0.74597413  -0.00139139  0.25126299  1
  Fe  Fe18  1  0.50258797  0.74942392  0.75218317  1
  Fe  Fe19  1  0.50151178  0.74866026  -0.00039676  1
  Fe  Fe20  1  0.87612745  0.37612630  0.37526142  1
  Fe  Fe21  1  0.49522781  0.25103774  0.50089754  1
  Fe  Fe22  1  -0.00249214  0.49977836  0.00163274  1
  Fe  Fe23  1  0.74998935  0.50065033  0.50098448  1
  Fe  Fe24  1  0.75001940  0.74724502  0.74970010  1
  Fe  Fe25  1  0.74797550  0.25063549  0.74846510  1
  Fe  Fe26  1  0.12747584  0.62726764  0.12292290  1
  Fe  Fe27  1  0.74829415  0.25136514  0.25210650  1
  Fe  Fe28  1  0.87495625  0.87498883  0.62476622  1
  Fe  Fe29  1  0.87736691  0.12265316  0.37663723  1
  Fe  Fe30  1  -0.00368763  0.75005771  -0.00045713  1
  Fe  Fe31  1  0.37498039  0.62234497  0.87298276  1
  Fe  Fe32  1  0.12535301  0.62527802  0.87723265  1
  Fe  Fe33  1  0.12501950  0.12438105  0.87602213  1
  Fe  Fe34  1  0.00302560  0.50010976  0.50076470  1
  Fe  Fe35  1  0.37811172  0.87265213  0.12802939  1
  Fe  Fe36  1  0.12866637  0.62484377  0.37422115  1
  Fe  Fe37  1  0.12500890  0.37361111  0.12294519  1
  Fe  Fe38  1  0.50239743  0.49973266  0.25006288  1
  Fe  Fe39  1  0.37111583  0.37976774  0.62803035  1
  Fe  Fe40  1  -0.00229596  0.74835501  0.75068127  1
  Fe  Fe41  1  0.62449226  0.37462425  0.62227624  1
  Fe  Fe42  1  0.00354592  0.49908330  0.25058470  1
  Fe  Fe43  1  0.49819061  0.00197610  0.50259792  1
  Fe  Fe44  1  0.74938278  0.75062529  0.49856205  1
  Fe  Fe45  1  0.00461870  0.50076868  0.74617091  1
  Fe  Fe46  1  0.24976623  -0.00046394  0.25067294  1
  Fe  Fe47  1  0.87520359  0.12328787  0.12432721  1
  Fe  Fe48  1  0.49916388  0.25615059  -0.00156960  1
  Fe  Fe49  1  0.50126361  0.25124421  0.74866215  1
  Fe  Fe50  1  0.25550530  0.74567158  0.49933305  1
  Fe  Fe51  1  0.00368612  0.00080938  0.74656307  1
  Fe  Fe52  1  0.87289049  0.62604425  0.12741987  1
  Fe  Fe53  1  0.00222071  0.24958306  0.74616534  1
  Fe  Fe54  1  0.37543576  0.12410388  0.37283449  1
  Fe  Fe55  1  -0.00114605  0.24989938  -0.00103907  1
  Fe  Fe56  1  0.62266479  0.87450612  0.62456240  1
  Fe  Fe57  1  0.00142105  -0.00133482  0.25066560  1
  Fe  Fe58  1  0.87498204  0.37695183  0.62604710  1
  Fe  Fe59  1  0.12363424  0.12722052  0.38110089  1
  Fe  Fe60  1  0.37242494  0.12327404  0.62947734  1
  Fe  Fe61  1  0.00078948  0.75092549  0.25009740  1
  Fe  Fe62  1  0.50063233  0.25284914  0.25257158  1
  Fe  Fe63  1  0.62691383  0.62171324  0.12198830  1
  Fe  Fe64  1  0.25113327  -0.00155114  -0.00058940  1
  Fe  Fe65  1  0.87237571  0.87659315  0.12317561  1
  Fe  Fe66  1  0.87203287  0.87798593  0.87655560  1
  Fe  Fe67  1  0.00151074  0.25088249  0.25273146  1
  Fe  Fe68  1  0.12495184  0.12501960  0.12368455  1
  Fe  Fe69  1  0.37649874  0.87651630  0.87274125  1
  Fe  Fe70  1  -0.00232851  0.74947659  0.49881278  1
  Fe  Fe71  1  0.24845629  0.25121177  0.25143485  1
  Fe  Fe72  1  0.87497998  0.37673240  0.87199212  1
  Fe  Fe73  1  0.62463283  0.62480235  0.62385922  1
  Fe  Fe74  1  0.74548656  0.00157936  0.74889980  1
  Fe  Fe75  1  0.12582423  0.87346350  0.12233841  1
  Fe  Fe76  1  0.75243235  0.24964880  0.50066882  1
  Fe  Fe77  1  0.74804341  0.49697221  0.25070472  1
  Fe  Fe78  1  0.12670977  0.87169540  0.62428604  1
  Fe  Fe79  1  0.25134025  0.25277192  -0.00209810  1
  Fe  Fe80  1  0.25123872  0.74738809  0.75049410  1
  Fe  Fe81  1  0.37531756  0.12675346  0.12517166  1
  Fe  Fe82  1  0.74552210  0.75293067  0.25245126  1
  Fe  Fe83  1  0.87280813  0.62139470  0.87375862  1
  Fe  Fe84  1  0.87513292  0.37323954  0.12691669  1
  Fe  Fe85  1  0.37521007  0.12442613  0.87317335  1
  Fe  Fe86  1  0.62787783  0.61996849  0.87822793  1
  Fe  Fe87  1  0.49831044  0.74530456  0.49667202  1
  Fe  Fe88  1  0.12483558  0.87439124  0.37744657  1
  Fe  Fe89  1  0.12562315  0.87353504  0.87579782  1
  Co  Co90  1  0.37471782  0.37585905  0.87009741  1
  Co  Co91  1  0.12345084  0.37659009  0.87593591  1
  Co  Co92  1  0.24814010  0.75324972  0.25137425  1
  Co  Co93  1  0.62405125  0.87408992  0.12323827  1
  Co  Co94  1  0.24499350  0.50262884  0.74925369  1
  Co  Co95  1  0.50266778  0.00043472  0.74970576  1
  Co  Co96  1  -0.00473377  0.25171751  0.50295096  1
  Co  Co97  1  0.50556021  0.74569136  0.25082407  1
  Co  Co98  1  0.75056116  0.74850090  -0.00127601  1
  Co  Co99  1  0.12786619  0.37352613  0.38061739  1
  Co  Co100  1  0.25350329  0.75078422  -0.00173752  1
  Co  Co101  1  0.50156388  0.00228843  0.24787857  1
  Co  Co102  1  0.12882261  0.37216506  0.62050458  1
  Co  Co103  1  0.00109182  -0.00069615  -0.00016936  1
  Co  Co104  1  0.25062095  0.50607494  0.50436240  1
  Co  Co105  1  0.24743778  -0.00057604  0.74973932  1
  Co  Co106  1  0.49483390  0.49823186  0.00102764  1
  Co  Co107  1  0.00044302  -0.00106488  0.50336731  1
  Co  Co108  1  0.62763674  0.62306252  0.37618106  1
  Co  Co109  1  0.87578153  0.87523534  0.37461704  1
  Co  Co110  1  0.12418345  0.63053834  0.62430662  1
  Co  Co111  1  0.62428255  0.37436831  0.37877367  1
  Co  Co112  1  0.87472628  0.12256383  0.62598423  1
  Co  Co113  1  0.61931871  0.87712327  0.37707016  1
  Co  Co114  1  0.12715757  0.12753108  0.62062498  1
  Co  Co115  1  0.74585031  0.00303605  -0.00021499  1
  Co  Co116  1  0.87569985  0.62503908  0.62299771  1
  Co  Co117  1  0.25673516  0.24939352  0.49992003  1
  Co  Co118  1  0.24548030  0.49747629  0.24696711  1
  Co  Co119  1  0.37194866  0.62293208  0.36814789  1
  Co  Co120  1  0.62663293  0.87402966  0.87508651  1
  Co  Co121  1  0.37799765  0.62362290  0.62975270  1
  Co  Co122  1  0.37513068  0.37308154  0.12827250  1
  Co  Co123  1  0.62397787  0.12648911  0.62221926  1
  Co  Co124  1  0.62623481  0.37770290  0.87597995  1
  Co  Co125  1  0.75447388  0.49628159  0.00164420  1
  Co  Co126  1  0.74833741  0.50044607  0.74622150  1
  Co  Co127  1  0.62439651  0.37545097  0.12360416  1
