# generated using pymatgen
data_Fe45Co19
_symmetry_space_group_name_H-M   'P 1'
_cell_length_a   11.41485303
_cell_length_b   11.41441751
_cell_length_c   11.41536059
_cell_angle_alpha   90.00351208
_cell_angle_beta   89.99037369
_cell_angle_gamma   89.99701896
_symmetry_Int_Tables_number   1
_chemical_formula_structural   Fe45Co19
_chemical_formula_sum   'Fe90 Co38'
_cell_volume   1487.35180555
_cell_formula_units_Z   2
loop_
 _symmetry_equiv_pos_site_id
 _symmetry_equiv_pos_as_xyz
  1  'x, y, z'
loop_
 _atom_site_type_symbol
 _atom_site_label
 _atom_site_symmetry_multiplicity
 _atom_site_fract_x
 _atom_site_fract_y
 _atom_site_fract_z
 _atom_site_occupancy
  Fe  Fe0  1  0.74984984  0.50058447  0.00043523  1
  Fe  Fe1  1  0.87853085  0.37021593  0.37265197  1
  Fe  Fe2  1  0.12426680  0.62490449  0.37557949  1
  Fe  Fe3  1  0.12735956  0.37469252  0.12468446  1
  Fe  Fe4  1  0.75342730  -0.00140256  0.50043683  1
  Fe  Fe5  1  -0.00170278  -0.00059845  0.00029012  1
  Fe  Fe6  1  0.37407784  0.62439965  0.62350415  1
  Fe  Fe7  1  -0.00234476  0.49890203  0.49968876  1
  Fe  Fe8  1  0.37470137  0.12453249  0.12622250  1
  Fe  Fe9  1  0.62578645  0.87496509  0.12548613  1
  Fe  Fe10  1  0.24885937  0.24778857  0.74842220  1
  Fe  Fe11  1  0.87725009  0.62742553  0.12435351  1
  Fe  Fe12  1  0.50120354  0.75145674  -0.00190071  1
  Fe  Fe13  1  0.11963112  0.12463897  0.37688726  1
  Fe  Fe14  1  0.50021299  -0.00156749  0.25106102  1
  Fe  Fe15  1  0.74749194  0.75011466  -0.00171509  1
  Fe  Fe16  1  0.12805405  0.37343907  0.87616425  1
  Fe  Fe17  1  0.87264223  0.37051114  0.12535206  1
  Fe  Fe18  1  0.49905387  0.50103534  0.74855859  1
  Fe  Fe19  1  0.37673647  0.87500469  0.87248349  1
  Fe  Fe20  1  0.12669174  0.62537379  0.87666141  1
  Fe  Fe21  1  0.50074665  0.50082809  0.25234178  1
  Fe  Fe22  1  0.50111066  -0.00167715  -0.00056128  1
  Fe  Fe23  1  0.25139477  0.49798860  0.49673304  1
  Fe  Fe24  1  0.62626928  0.12162065  0.87626373  1
  Fe  Fe25  1  0.87506263  0.62795560  0.37459596  1
  Fe  Fe26  1  0.24860800  0.75086261  0.24971866  1
  Fe  Fe27  1  0.87897396  0.12075440  0.62445238  1
  Fe  Fe28  1  0.37307801  0.87535879  0.12652141  1
  Fe  Fe29  1  0.62269860  0.87883739  0.63028206  1
  Fe  Fe30  1  0.50094667  0.25005354  0.49973534  1
  Fe  Fe31  1  0.37316626  0.62609062  0.12574019  1
  Fe  Fe32  1  0.37341967  0.62537907  0.87451056  1
  Fe  Fe33  1  0.62392291  0.37601824  0.37636757  1
  Fe  Fe34  1  0.24772065  0.24975724  0.25238493  1
  Fe  Fe35  1  0.62656410  0.12573278  0.12420800  1
  Fe  Fe36  1  0.37368116  0.37517918  0.12828997  1
  Fe  Fe37  1  0.25038641  -0.00197570  0.00092929  1
  Fe  Fe38  1  0.00086250  0.75306603  0.00074221  1
  Fe  Fe39  1  0.50103656  0.25142955  0.00053353  1
  Fe  Fe40  1  0.12458694  0.37587425  0.62415624  1
  Fe  Fe41  1  0.87431117  0.37420943  0.87517685  1
  Fe  Fe42  1  0.37566429  0.62677690  0.37512388  1
  Fe  Fe43  1  0.37640187  0.87713577  0.62397591  1
  Fe  Fe44  1  0.75096439  0.74861759  0.24825983  1
  Fe  Fe45  1  0.12690853  0.87596041  0.87495001  1
  Fe  Fe46  1  0.12601979  0.12387651  0.12232628  1
  Fe  Fe47  1  0.49881886  0.49970593  0.00091449  1
  Fe  Fe48  1  0.62654405  0.12342593  0.37674789  1
  Fe  Fe49  1  -0.00305684  -0.00241288  0.24905280  1
  Fe  Fe50  1  0.37516576  0.37501008  0.62396187  1
  Fe  Fe51  1  0.00095209  0.49989095  0.24901940  1
  Fe  Fe52  1  0.87243018  0.12970153  0.12525110  1
  Fe  Fe53  1  0.50156408  0.75081709  0.49950687  1
  Fe  Fe54  1  0.62574727  0.37544393  0.62451226  1
  Fe  Fe55  1  0.37715664  0.12277386  0.62187285  1
  Fe  Fe56  1  0.74986905  0.49923052  0.25064980  1
  Fe  Fe57  1  0.00016360  0.49811233  0.00025121  1
  Fe  Fe58  1  0.50180703  0.24714452  0.74935638  1
  Fe  Fe59  1  0.75035532  0.74726404  0.75099935  1
  Fe  Fe60  1  0.62541557  0.37667279  0.87448789  1
  Fe  Fe61  1  0.50337751  0.25007545  0.25039875  1
  Fe  Fe62  1  0.75221015  0.50376019  0.75159075  1
  Fe  Fe63  1  0.62706366  0.87360395  0.37299971  1
  Fe  Fe64  1  0.62505385  0.62336262  0.62439189  1
  Fe  Fe65  1  -0.00184102  0.74952878  0.74990840  1
  Fe  Fe66  1  0.25041217  0.74966135  0.74784328  1
  Fe  Fe67  1  0.75033303  0.75130833  0.50246589  1
  Fe  Fe68  1  -0.00193298  0.75305944  0.49969088  1
  Fe  Fe69  1  0.37258386  0.37462671  0.87377287  1
  Fe  Fe70  1  -0.00002043  0.50221774  0.75128251  1
  Fe  Fe71  1  0.87419891  0.12415680  0.87671835  1
  Fe  Fe72  1  0.75149013  0.50055760  0.49836651  1
  Fe  Fe73  1  0.12351098  0.87723541  0.62425064  1
  Fe  Fe74  1  0.25024055  0.00117591  0.74899660  1
  Fe  Fe75  1  0.75299765  0.24828744  0.50026821  1
  Fe  Fe76  1  0.12670023  0.62674824  0.12389204  1
  Fe  Fe77  1  0.75299217  0.00040832  0.24920547  1
  Fe  Fe78  1  0.12102763  0.12113778  0.62376473  1
  Fe  Fe79  1  0.74888154  0.24619789  0.74866532  1
  Fe  Fe80  1  0.62308275  0.62530315  0.12617521  1
  Fe  Fe81  1  0.00135836  0.24795306  0.75207675  1
  Fe  Fe82  1  0.37553783  0.12368934  0.37552460  1
  Fe  Fe83  1  0.12611356  0.87648724  0.37408850  1
  Fe  Fe84  1  0.37231235  0.87661999  0.37585575  1
  Fe  Fe85  1  0.87165912  0.87664430  0.87415655  1
  Fe  Fe86  1  0.12452757  0.62434494  0.62323668  1
  Fe  Fe87  1  0.37269856  0.12566783  0.87676979  1
  Fe  Fe88  1  0.87532967  0.37583516  0.62743643  1
  Fe  Fe89  1  0.24786230  0.24980148  0.49815188  1
  Co  Co90  1  0.62304415  0.62345620  0.87546914  1
  Co  Co91  1  0.87720842  0.12740200  0.37363374  1
  Co  Co92  1  0.00115558  -0.00020231  0.75462586  1
  Co  Co93  1  0.24915500  0.50105867  0.74954510  1
  Co  Co94  1  0.74989598  0.00369698  0.74747252  1
  Co  Co95  1  0.87592323  0.62540817  0.62340956  1
  Co  Co96  1  0.12178703  0.37420276  0.37613500  1
  Co  Co97  1  0.24896828  0.50031514  0.25275874  1
  Co  Co98  1  0.24950913  0.75075371  0.50038258  1
  Co  Co99  1  0.62592582  0.87722511  0.87117284  1
  Co  Co100  1  0.87462065  0.87174709  0.12487920  1
  Co  Co101  1  0.87616296  0.87615688  0.62901028  1
  Co  Co102  1  0.87261495  0.87158583  0.37249313  1
  Co  Co103  1  0.87698713  0.62590002  0.87820902  1
  Co  Co104  1  0.62520457  0.37618038  0.12470883  1
  Co  Co105  1  0.24912246  0.00165611  0.25104058  1
  Co  Co106  1  0.24852281  0.00160690  0.50001477  1
  Co  Co107  1  0.25161731  0.25121963  0.00258211  1
  Co  Co108  1  0.62325334  0.12290872  0.62137215  1
  Co  Co109  1  0.49948835  0.74753706  0.74937487  1
  Co  Co110  1  0.50149486  -0.00321993  0.49674178  1
  Co  Co111  1  -0.00402780  -0.00513054  0.49628164  1
  Co  Co112  1  0.12815977  0.12449843  0.87786337  1
  Co  Co113  1  0.25096562  0.49993277  0.00023807  1
  Co  Co114  1  -0.00151644  0.25122722  0.50368648  1
  Co  Co115  1  0.49952085  0.50214255  0.49921733  1
  Co  Co116  1  0.25089455  0.75193602  -0.00001833  1
  Co  Co117  1  0.37688361  0.37323872  0.37412113  1
  Co  Co118  1  0.49806908  0.00446120  0.75135531  1
  Co  Co119  1  0.74774100  0.25083110  -0.00206675  1
  Co  Co120  1  0.75059430  -0.00102010  0.00277973  1
  Co  Co121  1  0.00307443  0.24936104  0.24654633  1
  Co  Co122  1  0.00026923  0.25012237  -0.00079767  1
  Co  Co123  1  0.12593779  0.87611880  0.12598918  1
  Co  Co124  1  0.62585438  0.62695082  0.37387898  1
  Co  Co125  1  0.74623462  0.25074339  0.25252847  1
  Co  Co126  1  0.49843749  0.75257978  0.25091158  1
  Co  Co127  1  0.00226487  0.75104715  0.25085830  1
