# generated using pymatgen
data_Fe45Co19
_symmetry_space_group_name_H-M   'P 1'
_cell_length_a   11.41549575
_cell_length_b   11.41467419
_cell_length_c   11.41583713
_cell_angle_alpha   89.99450948
_cell_angle_beta   89.99831762
_cell_angle_gamma   89.99228767
_symmetry_Int_Tables_number   1
_chemical_formula_structural   Fe45Co19
_chemical_formula_sum   'Fe90 Co38'
_cell_volume   1487.53110023
_cell_formula_units_Z   2
loop_
 _symmetry_equiv_pos_site_id
 _symmetry_equiv_pos_as_xyz
  1  'x, y, z'
loop_
 _atom_site_type_symbol
 _atom_site_label
 _atom_site_symmetry_multiplicity
 _atom_site_fract_x
 _atom_site_fract_y
 _atom_site_fract_z
 _atom_site_occupancy
  Fe  Fe0  1  0.25102291  -0.00060061  0.50137572  1
  Fe  Fe1  1  0.12727193  0.87356597  0.62727989  1
  Fe  Fe2  1  0.37523358  0.87764248  0.87517131  1
  Fe  Fe3  1  -0.00104674  -0.00193594  0.50275236  1
  Fe  Fe4  1  0.37353410  0.37608048  0.62663111  1
  Fe  Fe5  1  0.87604146  0.12554990  0.37427064  1
  Fe  Fe6  1  0.12568661  0.12513172  0.62397282  1
  Fe  Fe7  1  0.37671326  0.87547838  0.37204459  1
  Fe  Fe8  1  0.12927768  0.37679209  0.62685890  1
  Fe  Fe9  1  0.25300841  0.74813854  0.49744001  1
  Fe  Fe10  1  0.49818865  0.50103447  0.75415468  1
  Fe  Fe11  1  0.87443067  0.37594634  0.37103750  1
  Fe  Fe12  1  0.49683611  0.24807321  0.75487418  1
  Fe  Fe13  1  0.62393263  0.87545987  0.37134209  1
  Fe  Fe14  1  0.87688585  0.87334225  0.87557646  1
  Fe  Fe15  1  0.62518259  0.62712725  0.12043865  1
  Fe  Fe16  1  0.24779742  0.25359472  -0.00081804  1
  Fe  Fe17  1  0.00344190  0.25305746  0.49641285  1
  Fe  Fe18  1  0.00075081  0.25056853  0.75161656  1
  Fe  Fe19  1  0.87689603  0.87178199  0.12459676  1
  Fe  Fe20  1  0.00091811  0.49859088  0.00120904  1
  Fe  Fe21  1  0.62416087  0.87359692  0.62857677  1
  Fe  Fe22  1  0.37295826  0.87275242  0.12633659  1
  Fe  Fe23  1  0.37528169  0.37487085  0.12332516  1
  Fe  Fe24  1  0.62381570  0.87421842  0.87382722  1
  Fe  Fe25  1  0.62513088  0.37752779  0.37266462  1
  Fe  Fe26  1  0.74970014  0.50270372  0.75118990  1
  Fe  Fe27  1  0.50257014  0.24855177  0.25141311  1
  Fe  Fe28  1  0.62570712  0.12587487  0.12405557  1
  Fe  Fe29  1  0.75040342  0.74773255  0.75250955  1
  Fe  Fe30  1  0.75379080  0.74549559  0.24987358  1
  Fe  Fe31  1  0.12590083  0.62410218  0.37428073  1
  Fe  Fe32  1  0.75201016  0.00147703  0.74935136  1
  Fe  Fe33  1  0.24928893  0.25247715  0.49673093  1
  Fe  Fe34  1  0.37649562  0.62129618  0.88485438  1
  Fe  Fe35  1  0.74966460  -0.00123108  0.50079519  1
  Fe  Fe36  1  0.49704333  0.00348554  0.74974504  1
  Fe  Fe37  1  0.12653333  0.62950210  0.12421102  1
  Fe  Fe38  1  0.12841359  0.62401466  0.62431526  1
  Fe  Fe39  1  0.12464314  0.12360409  0.87841164  1
  Fe  Fe40  1  0.87526632  0.62575036  0.62401939  1
  Fe  Fe41  1  0.37454854  0.12698193  0.12234848  1
  Fe  Fe42  1  -0.00048430  0.74810993  0.75011159  1
  Fe  Fe43  1  0.50044830  -0.00111676  0.50074988  1
  Fe  Fe44  1  -0.00012399  0.49984953  0.74869739  1
  Fe  Fe45  1  0.50069347  -0.00209793  0.00306063  1
  Fe  Fe46  1  0.74870027  0.49954140  0.50109915  1
  Fe  Fe47  1  0.49870068  0.74948357  0.50048998  1
  Fe  Fe48  1  0.25260117  0.50377813  0.24745570  1
  Fe  Fe49  1  0.24975402  0.00186075  0.24843346  1
  Fe  Fe50  1  0.74897598  0.24809598  0.75310075  1
  Fe  Fe51  1  0.87626461  0.87480051  0.37294644  1
  Fe  Fe52  1  0.12497981  0.62354716  0.87720154  1
  Fe  Fe53  1  0.50297854  0.25246124  -0.00415340  1
  Fe  Fe54  1  0.62660269  0.87294416  0.12696790  1
  Fe  Fe55  1  0.37427030  0.87437726  0.62766253  1
  Fe  Fe56  1  -0.00028830  0.00032193  0.74911044  1
  Fe  Fe57  1  -0.00392588  0.50431640  0.24883590  1
  Fe  Fe58  1  0.00116893  0.49808415  0.50058785  1
  Fe  Fe59  1  0.12727326  0.37664814  0.87279956  1
  Fe  Fe60  1  0.74683100  0.25036073  0.49716258  1
  Fe  Fe61  1  0.74839587  0.50122365  -0.00140761  1
  Fe  Fe62  1  0.00109769  0.00484543  0.24506973  1
  Fe  Fe63  1  0.24794919  -0.00237274  0.00101435  1
  Fe  Fe64  1  0.87615645  0.12721365  0.62386448  1
  Fe  Fe65  1  0.37676439  0.12442757  0.37564142  1
  Fe  Fe66  1  0.12406147  0.87107066  0.12674484  1
  Fe  Fe67  1  0.12423756  0.87547539  0.37258426  1
  Fe  Fe68  1  0.25409355  0.74635336  0.75285911  1
  Fe  Fe69  1  0.75094255  -0.00096657  0.00117271  1
  Fe  Fe70  1  0.49842969  0.49953120  0.50049709  1
  Fe  Fe71  1  0.75051879  0.00372314  0.24867845  1
  Fe  Fe72  1  -0.00080425  0.75053345  0.49895179  1
  Fe  Fe73  1  0.49664176  0.74756009  0.24676818  1
  Fe  Fe74  1  0.62288648  0.37386225  0.62833046  1
  Fe  Fe75  1  0.12425892  0.87534077  0.87361282  1
  Fe  Fe76  1  0.62277625  0.12686840  0.62421713  1
  Fe  Fe77  1  0.50000533  0.50259354  0.24496276  1
  Fe  Fe78  1  0.87687698  0.12563340  0.88008716  1
  Fe  Fe79  1  0.62182144  0.62648764  0.62735084  1
  Fe  Fe80  1  0.25295544  0.24640070  0.75238149  1
  Fe  Fe81  1  0.87398472  0.37362015  0.62539644  1
  Fe  Fe82  1  0.74975908  0.75115160  0.49987612  1
  Fe  Fe83  1  0.62458256  0.62450289  0.37412893  1
  Fe  Fe84  1  0.87388625  0.37549001  0.87578715  1
  Fe  Fe85  1  0.87302494  0.37057563  0.12648396  1
  Fe  Fe86  1  0.12334092  0.37340939  0.12953416  1
  Fe  Fe87  1  0.62822536  0.37330627  0.12576278  1
  Fe  Fe88  1  0.24667520  0.24763620  0.25193955  1
  Fe  Fe89  1  0.37483883  0.37754243  0.37235082  1
  Co  Co90  1  0.37259488  0.37777825  0.87799325  1
  Co  Co91  1  0.12642159  0.12681947  0.12033148  1
  Co  Co92  1  0.00018722  -0.00209029  0.00270093  1
  Co  Co93  1  0.75013509  0.50321797  0.24738469  1
  Co  Co94  1  0.87394027  0.62314015  0.37868027  1
  Co  Co95  1  0.62176975  0.62745119  0.87769603  1
  Co  Co96  1  -0.00243705  0.74675667  0.25104196  1
  Co  Co97  1  0.74693651  0.25009418  -0.00309324  1
  Co  Co98  1  0.49947524  0.75496028  0.00133297  1
  Co  Co99  1  0.12515757  0.12075076  0.37716276  1
  Co  Co100  1  0.62673341  0.37631013  0.87206107  1
  Co  Co101  1  0.87449679  0.87246879  0.62668020  1
  Co  Co102  1  0.49885399  0.00152243  0.24657224  1
  Co  Co103  1  0.87679374  0.62365551  0.87647023  1
  Co  Co104  1  0.50402663  0.49515694  0.00163470  1
  Co  Co105  1  0.25027569  0.00253157  0.75009311  1
  Co  Co106  1  0.24574247  0.49673123  0.00385399  1
  Co  Co107  1  0.37535561  0.62252124  0.62366360  1
  Co  Co108  1  0.49477164  0.74806692  0.75280353  1
  Co  Co109  1  0.87489425  0.62595742  0.11943764  1
  Co  Co110  1  0.00219468  0.25409072  -0.00011811  1
  Co  Co111  1  0.37425465  0.12313330  0.88137870  1
  Co  Co112  1  0.49946636  0.25360276  0.49810370  1
  Co  Co113  1  0.25242300  0.74901470  0.25186997  1
  Co  Co114  1  0.75073384  0.75132864  -0.00171398  1
  Co  Co115  1  0.37723272  0.62287860  0.37362790  1
  Co  Co116  1  0.24962916  0.75277268  -0.00238429  1
  Co  Co117  1  0.62191296  0.12175797  0.37590439  1
  Co  Co118  1  0.37528550  0.12657680  0.62172815  1
  Co  Co119  1  0.87415417  0.13043105  0.12146832  1
  Co  Co120  1  0.00089116  0.74984167  -0.00081477  1
  Co  Co121  1  0.12503379  0.38029461  0.37000666  1
  Co  Co122  1  0.74718622  0.24721239  0.25252612  1
  Co  Co123  1  0.37397227  0.62503286  0.11813120  1
  Co  Co124  1  0.25259463  0.50394726  0.75238185  1
  Co  Co125  1  0.00254345  0.24590984  0.25125130  1
  Co  Co126  1  0.25120053  0.49967039  0.49796349  1
  Co  Co127  1  0.62403032  0.12109218  0.87615311  1
