# generated using pymatgen
data_Fe45Co19
_symmetry_space_group_name_H-M   'P 1'
_cell_length_a   11.41510174
_cell_length_b   11.41530405
_cell_length_c   11.41612766
_cell_angle_alpha   89.99619151
_cell_angle_beta   90.00209978
_cell_angle_gamma   89.99489162
_symmetry_Int_Tables_number   1
_chemical_formula_structural   Fe45Co19
_chemical_formula_sum   'Fe90 Co38'
_cell_volume   1487.59970619
_cell_formula_units_Z   2
loop_
 _symmetry_equiv_pos_site_id
 _symmetry_equiv_pos_as_xyz
  1  'x, y, z'
loop_
 _atom_site_type_symbol
 _atom_site_label
 _atom_site_symmetry_multiplicity
 _atom_site_fract_x
 _atom_site_fract_y
 _atom_site_fract_z
 _atom_site_occupancy
  Fe  Fe0  1  0.74767819  0.25263525  0.75446794  1
  Fe  Fe1  1  0.62673788  0.12503086  0.37547470  1
  Fe  Fe2  1  0.87609112  0.62461301  0.37356422  1
  Fe  Fe3  1  0.62746479  0.62160914  0.12596989  1
  Fe  Fe4  1  0.24746864  0.74915000  0.49742049  1
  Fe  Fe5  1  0.25299047  0.75038915  0.75383996  1
  Fe  Fe6  1  0.74982530  0.74923968  -0.00029113  1
  Fe  Fe7  1  0.24644197  0.50005071  0.74864976  1
  Fe  Fe8  1  0.87401732  0.12576816  0.37514062  1
  Fe  Fe9  1  0.62576900  0.87487080  0.37545261  1
  Fe  Fe10  1  0.12708220  0.62277574  0.12683208  1
  Fe  Fe11  1  0.87514874  0.12458702  0.12351120  1
  Fe  Fe12  1  0.24865690  0.25117126  0.74835770  1
  Fe  Fe13  1  0.12474840  0.88073214  0.12547848  1
  Fe  Fe14  1  -0.00102771  0.24978557  0.50182639  1
  Fe  Fe15  1  0.00067942  0.24976576  0.74898619  1
  Fe  Fe16  1  0.00373328  0.50123675  0.50355408  1
  Fe  Fe17  1  -0.00242360  0.25175094  0.00127618  1
  Fe  Fe18  1  0.37372011  0.62609413  0.62599851  1
  Fe  Fe19  1  0.50098118  0.24892464  0.50223167  1
  Fe  Fe20  1  0.25177375  -0.00046504  0.75194730  1
  Fe  Fe21  1  0.87536241  0.87586755  0.12382374  1
  Fe  Fe22  1  0.37548040  0.12615181  0.37504271  1
  Fe  Fe23  1  0.75148714  -0.00049554  -0.00382007  1
  Fe  Fe24  1  0.00194493  0.24897908  0.24845954  1
  Fe  Fe25  1  0.62057173  0.87397777  0.87506370  1
  Fe  Fe26  1  0.12570994  0.87880035  0.37120313  1
  Fe  Fe27  1  0.87568637  0.62467368  0.62742528  1
  Fe  Fe28  1  0.37477509  0.87520141  0.37333226  1
  Fe  Fe29  1  0.37607515  0.37456201  0.87340223  1
  Fe  Fe30  1  0.87463259  0.37720721  0.62850050  1
  Fe  Fe31  1  0.37593485  0.12650416  0.62775765  1
  Fe  Fe32  1  0.50256735  0.24952198  -0.00401708  1
  Fe  Fe33  1  0.25079589  0.74918930  0.00020252  1
  Fe  Fe34  1  0.37286638  0.62606673  0.37277466  1
  Fe  Fe35  1  0.74910826  0.50239031  0.49970548  1
  Fe  Fe36  1  0.24889367  0.24923893  0.00150564  1
  Fe  Fe37  1  -0.00343707  -0.00117109  0.49989788  1
  Fe  Fe38  1  0.62587680  0.12565380  0.12188478  1
  Fe  Fe39  1  0.62591571  0.37592623  0.62514668  1
  Fe  Fe40  1  0.50132759  0.74830506  0.50078422  1
  Fe  Fe41  1  0.12501699  0.87428768  0.62607945  1
  Fe  Fe42  1  0.25057027  0.49833206  0.00039213  1
  Fe  Fe43  1  0.50281415  0.25021167  0.24994171  1
  Fe  Fe44  1  0.87303260  0.62161902  0.12582764  1
  Fe  Fe45  1  0.62502074  0.87642322  0.62712844  1
  Fe  Fe46  1  0.87472576  0.37517827  0.37515909  1
  Fe  Fe47  1  0.74977632  0.74953063  0.50007584  1
  Fe  Fe48  1  0.37278305  0.62521332  0.12613829  1
  Fe  Fe49  1  0.49924813  0.00118812  0.24945124  1
  Fe  Fe50  1  0.24664491  0.24568710  0.24838804  1
  Fe  Fe51  1  0.24607327  0.50215842  0.50125284  1
  Fe  Fe52  1  0.74999454  0.24915161  0.50201864  1
  Fe  Fe53  1  0.37448235  0.37453686  0.62408827  1
  Fe  Fe54  1  0.87523324  0.62281167  0.87385651  1
  Fe  Fe55  1  0.12473072  0.12424608  0.62324787  1
  Fe  Fe56  1  0.49955128  0.50124089  0.00051443  1
  Fe  Fe57  1  0.00121879  0.75140916  0.24890566  1
  Fe  Fe58  1  0.50120989  0.50057968  0.74840026  1
  Fe  Fe59  1  0.75066186  0.75182843  0.75064190  1
  Fe  Fe60  1  0.37576075  0.37212350  0.12564918  1
  Fe  Fe61  1  0.37550472  0.87489514  0.12368170  1
  Fe  Fe62  1  0.12280780  0.37477527  0.87484619  1
  Fe  Fe63  1  0.25122209  0.00115033  0.49922861  1
  Fe  Fe64  1  -0.00120452  0.49861285  0.00006146  1
  Fe  Fe65  1  0.87209269  0.12106684  0.62785171  1
  Fe  Fe66  1  0.50178638  0.50267106  0.49947252  1
  Fe  Fe67  1  0.62378489  0.87651471  0.12225707  1
  Fe  Fe68  1  0.00058750  0.74988430  0.00127568  1
  Fe  Fe69  1  0.62389934  0.62469032  0.87398308  1
  Fe  Fe70  1  0.75153343  -0.00066186  0.25070285  1
  Fe  Fe71  1  0.74949641  0.25247887  0.24675049  1
  Fe  Fe72  1  0.00192632  0.49737535  0.24941579  1
  Fe  Fe73  1  0.87513186  0.12408482  0.87399551  1
  Fe  Fe74  1  0.25351710  0.00369595  0.00035460  1
  Fe  Fe75  1  -0.00081241  0.75250935  0.75109451  1
  Fe  Fe76  1  0.12674584  0.37297928  0.37726498  1
  Fe  Fe77  1  0.50114534  0.00144038  0.50096283  1
  Fe  Fe78  1  0.49725779  0.00361655  -0.00350658  1
  Fe  Fe79  1  0.00114665  0.75065037  0.49900183  1
  Fe  Fe80  1  0.37310231  0.37339729  0.37610044  1
  Fe  Fe81  1  0.50061158  0.74983286  0.24812218  1
  Fe  Fe82  1  0.74979028  0.75021919  0.24952484  1
  Fe  Fe83  1  0.12404148  0.87690892  0.87706690  1
  Fe  Fe84  1  0.12408241  0.12391447  0.87637802  1
  Fe  Fe85  1  0.62609171  0.37464359  0.37603948  1
  Fe  Fe86  1  0.62640762  0.12158959  0.62978515  1
  Fe  Fe87  1  0.12487387  0.62443021  0.87459240  1
  Fe  Fe88  1  0.37544592  0.87433567  0.62516051  1
  Fe  Fe89  1  0.50071130  0.49908190  0.25111873  1
  Co  Co90  1  0.25139745  0.24811953  0.50079588  1
  Co  Co91  1  0.75183830  -0.00448261  0.75497505  1
  Co  Co92  1  0.87350281  0.87561280  0.62439214  1
  Co  Co93  1  0.62590354  0.62692108  0.62708095  1
  Co  Co94  1  0.62529173  0.62644958  0.37329349  1
  Co  Co95  1  0.12485102  0.62454781  0.37141569  1
  Co  Co96  1  0.12515072  0.63044078  0.62827331  1
  Co  Co97  1  0.62494488  0.37556115  0.12282317  1
  Co  Co98  1  -0.00300313  -0.00081494  -0.00235182  1
  Co  Co99  1  0.49726103  0.74982488  0.74969898  1
  Co  Co100  1  0.75160856  0.49713089  -0.00249409  1
  Co  Co101  1  0.87738129  0.87292058  0.87667009  1
  Co  Co102  1  0.12365977  0.12365674  0.37784088  1
  Co  Co103  1  0.12481733  0.37468507  0.12368413  1
  Co  Co104  1  0.49594987  -0.00085067  0.75212289  1
  Co  Co105  1  0.37708937  0.87315365  0.87874939  1
  Co  Co106  1  0.00375039  0.49973684  0.74796335  1
  Co  Co107  1  0.12487399  0.37196567  0.62361414  1
  Co  Co108  1  0.37869022  0.12891539  0.12411717  1
  Co  Co109  1  0.75033043  0.00018095  0.49843235  1
  Co  Co110  1  0.62549145  0.12355681  0.87328380  1
  Co  Co111  1  0.24874904  0.75200029  0.24822410  1
  Co  Co112  1  0.62332580  0.37721132  0.87685353  1
  Co  Co113  1  0.50245936  0.25181504  0.74958719  1
  Co  Co114  1  -0.00340995  0.00118403  0.25188860  1
  Co  Co115  1  0.74789144  0.49941580  0.75129538  1
  Co  Co116  1  0.87768549  0.37716442  0.87189099  1
  Co  Co117  1  0.87381596  0.87288352  0.37506515  1
  Co  Co118  1  0.25048463  0.49708568  0.24930729  1
  Co  Co119  1  0.87388711  0.37668883  0.12577399  1
  Co  Co120  1  0.37516171  0.62309705  0.87450888  1
  Co  Co121  1  0.12055853  0.12110207  0.12220624  1
  Co  Co122  1  0.75173218  0.25197144  -0.00227912  1
  Co  Co123  1  0.25315448  0.00445696  0.24798194  1
  Co  Co124  1  0.37387453  0.12951316  0.87227764  1
  Co  Co125  1  0.49995236  0.74582503  0.00143316  1
  Co  Co126  1  0.74887261  0.49765463  0.25229524  1
  Co  Co127  1  0.00061384  -0.00110859  0.74980364  1
