# generated using pymatgen
data_Fe45Co19
_symmetry_space_group_name_H-M   'P 1'
_cell_length_a   11.41576760
_cell_length_b   11.41529158
_cell_length_c   11.41558318
_cell_angle_alpha   89.98668020
_cell_angle_beta   90.00113624
_cell_angle_gamma   89.99984699
_symmetry_Int_Tables_number   1
_chemical_formula_structural   Fe45Co19
_chemical_formula_sum   'Fe90 Co38'
_cell_volume   1487.61387048
_cell_formula_units_Z   2
loop_
 _symmetry_equiv_pos_site_id
 _symmetry_equiv_pos_as_xyz
  1  'x, y, z'
loop_
 _atom_site_type_symbol
 _atom_site_label
 _atom_site_symmetry_multiplicity
 _atom_site_fract_x
 _atom_site_fract_y
 _atom_site_fract_z
 _atom_site_occupancy
  Fe  Fe0  1  0.37851078  0.37461197  0.62459845  1
  Fe  Fe1  1  0.25097817  0.24884225  0.74722593  1
  Fe  Fe2  1  0.87428139  0.62444947  0.12094783  1
  Fe  Fe3  1  0.24800330  0.25253615  0.50266083  1
  Fe  Fe4  1  0.87170222  0.87161744  0.87331265  1
  Fe  Fe5  1  0.74979621  0.25239861  0.00013685  1
  Fe  Fe6  1  0.12532095  0.12509112  0.12218089  1
  Fe  Fe7  1  0.75045038  -0.00046437  0.50270928  1
  Fe  Fe8  1  0.00040047  0.00047244  0.25199264  1
  Fe  Fe9  1  0.12457563  0.87280331  0.37347402  1
  Fe  Fe10  1  0.62474365  0.87611554  0.37401794  1
  Fe  Fe11  1  0.37513792  0.87455751  0.37491843  1
  Fe  Fe12  1  0.37530415  0.12577337  0.37682528  1
  Fe  Fe13  1  0.87704553  0.87440606  0.12625706  1
  Fe  Fe14  1  0.25014340  0.00200051  0.74919927  1
  Fe  Fe15  1  0.62881747  0.62537429  0.87838338  1
  Fe  Fe16  1  0.74956006  0.75123791  0.50102011  1
  Fe  Fe17  1  0.62071655  0.87687724  0.12525343  1
  Fe  Fe18  1  0.00207820  0.50026534  -0.00370780  1
  Fe  Fe19  1  0.12782800  0.37593937  0.87179294  1
  Fe  Fe20  1  0.49566583  0.74597026  0.75214920  1
  Fe  Fe21  1  0.25180361  0.24999723  0.24851038  1
  Fe  Fe22  1  0.00281018  0.74938290  -0.00131738  1
  Fe  Fe23  1  0.87472173  0.12498676  0.12305379  1
  Fe  Fe24  1  0.49523593  0.74740770  -0.00235630  1
  Fe  Fe25  1  0.50002703  0.74955541  0.50054131  1
  Fe  Fe26  1  0.74812281  0.00182074  0.24999047  1
  Fe  Fe27  1  0.50096080  0.25232560  -0.00153053  1
  Fe  Fe28  1  0.74813245  -0.00173836  -0.00113342  1
  Fe  Fe29  1  0.37469216  0.62265135  0.37834932  1
  Fe  Fe30  1  0.13334883  0.62496588  0.87120469  1
  Fe  Fe31  1  0.37215400  0.37853865  0.87649688  1
  Fe  Fe32  1  -0.00093932  0.50000009  0.25301557  1
  Fe  Fe33  1  0.87606585  0.37555816  0.87390822  1
  Fe  Fe34  1  0.50203970  0.25251172  0.49842752  1
  Fe  Fe35  1  0.62481294  0.62262854  0.12324110  1
  Fe  Fe36  1  0.12466437  0.37475713  0.12564828  1
  Fe  Fe37  1  0.75442949  0.50421807  0.75139387  1
  Fe  Fe38  1  0.24723070  0.49727425  0.50408821  1
  Fe  Fe39  1  0.49964582  -0.00030673  0.49983708  1
  Fe  Fe40  1  0.87487725  0.62530082  0.37668205  1
  Fe  Fe41  1  0.37605621  0.37734375  0.12313676  1
  Fe  Fe42  1  0.62453724  0.87391664  0.62915883  1
  Fe  Fe43  1  0.62579913  0.37623448  0.87309905  1
  Fe  Fe44  1  0.62631086  0.87236912  0.87213896  1
  Fe  Fe45  1  0.12492829  0.87359323  0.12638641  1
  Fe  Fe46  1  0.87500335  0.37598541  0.12616051  1
  Fe  Fe47  1  0.37707658  0.12252359  0.12089157  1
  Fe  Fe48  1  0.62542981  0.37697013  0.12599406  1
  Fe  Fe49  1  0.00168410  0.25086286  -0.00135084  1
  Fe  Fe50  1  0.12625371  0.12569051  0.37673822  1
  Fe  Fe51  1  0.75030841  0.74928994  0.24868064  1
  Fe  Fe52  1  0.49800214  0.74910266  0.25057288  1
  Fe  Fe53  1  -0.00038238  0.00227232  0.75031278  1
  Fe  Fe54  1  0.25050464  0.00013527  0.24962408  1
  Fe  Fe55  1  0.12546154  0.62575681  0.12570434  1
  Fe  Fe56  1  0.12914100  0.87184198  0.87266143  1
  Fe  Fe57  1  0.00197794  -0.00063231  -0.00281812  1
  Fe  Fe58  1  -0.00085457  0.75072734  0.50010280  1
  Fe  Fe59  1  0.87948954  0.37926466  0.62560895  1
  Fe  Fe60  1  0.74853508  0.25253365  0.50156425  1
  Fe  Fe61  1  0.74939993  0.49762353  0.49803855  1
  Fe  Fe62  1  -0.00140565  -0.00192338  0.50025707  1
  Fe  Fe63  1  0.25248294  0.74896243  0.24831756  1
  Fe  Fe64  1  0.62256519  0.12613858  0.62656145  1
  Fe  Fe65  1  0.25101975  0.49961847  0.24948033  1
  Fe  Fe66  1  0.49742578  0.50278479  0.75156609  1
  Fe  Fe67  1  0.25007098  -0.00080192  0.50169408  1
  Fe  Fe68  1  0.00082643  0.24985262  0.25130535  1
  Fe  Fe69  1  0.74753255  0.24884722  0.25114669  1
  Fe  Fe70  1  0.00234150  0.25388192  0.49961268  1
  Fe  Fe71  1  0.87263624  0.87358728  0.62850709  1
  Fe  Fe72  1  0.49942832  0.49932952  0.25229993  1
  Fe  Fe73  1  0.49912501  0.00202570  0.75260257  1
  Fe  Fe74  1  0.87376361  0.12632260  0.37787105  1
  Fe  Fe75  1  0.62419751  0.62384839  0.62403944  1
  Fe  Fe76  1  0.87417299  0.12550084  0.87501840  1
  Fe  Fe77  1  0.62665471  0.12755516  0.87459682  1
  Fe  Fe78  1  0.12407176  0.87390607  0.62719583  1
  Fe  Fe79  1  0.50097307  0.24887771  0.25195294  1
  Fe  Fe80  1  0.37693752  0.87510863  0.62679700  1
  Fe  Fe81  1  0.75151691  0.24974597  0.74753151  1
  Fe  Fe82  1  -0.00328008  0.74396371  0.74970640  1
  Fe  Fe83  1  0.62313140  0.37710777  0.62785568  1
  Fe  Fe84  1  0.12582187  0.62569433  0.37568527  1
  Fe  Fe85  1  0.37310040  0.12500732  0.87785011  1
  Fe  Fe86  1  0.62402999  0.62325939  0.37550678  1
  Fe  Fe87  1  0.00094239  0.24720227  0.74894799  1
  Fe  Fe88  1  0.24967329  0.74953002  0.50391237  1
  Fe  Fe89  1  0.37636207  0.87773356  0.12217390  1
  Co  Co90  1  0.50283454  -0.00006849  -0.00512913  1
  Co  Co91  1  0.49923968  0.00196630  0.25223056  1
  Co  Co92  1  0.74802895  0.75426210  0.00428567  1
  Co  Co93  1  0.75142187  0.50179922  0.25036073  1
  Co  Co94  1  0.75094083  0.74409880  0.74717520  1
  Co  Co95  1  0.75045093  0.49604179  -0.00026647  1
  Co  Co96  1  0.87094538  0.62821221  0.88190103  1
  Co  Co97  1  0.37609106  0.62434072  0.62264662  1
  Co  Co98  1  0.62501966  0.37668038  0.37311232  1
  Co  Co99  1  0.37432101  0.37553078  0.37604984  1
  Co  Co100  1  0.36740888  0.62182627  0.87566816  1
  Co  Co101  1  -0.00175718  0.74794270  0.25063391  1
  Co  Co102  1  0.74947724  0.00285787  0.74964538  1
  Co  Co103  1  0.87344889  0.87485312  0.37305087  1
  Co  Co104  1  0.12414232  0.12428535  0.62367968  1
  Co  Co105  1  0.12762050  0.37437548  0.37139880  1
  Co  Co106  1  0.11992999  0.37700344  0.63032094  1
  Co  Co107  1  0.49771471  0.25047847  0.75248945  1
  Co  Co108  1  0.24641839  -0.00125508  -0.00072992  1
  Co  Co109  1  0.37210070  0.87518758  0.87537096  1
  Co  Co110  1  0.50090204  0.50061768  -0.00309924  1
  Co  Co111  1  0.62497854  0.12405500  0.37801503  1
  Co  Co112  1  0.00370777  0.49728632  0.49541998  1
  Co  Co113  1  -0.00292330  0.50621623  0.75510268  1
  Co  Co114  1  0.12238588  0.62346941  0.62626450  1
  Co  Co115  1  0.25455731  0.74992379  0.74500682  1
  Co  Co116  1  0.62343894  0.12523374  0.12239428  1
  Co  Co117  1  0.24775340  0.49957521  0.00360874  1
  Co  Co118  1  0.37654912  0.62182263  0.12451880  1
  Co  Co119  1  0.25206118  0.74971254  0.00320854  1
  Co  Co120  1  0.24971525  0.25148257  0.00142027  1
  Co  Co121  1  0.87402342  0.37346053  0.37372325  1
  Co  Co122  1  0.87659061  0.62178180  0.61964043  1
  Co  Co123  1  0.12622015  0.12757550  0.87464884  1
  Co  Co124  1  0.87664901  0.12609714  0.62366105  1
  Co  Co125  1  0.37662974  0.12588031  0.62342000  1
  Co  Co126  1  0.50061823  0.49820138  0.50052992  1
  Co  Co127  1  0.25366671  0.49840491  0.74282335  1
