# generated using pymatgen
data_Fe45Co19
_symmetry_space_group_name_H-M   'P 1'
_cell_length_a   11.41519955
_cell_length_b   11.41491006
_cell_length_c   11.41625156
_cell_angle_alpha   89.99726290
_cell_angle_beta   89.99918119
_cell_angle_gamma   90.00586116
_symmetry_Int_Tables_number   1
_chemical_formula_structural   Fe45Co19
_chemical_formula_sum   'Fe90 Co38'
_cell_volume   1487.57725254
_cell_formula_units_Z   2
loop_
 _symmetry_equiv_pos_site_id
 _symmetry_equiv_pos_as_xyz
  1  'x, y, z'
loop_
 _atom_site_type_symbol
 _atom_site_label
 _atom_site_symmetry_multiplicity
 _atom_site_fract_x
 _atom_site_fract_y
 _atom_site_fract_z
 _atom_site_occupancy
  Fe  Fe0  1  0.12946045  0.12034025  0.37516684  1
  Fe  Fe1  1  0.74837408  0.00307280  -0.00065935  1
  Fe  Fe2  1  0.25105071  0.75026269  -0.00292860  1
  Fe  Fe3  1  0.00448052  -0.00117313  0.24560029  1
  Fe  Fe4  1  0.50087875  0.25006578  0.49828190  1
  Fe  Fe5  1  0.87650273  0.37081079  0.87496838  1
  Fe  Fe6  1  0.37348998  0.62483510  0.12565828  1
  Fe  Fe7  1  0.00303861  0.00558452  0.00139461  1
  Fe  Fe8  1  0.49732276  0.74973828  0.25277554  1
  Fe  Fe9  1  0.12566855  0.62423893  0.37506748  1
  Fe  Fe10  1  0.75065320  -0.00157058  0.24905704  1
  Fe  Fe11  1  0.87662290  0.87566076  0.12193425  1
  Fe  Fe12  1  0.37350796  0.87285972  0.12660745  1
  Fe  Fe13  1  0.62585541  0.62421181  0.37509943  1
  Fe  Fe14  1  0.62623005  0.37315141  0.62448776  1
  Fe  Fe15  1  0.87265835  0.37860823  0.37639050  1
  Fe  Fe16  1  0.87577145  0.12175336  0.37550816  1
  Fe  Fe17  1  0.25086421  0.49685172  -0.00143507  1
  Fe  Fe18  1  0.62355213  0.87840152  0.87365923  1
  Fe  Fe19  1  0.24769600  0.00128491  0.74577074  1
  Fe  Fe20  1  0.75041639  0.75035803  -0.00233803  1
  Fe  Fe21  1  0.62507007  0.12317499  0.37553719  1
  Fe  Fe22  1  0.12612650  0.87944890  0.87612757  1
  Fe  Fe23  1  0.62380657  0.87545680  0.12601383  1
  Fe  Fe24  1  0.62830156  0.37765052  0.37775346  1
  Fe  Fe25  1  0.37525774  0.12602629  0.62148986  1
  Fe  Fe26  1  -0.00008161  0.49760911  0.24790022  1
  Fe  Fe27  1  0.37510027  0.37125402  0.12725177  1
  Fe  Fe28  1  0.12434666  0.37201136  0.62375305  1
  Fe  Fe29  1  0.00241687  0.75243360  0.25037467  1
  Fe  Fe30  1  0.75056971  0.75112527  0.49934855  1
  Fe  Fe31  1  0.87496320  0.12681113  0.12553080  1
  Fe  Fe32  1  0.00031630  0.74956314  -0.00234605  1
  Fe  Fe33  1  0.62195589  0.37263350  0.87385040  1
  Fe  Fe34  1  0.87581111  0.87972419  0.87451793  1
  Fe  Fe35  1  0.37539249  0.37560112  0.37493392  1
  Fe  Fe36  1  0.00165516  0.75051024  0.75284196  1
  Fe  Fe37  1  0.00076587  0.49775452  0.74927754  1
  Fe  Fe38  1  0.87745918  0.87615278  0.37633412  1
  Fe  Fe39  1  0.12379126  0.36941482  0.87470465  1
  Fe  Fe40  1  0.49966169  0.00412020  0.00394601  1
  Fe  Fe41  1  0.62440672  0.62547257  0.12372291  1
  Fe  Fe42  1  0.49864999  0.75151762  0.49700229  1
  Fe  Fe43  1  0.87432527  0.62316685  0.37401149  1
  Fe  Fe44  1  0.50281326  0.00166457  0.74582659  1
  Fe  Fe45  1  0.49997476  -0.00188300  0.49914750  1
  Fe  Fe46  1  0.24961085  0.49843856  0.25089795  1
  Fe  Fe47  1  0.37435984  0.13217771  0.13087443  1
  Fe  Fe48  1  0.25012372  0.49959356  0.50085839  1
  Fe  Fe49  1  0.49947672  0.50140055  0.50160956  1
  Fe  Fe50  1  0.49817240  0.50178827  0.74980371  1
  Fe  Fe51  1  0.75088157  0.75169889  0.24978265  1
  Fe  Fe52  1  0.25004302  0.25042497  0.49674432  1
  Fe  Fe53  1  0.37503791  0.87897222  0.87414505  1
  Fe  Fe54  1  -0.00067493  0.24909291  0.49806663  1
  Fe  Fe55  1  0.12683076  0.62723872  0.62711023  1
  Fe  Fe56  1  0.62456086  0.37368558  0.12542900  1
  Fe  Fe57  1  0.12656970  0.62583364  0.12425223  1
  Fe  Fe58  1  0.74768875  -0.00215401  0.50237004  1
  Fe  Fe59  1  0.87515869  0.62448732  0.12424161  1
  Fe  Fe60  1  0.12585903  0.36976968  0.12395383  1
  Fe  Fe61  1  0.87444457  0.12492604  0.62396556  1
  Fe  Fe62  1  0.37467667  0.37455592  0.62487011  1
  Fe  Fe63  1  0.49829856  0.74864456  -0.00436811  1
  Fe  Fe64  1  0.37736687  0.12581012  0.87326936  1
  Fe  Fe65  1  0.62406282  0.62803749  0.62717151  1
  Fe  Fe66  1  0.37183418  0.62710266  0.62848820  1
  Fe  Fe67  1  0.49801937  0.00093351  0.25100462  1
  Fe  Fe68  1  0.74755089  0.24662268  -0.00011185  1
  Fe  Fe69  1  0.87603458  0.62696843  0.62688048  1
  Fe  Fe70  1  0.00076185  0.25098162  0.25258239  1
  Fe  Fe71  1  -0.00140386  0.49740799  0.00020699  1
  Fe  Fe72  1  0.74956872  0.75143613  0.75296679  1
  Fe  Fe73  1  0.50016862  0.50005307  0.25090998  1
  Fe  Fe74  1  0.00438005  -0.00151803  0.50299276  1
  Fe  Fe75  1  0.49805650  0.50009336  -0.00135356  1
  Fe  Fe76  1  0.12726878  0.62237378  0.87369026  1
  Fe  Fe77  1  0.87679412  0.87495154  0.62579200  1
  Fe  Fe78  1  0.74836880  0.24500510  0.74969834  1
  Fe  Fe79  1  0.24931157  0.00512941  0.00408619  1
  Fe  Fe80  1  0.87364257  0.37270839  0.62364397  1
  Fe  Fe81  1  0.25091813  0.24924381  0.74932984  1
  Fe  Fe82  1  0.37638006  0.87255154  0.62651413  1
  Fe  Fe83  1  0.24867796  0.75398425  0.49760624  1
  Fe  Fe84  1  0.00252312  0.00463218  0.74899102  1
  Fe  Fe85  1  0.75050515  0.50029604  0.75040937  1
  Fe  Fe86  1  0.37698306  0.37302579  0.87385933  1
  Fe  Fe87  1  0.74968872  0.25016799  0.25188294  1
  Fe  Fe88  1  -0.00124549  0.50148590  0.50237359  1
  Fe  Fe89  1  0.75160607  0.49950737  -0.00032418  1
  Co  Co90  1  0.12681577  0.87906573  0.37400883  1
  Co  Co91  1  0.24927816  -0.00088472  0.24383493  1
  Co  Co92  1  0.49904013  0.24884514  0.74695458  1
  Co  Co93  1  0.62077611  0.12354063  0.87385474  1
  Co  Co94  1  0.12645386  0.12925414  0.62267495  1
  Co  Co95  1  0.25394746  0.24830445  -0.00247195  1
  Co  Co96  1  0.87435230  0.37200222  0.12442654  1
  Co  Co97  1  0.62352442  0.87197493  0.62636233  1
  Co  Co98  1  0.12287516  0.87209568  0.62652682  1
  Co  Co99  1  -0.00089500  0.24724384  0.74759174  1
  Co  Co100  1  0.74939662  0.50006989  0.24747259  1
  Co  Co101  1  0.25000894  0.75417477  0.75395286  1
  Co  Co102  1  0.12362996  0.37788702  0.37810140  1
  Co  Co103  1  0.37303112  0.62335410  0.37570471  1
  Co  Co104  1  0.74863073  0.00204709  0.74750205  1
  Co  Co105  1  0.12620802  0.12765249  0.87401265  1
  Co  Co106  1  0.24776113  0.25234677  0.25582363  1
  Co  Co107  1  0.75053014  0.50345306  0.50340459  1
  Co  Co108  1  0.24892263  0.49551460  0.74974523  1
  Co  Co109  1  0.62507514  0.12436350  0.12815400  1
  Co  Co110  1  0.12641556  0.87241092  0.12198088  1
  Co  Co111  1  0.37120360  0.87893907  0.37362726  1
  Co  Co112  1  0.62527391  0.62315874  0.87569766  1
  Co  Co113  1  0.87511013  0.12530577  0.87475205  1
  Co  Co114  1  0.50315633  0.25106360  0.25393739  1
  Co  Co115  1  0.62461571  0.87584835  0.37339090  1
  Co  Co116  1  -0.00085252  0.24682194  0.00087087  1
  Co  Co117  1  0.12661262  0.13189448  0.12661908  1
  Co  Co118  1  0.00088927  0.74953430  0.49776313  1
  Co  Co119  1  0.49830769  0.74895592  0.75543421  1
  Co  Co120  1  0.24894484  0.75028401  0.25151321  1
  Co  Co121  1  0.87585857  0.62283772  0.87451984  1
  Co  Co122  1  0.62417486  0.12625256  0.62233675  1
  Co  Co123  1  0.24965925  -0.00354010  0.50569376  1
  Co  Co124  1  0.75123526  0.24764377  0.49804990  1
  Co  Co125  1  0.50038171  0.24798696  0.00150918  1
  Co  Co126  1  0.37238719  0.12293847  0.37559413  1
  Co  Co127  1  0.37136969  0.62202898  0.87298561  1
