# generated using pymatgen
data_Fe45Co19
_symmetry_space_group_name_H-M   'P 1'
_cell_length_a   11.41669656
_cell_length_b   11.41382329
_cell_length_c   11.41630744
_cell_angle_alpha   89.98967248
_cell_angle_beta   90.00764506
_cell_angle_gamma   89.99967490
_symmetry_Int_Tables_number   1
_chemical_formula_structural   Fe45Co19
_chemical_formula_sum   'Fe90 Co38'
_cell_volume   1487.63794585
_cell_formula_units_Z   2
loop_
 _symmetry_equiv_pos_site_id
 _symmetry_equiv_pos_as_xyz
  1  'x, y, z'
loop_
 _atom_site_type_symbol
 _atom_site_label
 _atom_site_symmetry_multiplicity
 _atom_site_fract_x
 _atom_site_fract_y
 _atom_site_fract_z
 _atom_site_occupancy
  Fe  Fe0  1  0.37422904  0.87503865  0.87483629  1
  Fe  Fe1  1  0.50069189  0.24789062  -0.00358303  1
  Fe  Fe2  1  0.74873367  0.75198668  0.50122642  1
  Fe  Fe3  1  0.00485671  0.24899155  0.49815460  1
  Fe  Fe4  1  -0.00051641  0.49926857  0.75049713  1
  Fe  Fe5  1  0.37298798  0.37302757  0.87710801  1
  Fe  Fe6  1  0.24942811  0.00212615  0.24769249  1
  Fe  Fe7  1  0.12287938  0.37766594  0.36819644  1
  Fe  Fe8  1  0.74994812  0.49751333  -0.00067576  1
  Fe  Fe9  1  0.50083077  0.49818971  -0.00023056  1
  Fe  Fe10  1  0.87195106  0.62515981  0.37725956  1
  Fe  Fe11  1  0.87303204  0.87724847  0.37524878  1
  Fe  Fe12  1  0.00099930  0.49737608  -0.00084590  1
  Fe  Fe13  1  0.37444856  0.62410499  0.37702436  1
  Fe  Fe14  1  0.87382816  0.87330452  0.12558485  1
  Fe  Fe15  1  0.00252974  -0.00244845  -0.00029380  1
  Fe  Fe16  1  0.25027625  0.74926578  0.25066447  1
  Fe  Fe17  1  0.00267242  0.75192083  -0.00154687  1
  Fe  Fe18  1  0.62397205  0.37242389  0.62611924  1
  Fe  Fe19  1  0.49887716  0.74722350  0.74897656  1
  Fe  Fe20  1  0.25288270  0.00319937  0.74771276  1
  Fe  Fe21  1  0.37435179  0.12760807  0.12239861  1
  Fe  Fe22  1  0.49980179  0.00304809  0.25089619  1
  Fe  Fe23  1  0.00048672  0.00209782  0.75110973  1
  Fe  Fe24  1  0.00157033  0.50098680  0.49875556  1
  Fe  Fe25  1  0.87520915  0.37319526  0.37376472  1
  Fe  Fe26  1  0.00106555  0.00263495  0.24946416  1
  Fe  Fe27  1  0.87496349  0.12774168  0.12253400  1
  Fe  Fe28  1  0.62756279  0.37138861  0.87286628  1
  Fe  Fe29  1  0.00235745  0.74931202  0.50042192  1
  Fe  Fe30  1  0.75121651  0.49973146  0.24898426  1
  Fe  Fe31  1  0.25150568  0.74894014  0.74746045  1
  Fe  Fe32  1  0.49874275  0.50006515  0.24850501  1
  Fe  Fe33  1  0.37357942  0.87638563  0.37582307  1
  Fe  Fe34  1  0.25063196  0.24844867  0.74967350  1
  Fe  Fe35  1  0.87280955  0.12469737  0.37625827  1
  Fe  Fe36  1  0.62627750  0.87367543  0.12351756  1
  Fe  Fe37  1  0.87225282  0.62743969  0.12301246  1
  Fe  Fe38  1  0.74879119  0.24925170  0.50072379  1
  Fe  Fe39  1  0.62717876  0.62797021  0.12156298  1
  Fe  Fe40  1  0.62141258  0.12772835  0.62570097  1
  Fe  Fe41  1  0.74907066  0.00221302  0.24791857  1
  Fe  Fe42  1  0.49898610  0.75009416  0.50192536  1
  Fe  Fe43  1  0.87494898  0.62511206  0.87535380  1
  Fe  Fe44  1  0.49989098  0.49788414  0.50084643  1
  Fe  Fe45  1  0.24816224  0.75156921  0.00042466  1
  Fe  Fe46  1  0.00104082  0.00110103  0.50039345  1
  Fe  Fe47  1  0.37567228  0.62346248  0.87674345  1
  Fe  Fe48  1  0.74852027  0.74880667  0.75150894  1
  Fe  Fe49  1  0.37507757  0.87476262  0.12559282  1
  Fe  Fe50  1  0.62289619  0.87753359  0.62511999  1
  Fe  Fe51  1  0.75131832  0.00465390  0.75035205  1
  Fe  Fe52  1  0.24834827  0.49876116  0.49942352  1
  Fe  Fe53  1  0.49607827  0.00502197  0.49841763  1
  Fe  Fe54  1  0.37437642  0.37099625  0.37460174  1
  Fe  Fe55  1  0.00446488  0.25308590  -0.00121502  1
  Fe  Fe56  1  0.62744305  0.37573473  0.37469028  1
  Fe  Fe57  1  0.74879986  0.50033718  0.74923065  1
  Fe  Fe58  1  0.24869435  0.49418557  0.00469308  1
  Fe  Fe59  1  0.12475137  0.62152506  0.12878735  1
  Fe  Fe60  1  0.87482984  0.62446709  0.62437849  1
  Fe  Fe61  1  0.50339280  0.24571883  0.25358057  1
  Fe  Fe62  1  0.50005859  0.00127810  -0.00041542  1
  Fe  Fe63  1  0.37589227  0.62481425  0.12369546  1
  Fe  Fe64  1  0.87624018  0.37323836  0.62516860  1
  Fe  Fe65  1  0.87586326  0.87520484  0.62687797  1
  Fe  Fe66  1  0.25197888  0.49949804  0.74863949  1
  Fe  Fe67  1  0.87859583  0.12754244  0.62537964  1
  Fe  Fe68  1  0.12564493  0.87686535  0.37429571  1
  Fe  Fe69  1  0.87397060  0.37101978  0.87257258  1
  Fe  Fe70  1  0.12645672  0.12603505  0.87601607  1
  Fe  Fe71  1  0.62637391  0.62347855  0.37704614  1
  Fe  Fe72  1  0.49538043  0.00503879  0.75122533  1
  Fe  Fe73  1  0.24685541  0.25049321  0.24580015  1
  Fe  Fe74  1  0.62522856  0.37094104  0.12526820  1
  Fe  Fe75  1  0.87660782  0.87569123  0.87386957  1
  Fe  Fe76  1  0.25110333  0.00351414  0.50288116  1
  Fe  Fe77  1  0.12463830  0.87549531  0.62745635  1
  Fe  Fe78  1  0.12548206  0.62339976  0.87323485  1
  Fe  Fe79  1  0.37602885  0.37014700  0.62226056  1
  Fe  Fe80  1  0.12391000  0.37482024  0.62754025  1
  Fe  Fe81  1  -0.00010217  0.74877154  0.25170329  1
  Fe  Fe82  1  0.24910323  0.74885303  0.50273746  1
  Fe  Fe83  1  0.74987578  0.00256601  -0.00219351  1
  Fe  Fe84  1  0.62644232  0.87909535  0.37677300  1
  Fe  Fe85  1  0.62330274  0.87534000  0.87466551  1
  Fe  Fe86  1  0.50125041  0.75074918  0.25038031  1
  Fe  Fe87  1  0.24755971  -0.00258233  0.00118411  1
  Fe  Fe88  1  0.87670136  0.37199665  0.12746970  1
  Fe  Fe89  1  0.50032436  0.49984782  0.74967502  1
  Co  Co90  1  0.12404677  0.87420930  0.12904843  1
  Co  Co91  1  0.75098178  0.49721898  0.50095394  1
  Co  Co92  1  0.75198715  0.24655287  0.74796263  1
  Co  Co93  1  0.75183767  0.00197882  0.50557105  1
  Co  Co94  1  0.49795106  0.75181998  0.00019433  1
  Co  Co95  1  0.87827825  0.12709365  0.87705216  1
  Co  Co96  1  -0.00658474  0.50444220  0.25127324  1
  Co  Co97  1  0.12656501  0.37572728  0.87116195  1
  Co  Co98  1  0.24516510  0.25560818  0.00364957  1
  Co  Co99  1  0.12727647  0.62263306  0.37279140  1
  Co  Co100  1  0.74843110  0.75095690  0.25256952  1
  Co  Co101  1  0.00052407  0.24464206  0.25160168  1
  Co  Co102  1  0.49616540  0.24972122  0.75422189  1
  Co  Co103  1  0.36983472  0.12835589  0.37467693  1
  Co  Co104  1  0.38031104  0.36974931  0.12522185  1
  Co  Co105  1  0.75027842  0.24955608  -0.00128364  1
  Co  Co106  1  0.62368335  0.62483795  0.87718755  1
  Co  Co107  1  0.12747093  0.12276231  0.37427225  1
  Co  Co108  1  0.37654886  0.13217971  0.62131383  1
  Co  Co109  1  0.37544017  0.62174373  0.62327129  1
  Co  Co110  1  0.24331310  0.25136135  0.49991667  1
  Co  Co111  1  0.74947502  0.24883235  0.25125279  1
  Co  Co112  1  0.00176360  0.24982689  0.75118830  1
  Co  Co113  1  0.11907975  0.37874012  0.13186945  1
  Co  Co114  1  0.12627045  0.87553953  0.87036107  1
  Co  Co115  1  0.50307936  0.24890699  0.49473186  1
  Co  Co116  1  0.37046982  0.12618220  0.87963096  1
  Co  Co117  1  0.12430020  0.62302716  0.62673594  1
  Co  Co118  1  0.12364145  0.12497687  0.12208893  1
  Co  Co119  1  0.62573043  0.12613673  0.87381377  1
  Co  Co120  1  0.62971467  0.12099861  0.37728142  1
  Co  Co121  1  0.12425715  0.12514004  0.62650585  1
  Co  Co122  1  -0.00043554  0.74930389  0.75045358  1
  Co  Co123  1  0.62510823  0.12674567  0.12286058  1
  Co  Co124  1  0.25633177  0.49732669  0.24822860  1
  Co  Co125  1  0.62523977  0.62333634  0.62362257  1
  Co  Co126  1  0.75123122  0.75259823  -0.00449547  1
  Co  Co127  1  0.37639936  0.87622683  0.62470642  1
