# generated using pymatgen
data_Fe45Co19
_symmetry_space_group_name_H-M   'P 1'
_cell_length_a   11.41524072
_cell_length_b   11.41435371
_cell_length_c   11.41635482
_cell_angle_alpha   89.99727588
_cell_angle_beta   90.01293353
_cell_angle_gamma   89.99657144
_symmetry_Int_Tables_number   1
_chemical_formula_structural   Fe45Co19
_chemical_formula_sum   'Fe90 Co38'
_cell_volume   1487.52353824
_cell_formula_units_Z   2
loop_
 _symmetry_equiv_pos_site_id
 _symmetry_equiv_pos_as_xyz
  1  'x, y, z'
loop_
 _atom_site_type_symbol
 _atom_site_label
 _atom_site_symmetry_multiplicity
 _atom_site_fract_x
 _atom_site_fract_y
 _atom_site_fract_z
 _atom_site_occupancy
  Fe  Fe0  1  0.00395335  0.74856181  0.25053519  1
  Fe  Fe1  1  0.87581851  0.12764020  0.87350558  1
  Fe  Fe2  1  0.87592269  0.87513258  0.37467960  1
  Fe  Fe3  1  0.37542923  0.87307676  0.62785154  1
  Fe  Fe4  1  0.24735261  0.50213353  0.25210100  1
  Fe  Fe5  1  0.37527810  0.12782343  0.62465860  1
  Fe  Fe6  1  0.50142173  0.00060141  0.74957540  1
  Fe  Fe7  1  0.62721471  0.62364031  0.62280497  1
  Fe  Fe8  1  0.37648086  0.87209174  0.87279052  1
  Fe  Fe9  1  0.12515130  0.87341292  0.87632182  1
  Fe  Fe10  1  0.00001462  0.50157557  0.74859522  1
  Fe  Fe11  1  0.00151479  0.24795331  0.49933756  1
  Fe  Fe12  1  0.00203388  0.00220976  0.24929561  1
  Fe  Fe13  1  0.62439173  0.12700031  0.62188777  1
  Fe  Fe14  1  0.25093856  0.75111752  0.49909517  1
  Fe  Fe15  1  0.49799185  -0.00118819  0.50130477  1
  Fe  Fe16  1  0.37438679  0.12541399  0.37661380  1
  Fe  Fe17  1  -0.00082024  0.00109583  0.00049419  1
  Fe  Fe18  1  0.75148578  -0.00088639  0.49938634  1
  Fe  Fe19  1  0.12575924  0.87808191  0.37767749  1
  Fe  Fe20  1  0.74636004  0.25340961  0.75139411  1
  Fe  Fe21  1  0.49774907  0.49788103  0.49786317  1
  Fe  Fe22  1  0.87558196  0.87454924  0.87384824  1
  Fe  Fe23  1  0.74883248  0.25160918  0.49604904  1
  Fe  Fe24  1  0.12557987  0.87818184  0.62253264  1
  Fe  Fe25  1  0.12792397  0.87590197  0.12375645  1
  Fe  Fe26  1  0.49687263  0.75158237  0.24733685  1
  Fe  Fe27  1  0.50169107  0.49850637  0.74784897  1
  Fe  Fe28  1  0.87318361  0.87317109  0.62462761  1
  Fe  Fe29  1  -0.00085527  0.74931381  0.00063060  1
  Fe  Fe30  1  0.50077585  0.75040944  0.50156429  1
  Fe  Fe31  1  0.75064963  0.74966819  0.00136501  1
  Fe  Fe32  1  -0.00025563  0.24978877  0.00224912  1
  Fe  Fe33  1  0.37832185  0.37331603  0.87382988  1
  Fe  Fe34  1  0.12360990  0.37552738  0.37471499  1
  Fe  Fe35  1  0.49650259  0.74904986  0.00234994  1
  Fe  Fe36  1  0.25094978  0.50052726  0.49857821  1
  Fe  Fe37  1  -0.00052951  0.74663581  0.50154267  1
  Fe  Fe38  1  0.74759836  0.74976217  0.74954591  1
  Fe  Fe39  1  0.62442048  0.62376745  0.37418192  1
  Fe  Fe40  1  0.12349496  0.12670438  0.87532195  1
  Fe  Fe41  1  0.62507991  0.87715014  0.12414873  1
  Fe  Fe42  1  0.87608952  0.62419495  0.12591716  1
  Fe  Fe43  1  0.24885904  0.50203260  0.75231238  1
  Fe  Fe44  1  0.24756186  0.24861497  0.50046267  1
  Fe  Fe45  1  0.12485981  0.37396887  0.12513090  1
  Fe  Fe46  1  0.24749237  0.24660212  0.25032024  1
  Fe  Fe47  1  0.25084257  -0.00008583  0.25124013  1
  Fe  Fe48  1  0.00293049  0.74744211  0.74800401  1
  Fe  Fe49  1  0.62419717  0.87645000  0.37545291  1
  Fe  Fe50  1  0.25215586  0.50065518  -0.00229679  1
  Fe  Fe51  1  0.87558153  0.62365659  0.87546268  1
  Fe  Fe52  1  0.24867333  0.24984036  0.75033208  1
  Fe  Fe53  1  0.74970926  0.00020545  -0.00018171  1
  Fe  Fe54  1  0.50142757  0.25428370  0.49551514  1
  Fe  Fe55  1  0.12440101  0.37611188  0.62415175  1
  Fe  Fe56  1  0.37818933  0.12905613  0.87623099  1
  Fe  Fe57  1  0.12680691  0.62497516  0.12361113  1
  Fe  Fe58  1  0.87491490  0.12756085  0.62669908  1
  Fe  Fe59  1  0.37307586  0.37316566  0.12845196  1
  Fe  Fe60  1  0.74925357  0.49678384  0.75121726  1
  Fe  Fe61  1  0.87665628  0.37597998  0.37064300  1
  Fe  Fe62  1  0.37352914  0.62728590  0.37278271  1
  Fe  Fe63  1  0.25175409  0.00138785  -0.00257542  1
  Fe  Fe64  1  0.25021206  0.00102669  0.74961635  1
  Fe  Fe65  1  0.37480645  0.37419688  0.62457807  1
  Fe  Fe66  1  0.50033940  0.00269630  0.24833269  1
  Fe  Fe67  1  0.75026146  0.49733024  0.00108033  1
  Fe  Fe68  1  0.37593019  0.12632559  0.12189096  1
  Fe  Fe69  1  0.49801473  0.49828951  0.00204884  1
  Fe  Fe70  1  0.74918977  0.25264105  0.00012837  1
  Fe  Fe71  1  0.75208486  0.49927675  0.49827705  1
  Fe  Fe72  1  0.37359794  0.62665115  0.62803295  1
  Fe  Fe73  1  0.87547068  0.37381906  0.62615952  1
  Fe  Fe74  1  0.62556952  0.37286236  0.13102615  1
  Fe  Fe75  1  0.87593049  0.37445831  0.12951524  1
  Fe  Fe76  1  0.87706522  0.62339053  0.37400045  1
  Fe  Fe77  1  0.62293516  0.62361469  0.87674629  1
  Fe  Fe78  1  0.87471390  0.87605134  0.12663629  1
  Fe  Fe79  1  0.25478328  0.74719495  -0.00006290  1
  Fe  Fe80  1  0.62311804  0.62369489  0.12640383  1
  Fe  Fe81  1  0.62195566  0.12853118  0.87798980  1
  Fe  Fe82  1  0.49751230  0.49695718  0.25302443  1
  Fe  Fe83  1  0.74937561  0.74972674  0.25077142  1
  Fe  Fe84  1  0.12155639  0.37502479  0.87641431  1
  Fe  Fe85  1  0.87269839  0.12493140  0.12720221  1
  Fe  Fe86  1  0.87492172  0.12425636  0.37258231  1
  Fe  Fe87  1  0.74781093  0.00059997  0.74994193  1
  Fe  Fe88  1  0.62374417  0.87432738  0.87600059  1
  Fe  Fe89  1  0.00014661  0.00111981  0.74820410  1
  Co  Co90  1  -0.00201432  0.49951378  0.50114433  1
  Co  Co91  1  0.37290926  0.87827797  0.12488284  1
  Co  Co92  1  0.00307430  0.50163829  0.24906072  1
  Co  Co93  1  0.12561938  0.62439114  0.37803304  1
  Co  Co94  1  0.37824373  0.62526455  0.87114646  1
  Co  Co95  1  0.25007854  0.25176116  -0.00161635  1
  Co  Co96  1  0.37381233  0.62175566  0.12906140  1
  Co  Co97  1  0.50481870  0.75003197  0.74769516  1
  Co  Co98  1  0.49991982  -0.00123501  -0.00098816  1
  Co  Co99  1  0.12737632  0.62251962  0.62258452  1
  Co  Co100  1  0.62144907  0.37529203  0.87548565  1
  Co  Co101  1  0.37000009  0.37329094  0.37384738  1
  Co  Co102  1  0.75119399  0.50290837  0.24918637  1
  Co  Co103  1  0.12558697  0.12275759  0.62367585  1
  Co  Co104  1  0.24583154  0.74926361  0.74969225  1
  Co  Co105  1  0.50137996  0.25132778  0.74706272  1
  Co  Co106  1  0.87785586  0.37481060  0.87440151  1
  Co  Co107  1  -0.00136874  0.49947895  0.00230600  1
  Co  Co108  1  0.74729252  0.24702081  0.25276931  1
  Co  Co109  1  0.49999568  0.24882354  0.25307033  1
  Co  Co110  1  0.00270270  0.24669925  0.25044968  1
  Co  Co111  1  -0.00440908  0.00283631  0.50152449  1
  Co  Co112  1  0.00271261  0.25000768  0.74844976  1
  Co  Co113  1  0.62703182  0.87613421  0.62287857  1
  Co  Co114  1  0.12632479  0.12099189  0.37786742  1
  Co  Co115  1  0.12383999  0.62497099  0.87768353  1
  Co  Co116  1  0.62475449  0.12227277  0.37701325  1
  Co  Co117  1  0.37650093  0.87435835  0.37366173  1
  Co  Co118  1  0.62516438  0.37544362  0.62124940  1
  Co  Co119  1  0.74986385  0.74929283  0.49679634  1
  Co  Co120  1  0.12727671  0.12379901  0.12260111  1
  Co  Co121  1  0.87197016  0.62483622  0.62585389  1
  Co  Co122  1  0.50014689  0.25413175  0.00382927  1
  Co  Co123  1  0.24871840  0.75074184  0.25087664  1
  Co  Co124  1  0.62511888  0.12614574  0.12329933  1
  Co  Co125  1  0.25491736  -0.00071699  0.50141488  1
  Co  Co126  1  0.74862391  -0.00085831  0.25006592  1
  Co  Co127  1  0.62772214  0.37795441  0.37276514  1
