# generated using pymatgen
data_Fe45Co19
_symmetry_space_group_name_H-M   'P 1'
_cell_length_a   11.41534976
_cell_length_b   11.41552873
_cell_length_c   11.41553076
_cell_angle_alpha   90.00197618
_cell_angle_beta   89.99943458
_cell_angle_gamma   90.00012804
_symmetry_Int_Tables_number   1
_chemical_formula_structural   Fe45Co19
_chemical_formula_sum   'Fe90 Co38'
_cell_volume   1487.58353383
_cell_formula_units_Z   2
loop_
 _symmetry_equiv_pos_site_id
 _symmetry_equiv_pos_as_xyz
  1  'x, y, z'
loop_
 _atom_site_type_symbol
 _atom_site_label
 _atom_site_symmetry_multiplicity
 _atom_site_fract_x
 _atom_site_fract_y
 _atom_site_fract_z
 _atom_site_occupancy
  Fe  Fe0  1  0.75007552  0.49766995  0.74940553  1
  Fe  Fe1  1  0.00035469  0.00168380  0.25315613  1
  Fe  Fe2  1  0.25316030  0.00142714  0.49955160  1
  Fe  Fe3  1  0.24881058  0.75084750  0.24786141  1
  Fe  Fe4  1  0.12462242  0.37211567  0.87518465  1
  Fe  Fe5  1  0.12470995  0.87398058  0.37491324  1
  Fe  Fe6  1  -0.00102725  0.75076489  0.24807751  1
  Fe  Fe7  1  0.74728620  0.49610921  0.24961549  1
  Fe  Fe8  1  0.50238507  -0.00004152  0.24998364  1
  Fe  Fe9  1  0.62564958  0.61896247  0.12104116  1
  Fe  Fe10  1  0.49972457  0.25010933  0.74878818  1
  Fe  Fe11  1  0.24889016  0.00013464  0.75012384  1
  Fe  Fe12  1  0.25030045  0.49856676  0.00025270  1
  Fe  Fe13  1  0.74901277  -0.00084385  0.74991444  1
  Fe  Fe14  1  0.87308215  0.62251633  0.12497619  1
  Fe  Fe15  1  0.62521237  0.37345802  0.37939811  1
  Fe  Fe16  1  0.49787593  0.00212126  0.49876219  1
  Fe  Fe17  1  0.87362143  0.87422544  0.37528799  1
  Fe  Fe18  1  0.87672141  0.12251782  0.62548982  1
  Fe  Fe19  1  0.12206947  0.37405555  0.12704145  1
  Fe  Fe20  1  0.25000207  0.75172209  0.00308855  1
  Fe  Fe21  1  0.87573434  0.62427908  0.62545935  1
  Fe  Fe22  1  0.00251315  0.49957160  0.25449789  1
  Fe  Fe23  1  -0.00283310  0.49672522  -0.00258441  1
  Fe  Fe24  1  0.62348796  0.12377617  0.62366963  1
  Fe  Fe25  1  0.37962477  0.87697710  0.62765815  1
  Fe  Fe26  1  0.12476459  0.87563678  0.87651391  1
  Fe  Fe27  1  -0.00056833  0.24762428  0.49675370  1
  Fe  Fe28  1  0.74872100  0.75110933  0.24722727  1
  Fe  Fe29  1  0.24986228  0.50066162  0.25565660  1
  Fe  Fe30  1  0.87279919  0.12913617  0.87525524  1
  Fe  Fe31  1  0.62590015  0.62311822  0.62397064  1
  Fe  Fe32  1  0.50304093  0.25176138  0.24910253  1
  Fe  Fe33  1  0.37620248  0.87356687  0.37267499  1
  Fe  Fe34  1  0.50123564  0.49940837  0.75136169  1
  Fe  Fe35  1  0.87392569  0.87923878  0.12414491  1
  Fe  Fe36  1  0.37368778  0.12530107  0.87365389  1
  Fe  Fe37  1  0.12534875  0.62553454  0.87533136  1
  Fe  Fe38  1  0.87244392  0.62560139  0.87491939  1
  Fe  Fe39  1  0.87279279  0.37274247  0.37403563  1
  Fe  Fe40  1  0.75084315  -0.00023535  0.50053231  1
  Fe  Fe41  1  0.12025611  0.87900437  0.62391085  1
  Fe  Fe42  1  0.62547306  0.87475667  0.37729719  1
  Fe  Fe43  1  0.49383359  0.24781098  0.50103607  1
  Fe  Fe44  1  0.87354761  0.62532948  0.37422027  1
  Fe  Fe45  1  0.86891448  0.12776980  0.37046167  1
  Fe  Fe46  1  0.87428353  0.87407555  0.87513568  1
  Fe  Fe47  1  0.25223411  -0.00151459  0.00261808  1
  Fe  Fe48  1  0.49998626  0.74827394  0.50182340  1
  Fe  Fe49  1  0.24955211  0.74943611  0.50111033  1
  Fe  Fe50  1  0.37815651  0.37835598  0.12745979  1
  Fe  Fe51  1  0.12285285  0.12703063  0.12437555  1
  Fe  Fe52  1  0.00238585  0.24804599  0.75164015  1
  Fe  Fe53  1  0.62267509  0.87528317  0.87510148  1
  Fe  Fe54  1  0.74838052  0.25029535  0.74624345  1
  Fe  Fe55  1  0.37435701  0.37434124  0.87293549  1
  Fe  Fe56  1  0.62565034  0.87927886  0.12118834  1
  Fe  Fe57  1  0.62621953  0.62415649  0.37660412  1
  Fe  Fe58  1  0.37337933  0.62146685  0.62411990  1
  Fe  Fe59  1  0.49834235  0.24977462  0.00185775  1
  Fe  Fe60  1  0.00370583  0.49989079  0.49832105  1
  Fe  Fe61  1  0.12386025  0.62349953  0.12536884  1
  Fe  Fe62  1  0.24984676  -0.00244738  0.24786822  1
  Fe  Fe63  1  0.25054477  0.25132973  0.00202780  1
  Fe  Fe64  1  -0.00055752  0.74918953  0.00135324  1
  Fe  Fe65  1  0.12990611  0.12676134  0.37514323  1
  Fe  Fe66  1  0.62695643  0.37449812  0.87880924  1
  Fe  Fe67  1  0.25158115  0.25184488  0.25108937  1
  Fe  Fe68  1  0.00035311  0.75148300  0.74920346  1
  Fe  Fe69  1  0.37251078  0.62538658  0.87318834  1
  Fe  Fe70  1  0.00121009  0.49843852  0.75057473  1
  Fe  Fe71  1  -0.00034237  0.00424347  -0.00256622  1
  Fe  Fe72  1  0.50308719  0.74870944  0.24882526  1
  Fe  Fe73  1  -0.00024095  0.74968168  0.50044305  1
  Fe  Fe74  1  0.12439376  0.12374698  0.62348199  1
  Fe  Fe75  1  0.75392850  0.25337753  0.00852426  1
  Fe  Fe76  1  0.49944279  0.74859641  -0.00005808  1
  Fe  Fe77  1  0.62691394  0.12693167  0.37423634  1
  Fe  Fe78  1  0.62614270  0.12718576  0.87890486  1
  Fe  Fe79  1  0.75089372  0.75088227  0.50259523  1
  Fe  Fe80  1  0.87655731  0.37389603  0.62436330  1
  Fe  Fe81  1  0.24984979  0.24989361  0.74657826  1
  Fe  Fe82  1  0.24870211  0.75139907  0.74793858  1
  Fe  Fe83  1  0.62374208  0.37523145  0.62170734  1
  Fe  Fe84  1  0.62811377  0.62307026  0.87773222  1
  Fe  Fe85  1  0.37648671  0.62328794  0.12746936  1
  Fe  Fe86  1  0.37710715  0.12417107  0.12751669  1
  Fe  Fe87  1  0.24626640  0.49813409  0.74744374  1
  Fe  Fe88  1  0.74867720  0.75279250  0.74707338  1
  Fe  Fe89  1  0.37824544  0.87490022  0.87318207  1
  Co  Co90  1  0.50136679  0.74586024  0.74935320  1
  Co  Co91  1  0.74919655  0.75129098  0.00175938  1
  Co  Co92  1  -0.00185612  0.25053918  -0.00056307  1
  Co  Co93  1  0.37500432  0.12443719  0.36937340  1
  Co  Co94  1  0.12444333  0.37111429  0.62207085  1
  Co  Co95  1  0.50288743  0.00418906  0.75265119  1
  Co  Co96  1  0.49907650  0.50136619  0.49795831  1
  Co  Co97  1  0.12740961  0.37018437  0.37630842  1
  Co  Co98  1  0.61995681  0.38044960  0.11990419  1
  Co  Co99  1  0.37538621  0.12318529  0.62882554  1
  Co  Co100  1  -0.00037235  0.00220572  0.75516415  1
  Co  Co101  1  0.74450488  0.25443475  0.24368795  1
  Co  Co102  1  0.00069310  0.24715423  0.25357357  1
  Co  Co103  1  -0.00159329  0.00343018  0.49367416  1
  Co  Co104  1  0.25506171  0.24736113  0.50109448  1
  Co  Co105  1  0.12401917  0.62571442  0.62589652  1
  Co  Co106  1  0.87519834  0.12365568  0.12820411  1
  Co  Co107  1  0.87785181  0.87803237  0.62424701  1
  Co  Co108  1  0.24557797  0.50130832  0.49734543  1
  Co  Co109  1  0.49502035  0.50093865  -0.00466828  1
  Co  Co110  1  0.12925015  0.12651546  0.87681241  1
  Co  Co111  1  0.37488135  0.62753574  0.37481499  1
  Co  Co112  1  0.49693986  0.00181614  -0.00103534  1
  Co  Co113  1  0.37899038  0.87445992  0.12728624  1
  Co  Co114  1  0.62198532  0.87708659  0.62477445  1
  Co  Co115  1  0.87327239  0.37067805  0.87069935  1
  Co  Co116  1  0.62637533  0.12173165  0.12381319  1
  Co  Co117  1  0.75171662  0.00122148  -0.00326823  1
  Co  Co118  1  0.75153182  0.24896405  0.50276030  1
  Co  Co119  1  0.50228256  0.49947630  0.25459253  1
  Co  Co120  1  0.75626018  0.49462536  0.00059373  1
  Co  Co121  1  0.37515433  0.37547907  0.37749999  1
  Co  Co122  1  0.12090442  0.87666971  0.12442154  1
  Co  Co123  1  0.74814678  -0.00156247  0.25204073  1
  Co  Co124  1  0.88159187  0.37419129  0.13100922  1
  Co  Co125  1  0.37458105  0.37834571  0.62361125  1
  Co  Co126  1  0.12471961  0.62983457  0.37414202  1
  Co  Co127  1  0.75215061  0.49946379  0.50034392  1
