# generated using pymatgen
data_Fe45Co19
_symmetry_space_group_name_H-M   'P 1'
_cell_length_a   11.41415513
_cell_length_b   11.41562033
_cell_length_c   11.41420133
_cell_angle_alpha   89.99973073
_cell_angle_beta   90.00316309
_cell_angle_gamma   89.99184939
_symmetry_Int_Tables_number   1
_chemical_formula_structural   Fe45Co19
_chemical_formula_sum   'Fe90 Co38'
_cell_volume   1487.26655183
_cell_formula_units_Z   2
loop_
 _symmetry_equiv_pos_site_id
 _symmetry_equiv_pos_as_xyz
  1  'x, y, z'
loop_
 _atom_site_type_symbol
 _atom_site_label
 _atom_site_symmetry_multiplicity
 _atom_site_fract_x
 _atom_site_fract_y
 _atom_site_fract_z
 _atom_site_occupancy
  Fe  Fe0  1  0.00195530  0.75033244  0.25063241  1
  Fe  Fe1  1  0.74856255  0.50043434  0.25142634  1
  Fe  Fe2  1  0.12107914  0.12369900  0.37369988  1
  Fe  Fe3  1  0.37445634  0.62342354  0.11984240  1
  Fe  Fe4  1  0.87639510  0.37697401  0.62358201  1
  Fe  Fe5  1  0.87433014  0.87613492  0.12514827  1
  Fe  Fe6  1  0.62492483  0.12193156  0.12614206  1
  Fe  Fe7  1  -0.00199976  0.50463078  0.49707450  1
  Fe  Fe8  1  0.00313845  0.25014692  0.50210416  1
  Fe  Fe9  1  0.12448133  0.62313833  0.62660376  1
  Fe  Fe10  1  0.12835835  0.87855318  0.12551387  1
  Fe  Fe11  1  0.62615954  0.87325065  0.87572308  1
  Fe  Fe12  1  0.75070213  0.50030932  0.75147910  1
  Fe  Fe13  1  0.62139073  0.62618684  0.12169824  1
  Fe  Fe14  1  0.37396904  0.87451189  0.37795235  1
  Fe  Fe15  1  0.24648956  0.24990873  0.74292425  1
  Fe  Fe16  1  0.37382725  0.62544554  0.37445406  1
  Fe  Fe17  1  0.75302995  0.00129931  0.49723967  1
  Fe  Fe18  1  0.37291787  0.37422052  0.62363402  1
  Fe  Fe19  1  0.24978734  0.50132990  0.49925100  1
  Fe  Fe20  1  0.49966119  -0.00012505  0.50122853  1
  Fe  Fe21  1  0.12832932  0.62251128  0.12653187  1
  Fe  Fe22  1  0.75173850  0.25017374  0.74919873  1
  Fe  Fe23  1  0.49813691  0.75097031  0.75097819  1
  Fe  Fe24  1  0.49847567  -0.00138236  -0.00238055  1
  Fe  Fe25  1  0.74912052  0.50203031  -0.00104641  1
  Fe  Fe26  1  0.75763897  0.74837587  0.50056049  1
  Fe  Fe27  1  0.87782687  0.12456190  0.62549554  1
  Fe  Fe28  1  0.00111726  0.49767069  0.75186330  1
  Fe  Fe29  1  0.87614448  0.62367305  0.12634888  1
  Fe  Fe30  1  0.37162391  0.87678258  0.12272188  1
  Fe  Fe31  1  0.50008480  0.24967118  0.50097110  1
  Fe  Fe32  1  0.62151668  0.12579060  0.87235792  1
  Fe  Fe33  1  0.36941965  0.87353731  0.87459521  1
  Fe  Fe34  1  0.37287133  0.62551218  0.62698491  1
  Fe  Fe35  1  0.37386634  0.37457247  0.37641011  1
  Fe  Fe36  1  0.37093189  0.37763667  0.12290531  1
  Fe  Fe37  1  0.50088420  0.50068058  0.49950519  1
  Fe  Fe38  1  0.74949025  0.24888138  0.50050614  1
  Fe  Fe39  1  0.62135123  0.12469971  0.62767034  1
  Fe  Fe40  1  0.37345786  0.12179670  0.12688853  1
  Fe  Fe41  1  0.12680386  0.37589513  0.37504882  1
  Fe  Fe42  1  0.75368082  0.24698257  0.24999029  1
  Fe  Fe43  1  0.37163439  0.37520971  0.87517930  1
  Fe  Fe44  1  0.12725810  0.87416659  0.87431270  1
  Fe  Fe45  1  -0.00093116  0.75077854  0.74688936  1
  Fe  Fe46  1  0.37555846  0.12381867  0.86779847  1
  Fe  Fe47  1  0.49791755  0.50118920  0.75286532  1
  Fe  Fe48  1  0.62672580  0.87392928  0.62256449  1
  Fe  Fe49  1  0.75111492  0.24820120  0.00153586  1
  Fe  Fe50  1  0.87796053  0.12654632  0.87533942  1
  Fe  Fe51  1  0.87510330  0.37452052  0.37483498  1
  Fe  Fe52  1  0.62538741  0.37445609  0.12452610  1
  Fe  Fe53  1  0.37572529  0.12553913  0.37580693  1
  Fe  Fe54  1  0.49934779  0.74895998  0.50075684  1
  Fe  Fe55  1  -0.00048653  0.25125365  0.00544664  1
  Fe  Fe56  1  0.62587344  0.37409937  0.87534342  1
  Fe  Fe57  1  0.50117323  -0.00311794  0.25292928  1
  Fe  Fe58  1  0.74839710  0.75217383  0.25014066  1
  Fe  Fe59  1  0.50031568  0.75269167  0.24904484  1
  Fe  Fe60  1  0.87789568  0.62573969  0.87522834  1
  Fe  Fe61  1  0.12233276  0.87518808  0.37789710  1
  Fe  Fe62  1  0.12423427  0.12629079  0.87182590  1
  Fe  Fe63  1  0.00163812  0.49755465  0.24948416  1
  Fe  Fe64  1  0.75318415  0.00035242  0.25517554  1
  Fe  Fe65  1  0.75017519  0.74942667  0.00050830  1
  Fe  Fe66  1  0.00299728  0.74999282  0.00172508  1
  Fe  Fe67  1  0.62722931  0.62442902  0.62544383  1
  Fe  Fe68  1  0.00049064  -0.00018057  0.74983765  1
  Fe  Fe69  1  0.87579712  0.37349672  0.87729181  1
  Fe  Fe70  1  0.00161881  -0.00040513  0.00068955  1
  Fe  Fe71  1  0.49900178  0.25025291  0.24871295  1
  Fe  Fe72  1  0.12548823  0.37220605  0.87462959  1
  Fe  Fe73  1  0.25079446  0.00402887  0.50332556  1
  Fe  Fe74  1  0.12479221  0.12362699  0.12833679  1
  Fe  Fe75  1  0.62613993  0.62678932  0.37664754  1
  Fe  Fe76  1  0.25055780  0.75017753  0.25023858  1
  Fe  Fe77  1  0.24782809  0.74814641  0.50074415  1
  Fe  Fe78  1  0.00356858  0.49872158  0.00078594  1
  Fe  Fe79  1  0.75004227  0.00046880  0.75050156  1
  Fe  Fe80  1  0.24908906  0.24972516  0.25231295  1
  Fe  Fe81  1  0.49860781  0.25003930  -0.00004230  1
  Fe  Fe82  1  0.75272643  0.74934521  0.74956152  1
  Fe  Fe83  1  0.62499678  0.37656559  0.62505089  1
  Fe  Fe84  1  0.25022742  0.24623908  0.00043948  1
  Fe  Fe85  1  0.12422862  0.87567894  0.62307817  1
  Fe  Fe86  1  0.87652536  0.87439901  0.87513325  1
  Fe  Fe87  1  0.75093564  0.00082731  -0.00166112  1
  Fe  Fe88  1  0.49933763  0.50024333  0.25000964  1
  Fe  Fe89  1  0.62476661  0.37328519  0.37498806  1
  Co  Co90  1  0.24779669  0.24676245  0.50122406  1
  Co  Co91  1  0.13117930  0.37478531  0.12547621  1
  Co  Co92  1  0.87567320  0.62106762  0.62820844  1
  Co  Co93  1  0.12441867  0.37955205  0.62282260  1
  Co  Co94  1  -0.00276224  -0.00121803  0.50070591  1
  Co  Co95  1  0.87518488  0.87798651  0.62628061  1
  Co  Co96  1  0.62326866  0.12597587  0.37453196  1
  Co  Co97  1  0.24986307  -0.00098408  0.25413177  1
  Co  Co98  1  0.62665743  0.87851354  0.12465029  1
  Co  Co99  1  -0.00085740  0.25200713  0.74759812  1
  Co  Co100  1  0.24567929  0.50214205  -0.00451221  1
  Co  Co101  1  -0.00267664  -0.00162959  0.24955115  1
  Co  Co102  1  0.37364930  0.62761571  0.87742100  1
  Co  Co103  1  0.50019154  0.25545991  0.75016050  1
  Co  Co104  1  0.25019247  0.49983278  0.75117069  1
  Co  Co105  1  0.87594029  0.12205032  0.12429157  1
  Co  Co106  1  0.50025082  0.49742620  -0.00341615  1
  Co  Co107  1  0.24598918  0.74854484  0.00138907  1
  Co  Co108  1  0.87484478  0.62592562  0.37035704  1
  Co  Co109  1  0.49963215  0.75447681  -0.00034662  1
  Co  Co110  1  0.24878901  0.00348746  -0.00275318  1
  Co  Co111  1  0.12157995  0.12318175  0.62586510  1
  Co  Co112  1  0.62415643  0.62732369  0.87472156  1
  Co  Co113  1  0.12405031  0.62725904  0.87149874  1
  Co  Co114  1  -0.00250707  0.74606867  0.50206712  1
  Co  Co115  1  0.24909937  -0.00014930  0.74652573  1
  Co  Co116  1  0.87898872  0.87203546  0.37518248  1
  Co  Co117  1  0.62578649  0.87304914  0.37891505  1
  Co  Co118  1  0.25162569  0.50078302  0.25175082  1
  Co  Co119  1  0.24890417  0.74985166  0.74837200  1
  Co  Co120  1  0.50000260  -0.00712958  0.74944543  1
  Co  Co121  1  0.87240014  0.37784512  0.12465315  1
  Co  Co122  1  -0.00057952  0.25325277  0.24685304  1
  Co  Co123  1  0.88131054  0.12769170  0.37628159  1
  Co  Co124  1  0.37343249  0.87333061  0.62313887  1
  Co  Co125  1  0.12613032  0.62567644  0.37431829  1
  Co  Co126  1  0.37875116  0.12632742  0.62841296  1
  Co  Co127  1  0.75051281  0.49999383  0.49838043  1
