# generated using pymatgen
data_Fe45Co19
_symmetry_space_group_name_H-M   'P 1'
_cell_length_a   11.41420202
_cell_length_b   11.41573594
_cell_length_c   11.41667969
_cell_angle_alpha   89.99499637
_cell_angle_beta   90.01011981
_cell_angle_gamma   90.00655612
_symmetry_Int_Tables_number   1
_chemical_formula_structural   Fe45Co19
_chemical_formula_sum   'Fe90 Co38'
_cell_volume   1487.61063411
_cell_formula_units_Z   2
loop_
 _symmetry_equiv_pos_site_id
 _symmetry_equiv_pos_as_xyz
  1  'x, y, z'
loop_
 _atom_site_type_symbol
 _atom_site_label
 _atom_site_symmetry_multiplicity
 _atom_site_fract_x
 _atom_site_fract_y
 _atom_site_fract_z
 _atom_site_occupancy
  Fe  Fe0  1  0.74990237  0.24746947  0.74891104  1
  Fe  Fe1  1  0.62892429  0.12055302  0.37479847  1
  Fe  Fe2  1  0.75148526  0.74793494  -0.00049069  1
  Fe  Fe3  1  0.62603055  0.87614608  0.12509734  1
  Fe  Fe4  1  0.62568782  0.37589216  0.37442543  1
  Fe  Fe5  1  0.62546838  0.37642217  0.87341953  1
  Fe  Fe6  1  0.87231232  0.87811263  0.37531850  1
  Fe  Fe7  1  0.37544615  0.87380255  0.12429568  1
  Fe  Fe8  1  -0.00099176  0.50024557  0.50088679  1
  Fe  Fe9  1  0.12366038  0.62577307  0.62454140  1
  Fe  Fe10  1  0.50273927  0.24908638  0.49927919  1
  Fe  Fe11  1  0.87530200  0.37646086  0.37400627  1
  Fe  Fe12  1  0.11708139  0.36933156  0.12502472  1
  Fe  Fe13  1  0.74919637  0.50158318  0.50381580  1
  Fe  Fe14  1  0.12478345  0.37731896  0.37513656  1
  Fe  Fe15  1  0.50257215  -0.00226138  0.49793076  1
  Fe  Fe16  1  0.38009456  0.62753336  0.62511798  1
  Fe  Fe17  1  0.24930288  0.49941679  0.24521817  1
  Fe  Fe18  1  0.74934072  0.00082657  -0.00011297  1
  Fe  Fe19  1  0.37407657  0.62282796  0.37422203  1
  Fe  Fe20  1  0.24858728  -0.00170281  0.50210459  1
  Fe  Fe21  1  0.12456773  0.62287277  0.87553729  1
  Fe  Fe22  1  0.24621432  -0.00024613  0.24593959  1
  Fe  Fe23  1  0.12315082  0.12550956  0.62313905  1
  Fe  Fe24  1  0.12778956  0.87676734  0.87467173  1
  Fe  Fe25  1  0.62397595  0.62340200  0.87251430  1
  Fe  Fe26  1  0.75361243  0.50206020  0.24688597  1
  Fe  Fe27  1  0.11975406  0.62727275  0.12342289  1
  Fe  Fe28  1  0.12405245  0.37643012  0.87569124  1
  Fe  Fe29  1  0.87379971  0.87605402  0.87478108  1
  Fe  Fe30  1  0.62641211  0.12456937  0.62637469  1
  Fe  Fe31  1  0.75178179  0.24746314  0.25180754  1
  Fe  Fe32  1  0.37563914  0.62324450  0.87750574  1
  Fe  Fe33  1  0.74972518  0.50255584  0.74573981  1
  Fe  Fe34  1  0.37353829  0.87657994  0.37480126  1
  Fe  Fe35  1  0.24985014  0.25028130  0.50030567  1
  Fe  Fe36  1  0.75344603  0.49938497  0.00192985  1
  Fe  Fe37  1  0.49927991  0.25001976  -0.00181349  1
  Fe  Fe38  1  0.74824483  0.75083070  0.50010094  1
  Fe  Fe39  1  0.00036182  0.24870329  0.75150852  1
  Fe  Fe40  1  0.24803987  0.75121572  0.00110978  1
  Fe  Fe41  1  0.00269943  -0.00023182  0.00061058  1
  Fe  Fe42  1  -0.00107313  0.74931429  0.25350751  1
  Fe  Fe43  1  0.87813000  0.12804605  0.12405833  1
  Fe  Fe44  1  0.25264178  0.75066487  0.74920775  1
  Fe  Fe45  1  0.62085657  0.87136307  0.62695262  1
  Fe  Fe46  1  0.75036573  0.75011976  0.24969283  1
  Fe  Fe47  1  0.12516689  0.87388348  0.62509739  1
  Fe  Fe48  1  0.50107869  -0.00291358  0.75638238  1
  Fe  Fe49  1  0.50116454  0.24815279  0.25137057  1
  Fe  Fe50  1  0.00077823  0.00142622  0.74876085  1
  Fe  Fe51  1  0.25128028  0.49753681  0.00470846  1
  Fe  Fe52  1  0.50094177  0.00019022  0.24908328  1
  Fe  Fe53  1  0.87384077  0.12141116  0.38208197  1
  Fe  Fe54  1  0.87748945  0.87268274  0.12365161  1
  Fe  Fe55  1  0.24905843  0.74948667  0.24893571  1
  Fe  Fe56  1  -0.00006404  0.74890089  0.75339844  1
  Fe  Fe57  1  0.37545979  0.37428110  0.62405231  1
  Fe  Fe58  1  0.75305742  0.25194220  -0.00129680  1
  Fe  Fe59  1  0.62441081  0.62511219  0.12442677  1
  Fe  Fe60  1  0.12557164  0.37571190  0.62483116  1
  Fe  Fe61  1  0.87623907  0.87608344  0.62679222  1
  Fe  Fe62  1  0.87481810  0.37175575  0.62528631  1
  Fe  Fe63  1  0.50136555  0.75060197  0.25185446  1
  Fe  Fe64  1  0.62568372  0.37372052  0.12571011  1
  Fe  Fe65  1  0.25207556  0.50127849  0.74805045  1
  Fe  Fe66  1  0.37471747  0.37587177  0.37503015  1
  Fe  Fe67  1  0.50018297  -0.00046862  -0.00373843  1
  Fe  Fe68  1  0.62596730  0.62486570  0.37582878  1
  Fe  Fe69  1  0.37575113  0.37640445  0.87550340  1
  Fe  Fe70  1  0.50180546  0.49983099  0.50248494  1
  Fe  Fe71  1  0.00145322  0.00109517  0.24980060  1
  Fe  Fe72  1  0.12450912  0.12380436  0.37746288  1
  Fe  Fe73  1  0.37302064  0.12663994  0.12277014  1
  Fe  Fe74  1  0.37368046  0.12392898  0.37529718  1
  Fe  Fe75  1  0.75076726  0.74953702  0.75027424  1
  Fe  Fe76  1  0.25038621  0.24949883  0.75048828  1
  Fe  Fe77  1  0.37618231  0.12181782  0.62663360  1
  Fe  Fe78  1  0.24872902  0.25048714  0.24893805  1
  Fe  Fe79  1  -0.00219370  0.50173617  0.74917302  1
  Fe  Fe80  1  0.87283819  0.12297899  0.87226897  1
  Fe  Fe81  1  0.13026135  0.12463555  0.87848137  1
  Fe  Fe82  1  0.50082774  0.75080506  -0.00275595  1
  Fe  Fe83  1  -0.00616875  0.49943970  -0.00012803  1
  Fe  Fe84  1  0.49914132  0.50077298  0.24667057  1
  Fe  Fe85  1  -0.00094367  0.75158454  0.49817395  1
  Fe  Fe86  1  0.62579398  0.12547455  0.12353331  1
  Fe  Fe87  1  0.49947059  0.24962149  0.75128589  1
  Fe  Fe88  1  0.25246243  0.75057202  0.50107214  1
  Fe  Fe89  1  0.12562949  0.62407239  0.37675929  1
  Co  Co90  1  -0.00149576  0.24541969  0.25650571  1
  Co  Co91  1  0.62677714  0.12661315  0.87523571  1
  Co  Co92  1  0.50026449  0.49951987  0.00222629  1
  Co  Co93  1  0.37600947  0.62806209  0.12394170  1
  Co  Co94  1  0.74824783  0.25032784  0.49871661  1
  Co  Co95  1  0.24874597  -0.00015188  0.74696553  1
  Co  Co96  1  0.12655206  0.87497245  0.37523687  1
  Co  Co97  1  0.25100131  0.50103584  0.50265372  1
  Co  Co98  1  -0.00005820  0.75036609  -0.00603337  1
  Co  Co99  1  0.87667965  0.62785955  0.62438195  1
  Co  Co100  1  0.37790017  0.37195488  0.12673386  1
  Co  Co101  1  -0.00388308  0.25007249  -0.00703573  1
  Co  Co102  1  0.24744459  -0.00222037  0.00554745  1
  Co  Co103  1  0.49634280  0.75310787  0.75659887  1
  Co  Co104  1  0.87348480  0.62441592  0.37667120  1
  Co  Co105  1  0.12110531  0.87140898  0.12596198  1
  Co  Co106  1  0.62091178  0.63018950  0.62650838  1
  Co  Co107  1  0.87779031  0.37122412  0.12902320  1
  Co  Co108  1  0.25108490  0.25424288  0.00039577  1
  Co  Co109  1  0.62975614  0.87348508  0.87638519  1
  Co  Co110  1  0.62832733  0.87799673  0.37143581  1
  Co  Co111  1  0.74792483  -0.00354049  0.50557930  1
  Co  Co112  1  0.37774966  0.87736821  0.62441548  1
  Co  Co113  1  -0.00066660  0.50304016  0.24943666  1
  Co  Co114  1  0.36933900  0.87742178  0.87651325  1
  Co  Co115  1  0.49921628  0.49897176  0.74797953  1
  Co  Co116  1  0.62609103  0.37305298  0.62635686  1
  Co  Co117  1  0.75307563  0.00173323  0.24573652  1
  Co  Co118  1  0.00050136  0.25255443  0.49916056  1
  Co  Co119  1  0.87256667  0.37617806  0.86995113  1
  Co  Co120  1  0.37109289  0.12327731  0.87581820  1
  Co  Co121  1  0.74835813  -0.00122289  0.74851148  1
  Co  Co122  1  0.49991657  0.75149984  0.49415616  1
  Co  Co123  1  0.87485768  0.12588833  0.62319629  1
  Co  Co124  1  0.00099843  -0.00273102  0.50166336  1
  Co  Co125  1  0.87761646  0.62884501  0.12434475  1
  Co  Co126  1  0.12314961  0.12999112  0.12207596  1
  Co  Co127  1  0.87367628  0.62449698  0.87363212  1
