# generated using pymatgen
data_Fe45Co19
_symmetry_space_group_name_H-M   'P 1'
_cell_length_a   11.41498333
_cell_length_b   11.41416913
_cell_length_c   11.41554011
_cell_angle_alpha   89.99474500
_cell_angle_beta   90.01405363
_cell_angle_gamma   90.00853489
_symmetry_Int_Tables_number   1
_chemical_formula_structural   Fe45Co19
_chemical_formula_sum   'Fe90 Co38'
_cell_volume   1487.35976603
_cell_formula_units_Z   2
loop_
 _symmetry_equiv_pos_site_id
 _symmetry_equiv_pos_as_xyz
  1  'x, y, z'
loop_
 _atom_site_type_symbol
 _atom_site_label
 _atom_site_symmetry_multiplicity
 _atom_site_fract_x
 _atom_site_fract_y
 _atom_site_fract_z
 _atom_site_occupancy
  Fe  Fe0  1  0.24910397  0.74894537  0.25135526  1
  Fe  Fe1  1  0.12153035  0.12220116  0.87226217  1
  Fe  Fe2  1  0.24811406  0.50003513  0.50079932  1
  Fe  Fe3  1  0.37251330  0.87963325  0.12270973  1
  Fe  Fe4  1  0.87451111  0.37583274  0.62672271  1
  Fe  Fe5  1  0.37462761  0.37562466  0.37533976  1
  Fe  Fe6  1  0.12566933  0.62442702  0.12396436  1
  Fe  Fe7  1  0.37422653  0.62244284  0.37585341  1
  Fe  Fe8  1  0.74822859  0.25153796  0.50001434  1
  Fe  Fe9  1  0.49864261  0.24951098  0.24927146  1
  Fe  Fe10  1  0.62688130  0.63072393  0.87473470  1
  Fe  Fe11  1  0.37565678  0.37321374  0.62927669  1
  Fe  Fe12  1  0.49706676  0.75214472  0.24879563  1
  Fe  Fe13  1  0.62479759  0.12401550  0.62694116  1
  Fe  Fe14  1  0.62239317  0.12243601  0.12481850  1
  Fe  Fe15  1  0.49943999  0.75279312  -0.00134525  1
  Fe  Fe16  1  -0.00107061  0.24880105  0.49830723  1
  Fe  Fe17  1  0.37311010  0.62593063  0.12296559  1
  Fe  Fe18  1  0.50084200  -0.00278283  0.75125634  1
  Fe  Fe19  1  0.12494601  0.37357503  0.37299749  1
  Fe  Fe20  1  0.75107414  0.75111805  0.24857981  1
  Fe  Fe21  1  0.87624251  0.87285485  0.37695999  1
  Fe  Fe22  1  0.62385558  0.12560945  0.37449950  1
  Fe  Fe23  1  0.12345676  0.12499606  0.12672993  1
  Fe  Fe24  1  0.74827270  0.49978435  0.49926917  1
  Fe  Fe25  1  0.49926405  0.24659782  -0.00213027  1
  Fe  Fe26  1  0.87457362  0.12532802  0.62487418  1
  Fe  Fe27  1  0.49928286  0.50075145  -0.00217104  1
  Fe  Fe28  1  0.37182937  0.87712791  0.87570412  1
  Fe  Fe29  1  0.24807539  0.49991218  0.75070159  1
  Fe  Fe30  1  0.62596501  0.12258651  0.87470209  1
  Fe  Fe31  1  0.24984196  0.49907505  -0.00164333  1
  Fe  Fe32  1  0.62357916  0.87602266  0.12363841  1
  Fe  Fe33  1  0.37405061  0.37401999  0.12281496  1
  Fe  Fe34  1  0.25117878  0.24756674  0.50265764  1
  Fe  Fe35  1  0.37196492  0.62782598  0.87340786  1
  Fe  Fe36  1  0.00021895  0.00091895  0.49837675  1
  Fe  Fe37  1  0.00169083  0.75046134  0.75124869  1
  Fe  Fe38  1  0.87716548  0.62714102  0.37638568  1
  Fe  Fe39  1  0.25068633  0.24422328  -0.00298059  1
  Fe  Fe40  1  0.50194177  0.25212382  0.50301179  1
  Fe  Fe41  1  0.12471360  0.87562607  0.62576681  1
  Fe  Fe42  1  0.25157042  0.24790301  0.24964365  1
  Fe  Fe43  1  0.00343924  -0.00450766  0.00108706  1
  Fe  Fe44  1  0.00006720  0.00108041  0.25390715  1
  Fe  Fe45  1  0.75162096  0.24890928  0.24819608  1
  Fe  Fe46  1  0.62882035  0.37498701  0.87646260  1
  Fe  Fe47  1  0.75062098  -0.00096512  0.25111657  1
  Fe  Fe48  1  0.24786591  0.74817108  0.50053760  1
  Fe  Fe49  1  0.75211246  -0.00374576  0.74912671  1
  Fe  Fe50  1  0.75037719  0.50081910  0.24857937  1
  Fe  Fe51  1  0.87288586  0.37484251  0.12057902  1
  Fe  Fe52  1  0.87443068  0.37401642  0.37438465  1
  Fe  Fe53  1  0.49819831  0.49917584  0.24805310  1
  Fe  Fe54  1  0.12605144  0.37310162  0.12351097  1
  Fe  Fe55  1  0.00108909  0.50072585  0.50027660  1
  Fe  Fe56  1  0.50278650  0.49812464  0.50254980  1
  Fe  Fe57  1  0.87717330  0.62780987  0.12167416  1
  Fe  Fe58  1  0.87605478  0.87167922  0.62163405  1
  Fe  Fe59  1  0.24364855  0.75419702  -0.00205650  1
  Fe  Fe60  1  0.12184876  0.12488306  0.62616988  1
  Fe  Fe61  1  0.25055943  0.00254420  0.74861903  1
  Fe  Fe62  1  0.62614220  0.37525312  0.12212226  1
  Fe  Fe63  1  0.75223810  0.24854667  0.75322404  1
  Fe  Fe64  1  0.37371231  0.87565998  0.37629497  1
  Fe  Fe65  1  0.49962269  0.00061507  0.50047862  1
  Fe  Fe66  1  0.74996685  -0.00144787  0.50073325  1
  Fe  Fe67  1  0.00308354  0.75194740  0.24973967  1
  Fe  Fe68  1  0.12496266  0.62460755  0.62807634  1
  Fe  Fe69  1  0.62389442  0.62542386  0.37353196  1
  Fe  Fe70  1  0.12279580  0.37414436  0.62866295  1
  Fe  Fe71  1  0.75237571  0.50209556  0.75126237  1
  Fe  Fe72  1  0.62378820  0.62670474  0.12373083  1
  Fe  Fe73  1  0.25141834  0.00373457  0.25232890  1
  Fe  Fe74  1  0.00174029  0.49870303  -0.00377798  1
  Fe  Fe75  1  0.62404937  0.87391900  0.37627447  1
  Fe  Fe76  1  0.62554402  0.62869110  0.62782927  1
  Fe  Fe77  1  0.50041350  0.50093040  0.75100218  1
  Fe  Fe78  1  -0.00223382  0.25015025  -0.00321196  1
  Fe  Fe79  1  -0.00280971  0.25095044  0.75357394  1
  Fe  Fe80  1  0.25061418  0.00403642  0.50018448  1
  Fe  Fe81  1  0.37513972  0.87417830  0.62528331  1
  Fe  Fe82  1  0.74945855  -0.00199828  0.00038636  1
  Fe  Fe83  1  0.00117163  0.49806147  0.24867100  1
  Fe  Fe84  1  0.87679964  0.87439879  0.87769720  1
  Fe  Fe85  1  0.49924973  0.74846383  0.50232979  1
  Fe  Fe86  1  0.87635972  0.12264210  0.12404351  1
  Fe  Fe87  1  0.87610174  0.62803277  0.87830828  1
  Fe  Fe88  1  0.87572227  0.62709782  0.62356365  1
  Fe  Fe89  1  0.37310801  0.37081138  0.87248074  1
  Co  Co90  1  0.37776485  0.12650458  0.37640164  1
  Co  Co91  1  0.37697337  0.12147946  0.12452628  1
  Co  Co92  1  0.87682718  0.87589034  0.12548415  1
  Co  Co93  1  0.00547304  0.74956698  0.50027372  1
  Co  Co94  1  0.37882715  0.12665065  0.62821377  1
  Co  Co95  1  0.75046165  0.75255517  0.00242586  1
  Co  Co96  1  0.62631190  0.87302884  0.87517514  1
  Co  Co97  1  0.50382810  0.25022474  0.75148947  1
  Co  Co98  1  0.12483658  0.62328769  0.37303145  1
  Co  Co99  1  0.37596381  0.12427900  0.87117334  1
  Co  Co100  1  0.37431426  0.62319758  0.62595115  1
  Co  Co101  1  0.24721553  0.00360193  -0.00114850  1
  Co  Co102  1  0.12625846  0.87695137  0.37559504  1
  Co  Co103  1  0.24980265  0.75112441  0.74887384  1
  Co  Co104  1  0.12484723  0.12717039  0.37531853  1
  Co  Co105  1  0.25022240  0.49934529  0.24857030  1
  Co  Co106  1  0.49967930  0.00044998  -0.00311258  1
  Co  Co107  1  0.12659565  0.37404660  0.87446219  1
  Co  Co108  1  0.87684625  0.11934734  0.87622815  1
  Co  Co109  1  0.87336718  0.12560667  0.37609259  1
  Co  Co110  1  0.62372871  0.87307268  0.62517301  1
  Co  Co111  1  0.00555061  0.75441128  -0.00005801  1
  Co  Co112  1  -0.00263275  0.25030945  0.24902240  1
  Co  Co113  1  -0.00123118  0.50033628  0.75263037  1
  Co  Co114  1  0.49878416  -0.00227169  0.25152241  1
  Co  Co115  1  -0.00390369  -0.00181769  0.74678221  1
  Co  Co116  1  0.12593228  0.62498287  0.87485685  1
  Co  Co117  1  0.49691088  0.75176056  0.75068792  1
  Co  Co118  1  0.74767409  0.74950965  0.49976194  1
  Co  Co119  1  0.74847810  0.50424253  0.00089835  1
  Co  Co120  1  0.87106787  0.37690212  0.87726634  1
  Co  Co121  1  0.24632686  0.24583610  0.74963334  1
  Co  Co122  1  0.62795203  0.37554667  0.62948679  1
  Co  Co123  1  0.75351940  0.75349887  0.74990507  1
  Co  Co124  1  0.62565523  0.37471896  0.37197899  1
  Co  Co125  1  0.12770424  0.87796811  0.12947714  1
  Co  Co126  1  0.12523449  0.87868451  0.86985321  1
  Co  Co127  1  0.75102607  0.24518073  -0.00022414  1
