# generated using pymatgen
data_Fe45Co19
_symmetry_space_group_name_H-M   'P 1'
_cell_length_a   11.41594054
_cell_length_b   11.41500304
_cell_length_c   11.41474578
_cell_angle_alpha   89.99616604
_cell_angle_beta   90.00802903
_cell_angle_gamma   89.99206659
_symmetry_Int_Tables_number   1
_chemical_formula_structural   Fe45Co19
_chemical_formula_sum   'Fe90 Co38'
_cell_volume   1487.48968904
_cell_formula_units_Z   2
loop_
 _symmetry_equiv_pos_site_id
 _symmetry_equiv_pos_as_xyz
  1  'x, y, z'
loop_
 _atom_site_type_symbol
 _atom_site_label
 _atom_site_symmetry_multiplicity
 _atom_site_fract_x
 _atom_site_fract_y
 _atom_site_fract_z
 _atom_site_occupancy
  Fe  Fe0  1  0.75234798  0.49793350  0.00159789  1
  Fe  Fe1  1  0.75073475  0.25142229  0.24988556  1
  Fe  Fe2  1  0.25138282  0.00066363  0.00091358  1
  Fe  Fe3  1  0.75074477  -0.00022796  0.00221223  1
  Fe  Fe4  1  0.74877932  -0.00000249  0.74771926  1
  Fe  Fe5  1  0.75128232  0.49743404  0.50124667  1
  Fe  Fe6  1  0.87390862  0.62571731  0.87543451  1
  Fe  Fe7  1  0.87601813  0.37434662  0.87425381  1
  Fe  Fe8  1  0.24941312  0.49910462  0.74891712  1
  Fe  Fe9  1  0.49845201  0.75042155  0.25321725  1
  Fe  Fe10  1  0.37434816  0.37414034  0.12258145  1
  Fe  Fe11  1  0.12465010  0.37546338  0.62330432  1
  Fe  Fe12  1  0.62113812  0.87417585  0.62049186  1
  Fe  Fe13  1  0.37755843  0.87517819  0.62204894  1
  Fe  Fe14  1  0.87627819  0.12587534  0.62358790  1
  Fe  Fe15  1  0.49877801  -0.00000809  0.25427985  1
  Fe  Fe16  1  0.62293986  0.12654770  0.12834821  1
  Fe  Fe17  1  0.37243576  0.37697507  0.37424788  1
  Fe  Fe18  1  0.62501933  0.12508073  0.87530303  1
  Fe  Fe19  1  0.37485833  0.87239383  0.87577128  1
  Fe  Fe20  1  0.00266779  0.25027130  0.25298967  1
  Fe  Fe21  1  0.00262714  0.24911426  0.49708589  1
  Fe  Fe22  1  0.75279637  0.24981486  0.00160484  1
  Fe  Fe23  1  0.24994115  0.50099472  0.00014512  1
  Fe  Fe24  1  0.37427115  0.87276551  0.12419604  1
  Fe  Fe25  1  0.00279913  0.24975350  0.75231459  1
  Fe  Fe26  1  0.12476915  0.37331943  0.12319175  1
  Fe  Fe27  1  0.00188160  0.74664992  0.49804215  1
  Fe  Fe28  1  0.37111489  0.87940130  0.37859649  1
  Fe  Fe29  1  0.25007112  0.25178967  0.25090583  1
  Fe  Fe30  1  0.49756233  0.50077394  0.50059193  1
  Fe  Fe31  1  -0.00005391  0.49955229  0.74708673  1
  Fe  Fe32  1  0.62509298  0.87433935  0.87498783  1
  Fe  Fe33  1  0.24899105  0.00046509  0.74815742  1
  Fe  Fe34  1  0.62254534  0.37450408  0.62617726  1
  Fe  Fe35  1  -0.00212300  0.49829122  0.00158572  1
  Fe  Fe36  1  0.12559702  0.87757785  0.87616095  1
  Fe  Fe37  1  0.25104058  0.74703914  0.50139973  1
  Fe  Fe38  1  0.75015432  0.75241218  0.00202921  1
  Fe  Fe39  1  0.87742330  0.12565344  0.12854059  1
  Fe  Fe40  1  0.00083047  0.74986469  0.74854310  1
  Fe  Fe41  1  0.62346495  0.37439461  0.12465066  1
  Fe  Fe42  1  0.49801217  0.49943973  0.24894616  1
  Fe  Fe43  1  0.24867965  0.24997373  0.49779785  1
  Fe  Fe44  1  0.74921788  0.74993596  0.49941431  1
  Fe  Fe45  1  0.62330267  0.37491388  0.37345464  1
  Fe  Fe46  1  0.37554041  0.12580881  0.62570475  1
  Fe  Fe47  1  0.75026516  -0.00046565  0.25176621  1
  Fe  Fe48  1  0.74646498  0.00299094  0.49842323  1
  Fe  Fe49  1  0.49954230  0.24684203  0.49644061  1
  Fe  Fe50  1  0.87681160  0.37603281  0.37502791  1
  Fe  Fe51  1  0.00154120  0.00073424  0.74761839  1
  Fe  Fe52  1  0.87497464  0.87515816  0.87343046  1
  Fe  Fe53  1  0.62468917  0.62451113  0.37636347  1
  Fe  Fe54  1  0.62422533  0.62541987  0.12387684  1
  Fe  Fe55  1  0.37441094  0.62813997  0.12342952  1
  Fe  Fe56  1  0.49959011  0.25058937  0.75387470  1
  Fe  Fe57  1  0.87597727  0.12458434  0.87409445  1
  Fe  Fe58  1  0.12816337  0.61892770  0.37694122  1
  Fe  Fe59  1  0.49756657  0.25012066  -0.00276611  1
  Fe  Fe60  1  0.12546024  0.12578283  0.12348453  1
  Fe  Fe61  1  0.49997532  -0.00064111  0.00003777  1
  Fe  Fe62  1  0.87909540  0.87194407  0.12837325  1
  Fe  Fe63  1  0.75123888  0.74809976  0.25090136  1
  Fe  Fe64  1  0.24592807  0.75321888  0.24964387  1
  Fe  Fe65  1  0.24742884  0.24878666  0.75536412  1
  Fe  Fe66  1  0.00118829  0.75037850  -0.00117497  1
  Fe  Fe67  1  -0.00171664  0.50164513  0.24998251  1
  Fe  Fe68  1  0.24773373  0.75047760  0.74941775  1
  Fe  Fe69  1  0.74828111  0.49939778  0.74816273  1
  Fe  Fe70  1  0.00464999  -0.00250579  0.25420154  1
  Fe  Fe71  1  0.74971387  0.24911650  0.49915218  1
  Fe  Fe72  1  0.75182525  0.50085189  0.24880534  1
  Fe  Fe73  1  0.12543273  0.62355148  0.87370978  1
  Fe  Fe74  1  0.50063808  0.00069368  0.74920273  1
  Fe  Fe75  1  0.75017667  0.25005779  0.74910863  1
  Fe  Fe76  1  0.37615928  0.37417663  0.62773872  1
  Fe  Fe77  1  0.12479848  0.87578384  0.62072725  1
  Fe  Fe78  1  0.62330811  0.87469428  0.12818609  1
  Fe  Fe79  1  0.87680293  0.87451330  0.37604284  1
  Fe  Fe80  1  0.12409353  0.62682438  0.12585142  1
  Fe  Fe81  1  0.74890566  0.74980820  0.74766753  1
  Fe  Fe82  1  -0.00187090  0.00056922  0.00015427  1
  Fe  Fe83  1  0.87484061  0.62418208  0.62298919  1
  Fe  Fe84  1  0.37113443  0.62206739  0.37297214  1
  Fe  Fe85  1  0.37481845  0.12602343  0.12716329  1
  Fe  Fe86  1  0.49900453  0.50149056  -0.00516771  1
  Fe  Fe87  1  0.87655454  0.87640648  0.62230783  1
  Fe  Fe88  1  0.50284938  0.74581530  0.75133579  1
  Fe  Fe89  1  0.37631261  0.62417584  0.62798034  1
  Co  Co90  1  0.87672640  0.37226584  0.62479992  1
  Co  Co91  1  0.37485854  0.12263023  0.87345407  1
  Co  Co92  1  0.37060185  0.12317695  0.37331688  1
  Co  Co93  1  -0.00076708  0.49907976  0.50167449  1
  Co  Co94  1  0.49659931  0.74676513  0.49664650  1
  Co  Co95  1  0.12490914  0.12724705  0.62525866  1
  Co  Co96  1  0.24787962  -0.00252688  0.24640602  1
  Co  Co97  1  0.62946681  0.62522325  0.87772591  1
  Co  Co98  1  0.25017142  0.00478259  0.50538664  1
  Co  Co99  1  0.87505827  0.12523206  0.37432193  1
  Co  Co100  1  0.12865104  0.87738461  0.38152003  1
  Co  Co101  1  0.00066315  0.00353807  0.49913051  1
  Co  Co102  1  -0.00162353  0.25042337  -0.00087020  1
  Co  Co103  1  0.62357602  0.12725067  0.62644371  1
  Co  Co104  1  0.25295086  0.49874117  0.50451663  1
  Co  Co105  1  0.87436376  0.62415358  0.37676436  1
  Co  Co106  1  0.37247828  0.37766673  0.87369123  1
  Co  Co107  1  0.12310602  0.87533025  0.12225905  1
  Co  Co108  1  0.12566860  0.62398842  0.62426552  1
  Co  Co109  1  0.87656089  0.62824742  0.12457378  1
  Co  Co110  1  0.50119836  0.75019456  -0.00082946  1
  Co  Co111  1  0.62659260  0.37351576  0.87517480  1
  Co  Co112  1  0.62450150  0.62391488  0.62106624  1
  Co  Co113  1  0.25085983  0.49817404  0.24483304  1
  Co  Co114  1  0.50224648  0.50195683  0.75268197  1
  Co  Co115  1  0.49591362  0.25290011  0.25132989  1
  Co  Co116  1  0.37144521  0.62677763  0.87377659  1
  Co  Co117  1  0.24704008  0.75002751  -0.00022188  1
  Co  Co118  1  0.00480666  0.74923297  0.25508078  1
  Co  Co119  1  0.12470952  0.12226260  0.87764018  1
  Co  Co120  1  0.12649654  0.38027124  0.37493065  1
  Co  Co121  1  0.50167485  0.00475144  0.49768400  1
  Co  Co122  1  0.12512133  0.37717372  0.87706943  1
  Co  Co123  1  0.62461090  0.87330149  0.37606055  1
  Co  Co124  1  0.12942153  0.12211287  0.37415782  1
  Co  Co125  1  0.62513632  0.12798944  0.37022280  1
  Co  Co126  1  0.87663808  0.37356419  0.12802050  1
  Co  Co127  1  0.25141723  0.24885633  -0.00247039  1
