# generated using pymatgen
data_Fe45Co19
_symmetry_space_group_name_H-M   'P 1'
_cell_length_a   11.41459670
_cell_length_b   11.41430862
_cell_length_c   11.41583352
_cell_angle_alpha   89.99556073
_cell_angle_beta   89.99767822
_cell_angle_gamma   90.00759578
_symmetry_Int_Tables_number   1
_chemical_formula_structural   Fe45Co19
_chemical_formula_sum   'Fe90 Co38'
_cell_volume   1487.36584166
_cell_formula_units_Z   2
loop_
 _symmetry_equiv_pos_site_id
 _symmetry_equiv_pos_as_xyz
  1  'x, y, z'
loop_
 _atom_site_type_symbol
 _atom_site_label
 _atom_site_symmetry_multiplicity
 _atom_site_fract_x
 _atom_site_fract_y
 _atom_site_fract_z
 _atom_site_occupancy
  Fe  Fe0  1  0.37410261  0.12453921  0.87455072  1
  Fe  Fe1  1  0.12501584  0.12284051  0.37194567  1
  Fe  Fe2  1  0.12128185  0.62232756  0.62760080  1
  Fe  Fe3  1  0.37336744  0.62448011  0.87403062  1
  Fe  Fe4  1  0.50033034  0.00002433  0.50105656  1
  Fe  Fe5  1  0.62475047  0.62500396  0.62459984  1
  Fe  Fe6  1  0.12431979  0.87438362  0.37595086  1
  Fe  Fe7  1  0.87549616  0.37368735  0.12520986  1
  Fe  Fe8  1  0.12507849  0.37517631  0.12479480  1
  Fe  Fe9  1  0.50067164  0.50187859  0.24995625  1
  Fe  Fe10  1  0.62505815  0.37316305  0.87505850  1
  Fe  Fe11  1  0.74586514  0.75065584  0.25071872  1
  Fe  Fe12  1  0.62625494  0.12817263  0.87293545  1
  Fe  Fe13  1  0.12458356  0.37482932  0.87635903  1
  Fe  Fe14  1  0.87592384  0.37682826  0.62448157  1
  Fe  Fe15  1  0.49931838  0.25341241  0.74639512  1
  Fe  Fe16  1  0.87453163  0.37295814  0.87667482  1
  Fe  Fe17  1  0.62584959  0.87420916  0.62381253  1
  Fe  Fe18  1  0.49856840  0.49608974  0.74793473  1
  Fe  Fe19  1  0.87383008  0.62708531  0.12445226  1
  Fe  Fe20  1  0.12514582  0.62444698  0.87534166  1
  Fe  Fe21  1  0.87487967  0.62799631  0.87519373  1
  Fe  Fe22  1  0.24972173  0.25040016  0.25045876  1
  Fe  Fe23  1  0.87525206  0.87508006  0.62643472  1
  Fe  Fe24  1  0.75033082  -0.00202063  0.75189447  1
  Fe  Fe25  1  0.37936970  0.87593846  0.12132014  1
  Fe  Fe26  1  0.25039873  0.25046796  0.00082104  1
  Fe  Fe27  1  0.49894606  0.00128439  0.74920785  1
  Fe  Fe28  1  0.62786557  0.12776513  0.62479119  1
  Fe  Fe29  1  -0.00024111  0.50173689  -0.00005563  1
  Fe  Fe30  1  0.25095158  0.25182104  0.74930253  1
  Fe  Fe31  1  0.37810725  0.87265119  0.37678231  1
  Fe  Fe32  1  0.25128629  0.49789884  0.75081692  1
  Fe  Fe33  1  0.62139111  0.87542855  0.87676375  1
  Fe  Fe34  1  -0.00204343  0.74702485  0.49982408  1
  Fe  Fe35  1  0.12665561  0.12347163  0.87423599  1
  Fe  Fe36  1  0.00058774  0.74893362  0.24832824  1
  Fe  Fe37  1  0.25138610  0.74693761  0.50271696  1
  Fe  Fe38  1  0.25129312  0.50266140  0.50026715  1
  Fe  Fe39  1  0.87544466  0.12505833  0.37257731  1
  Fe  Fe40  1  0.37545156  0.37679796  0.12306845  1
  Fe  Fe41  1  0.12762392  0.62497579  0.12325524  1
  Fe  Fe42  1  0.74918767  0.49809606  0.00095804  1
  Fe  Fe43  1  0.00032530  0.24992993  0.49778636  1
  Fe  Fe44  1  0.75081243  0.74780379  0.49929372  1
  Fe  Fe45  1  0.62637691  0.12561512  0.12520473  1
  Fe  Fe46  1  0.12332004  0.12254561  0.62614202  1
  Fe  Fe47  1  0.25237504  0.50129930  0.24977206  1
  Fe  Fe48  1  0.12345575  0.37690639  0.62441844  1
  Fe  Fe49  1  0.75190706  0.50226136  0.49909260  1
  Fe  Fe50  1  0.74881447  0.25231198  0.24922740  1
  Fe  Fe51  1  0.12684872  0.87705251  0.87168142  1
  Fe  Fe52  1  0.24963399  -0.00024631  0.49942746  1
  Fe  Fe53  1  -0.00008073  0.24640787  0.00424005  1
  Fe  Fe54  1  0.12399823  0.37624732  0.37490013  1
  Fe  Fe55  1  0.37354349  0.12876889  0.62214961  1
  Fe  Fe56  1  0.87586310  0.87436838  0.37407943  1
  Fe  Fe57  1  0.12654489  0.87683519  0.12519200  1
  Fe  Fe58  1  0.37510317  0.12662141  0.37712328  1
  Fe  Fe59  1  0.87477100  0.87488768  0.12332637  1
  Fe  Fe60  1  0.75157624  0.49963864  0.75017635  1
  Fe  Fe61  1  0.37196124  0.12197136  0.12517369  1
  Fe  Fe62  1  0.87541987  0.12402486  0.62575477  1
  Fe  Fe63  1  0.50066691  0.24884499  0.00090086  1
  Fe  Fe64  1  0.25185911  0.75221393  -0.00148060  1
  Fe  Fe65  1  0.50301986  0.74726533  0.24870157  1
  Fe  Fe66  1  0.00052120  0.00090771  0.24816107  1
  Fe  Fe67  1  0.37340262  0.87343680  0.62763110  1
  Fe  Fe68  1  0.25238636  0.75087943  0.24977592  1
  Fe  Fe69  1  0.74669349  0.50074076  0.24990473  1
  Fe  Fe70  1  -0.00168436  0.75074114  0.75160769  1
  Fe  Fe71  1  0.12511352  0.62530090  0.37431370  1
  Fe  Fe72  1  0.00083351  0.00039535  0.00020818  1
  Fe  Fe73  1  0.50041079  0.25123479  0.25035833  1
  Fe  Fe74  1  0.74729587  0.75150657  -0.00013961  1
  Fe  Fe75  1  0.00013243  0.50152444  0.24933779  1
  Fe  Fe76  1  0.49914299  0.49863027  0.50088585  1
  Fe  Fe77  1  0.74699875  -0.00317043  0.24969876  1
  Fe  Fe78  1  0.49982779  0.74959348  0.75031957  1
  Fe  Fe79  1  0.37472006  0.37321546  0.37834064  1
  Fe  Fe80  1  0.75069653  -0.00003082  0.49837187  1
  Fe  Fe81  1  -0.00133197  0.25042078  0.75066709  1
  Fe  Fe82  1  0.62507560  0.12668275  0.37658320  1
  Fe  Fe83  1  0.87565632  0.37574569  0.37397789  1
  Fe  Fe84  1  0.49964047  0.50207922  0.00115644  1
  Fe  Fe85  1  0.50142817  -0.00048888  0.25032048  1
  Fe  Fe86  1  0.87319732  0.12527089  0.87589754  1
  Fe  Fe87  1  0.74777259  -0.00012540  0.00024748  1
  Fe  Fe88  1  0.12394216  0.87697070  0.62677056  1
  Fe  Fe89  1  0.62610025  0.62450487  0.87454484  1
  Co  Co90  1  0.62510312  0.37547471  0.37591260  1
  Co  Co91  1  0.62326516  0.87377261  0.37811464  1
  Co  Co92  1  -0.00209019  0.49938391  0.75427739  1
  Co  Co93  1  0.00253730  0.75094157  -0.00021088  1
  Co  Co94  1  0.62886819  0.37574589  0.62416917  1
  Co  Co95  1  -0.00280196  -0.00064349  0.75260665  1
  Co  Co96  1  0.37313391  0.62522232  0.12429379  1
  Co  Co97  1  0.50386563  0.25165935  0.50175296  1
  Co  Co98  1  0.74815063  0.75103697  0.75049251  1
  Co  Co99  1  0.75219670  0.25196350  0.74896939  1
  Co  Co100  1  0.87194096  0.12345602  0.12555059  1
  Co  Co101  1  0.37756280  0.87578349  0.87405470  1
  Co  Co102  1  0.62664036  0.62465952  0.12382941  1
  Co  Co103  1  0.25291083  -0.00355997  0.25281775  1
  Co  Co104  1  0.62171211  0.87477731  0.12182654  1
  Co  Co105  1  0.75213751  0.24987788  0.49930280  1
  Co  Co106  1  -0.00065900  0.00011543  0.49846395  1
  Co  Co107  1  0.62299912  0.62552461  0.37768275  1
  Co  Co108  1  0.74889800  0.25119755  0.00181810  1
  Co  Co109  1  -0.00212821  0.50188807  0.49734632  1
  Co  Co110  1  0.37652630  0.62665881  0.37546180  1
  Co  Co111  1  0.12976619  0.12256030  0.12645397  1
  Co  Co112  1  0.24928284  0.74817730  0.74986294  1
  Co  Co113  1  0.25280314  0.00160536  0.74875814  1
  Co  Co114  1  0.62285246  0.37523629  0.12390673  1
  Co  Co115  1  0.50103236  0.00463938  -0.00121155  1
  Co  Co116  1  0.24979318  0.49945313  -0.00081039  1
  Co  Co117  1  0.87412060  0.87376144  0.87687292  1
  Co  Co118  1  0.37680390  0.62393299  0.62770916  1
  Co  Co119  1  0.37155196  0.37309331  0.62139281  1
  Co  Co120  1  0.00111157  0.24896293  0.24860349  1
  Co  Co121  1  0.49932787  0.74539548  -0.00149277  1
  Co  Co122  1  0.37622786  0.37477951  0.87729379  1
  Co  Co123  1  0.25086692  -0.00272916  -0.00186364  1
  Co  Co124  1  0.24476199  0.24852324  0.49870046  1
  Co  Co125  1  0.87464363  0.62587690  0.37110548  1
  Co  Co126  1  0.49874299  0.75010259  0.50355806  1
  Co  Co127  1  0.87626216  0.62555296  0.62857897  1
