# generated using pymatgen
data_Fe45Co19
_symmetry_space_group_name_H-M   'P 1'
_cell_length_a   11.41622748
_cell_length_b   11.41477910
_cell_length_c   11.41387094
_cell_angle_alpha   90.01783282
_cell_angle_beta   90.00373977
_cell_angle_gamma   89.99136902
_symmetry_Int_Tables_number   1
_chemical_formula_structural   Fe45Co19
_chemical_formula_sum   'Fe90 Co38'
_cell_volume   1487.38383075
_cell_formula_units_Z   2
loop_
 _symmetry_equiv_pos_site_id
 _symmetry_equiv_pos_as_xyz
  1  'x, y, z'
loop_
 _atom_site_type_symbol
 _atom_site_label
 _atom_site_symmetry_multiplicity
 _atom_site_fract_x
 _atom_site_fract_y
 _atom_site_fract_z
 _atom_site_occupancy
  Fe  Fe0  1  0.50235002  0.00288927  0.00058659  1
  Fe  Fe1  1  0.00522573  0.00110224  0.75276365  1
  Fe  Fe2  1  0.12458357  0.37273554  0.37409209  1
  Fe  Fe3  1  0.37921404  0.12623248  0.37209881  1
  Fe  Fe4  1  0.25133876  -0.00112677  0.49491798  1
  Fe  Fe5  1  0.25359132  0.24897972  0.00160365  1
  Fe  Fe6  1  0.87436849  0.12342222  0.62552938  1
  Fe  Fe7  1  0.25059724  0.75151216  0.49543648  1
  Fe  Fe8  1  0.75201944  0.25339762  0.24826097  1
  Fe  Fe9  1  0.25291555  0.24916063  0.49940208  1
  Fe  Fe10  1  0.74957699  0.75156616  0.75009251  1
  Fe  Fe11  1  0.25334354  0.75053427  0.00002116  1
  Fe  Fe12  1  0.62557291  0.36895925  0.87425109  1
  Fe  Fe13  1  0.74667934  0.00073770  0.24834453  1
  Fe  Fe14  1  0.87406651  0.37524856  0.62675852  1
  Fe  Fe15  1  0.74829028  0.75124089  0.50089506  1
  Fe  Fe16  1  0.50020789  0.75030835  0.50118673  1
  Fe  Fe17  1  0.50005465  0.00300006  0.75123106  1
  Fe  Fe18  1  0.87457356  0.37634961  0.37438935  1
  Fe  Fe19  1  0.62475334  0.62453769  0.12254401  1
  Fe  Fe20  1  0.49698058  0.74955643  -0.00004300  1
  Fe  Fe21  1  0.12408500  0.37014163  0.87663996  1
  Fe  Fe22  1  0.00023413  0.49988434  0.75329392  1
  Fe  Fe23  1  0.37365488  0.37460640  0.87665983  1
  Fe  Fe24  1  0.12713313  0.37322716  0.62578797  1
  Fe  Fe25  1  0.38029450  0.37340421  0.37584521  1
  Fe  Fe26  1  -0.00245968  0.24821527  0.75052803  1
  Fe  Fe27  1  0.74779033  0.00181655  0.75320160  1
  Fe  Fe28  1  0.50173155  0.49623774  0.00000792  1
  Fe  Fe29  1  0.62286528  0.87487320  0.87504310  1
  Fe  Fe30  1  0.75086194  0.49886193  0.75384468  1
  Fe  Fe31  1  0.37403210  0.62180838  0.12475941  1
  Fe  Fe32  1  0.62335797  0.62418208  0.62737538  1
  Fe  Fe33  1  0.25324530  0.24664037  0.74977575  1
  Fe  Fe34  1  0.25242877  0.75080702  0.75269354  1
  Fe  Fe35  1  0.62342111  0.13085166  0.37388043  1
  Fe  Fe36  1  0.37762374  0.87764667  0.12881095  1
  Fe  Fe37  1  0.12734360  0.87556104  0.62427203  1
  Fe  Fe38  1  0.75028490  0.74770993  0.24836092  1
  Fe  Fe39  1  0.24786005  0.49613094  0.24843545  1
  Fe  Fe40  1  0.74993546  0.75033433  -0.00094071  1
  Fe  Fe41  1  0.62579959  0.12981887  0.12179930  1
  Fe  Fe42  1  -0.00494402  0.24923506  0.00325177  1
  Fe  Fe43  1  0.62333309  0.62409392  0.37487346  1
  Fe  Fe44  1  0.37586785  0.12603539  0.12709465  1
  Fe  Fe45  1  0.25111719  0.49880370  0.49960494  1
  Fe  Fe46  1  0.87560539  0.62228850  0.37470457  1
  Fe  Fe47  1  0.24938539  0.49981595  0.75175477  1
  Fe  Fe48  1  0.00375047  0.49783247  0.24559494  1
  Fe  Fe49  1  0.37492166  0.87802026  0.62633434  1
  Fe  Fe50  1  0.87528608  0.87803183  0.87678587  1
  Fe  Fe51  1  0.50156857  0.00072131  0.49925395  1
  Fe  Fe52  1  0.12798510  0.12474401  0.62484517  1
  Fe  Fe53  1  0.24764707  0.00218351  0.00013162  1
  Fe  Fe54  1  0.87515363  0.87608277  0.37312218  1
  Fe  Fe55  1  0.50324874  0.49532703  0.24676974  1
  Fe  Fe56  1  0.12383645  0.12574031  0.37010058  1
  Fe  Fe57  1  -0.00102494  0.74871919  0.00082705  1
  Fe  Fe58  1  0.25053251  0.75211343  0.25259031  1
  Fe  Fe59  1  -0.00050836  0.24973484  0.49980355  1
  Fe  Fe60  1  0.12637456  0.62466681  0.62432466  1
  Fe  Fe61  1  0.00142871  0.49890432  0.50133501  1
  Fe  Fe62  1  0.75526030  0.24852446  -0.00229580  1
  Fe  Fe63  1  0.24604203  0.49850348  0.00121352  1
  Fe  Fe64  1  0.00041749  0.00097876  0.49843102  1
  Fe  Fe65  1  0.00096372  0.74927377  0.49816827  1
  Fe  Fe66  1  0.37684879  0.62337047  0.37305205  1
  Fe  Fe67  1  0.87429826  0.61938965  0.12085147  1
  Fe  Fe68  1  0.00184144  0.00266828  0.00130554  1
  Fe  Fe69  1  0.74616376  0.49767650  0.24897116  1
  Fe  Fe70  1  0.12543036  0.87459612  0.12662597  1
  Fe  Fe71  1  0.74899458  0.25258955  0.50241359  1
  Fe  Fe72  1  0.62579154  0.12633225  0.62581203  1
  Fe  Fe73  1  0.37460852  0.87901091  0.87498748  1
  Fe  Fe74  1  0.49789973  0.49880468  0.75090062  1
  Fe  Fe75  1  0.12505935  0.12922027  0.12980664  1
  Fe  Fe76  1  0.74685495  0.49810753  0.50104026  1
  Fe  Fe77  1  0.12557861  0.62804249  0.87698321  1
  Fe  Fe78  1  0.74752455  -0.00068676  0.49866785  1
  Fe  Fe79  1  0.87340894  0.87817721  0.12487419  1
  Fe  Fe80  1  0.87442205  0.87744053  0.62510280  1
  Fe  Fe81  1  0.62325461  0.87332646  0.12558008  1
  Fe  Fe82  1  0.37511778  0.62411313  0.62592562  1
  Fe  Fe83  1  0.87434426  0.12490140  0.37244376  1
  Fe  Fe84  1  0.00001290  0.75073807  0.75061436  1
  Fe  Fe85  1  0.00059647  0.74834886  0.25010323  1
  Fe  Fe86  1  0.62242943  0.62764821  0.87428818  1
  Fe  Fe87  1  0.49590723  0.24772658  0.74826701  1
  Fe  Fe88  1  0.87433112  0.62483111  0.62541459  1
  Fe  Fe89  1  0.62205350  0.87310340  0.37144632  1
  Co  Co90  1  0.24598747  0.00130954  0.75440535  1
  Co  Co91  1  0.37398945  0.37581490  0.62497027  1
  Co  Co92  1  0.12531708  0.36880487  0.12414333  1
  Co  Co93  1  0.62419058  0.12944300  0.87669878  1
  Co  Co94  1  0.25037091  -0.00013361  0.25032903  1
  Co  Co95  1  0.12230077  0.87700366  0.37353945  1
  Co  Co96  1  0.12564805  0.87266364  0.87857175  1
  Co  Co97  1  0.37482490  0.62206714  0.87779104  1
  Co  Co98  1  0.87547180  0.12112278  0.87490749  1
  Co  Co99  1  0.87612138  0.37592945  0.87745022  1
  Co  Co100  1  0.62345456  0.87699409  0.62667134  1
  Co  Co101  1  0.12501330  0.13002153  0.87757753  1
  Co  Co102  1  0.87258460  0.38131071  0.12123209  1
  Co  Co103  1  0.74651659  0.00014263  0.00007975  1
  Co  Co104  1  0.74605337  0.50069529  -0.00593379  1
  Co  Co105  1  0.50412621  0.00452308  0.24758808  1
  Co  Co106  1  0.62420384  0.37490908  0.62832723  1
  Co  Co107  1  0.50075856  0.49996486  0.50177797  1
  Co  Co108  1  -0.00514833  0.25243826  0.24850572  1
  Co  Co109  1  0.49948346  0.74625214  0.24755738  1
  Co  Co110  1  0.38105786  0.87658929  0.37157971  1
  Co  Co111  1  0.00582498  0.50006773  -0.00077096  1
  Co  Co112  1  0.50114400  0.25382002  0.24496116  1
  Co  Co113  1  0.37376350  0.37656533  0.12384338  1
  Co  Co114  1  0.49556143  0.25081066  0.00044776  1
  Co  Co115  1  0.87552487  0.62596485  0.87663246  1
  Co  Co116  1  0.62224025  0.37243128  0.37698053  1
  Co  Co117  1  -0.00016474  0.00079602  0.24817530  1
  Co  Co118  1  0.25347862  0.25185561  0.25124420  1
  Co  Co119  1  0.62956142  0.37148486  0.11944211  1
  Co  Co120  1  0.12795959  0.62811005  0.12483639  1
  Co  Co121  1  0.37471801  0.12316868  0.87687796  1
  Co  Co122  1  0.87256955  0.12218017  0.12643201  1
  Co  Co123  1  0.75322117  0.24854076  0.74984774  1
  Co  Co124  1  0.49679074  0.75040793  0.75063482  1
  Co  Co125  1  0.49952205  0.24971963  0.50533356  1
  Co  Co126  1  0.12554769  0.62280147  0.37450039  1
  Co  Co127  1  0.37256169  0.12045283  0.62427593  1
