# generated using pymatgen
data_Fe45Co19
_symmetry_space_group_name_H-M   'P 1'
_cell_length_a   11.41415542
_cell_length_b   11.41497436
_cell_length_c   11.41559934
_cell_angle_alpha   90.01284295
_cell_angle_beta   89.99348863
_cell_angle_gamma   90.01257000
_symmetry_Int_Tables_number   1
_chemical_formula_structural   Fe45Co19
_chemical_formula_sum   'Fe90 Co38'
_cell_volume   1487.36451364
_cell_formula_units_Z   2
loop_
 _symmetry_equiv_pos_site_id
 _symmetry_equiv_pos_as_xyz
  1  'x, y, z'
loop_
 _atom_site_type_symbol
 _atom_site_label
 _atom_site_symmetry_multiplicity
 _atom_site_fract_x
 _atom_site_fract_y
 _atom_site_fract_z
 _atom_site_occupancy
  Fe  Fe0  1  0.50702828  0.25093230  0.49909825  1
  Fe  Fe1  1  0.87394160  0.12543411  0.37553967  1
  Fe  Fe2  1  0.37480626  0.37157550  0.12709212  1
  Fe  Fe3  1  0.62419341  0.87526619  0.87633297  1
  Fe  Fe4  1  0.12620958  0.87313660  0.37563020  1
  Fe  Fe5  1  0.74824388  0.50324311  0.74876641  1
  Fe  Fe6  1  -0.00097763  0.25078113  0.74763026  1
  Fe  Fe7  1  0.11971025  0.62146900  0.12355110  1
  Fe  Fe8  1  0.87773192  0.37855987  0.12599119  1
  Fe  Fe9  1  0.37237663  0.12517784  0.87333818  1
  Fe  Fe10  1  0.24836371  0.25110112  0.00074516  1
  Fe  Fe11  1  -0.00062876  0.50196799  0.50075279  1
  Fe  Fe12  1  0.37605285  0.87411041  0.37617084  1
  Fe  Fe13  1  0.87398413  0.62689835  0.62325269  1
  Fe  Fe14  1  0.75000296  -0.00185049  0.00079059  1
  Fe  Fe15  1  0.00101282  0.25124500  0.24911293  1
  Fe  Fe16  1  0.25306995  0.00261993  0.25178397  1
  Fe  Fe17  1  0.37632490  0.62351853  0.12418095  1
  Fe  Fe18  1  -0.00017974  -0.00195734  0.49933112  1
  Fe  Fe19  1  0.25098667  0.74997098  0.00080964  1
  Fe  Fe20  1  0.75042496  0.49978050  0.00013198  1
  Fe  Fe21  1  0.12469888  0.37412381  0.37488955  1
  Fe  Fe22  1  -0.00039346  -0.00084962  0.25288924  1
  Fe  Fe23  1  0.74769200  0.00313551  0.50109969  1
  Fe  Fe24  1  0.12493079  0.62409130  0.87507791  1
  Fe  Fe25  1  0.37434645  0.37529402  0.87233163  1
  Fe  Fe26  1  0.75226409  0.75257009  0.00260435  1
  Fe  Fe27  1  0.50235286  0.50006556  0.74997044  1
  Fe  Fe28  1  -0.00155188  0.25052561  0.50188282  1
  Fe  Fe29  1  0.12791920  0.37923012  0.62538711  1
  Fe  Fe30  1  0.87073218  0.37453992  0.37855115  1
  Fe  Fe31  1  0.25240616  0.74759693  0.74994460  1
  Fe  Fe32  1  0.87296008  0.37387367  0.87227624  1
  Fe  Fe33  1  0.87510966  0.12451243  0.87393206  1
  Fe  Fe34  1  0.37780807  0.37258782  0.37502012  1
  Fe  Fe35  1  0.50222921  0.49872731  0.24946626  1
  Fe  Fe36  1  0.25089733  0.74875735  0.24812115  1
  Fe  Fe37  1  -0.00085215  -0.00167354  0.74896001  1
  Fe  Fe38  1  0.87525831  0.12354606  0.12633788  1
  Fe  Fe39  1  -0.00037634  0.25155376  0.00127351  1
  Fe  Fe40  1  0.87390493  0.62553038  0.37594551  1
  Fe  Fe41  1  0.37650719  0.12829241  0.62576658  1
  Fe  Fe42  1  0.37712250  0.87607319  0.12361824  1
  Fe  Fe43  1  0.74861316  -0.00412196  0.25003094  1
  Fe  Fe44  1  -0.00130743  0.50094967  0.74875809  1
  Fe  Fe45  1  0.74937315  0.75292009  0.24941608  1
  Fe  Fe46  1  0.50136974  0.75116040  0.25084503  1
  Fe  Fe47  1  0.74951697  0.50119464  0.25049059  1
  Fe  Fe48  1  0.50138573  0.49925791  -0.00086715  1
  Fe  Fe49  1  0.86825556  0.37357921  0.62291331  1
  Fe  Fe50  1  0.74929115  0.00246311  0.74831028  1
  Fe  Fe51  1  0.12598241  0.12538575  0.87224287  1
  Fe  Fe52  1  0.62787703  0.37262711  0.87176330  1
  Fe  Fe53  1  0.12581289  0.87324919  0.62466560  1
  Fe  Fe54  1  0.49938714  0.74655108  0.75163387  1
  Fe  Fe55  1  0.12429131  0.62601678  0.37658168  1
  Fe  Fe56  1  0.74584762  0.74938145  0.49783027  1
  Fe  Fe57  1  0.12675247  0.12657087  0.37636312  1
  Fe  Fe58  1  0.75147086  0.25037606  0.00054143  1
  Fe  Fe59  1  0.12719338  0.87455585  0.87328965  1
  Fe  Fe60  1  0.24962800  0.49877108  0.25156424  1
  Fe  Fe61  1  0.50069573  0.24801373  -0.00202603  1
  Fe  Fe62  1  0.62365267  0.12424876  0.12399986  1
  Fe  Fe63  1  0.12662084  0.12494710  0.12573116  1
  Fe  Fe64  1  0.74774308  0.25062320  0.25049406  1
  Fe  Fe65  1  0.87403572  0.87441612  0.62277658  1
  Fe  Fe66  1  0.50627037  0.49981752  0.50127463  1
  Fe  Fe67  1  -0.00297865  0.75091059  0.24976534  1
  Fe  Fe68  1  0.49758900  0.00290865  0.25054270  1
  Fe  Fe69  1  0.25234351  -0.00130952  -0.00045447  1
  Fe  Fe70  1  0.25001459  0.49900846  0.00007343  1
  Fe  Fe71  1  0.49927829  0.74979274  -0.00202767  1
  Fe  Fe72  1  0.87466512  0.62636550  0.87722382  1
  Fe  Fe73  1  0.74835121  0.75005178  0.75063178  1
  Fe  Fe74  1  -0.00106864  -0.00216207  -0.00141330  1
  Fe  Fe75  1  -0.00069326  0.75009630  0.74994993  1
  Fe  Fe76  1  0.62562825  0.62590912  0.12423358  1
  Fe  Fe77  1  0.37660168  0.87469121  0.62700487  1
  Fe  Fe78  1  0.12355085  0.87616061  0.12577195  1
  Fe  Fe79  1  0.12482556  0.12464077  0.62553025  1
  Fe  Fe80  1  0.50031635  0.00193386  0.75295017  1
  Fe  Fe81  1  0.62383040  0.37377712  0.12567245  1
  Fe  Fe82  1  0.37730858  0.62410038  0.37506486  1
  Fe  Fe83  1  0.25176689  -0.00018820  0.50105887  1
  Fe  Fe84  1  0.37400962  0.61991312  0.62418413  1
  Fe  Fe85  1  0.50023642  0.00166580  0.49940972  1
  Fe  Fe86  1  0.62238000  0.87362044  0.62362348  1
  Fe  Fe87  1  0.25092514  0.25197065  0.50198045  1
  Fe  Fe88  1  0.12512383  0.37536562  0.87336978  1
  Fe  Fe89  1  0.25178844  0.74830679  0.50103492  1
  Co  Co90  1  0.74592372  0.50359893  0.50103737  1
  Co  Co91  1  0.62361384  0.62640080  0.37280897  1
  Co  Co92  1  0.37745013  0.37608028  0.62379633  1
  Co  Co93  1  0.74585691  0.24443508  0.50003617  1
  Co  Co94  1  0.87277236  0.87622996  0.87314108  1
  Co  Co95  1  0.75112493  0.24461022  0.74838249  1
  Co  Co96  1  -0.00182512  0.49770577  -0.00386708  1
  Co  Co97  1  0.00069658  0.74958793  0.50084175  1
  Co  Co98  1  0.37514398  0.87461899  0.87402386  1
  Co  Co99  1  0.87643912  0.62330998  0.12415668  1
  Co  Co100  1  0.62609303  0.62539691  0.87762628  1
  Co  Co101  1  0.62180616  0.87566882  0.37737572  1
  Co  Co102  1  0.37436537  0.12773153  0.12376611  1
  Co  Co103  1  0.37493819  0.12917543  0.37796872  1
  Co  Co104  1  0.25031311  0.25123967  0.74706287  1
  Co  Co105  1  0.12421740  0.37787031  0.12576713  1
  Co  Co106  1  0.62804597  0.12565844  0.87635550  1
  Co  Co107  1  0.49956120  0.25008412  0.75243282  1
  Co  Co108  1  0.49840252  0.00244984  -0.00303020  1
  Co  Co109  1  0.49820656  0.74765987  0.50085249  1
  Co  Co110  1  0.87790509  0.87665190  0.12590841  1
  Co  Co111  1  0.62603744  0.12228082  0.37194958  1
  Co  Co112  1  0.12699250  0.62368323  0.62495162  1
  Co  Co113  1  0.62085682  0.87597663  0.12374451  1
  Co  Co114  1  0.25094462  0.00071543  0.74749857  1
  Co  Co115  1  0.87733823  0.12455347  0.62397282  1
  Co  Co116  1  0.37498097  0.62286635  0.87670709  1
  Co  Co117  1  -0.00121568  0.75270626  -0.00137399  1
  Co  Co118  1  0.87351972  0.87512565  0.37771065  1
  Co  Co119  1  0.62161063  0.12732969  0.62786871  1
  Co  Co120  1  0.25112677  0.49951217  0.75141492  1
  Co  Co121  1  0.24910604  0.25050374  0.25048205  1
  Co  Co122  1  -0.00107580  0.49907030  0.25488487  1
  Co  Co123  1  0.50253982  0.24812462  0.25065132  1
  Co  Co124  1  0.62787192  0.37619602  0.37474694  1
  Co  Co125  1  0.62471538  0.62753727  0.62517749  1
  Co  Co126  1  0.25005089  0.49937031  0.49582174  1
  Co  Co127  1  0.62935127  0.37271410  0.62816410  1
