# generated using pymatgen
data_Fe45Co19
_symmetry_space_group_name_H-M   'P 1'
_cell_length_a   11.41483877
_cell_length_b   11.41463349
_cell_length_c   11.41399940
_cell_angle_alpha   89.99391653
_cell_angle_beta   90.00505757
_cell_angle_gamma   89.99985598
_symmetry_Int_Tables_number   1
_chemical_formula_structural   Fe45Co19
_chemical_formula_sum   'Fe90 Co38'
_cell_volume   1487.20074417
_cell_formula_units_Z   2
loop_
 _symmetry_equiv_pos_site_id
 _symmetry_equiv_pos_as_xyz
  1  'x, y, z'
loop_
 _atom_site_type_symbol
 _atom_site_label
 _atom_site_symmetry_multiplicity
 _atom_site_fract_x
 _atom_site_fract_y
 _atom_site_fract_z
 _atom_site_occupancy
  Fe  Fe0  1  0.37636231  0.37410987  0.62748193  1
  Fe  Fe1  1  0.24962371  0.75025512  0.49880805  1
  Fe  Fe2  1  0.50158259  0.00187534  0.24814704  1
  Fe  Fe3  1  0.75067766  0.49693045  0.25036646  1
  Fe  Fe4  1  0.12629051  0.62386200  0.62638992  1
  Fe  Fe5  1  0.25117337  0.49889370  0.50036395  1
  Fe  Fe6  1  0.62839613  0.12677830  0.12102041  1
  Fe  Fe7  1  0.12238081  0.37504976  0.62336481  1
  Fe  Fe8  1  0.37224620  0.12650518  0.62728210  1
  Fe  Fe9  1  0.12367541  0.62225770  0.37391756  1
  Fe  Fe10  1  0.87774335  0.62078578  0.37255909  1
  Fe  Fe11  1  0.75152095  -0.00161685  0.75113283  1
  Fe  Fe12  1  0.75227259  0.49540760  0.49971906  1
  Fe  Fe13  1  0.62748295  0.62518512  0.62424920  1
  Fe  Fe14  1  0.49896834  0.50194192  0.24906447  1
  Fe  Fe15  1  0.00072375  0.75068614  0.74870656  1
  Fe  Fe16  1  0.74942014  0.25297581  0.25109141  1
  Fe  Fe17  1  0.87670970  0.87746915  0.37453700  1
  Fe  Fe18  1  0.24785012  0.75284620  0.75182287  1
  Fe  Fe19  1  0.37294749  0.62475431  0.62668055  1
  Fe  Fe20  1  0.37316135  0.62467983  0.12239312  1
  Fe  Fe21  1  0.75096524  0.75213031  0.75065748  1
  Fe  Fe22  1  0.62178719  0.37370101  0.12112052  1
  Fe  Fe23  1  0.24885586  -0.00251598  0.74894360  1
  Fe  Fe24  1  0.74685522  -0.00222187  0.50069843  1
  Fe  Fe25  1  0.50040194  0.75042923  0.49978925  1
  Fe  Fe26  1  -0.00052542  0.24523849  -0.00190452  1
  Fe  Fe27  1  0.24611961  -0.00136444  0.24629475  1
  Fe  Fe28  1  0.50061686  0.50345308  0.75447863  1
  Fe  Fe29  1  0.12891039  0.12662162  0.62552958  1
  Fe  Fe30  1  0.75065295  0.25431332  0.49880381  1
  Fe  Fe31  1  0.11939545  0.88095165  0.87660917  1
  Fe  Fe32  1  0.00101364  0.00176127  0.50281247  1
  Fe  Fe33  1  0.12584175  0.37240742  0.12134841  1
  Fe  Fe34  1  0.12623269  0.12687981  0.37635759  1
  Fe  Fe35  1  0.37577683  0.87421861  0.62598600  1
  Fe  Fe36  1  0.62776476  0.62532260  0.12421166  1
  Fe  Fe37  1  0.49963521  0.24977265  0.50031233  1
  Fe  Fe38  1  0.75045199  0.49875987  -0.00081334  1
  Fe  Fe39  1  0.37387482  0.12445920  0.37516063  1
  Fe  Fe40  1  0.00079722  0.24870953  0.25008095  1
  Fe  Fe41  1  0.25078325  0.75017419  0.25013412  1
  Fe  Fe42  1  0.00017260  0.50245106  0.00158463  1
  Fe  Fe43  1  0.75018419  0.49744972  0.75217835  1
  Fe  Fe44  1  0.87478777  0.87340331  0.62358853  1
  Fe  Fe45  1  0.62385014  0.87491909  0.12497999  1
  Fe  Fe46  1  0.00330967  0.24910097  0.75046855  1
  Fe  Fe47  1  0.49804107  0.24586620  0.75619079  1
  Fe  Fe48  1  0.62546458  0.12506290  0.62721562  1
  Fe  Fe49  1  0.50075444  0.74845124  0.75187756  1
  Fe  Fe50  1  0.62415664  0.62436357  0.37603276  1
  Fe  Fe51  1  -0.00196195  0.74951990  0.00088767  1
  Fe  Fe52  1  0.75512460  -0.00048339  -0.00258358  1
  Fe  Fe53  1  0.50202486  -0.00149796  0.50157301  1
  Fe  Fe54  1  0.37718044  0.87518570  0.37224824  1
  Fe  Fe55  1  0.00041125  0.74793123  0.50055596  1
  Fe  Fe56  1  0.75218686  0.75199557  0.00020995  1
  Fe  Fe57  1  0.25000279  0.24911976  -0.00818321  1
  Fe  Fe58  1  0.62507620  0.12656840  0.37497852  1
  Fe  Fe59  1  0.24888752  0.49558235  0.75425754  1
  Fe  Fe60  1  0.62312620  0.37516366  0.62565312  1
  Fe  Fe61  1  0.74928028  0.25142972  0.75343986  1
  Fe  Fe62  1  0.87517949  0.12516211  0.37541254  1
  Fe  Fe63  1  0.87411617  0.62503503  0.87476185  1
  Fe  Fe64  1  0.87258183  0.12803639  0.62618245  1
  Fe  Fe65  1  0.37770288  0.37665626  0.37631503  1
  Fe  Fe66  1  0.87888169  0.37487820  0.87436776  1
  Fe  Fe67  1  0.87349533  0.12602628  0.12593595  1
  Fe  Fe68  1  0.37613941  0.37679414  0.11786546  1
  Fe  Fe69  1  0.87867175  0.87538297  0.12778466  1
  Fe  Fe70  1  0.75146730  0.75034582  0.25107244  1
  Fe  Fe71  1  0.74897792  -0.00026611  0.25063042  1
  Fe  Fe72  1  0.24941677  0.49880704  0.24867872  1
  Fe  Fe73  1  0.62124491  0.37271706  0.87970352  1
  Fe  Fe74  1  0.25000945  -0.00145856  0.50016444  1
  Fe  Fe75  1  0.62497299  0.87637200  0.87408691  1
  Fe  Fe76  1  0.12490792  0.62370527  0.87427005  1
  Fe  Fe77  1  0.49859101  0.00450455  -0.00246455  1
  Fe  Fe78  1  0.24829097  0.75227680  -0.00102987  1
  Fe  Fe79  1  0.12240020  0.87486507  0.37318123  1
  Fe  Fe80  1  0.12066176  0.37558900  0.37776447  1
  Fe  Fe81  1  0.87607113  0.37514988  0.12526867  1
  Fe  Fe82  1  0.12451292  0.62737360  0.12623790  1
  Fe  Fe83  1  0.49924901  0.24919600  0.24759847  1
  Fe  Fe84  1  0.37007022  0.12583403  0.12371466  1
  Fe  Fe85  1  0.87395945  0.62354207  0.62697441  1
  Fe  Fe86  1  0.25083578  0.25269121  0.25195449  1
  Fe  Fe87  1  0.37694362  0.87383430  0.12435585  1
  Fe  Fe88  1  0.37555159  0.87679203  0.87562532  1
  Fe  Fe89  1  0.50111380  0.74610629  -0.00284887  1
  Co  Co90  1  0.36823815  0.12065768  0.87221374  1
  Co  Co91  1  0.87355861  0.62398282  0.12515457  1
  Co  Co92  1  0.62978016  0.12400810  0.87710945  1
  Co  Co93  1  0.87697329  0.12482093  0.87215523  1
  Co  Co94  1  0.87987353  0.37508569  0.37333371  1
  Co  Co95  1  0.75337078  0.25160646  -0.00145093  1
  Co  Co96  1  0.50113084  0.00204458  0.74998771  1
  Co  Co97  1  0.62158308  0.37466494  0.37415156  1
  Co  Co98  1  0.12856737  0.12933024  0.12330841  1
  Co  Co99  1  0.00300181  0.49821261  0.24458165  1
  Co  Co100  1  0.37847024  0.37816226  0.87881201  1
  Co  Co101  1  -0.00184006  0.00060478  0.74421792  1
  Co  Co102  1  0.24776157  0.25518947  0.75486165  1
  Co  Co103  1  0.00014287  0.50108224  0.75001550  1
  Co  Co104  1  0.12516940  0.87454468  0.62397269  1
  Co  Co105  1  0.87650363  0.37359245  0.62847035  1
  Co  Co106  1  0.37436115  0.62416296  0.37610716  1
  Co  Co107  1  0.00305013  0.00436230  0.24768030  1
  Co  Co108  1  0.24771463  -0.00257133  0.00405789  1
  Co  Co109  1  0.36959296  0.62486240  0.87429194  1
  Co  Co110  1  -0.00167647  0.00394810  0.00547431  1
  Co  Co111  1  0.12474952  0.11871601  0.87372973  1
  Co  Co112  1  0.49984927  0.50092631  0.50178275  1
  Co  Co113  1  0.12058738  0.37680913  0.87797812  1
  Co  Co114  1  0.24675157  0.50121394  -0.00050982  1
  Co  Co115  1  0.12067439  0.87188723  0.12549497  1
  Co  Co116  1  0.25176687  0.25285511  0.49988215  1
  Co  Co117  1  0.50218870  0.50705222  -0.00281101  1
  Co  Co118  1  0.62428744  0.87367291  0.37273137  1
  Co  Co119  1  0.87930974  0.87515542  0.87406291  1
  Co  Co120  1  0.62601454  0.87279610  0.62719310  1
  Co  Co121  1  -0.00287395  0.50093905  0.50349937  1
  Co  Co122  1  0.63112815  0.62703816  0.87437471  1
  Co  Co123  1  -0.00180824  0.24845586  0.50216690  1
  Co  Co124  1  -0.00248754  0.74838284  0.25112395  1
  Co  Co125  1  0.75203495  0.74930596  0.49707323  1
  Co  Co126  1  0.49991437  0.74705194  0.24907726  1
  Co  Co127  1  0.49709086  0.24302171  -0.00178467  1
