# generated using pymatgen
data_Fe45Co19
_symmetry_space_group_name_H-M   'P 1'
_cell_length_a   11.41507847
_cell_length_b   11.41598504
_cell_length_c   11.41424694
_cell_angle_alpha   90.00531907
_cell_angle_beta   89.98862287
_cell_angle_gamma   89.99856927
_symmetry_Int_Tables_number   1
_chemical_formula_structural   Fe45Co19
_chemical_formula_sum   'Fe90 Co38'
_cell_volume   1487.44030583
_cell_formula_units_Z   2
loop_
 _symmetry_equiv_pos_site_id
 _symmetry_equiv_pos_as_xyz
  1  'x, y, z'
loop_
 _atom_site_type_symbol
 _atom_site_label
 _atom_site_symmetry_multiplicity
 _atom_site_fract_x
 _atom_site_fract_y
 _atom_site_fract_z
 _atom_site_occupancy
  Fe  Fe0  1  0.74989739  0.25373265  0.25337829  1
  Fe  Fe1  1  0.87666159  0.87514296  0.62480993  1
  Fe  Fe2  1  0.12448611  0.12669101  0.62465295  1
  Fe  Fe3  1  0.49990703  0.74851171  -0.00159492  1
  Fe  Fe4  1  0.62233577  0.37304698  0.62475092  1
  Fe  Fe5  1  0.49731770  0.49953918  0.49968574  1
  Fe  Fe6  1  0.62363794  0.12568842  0.62310258  1
  Fe  Fe7  1  0.12103850  0.87480073  0.12804645  1
  Fe  Fe8  1  0.13158325  0.12109699  0.37406617  1
  Fe  Fe9  1  0.62462982  0.62561924  0.62300169  1
  Fe  Fe10  1  0.12722577  0.62599340  0.12328494  1
  Fe  Fe11  1  0.62331246  0.87656678  0.87543111  1
  Fe  Fe12  1  0.00033825  0.24887131  -0.00145048  1
  Fe  Fe13  1  -0.00029169  0.50475989  0.25011268  1
  Fe  Fe14  1  0.87945882  0.87552096  0.37078458  1
  Fe  Fe15  1  0.62473646  0.12436971  0.37483966  1
  Fe  Fe16  1  0.75122341  0.49657419  0.49931388  1
  Fe  Fe17  1  0.12403047  0.87516333  0.62431516  1
  Fe  Fe18  1  0.75032047  -0.00462032  0.24714588  1
  Fe  Fe19  1  0.25097050  -0.00098035  0.00129522  1
  Fe  Fe20  1  0.37170912  0.12623663  0.87247350  1
  Fe  Fe21  1  0.12747403  0.87561926  0.87286909  1
  Fe  Fe22  1  0.49972930  0.74825907  0.25248579  1
  Fe  Fe23  1  0.75000267  0.25026871  0.75145596  1
  Fe  Fe24  1  0.12767783  0.62465347  0.87286594  1
  Fe  Fe25  1  0.88071060  0.37042232  0.62241889  1
  Fe  Fe26  1  0.75011039  0.75162955  0.49767187  1
  Fe  Fe27  1  0.12817564  0.12543819  0.12648996  1
  Fe  Fe28  1  0.49573494  0.25147130  0.49769841  1
  Fe  Fe29  1  0.12813843  0.12615680  0.87413938  1
  Fe  Fe30  1  -0.00040080  0.00255184  0.49658954  1
  Fe  Fe31  1  0.37161830  0.62484840  0.87280690  1
  Fe  Fe32  1  0.49558573  0.00053310  0.25207301  1
  Fe  Fe33  1  0.62334272  0.87426714  0.62378900  1
  Fe  Fe34  1  0.75040384  -0.00478035  0.00450229  1
  Fe  Fe35  1  0.37192689  0.62288010  0.37547413  1
  Fe  Fe36  1  0.37692898  0.87276400  0.12515103  1
  Fe  Fe37  1  0.87462758  0.62609502  0.87607232  1
  Fe  Fe38  1  0.25160713  0.74818969  0.50383472  1
  Fe  Fe39  1  0.37177685  0.37458515  0.12800653  1
  Fe  Fe40  1  0.25294432  0.25319711  0.50141993  1
  Fe  Fe41  1  0.49753400  0.49941759  0.00095854  1
  Fe  Fe42  1  0.24986874  0.75159433  -0.00040298  1
  Fe  Fe43  1  0.62144366  0.87561796  0.37534590  1
  Fe  Fe44  1  0.62663045  0.62654147  0.12592648  1
  Fe  Fe45  1  0.37159946  0.12745832  0.12805796  1
  Fe  Fe46  1  0.49713244  0.00061438  0.49812339  1
  Fe  Fe47  1  0.49932510  0.74992216  0.75002864  1
  Fe  Fe48  1  0.62622480  0.12507702  0.87633608  1
  Fe  Fe49  1  0.75112947  0.00075664  0.74878677  1
  Fe  Fe50  1  0.00073052  0.75000417  0.75068212  1
  Fe  Fe51  1  0.00182154  0.50062890  0.50094180  1
  Fe  Fe52  1  0.49752692  0.00168670  0.00002772  1
  Fe  Fe53  1  0.49845629  0.50061020  0.24911242  1
  Fe  Fe54  1  0.37638384  0.87411074  0.62510335  1
  Fe  Fe55  1  0.62802472  0.62238565  0.37502737  1
  Fe  Fe56  1  0.12802294  0.62404278  0.37807001  1
  Fe  Fe57  1  0.74960459  0.74991320  0.74964024  1
  Fe  Fe58  1  0.75030456  0.25221962  0.49581510  1
  Fe  Fe59  1  0.87511644  0.12464180  0.12678024  1
  Fe  Fe60  1  0.87548544  0.37577559  0.87560635  1
  Fe  Fe61  1  0.75064273  -0.00169476  0.49944022  1
  Fe  Fe62  1  0.00046338  0.50220713  0.00101976  1
  Fe  Fe63  1  0.12704985  0.37403246  0.87300120  1
  Fe  Fe64  1  0.62417879  0.12539828  0.12661451  1
  Fe  Fe65  1  0.62431058  0.37559002  0.12531597  1
  Fe  Fe66  1  0.49865794  0.25125354  -0.00141549  1
  Fe  Fe67  1  -0.00036459  0.00062274  0.00081643  1
  Fe  Fe68  1  0.25085334  0.49819187  0.00141917  1
  Fe  Fe69  1  0.00237667  0.49901343  0.74804666  1
  Fe  Fe70  1  -0.00034553  0.00280581  0.75067544  1
  Fe  Fe71  1  0.87772127  0.37437855  0.12759925  1
  Fe  Fe72  1  -0.00046457  0.74955983  0.49740170  1
  Fe  Fe73  1  0.00195771  0.24673465  0.25472812  1
  Fe  Fe74  1  0.49810526  0.00140236  0.75008865  1
  Fe  Fe75  1  0.62672708  0.62302979  0.87566931  1
  Fe  Fe76  1  0.87680344  0.12765194  0.62287382  1
  Fe  Fe77  1  0.87596746  0.62570510  0.62365304  1
  Fe  Fe78  1  0.37228411  0.37448147  0.87023574  1
  Fe  Fe79  1  0.50199561  0.49843547  0.75074477  1
  Fe  Fe80  1  0.12793824  0.37900853  0.37548457  1
  Fe  Fe81  1  0.75055024  0.49798119  0.74749909  1
  Fe  Fe82  1  0.87349081  0.63244926  0.12582871  1
  Fe  Fe83  1  0.75083043  0.50025389  0.00237063  1
  Fe  Fe84  1  0.87592304  0.87403583  0.87715677  1
  Fe  Fe85  1  0.12503478  0.37452036  0.12638710  1
  Fe  Fe86  1  0.24890195  0.75123074  0.25062483  1
  Fe  Fe87  1  0.75007742  0.25099885  -0.00004267  1
  Fe  Fe88  1  0.49775330  0.25129164  0.25367143  1
  Fe  Fe89  1  0.25298776  -0.00188770  0.50043682  1
  Co  Co90  1  0.37157326  0.12502579  0.37398632  1
  Co  Co91  1  0.37095064  0.38009058  0.37368384  1
  Co  Co92  1  0.25039764  0.75055661  0.74617858  1
  Co  Co93  1  0.50124122  0.24890729  0.75086613  1
  Co  Co94  1  0.12526593  0.87552848  0.37651165  1
  Co  Co95  1  0.24847862  0.25160807  0.25267969  1
  Co  Co96  1  0.87950060  0.37745269  0.37461724  1
  Co  Co97  1  0.00403152  0.74864200  -0.00253892  1
  Co  Co98  1  0.74816334  0.75387217  0.25246946  1
  Co  Co99  1  0.75196528  0.49848160  0.24862905  1
  Co  Co100  1  0.87253107  0.62362027  0.37597655  1
  Co  Co101  1  0.24861819  0.50194377  0.24709190  1
  Co  Co102  1  0.62615007  0.37597373  0.87693017  1
  Co  Co103  1  0.62258082  0.37744912  0.37444966  1
  Co  Co104  1  0.37860677  0.62377560  0.62760403  1
  Co  Co105  1  0.25027779  0.25170147  0.00083033  1
  Co  Co106  1  0.74656244  0.75316612  0.00022210  1
  Co  Co107  1  0.87264714  0.12338879  0.87758634  1
  Co  Co108  1  0.12180898  0.62803214  0.62514771  1
  Co  Co109  1  0.37352439  0.87443468  0.87488564  1
  Co  Co110  1  0.12106297  0.36982732  0.62385725  1
  Co  Co111  1  0.24610739  0.50051359  0.74329064  1
  Co  Co112  1  0.37605355  0.12413507  0.62491460  1
  Co  Co113  1  0.37315293  0.62693255  0.12490018  1
  Co  Co114  1  0.37675072  0.37695707  0.62835778  1
  Co  Co115  1  0.00275145  0.24625972  0.49170084  1
  Co  Co116  1  0.00194371  0.00367846  0.25118228  1
  Co  Co117  1  -0.00006139  0.24797959  0.75396707  1
  Co  Co118  1  0.00342363  0.74501462  0.25389590  1
  Co  Co119  1  0.24991844  0.50036914  0.50772482  1
  Co  Co120  1  0.61813501  0.87431236  0.12571848  1
  Co  Co121  1  0.87060471  0.12310233  0.37355403  1
  Co  Co122  1  0.88168218  0.87027350  0.12639412  1
  Co  Co123  1  0.37384637  0.87194660  0.37656369  1
  Co  Co124  1  0.49990784  0.74754117  0.49877163  1
  Co  Co125  1  0.25225774  -0.00458512  0.24842922  1
  Co  Co126  1  0.25006472  0.24939745  0.74482130  1
  Co  Co127  1  0.25010338  -0.00038311  0.74757504  1
