# generated using pymatgen
data_Fe45Co19
_symmetry_space_group_name_H-M   'P 1'
_cell_length_a   11.41460981
_cell_length_b   11.41366666
_cell_length_c   11.41425581
_cell_angle_alpha   90.02007487
_cell_angle_beta   90.00930235
_cell_angle_gamma   90.00001907
_symmetry_Int_Tables_number   1
_chemical_formula_structural   Fe45Co19
_chemical_formula_sum   'Fe90 Co38'
_cell_volume   1487.07825898
_cell_formula_units_Z   2
loop_
 _symmetry_equiv_pos_site_id
 _symmetry_equiv_pos_as_xyz
  1  'x, y, z'
loop_
 _atom_site_type_symbol
 _atom_site_label
 _atom_site_symmetry_multiplicity
 _atom_site_fract_x
 _atom_site_fract_y
 _atom_site_fract_z
 _atom_site_occupancy
  Fe  Fe0  1  0.50255412  0.75029404  -0.00040794  1
  Fe  Fe1  1  -0.00131979  0.00061047  -0.00164805  1
  Fe  Fe2  1  0.74805054  0.74952488  0.25084898  1
  Fe  Fe3  1  0.00126458  0.74928872  -0.00396363  1
  Fe  Fe4  1  0.37663434  0.87667326  0.87596531  1
  Fe  Fe5  1  0.25105911  0.50034967  0.24760832  1
  Fe  Fe6  1  0.50367856  0.74863207  0.75206658  1
  Fe  Fe7  1  0.24715828  0.74937161  0.75227051  1
  Fe  Fe8  1  0.12744775  0.37985985  0.87763932  1
  Fe  Fe9  1  0.62418984  0.37312573  0.87097538  1
  Fe  Fe10  1  0.37522512  0.37370680  0.62511059  1
  Fe  Fe11  1  0.12672162  0.37676259  0.37608916  1
  Fe  Fe12  1  0.37707464  0.87279826  0.62705303  1
  Fe  Fe13  1  0.74841992  -0.00163678  0.74679198  1
  Fe  Fe14  1  0.12588454  0.87440252  0.37653230  1
  Fe  Fe15  1  0.62507562  0.87574534  0.12531317  1
  Fe  Fe16  1  0.87378662  0.87489016  0.87190086  1
  Fe  Fe17  1  0.49781747  -0.00242189  0.24818463  1
  Fe  Fe18  1  0.37735120  0.62934299  0.12810416  1
  Fe  Fe19  1  0.12690629  0.12474062  0.87630975  1
  Fe  Fe20  1  0.25280227  0.00185880  0.74883186  1
  Fe  Fe21  1  0.87410132  0.62450606  0.87333383  1
  Fe  Fe22  1  -0.00096857  0.75202090  0.50070602  1
  Fe  Fe23  1  0.75128619  -0.00119779  0.50260060  1
  Fe  Fe24  1  0.49704391  0.49993779  -0.00255354  1
  Fe  Fe25  1  0.00183820  0.00146185  0.74986169  1
  Fe  Fe26  1  0.25217000  -0.00130915  0.50041474  1
  Fe  Fe27  1  0.00307483  0.25197374  0.50102230  1
  Fe  Fe28  1  0.00182031  0.25283771  0.74966991  1
  Fe  Fe29  1  0.62390595  0.62320746  0.62337370  1
  Fe  Fe30  1  0.25159849  -0.00040357  0.00251378  1
  Fe  Fe31  1  0.12740395  0.62524260  0.37745050  1
  Fe  Fe32  1  0.00113574  0.25386579  0.00043416  1
  Fe  Fe33  1  0.74681189  0.25280371  0.25172935  1
  Fe  Fe34  1  0.50078742  0.49948631  0.25164071  1
  Fe  Fe35  1  -0.00149960  0.49868470  0.50141101  1
  Fe  Fe36  1  0.62471282  0.62328438  0.37754432  1
  Fe  Fe37  1  0.24874299  0.25078970  0.00179158  1
  Fe  Fe38  1  0.87551386  0.12685081  0.37625036  1
  Fe  Fe39  1  0.12773750  0.12595657  0.62283873  1
  Fe  Fe40  1  0.37509350  0.37437973  0.37541265  1
  Fe  Fe41  1  0.74953238  0.49928297  0.74880462  1
  Fe  Fe42  1  0.24787119  0.74823550  -0.00156270  1
  Fe  Fe43  1  0.24882602  0.24983358  0.24854087  1
  Fe  Fe44  1  0.74865465  0.00227251  0.00025705  1
  Fe  Fe45  1  0.62191818  0.12743667  0.62856638  1
  Fe  Fe46  1  0.87373232  0.12688934  0.87372080  1
  Fe  Fe47  1  0.25234562  0.24913209  0.75075500  1
  Fe  Fe48  1  0.25453329  0.50265775  0.50080799  1
  Fe  Fe49  1  0.12670360  0.62376676  0.62528382  1
  Fe  Fe50  1  0.37769753  0.37269610  0.12492319  1
  Fe  Fe51  1  0.62502732  0.87462363  0.37706997  1
  Fe  Fe52  1  0.37279432  0.86861424  0.37051118  1
  Fe  Fe53  1  0.75171390  0.49605971  -0.00127977  1
  Fe  Fe54  1  0.75101877  -0.00020962  0.25001729  1
  Fe  Fe55  1  0.25325509  0.50118640  0.75186653  1
  Fe  Fe56  1  0.50131304  0.24744251  -0.00517674  1
  Fe  Fe57  1  0.00170774  0.74938637  0.25004415  1
  Fe  Fe58  1  0.12643291  0.12472634  0.37653409  1
  Fe  Fe59  1  0.49785322  -0.00113128  0.50151985  1
  Fe  Fe60  1  0.87460275  0.62506411  0.37480993  1
  Fe  Fe61  1  0.87548994  0.12820777  0.12528490  1
  Fe  Fe62  1  0.87116977  0.37290846  0.62219506  1
  Fe  Fe63  1  0.37774896  0.12638291  0.12461503  1
  Fe  Fe64  1  0.87456910  0.87317382  0.12509343  1
  Fe  Fe65  1  0.87636752  0.12560025  0.62454426  1
  Fe  Fe66  1  0.75211551  0.75189292  0.50255116  1
  Fe  Fe67  1  0.00349595  0.75008754  0.75291844  1
  Fe  Fe68  1  0.49862596  0.49941209  0.75024068  1
  Fe  Fe69  1  0.87448546  0.62791641  0.62745999  1
  Fe  Fe70  1  0.62277893  0.12709549  0.12664538  1
  Fe  Fe71  1  0.62573093  0.62177543  0.12328441  1
  Fe  Fe72  1  0.25140066  -0.00010753  0.24767516  1
  Fe  Fe73  1  0.12294597  0.62009895  0.12037058  1
  Fe  Fe74  1  0.62575843  0.37735238  0.38105207  1
  Fe  Fe75  1  0.74831708  0.74946274  -0.00298904  1
  Fe  Fe76  1  0.12432182  0.87617191  0.62432277  1
  Fe  Fe77  1  0.74978689  0.49688248  0.25059510  1
  Fe  Fe78  1  -0.00054374  0.49775958  0.74933392  1
  Fe  Fe79  1  0.37537932  0.12711246  0.37617376  1
  Fe  Fe80  1  -0.00178719  0.49801229  0.25031027  1
  Fe  Fe81  1  0.49586599  0.74559329  0.49863191  1
  Fe  Fe82  1  0.50058913  0.25143374  0.50146519  1
  Fe  Fe83  1  0.00299768  0.25286356  0.24849784  1
  Fe  Fe84  1  0.87399142  0.62441935  0.12429407  1
  Fe  Fe85  1  -0.00109311  -0.00012888  0.25077357  1
  Fe  Fe86  1  0.74864562  0.25117604  -0.00188772  1
  Fe  Fe87  1  0.12355138  0.87684785  0.12347306  1
  Fe  Fe88  1  0.62277531  0.12322597  0.37460023  1
  Fe  Fe89  1  0.62413885  0.87892786  0.87349374  1
  Co  Co90  1  0.25758739  0.50326542  0.00142824  1
  Co  Co91  1  0.37599587  0.62889628  0.87372536  1
  Co  Co92  1  0.25202929  0.74900035  0.50293318  1
  Co  Co93  1  0.62505218  0.62120645  0.87552944  1
  Co  Co94  1  0.12956969  0.37686641  0.62580970  1
  Co  Co95  1  0.37495206  0.62621099  0.63004530  1
  Co  Co96  1  0.75137691  0.25067703  0.74877757  1
  Co  Co97  1  0.62648495  0.12485190  0.87046524  1
  Co  Co98  1  0.49418375  0.50200898  0.50001825  1
  Co  Co99  1  0.62085821  0.87319529  0.62367884  1
  Co  Co100  1  0.49739429  0.00353847  0.74956609  1
  Co  Co101  1  0.49517260  0.24812271  0.75137500  1
  Co  Co102  1  0.50195187  0.00122850  0.00159904  1
  Co  Co103  1  0.87413874  0.37262353  0.37710454  1
  Co  Co104  1  -0.00555926  0.49739282  -0.00096819  1
  Co  Co105  1  0.12644551  0.87922483  0.87526107  1
  Co  Co106  1  0.74669499  0.24635242  0.50060561  1
  Co  Co107  1  0.62227772  0.37482525  0.12234164  1
  Co  Co108  1  0.24970022  0.25212065  0.49945279  1
  Co  Co109  1  0.37532943  0.87058258  0.12464906  1
  Co  Co110  1  0.24305188  0.74855588  0.24588304  1
  Co  Co111  1  0.37246595  0.62813458  0.36925905  1
  Co  Co112  1  0.37423777  0.12710772  0.62135609  1
  Co  Co113  1  0.37329689  0.12177422  0.87808199  1
  Co  Co114  1  0.87728330  0.87452969  0.62852031  1
  Co  Co115  1  0.50195937  0.25225555  0.25324164  1
  Co  Co116  1  0.87445738  0.37401429  0.87283967  1
  Co  Co117  1  0.37334908  0.37391437  0.87594542  1
  Co  Co118  1  0.74565455  0.74991464  0.75000548  1
  Co  Co119  1  0.87434661  0.87487186  0.37425973  1
  Co  Co120  1  0.12499963  0.61781050  0.87610654  1
  Co  Co121  1  0.87418699  0.37335618  0.12739255  1
  Co  Co122  1  0.62398713  0.37572022  0.62527533  1
  Co  Co123  1  0.50594351  0.74943294  0.24998478  1
  Co  Co124  1  -0.00076414  -0.00009848  0.49989352  1
  Co  Co125  1  0.12614069  0.37947514  0.12239178  1
  Co  Co126  1  0.75286844  0.50206040  0.50156259  1
  Co  Co127  1  0.12365182  0.12315762  0.12454735  1
