# generated using pymatgen
data_Fe45Co19
_symmetry_space_group_name_H-M   'P 1'
_cell_length_a   11.41539704
_cell_length_b   11.41520403
_cell_length_c   11.41511687
_cell_angle_alpha   89.99649583
_cell_angle_beta   89.99304455
_cell_angle_gamma   89.99774660
_symmetry_Int_Tables_number   1
_chemical_formula_structural   Fe45Co19
_chemical_formula_sum   'Fe90 Co38'
_cell_volume   1487.49343355
_cell_formula_units_Z   2
loop_
 _symmetry_equiv_pos_site_id
 _symmetry_equiv_pos_as_xyz
  1  'x, y, z'
loop_
 _atom_site_type_symbol
 _atom_site_label
 _atom_site_symmetry_multiplicity
 _atom_site_fract_x
 _atom_site_fract_y
 _atom_site_fract_z
 _atom_site_occupancy
  Fe  Fe0  1  0.49819632  -0.00115217  0.49765767  1
  Fe  Fe1  1  0.12702781  0.87598513  0.62384649  1
  Fe  Fe2  1  0.37698378  0.87258909  0.87458589  1
  Fe  Fe3  1  0.74757293  0.49888279  0.49786704  1
  Fe  Fe4  1  0.75054098  0.75049902  0.24814117  1
  Fe  Fe5  1  0.00023388  0.24825270  -0.00177458  1
  Fe  Fe6  1  0.49793181  0.25112242  0.24972688  1
  Fe  Fe7  1  0.74953353  0.75122335  0.00149856  1
  Fe  Fe8  1  0.75154638  0.24441504  0.50432378  1
  Fe  Fe9  1  0.87484439  0.12477067  0.86875077  1
  Fe  Fe10  1  0.87543831  0.62357789  0.12411206  1
  Fe  Fe11  1  0.74891051  0.00375779  0.24698689  1
  Fe  Fe12  1  0.25075067  0.50197762  -0.00108864  1
  Fe  Fe13  1  0.62459309  0.12630849  0.37596257  1
  Fe  Fe14  1  0.62443747  0.37498550  0.62554295  1
  Fe  Fe15  1  0.75008716  0.50014860  -0.00427525  1
  Fe  Fe16  1  0.62475880  0.62387533  0.62467329  1
  Fe  Fe17  1  0.00123286  0.49866622  0.25123323  1
  Fe  Fe18  1  0.74761584  0.49942308  0.25183752  1
  Fe  Fe19  1  0.37019455  0.37673343  0.37699321  1
  Fe  Fe20  1  0.87428296  0.37201128  0.62902959  1
  Fe  Fe21  1  0.62697955  0.87569290  0.37456525  1
  Fe  Fe22  1  -0.00122129  0.24761651  0.50272984  1
  Fe  Fe23  1  0.50096792  0.75044679  0.24867983  1
  Fe  Fe24  1  0.49958359  -0.00076988  0.00219784  1
  Fe  Fe25  1  0.37794532  0.62248234  0.62294673  1
  Fe  Fe26  1  0.25375152  0.00074368  0.49674782  1
  Fe  Fe27  1  0.37621419  0.37407679  0.87523539  1
  Fe  Fe28  1  0.00066711  0.24882843  0.24895359  1
  Fe  Fe29  1  0.12693299  0.12649823  0.37537798  1
  Fe  Fe30  1  0.74957369  0.24674655  -0.00007500  1
  Fe  Fe31  1  0.12842729  0.12170830  0.12404876  1
  Fe  Fe32  1  -0.00457858  0.00144750  0.50323503  1
  Fe  Fe33  1  0.12609656  0.37423469  0.87548759  1
  Fe  Fe34  1  0.87412399  0.87960792  0.12357635  1
  Fe  Fe35  1  0.62369537  0.37292185  0.12215327  1
  Fe  Fe36  1  0.25148997  0.74762171  0.49861058  1
  Fe  Fe37  1  0.37304380  0.12280807  0.12606600  1
  Fe  Fe38  1  0.75178542  0.75113188  0.50041596  1
  Fe  Fe39  1  0.62136068  0.12616870  0.87606127  1
  Fe  Fe40  1  0.00010489  0.49922620  0.49905731  1
  Fe  Fe41  1  0.25368351  0.24789883  -0.00056094  1
  Fe  Fe42  1  0.12893342  0.37387417  0.37633349  1
  Fe  Fe43  1  0.25287550  0.75054215  0.74804219  1
  Fe  Fe44  1  -0.00172076  0.50020832  -0.00337536  1
  Fe  Fe45  1  0.37524174  0.62288169  0.12649432  1
  Fe  Fe46  1  0.62519995  0.62489180  0.12408085  1
  Fe  Fe47  1  0.49917260  0.75064912  0.50023125  1
  Fe  Fe48  1  0.87410970  0.62401688  0.62636699  1
  Fe  Fe49  1  0.12344049  0.62604527  0.12553077  1
  Fe  Fe50  1  0.37470629  0.37787266  0.62353489  1
  Fe  Fe51  1  0.75141856  0.24648044  0.24640858  1
  Fe  Fe52  1  0.50114871  -0.00268653  0.74877689  1
  Fe  Fe53  1  0.62568620  0.87683302  0.62255835  1
  Fe  Fe54  1  0.87293086  0.87721215  0.87215353  1
  Fe  Fe55  1  0.74913275  0.49908111  0.75577897  1
  Fe  Fe56  1  0.25191043  -0.00117646  0.75157607  1
  Fe  Fe57  1  0.12665220  0.37457091  0.12386010  1
  Fe  Fe58  1  0.49979845  0.00021467  0.25117291  1
  Fe  Fe59  1  0.50050010  0.50268269  -0.00330185  1
  Fe  Fe60  1  0.12646526  0.37545027  0.62459226  1
  Fe  Fe61  1  0.00054030  0.75336648  0.00002406  1
  Fe  Fe62  1  0.24980214  0.74856002  0.25224865  1
  Fe  Fe63  1  0.50180745  0.50214645  0.75379386  1
  Fe  Fe64  1  0.74819037  0.75103660  0.74939266  1
  Fe  Fe65  1  0.87249730  0.87955668  0.37554098  1
  Fe  Fe66  1  -0.00089334  0.75333247  0.74877921  1
  Fe  Fe67  1  0.87406103  0.62406723  0.37505505  1
  Fe  Fe68  1  0.49828005  0.25167333  0.49976085  1
  Fe  Fe69  1  0.25044368  0.75186678  0.00091031  1
  Fe  Fe70  1  0.12572470  0.12337820  0.62635063  1
  Fe  Fe71  1  0.87306390  0.37168990  0.37469992  1
  Fe  Fe72  1  0.50350311  0.49907062  0.25552017  1
  Fe  Fe73  1  0.12290183  0.62492317  0.62546240  1
  Fe  Fe74  1  0.37654286  0.12372711  0.62519291  1
  Fe  Fe75  1  0.87559643  0.37440175  0.12330304  1
  Fe  Fe76  1  0.12515531  0.62764257  0.87421259  1
  Fe  Fe77  1  -0.00218855  0.49868104  0.75332456  1
  Fe  Fe78  1  0.00217923  -0.00198570  -0.00289111  1
  Fe  Fe79  1  0.50008157  0.25027275  0.75055705  1
  Fe  Fe80  1  0.25106570  0.50138958  0.75079266  1
  Fe  Fe81  1  0.12703401  0.12314933  0.87361272  1
  Fe  Fe82  1  0.62251279  0.87223857  0.87765286  1
  Fe  Fe83  1  0.12532490  0.87540365  0.37528326  1
  Fe  Fe84  1  0.37248767  0.87732604  0.12732316  1
  Fe  Fe85  1  0.37497621  0.37711263  0.12503309  1
  Fe  Fe86  1  0.00094358  0.00098406  0.24946477  1
  Fe  Fe87  1  -0.00182045  0.75176168  0.25008540  1
  Fe  Fe88  1  -0.00286292  0.75168096  0.50033169  1
  Fe  Fe89  1  0.25131477  0.24938689  0.74959472  1
  Co  Co90  1  0.49597909  0.24807570  0.00135239  1
  Co  Co91  1  0.49859592  0.75057630  0.00536002  1
  Co  Co92  1  0.87631051  0.12476125  0.63393951  1
  Co  Co93  1  0.00277030  -0.00322946  0.74955519  1
  Co  Co94  1  0.12707392  0.87689961  0.12750604  1
  Co  Co95  1  0.74386370  0.00046292  0.74916936  1
  Co  Co96  1  0.37748737  0.62334339  0.37622095  1
  Co  Co97  1  0.37595920  0.62918205  0.87467848  1
  Co  Co98  1  0.74857278  0.00276728  -0.00191306  1
  Co  Co99  1  0.37542171  0.87283806  0.37380741  1
  Co  Co100  1  0.75175307  0.00450992  0.50354181  1
  Co  Co101  1  0.62348050  0.63029784  0.87608886  1
  Co  Co102  1  0.12761308  0.87307073  0.87258404  1
  Co  Co103  1  0.25119252  -0.00209203  -0.00308620  1
  Co  Co104  1  0.24771107  0.50373853  0.50072610  1
  Co  Co105  1  0.87433716  0.36926898  0.87419170  1
  Co  Co106  1  0.25076211  0.25006215  0.24772660  1
  Co  Co107  1  0.12266211  0.62627195  0.37468931  1
  Co  Co108  1  0.62644607  0.87690524  0.12512295  1
  Co  Co109  1  0.24800593  0.50126759  0.25005875  1
  Co  Co110  1  0.87288459  0.87724547  0.62747155  1
  Co  Co111  1  0.00449674  0.25075831  0.74952446  1
  Co  Co112  1  0.62174040  0.12603473  0.12489224  1
  Co  Co113  1  0.74435267  0.24878917  0.74967305  1
  Co  Co114  1  0.50024881  0.75040764  0.74547076  1
  Co  Co115  1  0.61981765  0.12468739  0.62313064  1
  Co  Co116  1  0.25077900  0.24817096  0.50315656  1
  Co  Co117  1  0.50445215  0.49767463  0.49570461  1
  Co  Co118  1  0.87518144  0.62880518  0.87457705  1
  Co  Co119  1  0.37743245  0.12309209  0.87343245  1
  Co  Co120  1  0.25060137  0.00076341  0.25442302  1
  Co  Co121  1  0.87818492  0.12306629  0.12259963  1
  Co  Co122  1  0.62871396  0.36779307  0.37524068  1
  Co  Co123  1  0.37380414  0.87691436  0.62411789  1
  Co  Co124  1  0.87473861  0.12480872  0.37365684  1
  Co  Co125  1  0.37542443  0.12777680  0.37513974  1
  Co  Co126  1  0.62535819  0.62952104  0.37603015  1
  Co  Co127  1  0.62258070  0.37203630  0.87806955  1
