# generated using pymatgen
data_Fe45Co19
_symmetry_space_group_name_H-M   'P 1'
_cell_length_a   11.41418648
_cell_length_b   11.41478982
_cell_length_c   11.41579936
_cell_angle_alpha   90.00591328
_cell_angle_beta   90.00394082
_cell_angle_gamma   89.99321973
_symmetry_Int_Tables_number   1
_chemical_formula_structural   Fe45Co19
_chemical_formula_sum   'Fe90 Co38'
_cell_volume   1487.37063750
_cell_formula_units_Z   2
loop_
 _symmetry_equiv_pos_site_id
 _symmetry_equiv_pos_as_xyz
  1  'x, y, z'
loop_
 _atom_site_type_symbol
 _atom_site_label
 _atom_site_symmetry_multiplicity
 _atom_site_fract_x
 _atom_site_fract_y
 _atom_site_fract_z
 _atom_site_occupancy
  Fe  Fe0  1  0.37266385  0.37527690  0.12414845  1
  Fe  Fe1  1  0.49988962  -0.00141357  0.75086040  1
  Fe  Fe2  1  0.62209347  0.62288009  0.37550830  1
  Fe  Fe3  1  0.49860868  0.74926744  -0.00121508  1
  Fe  Fe4  1  0.87637727  0.87626337  0.37601078  1
  Fe  Fe5  1  0.62517394  0.12560812  0.62513936  1
  Fe  Fe6  1  0.12672007  0.37316451  0.62392609  1
  Fe  Fe7  1  0.00075173  0.49964865  0.74812734  1
  Fe  Fe8  1  0.74926931  0.00097617  0.25080072  1
  Fe  Fe9  1  0.62501700  0.87442453  0.87572048  1
  Fe  Fe10  1  0.62613042  0.12599247  0.87422475  1
  Fe  Fe11  1  0.12477756  0.12715268  0.12592825  1
  Fe  Fe12  1  0.75150730  0.74793405  0.49939699  1
  Fe  Fe13  1  0.62350161  0.87399506  0.12576026  1
  Fe  Fe14  1  0.62486765  0.37338280  0.62419727  1
  Fe  Fe15  1  0.50088091  0.50217064  0.00063697  1
  Fe  Fe16  1  0.37319876  0.12208147  0.37279953  1
  Fe  Fe17  1  0.49935093  0.74909950  0.25164734  1
  Fe  Fe18  1  0.00203283  0.50230266  0.00178378  1
  Fe  Fe19  1  0.00027007  0.75015043  0.25015039  1
  Fe  Fe20  1  -0.00360752  0.74758204  0.50263907  1
  Fe  Fe21  1  0.37084787  0.12094609  0.62610898  1
  Fe  Fe22  1  0.24936686  0.50051565  0.74803997  1
  Fe  Fe23  1  0.12692027  0.86806726  0.12160492  1
  Fe  Fe24  1  0.00291069  0.49908259  0.24897496  1
  Fe  Fe25  1  0.37193206  0.11859794  0.87674634  1
  Fe  Fe26  1  0.87455214  0.87553824  0.12565084  1
  Fe  Fe27  1  0.62467033  0.12628691  0.12551924  1
  Fe  Fe28  1  0.75278863  0.50143270  0.50130985  1
  Fe  Fe29  1  0.12473298  0.87363011  0.37682383  1
  Fe  Fe30  1  0.75151522  0.49690940  0.75043436  1
  Fe  Fe31  1  0.62512658  0.37388440  0.12375627  1
  Fe  Fe32  1  0.37436546  0.37693541  0.87518363  1
  Fe  Fe33  1  0.00012309  0.25108496  0.75047506  1
  Fe  Fe34  1  0.87624176  0.12309350  0.87495819  1
  Fe  Fe35  1  0.49719602  0.24999848  0.75043786  1
  Fe  Fe36  1  0.12297802  0.63117661  0.87465074  1
  Fe  Fe37  1  0.37407409  0.12224921  0.12338071  1
  Fe  Fe38  1  0.49620217  0.25069085  0.50080239  1
  Fe  Fe39  1  0.37367932  0.62585929  0.12675518  1
  Fe  Fe40  1  0.49804187  0.75228261  0.74868623  1
  Fe  Fe41  1  0.62318363  0.37532455  0.37639091  1
  Fe  Fe42  1  0.75004555  0.00182180  0.49942336  1
  Fe  Fe43  1  0.00142805  -0.00223355  0.00165960  1
  Fe  Fe44  1  0.62417727  0.62518423  0.62576399  1
  Fe  Fe45  1  0.75208855  0.74979488  -0.00042037  1
  Fe  Fe46  1  0.87594051  0.12544741  0.62537263  1
  Fe  Fe47  1  0.75330150  0.75271021  0.74848749  1
  Fe  Fe48  1  0.87738625  0.12484386  0.37215897  1
  Fe  Fe49  1  0.75265346  0.25263578  0.75022921  1
  Fe  Fe50  1  0.25527016  0.75255218  0.49952669  1
  Fe  Fe51  1  0.24881892  0.25125468  0.24912811  1
  Fe  Fe52  1  0.12771624  0.62928102  0.62567588  1
  Fe  Fe53  1  0.49919630  0.25131560  0.25079180  1
  Fe  Fe54  1  0.00366172  0.00120587  0.50347709  1
  Fe  Fe55  1  0.87661373  0.12663346  0.12784600  1
  Fe  Fe56  1  0.37674653  0.62351422  0.87143677  1
  Fe  Fe57  1  0.00190991  0.25103524  -0.00085684  1
  Fe  Fe58  1  0.00016951  0.50249968  0.50153682  1
  Fe  Fe59  1  0.49374013  0.49937986  0.50507433  1
  Fe  Fe60  1  0.24737100  -0.00378482  0.24960115  1
  Fe  Fe61  1  0.75018720  0.50145488  -0.00037114  1
  Fe  Fe62  1  0.12456551  0.12444058  0.37289698  1
  Fe  Fe63  1  0.12553614  0.12041365  0.87346684  1
  Fe  Fe64  1  0.12596119  0.37562930  0.87704433  1
  Fe  Fe65  1  0.25101622  0.24941456  0.49938094  1
  Fe  Fe66  1  0.49792099  0.24799294  -0.00162151  1
  Fe  Fe67  1  0.00036237  0.24951832  0.49945467  1
  Fe  Fe68  1  0.25015522  0.24908723  0.75282062  1
  Fe  Fe69  1  0.62413251  0.87494385  0.62240404  1
  Fe  Fe70  1  0.87540335  0.62549342  0.12777248  1
  Fe  Fe71  1  0.25252105  0.75734515  0.75327997  1
  Fe  Fe72  1  0.75222432  -0.00230746  0.74958653  1
  Fe  Fe73  1  0.49825758  -0.00050819  0.49825546  1
  Fe  Fe74  1  0.74878087  0.00059104  -0.00015506  1
  Fe  Fe75  1  0.12621729  0.62622737  0.37518397  1
  Fe  Fe76  1  0.62477654  0.62530674  0.87334650  1
  Fe  Fe77  1  0.87678081  0.62612289  0.87220353  1
  Fe  Fe78  1  0.87478403  0.37213909  0.12436421  1
  Fe  Fe79  1  0.74939732  0.74898951  0.25223837  1
  Fe  Fe80  1  0.37485801  0.62296635  0.37470293  1
  Fe  Fe81  1  0.62281364  0.87493928  0.37537909  1
  Fe  Fe82  1  0.24789763  0.50386249  0.00022908  1
  Fe  Fe83  1  0.62412867  0.12595618  0.37490848  1
  Fe  Fe84  1  0.87374992  0.37432101  0.37534640  1
  Fe  Fe85  1  0.37556288  0.87617798  0.12347710  1
  Fe  Fe86  1  0.24796940  0.50064078  0.24953202  1
  Fe  Fe87  1  0.74770176  0.50039319  0.24934059  1
  Fe  Fe88  1  0.62437864  0.37432448  0.87619533  1
  Fe  Fe89  1  0.12725656  0.37575797  0.37604582  1
  Co  Co90  1  0.87752352  0.87661579  0.87631232  1
  Co  Co91  1  0.50073946  0.00061119  0.24974237  1
  Co  Co92  1  0.12603994  0.62896260  0.12594188  1
  Co  Co93  1  0.00151618  0.25347321  0.25100403  1
  Co  Co94  1  0.49995883  0.49988856  0.24786196  1
  Co  Co95  1  0.24589411  -0.00638572  0.74906197  1
  Co  Co96  1  0.24968467  0.24834619  -0.00194099  1
  Co  Co97  1  0.87413473  0.87708599  0.62121456  1
  Co  Co98  1  0.75078072  0.24818264  -0.00063772  1
  Co  Co99  1  0.24766495  -0.00060033  0.49884031  1
  Co  Co100  1  0.37632533  0.87838440  0.62311534  1
  Co  Co101  1  0.37362754  0.37651555  0.37316882  1
  Co  Co102  1  0.25138736  0.50084272  0.50184340  1
  Co  Co103  1  0.74873072  0.24942385  0.25183085  1
  Co  Co104  1  -0.00331651  0.74817648  0.00143707  1
  Co  Co105  1  0.37084261  0.37305269  0.62787922  1
  Co  Co106  1  0.25388456  0.74822494  -0.00388707  1
  Co  Co107  1  0.24547719  -0.00205479  0.00183058  1
  Co  Co108  1  0.87610694  0.62425153  0.37174195  1
  Co  Co109  1  0.00366322  -0.00390893  0.24832616  1
  Co  Co110  1  0.12737879  0.37443737  0.12284953  1
  Co  Co111  1  0.49789992  0.74847868  0.50000208  1
  Co  Co112  1  0.37630320  0.87768154  0.37365875  1
  Co  Co113  1  0.00206290  -0.00298094  0.74700323  1
  Co  Co114  1  0.87718302  0.37485666  0.62335821  1
  Co  Co115  1  0.62520848  0.62716475  0.12476883  1
  Co  Co116  1  0.50043960  0.49838939  0.74736640  1
  Co  Co117  1  0.87723093  0.37586701  0.87734301  1
  Co  Co118  1  0.75071834  0.24827145  0.49951970  1
  Co  Co119  1  -0.00232126  0.75461094  0.74671517  1
  Co  Co120  1  0.37287519  0.62747418  0.62790606  1
  Co  Co121  1  0.25115184  0.75140820  0.25216136  1
  Co  Co122  1  0.12577447  0.87201837  0.62272953  1
  Co  Co123  1  0.50448363  0.00091560  -0.00001862  1
  Co  Co124  1  0.87420327  0.62391211  0.62829781  1
  Co  Co125  1  0.12728829  0.12717186  0.62687863  1
  Co  Co126  1  0.37617707  0.88044387  0.87881283  1
  Co  Co127  1  0.12081884  0.87253749  0.87845738  1
