# generated using pymatgen
data_Fe45Co19
_symmetry_space_group_name_H-M   'P 1'
_cell_length_a   11.41502121
_cell_length_b   11.41447095
_cell_length_c   11.41592386
_cell_angle_alpha   90.00423244
_cell_angle_beta   90.00284340
_cell_angle_gamma   90.00120796
_symmetry_Int_Tables_number   1
_chemical_formula_structural   Fe45Co19
_chemical_formula_sum   'Fe90 Co38'
_cell_volume   1487.45409558
_cell_formula_units_Z   2
loop_
 _symmetry_equiv_pos_site_id
 _symmetry_equiv_pos_as_xyz
  1  'x, y, z'
loop_
 _atom_site_type_symbol
 _atom_site_label
 _atom_site_symmetry_multiplicity
 _atom_site_fract_x
 _atom_site_fract_y
 _atom_site_fract_z
 _atom_site_occupancy
  Fe  Fe0  1  0.75102972  0.25239937  0.75230910  1
  Fe  Fe1  1  0.00281837  0.24643290  0.00515454  1
  Fe  Fe2  1  0.37396814  0.62384723  0.62270029  1
  Fe  Fe3  1  0.24900176  0.24955307  0.74819272  1
  Fe  Fe4  1  0.37449377  0.12603287  0.87676237  1
  Fe  Fe5  1  -0.00266767  0.50098611  0.24547791  1
  Fe  Fe6  1  0.75519268  0.75401473  0.24999867  1
  Fe  Fe7  1  0.12487156  0.87570634  0.12591273  1
  Fe  Fe8  1  0.62543317  0.62571358  0.37283344  1
  Fe  Fe9  1  0.12733794  0.12629954  0.36702021  1
  Fe  Fe10  1  0.12525103  0.37561062  0.62578490  1
  Fe  Fe11  1  0.00181874  0.50221712  0.50129312  1
  Fe  Fe12  1  0.12424892  0.87429047  0.87530001  1
  Fe  Fe13  1  0.74948221  -0.00080079  0.49908035  1
  Fe  Fe14  1  0.24913277  0.00097041  0.75113806  1
  Fe  Fe15  1  -0.00124902  0.50114007  0.75088628  1
  Fe  Fe16  1  0.50238578  -0.00229302  -0.00148527  1
  Fe  Fe17  1  0.24578080  0.00142035  0.00022383  1
  Fe  Fe18  1  -0.00227320  0.74816471  0.00460974  1
  Fe  Fe19  1  0.75546402  0.25340836  0.24762107  1
  Fe  Fe20  1  0.25153163  0.49947854  0.75351601  1
  Fe  Fe21  1  0.62418157  0.37431219  0.37392680  1
  Fe  Fe22  1  0.00143817  0.00134786  0.49867092  1
  Fe  Fe23  1  -0.00373102  -0.00458554  0.25029225  1
  Fe  Fe24  1  0.50225458  0.49968235  0.00102242  1
  Fe  Fe25  1  0.75416521  0.49678584  0.25119291  1
  Fe  Fe26  1  0.75030739  0.50095248  0.49869953  1
  Fe  Fe27  1  0.25015703  0.50005015  0.25026794  1
  Fe  Fe28  1  0.49922764  0.75010767  0.24846651  1
  Fe  Fe29  1  0.00099912  0.00118455  0.75158116  1
  Fe  Fe30  1  0.62494368  0.12578850  0.62596948  1
  Fe  Fe31  1  0.87883712  0.62904654  0.37531915  1
  Fe  Fe32  1  0.12454630  0.62527879  0.87557821  1
  Fe  Fe33  1  0.37397276  0.12228868  0.12581397  1
  Fe  Fe34  1  0.24399654  0.74618758  0.49765214  1
  Fe  Fe35  1  0.62423424  0.37474461  0.62490098  1
  Fe  Fe36  1  0.37817504  0.62750832  0.87755478  1
  Fe  Fe37  1  0.49975009  0.49839368  0.75010069  1
  Fe  Fe38  1  0.87638587  0.37566959  0.87769926  1
  Fe  Fe39  1  0.49773574  0.25090333  0.24828519  1
  Fe  Fe40  1  0.24691418  0.24900364  0.00532910  1
  Fe  Fe41  1  0.75297531  0.74948429  0.75087602  1
  Fe  Fe42  1  0.62771127  0.62394424  0.12684448  1
  Fe  Fe43  1  0.87519687  0.37472576  0.62392399  1
  Fe  Fe44  1  0.37362135  0.87436621  0.62351065  1
  Fe  Fe45  1  0.62522322  0.62513287  0.62703102  1
  Fe  Fe46  1  0.37289872  0.12663342  0.37422610  1
  Fe  Fe47  1  0.00112326  0.24964871  0.75008747  1
  Fe  Fe48  1  0.87522362  0.12549941  0.62548456  1
  Fe  Fe49  1  0.37464375  0.12697973  0.62234161  1
  Fe  Fe50  1  0.49894720  0.50088364  0.25040024  1
  Fe  Fe51  1  0.24644300  0.50140704  0.49696719  1
  Fe  Fe52  1  0.12486736  0.87561957  0.62485209  1
  Fe  Fe53  1  0.37474347  0.37790393  0.12317477  1
  Fe  Fe54  1  0.62760566  0.87636762  0.12490187  1
  Fe  Fe55  1  0.00268939  0.24819968  0.49846383  1
  Fe  Fe56  1  0.87585238  0.87451086  0.62188981  1
  Fe  Fe57  1  0.87621993  0.87675178  0.87888235  1
  Fe  Fe58  1  0.50089041  0.74720401  0.49955467  1
  Fe  Fe59  1  0.87674253  0.12469811  0.87760171  1
  Fe  Fe60  1  0.24735891  0.00168100  0.49778955  1
  Fe  Fe61  1  0.25016913  0.74931925  -0.00032687  1
  Fe  Fe62  1  0.87517160  0.62535191  0.62426413  1
  Fe  Fe63  1  0.62429270  0.62668367  0.87330580  1
  Fe  Fe64  1  0.87389276  0.12449140  0.37425795  1
  Fe  Fe65  1  0.49901316  -0.00167314  0.75211064  1
  Fe  Fe66  1  0.74818513  0.49720754  -0.00135073  1
  Fe  Fe67  1  0.37657917  0.37452222  0.37794585  1
  Fe  Fe68  1  0.62650938  0.12673149  0.37189123  1
  Fe  Fe69  1  0.25139693  0.74920870  0.75131812  1
  Fe  Fe70  1  0.37353041  0.62538634  0.12461811  1
  Fe  Fe71  1  0.37576507  0.37375337  0.62060104  1
  Fe  Fe72  1  0.12168583  0.37346616  0.36964620  1
  Fe  Fe73  1  0.75043996  0.75037632  -0.00008705  1
  Fe  Fe74  1  0.62727431  0.12672247  0.12541569  1
  Fe  Fe75  1  0.87247825  0.11948284  0.12211773  1
  Fe  Fe76  1  0.62514214  0.87388769  0.62642195  1
  Fe  Fe77  1  0.62614796  0.87430838  0.37496305  1
  Fe  Fe78  1  0.62277786  0.13068412  0.87649716  1
  Fe  Fe79  1  0.24735805  0.74976477  0.25197103  1
  Fe  Fe80  1  0.37428125  0.87282945  0.37630720  1
  Fe  Fe81  1  0.37484821  0.87474482  0.12350932  1
  Fe  Fe82  1  0.12482268  0.37448384  0.87785890  1
  Fe  Fe83  1  0.74984380  -0.00036727  0.75384415  1
  Fe  Fe84  1  0.37693539  0.37154324  0.87744560  1
  Fe  Fe85  1  0.50006115  -0.00105968  0.25068943  1
  Fe  Fe86  1  -0.00091061  0.74834168  0.74964715  1
  Fe  Fe87  1  0.00111177  0.50363266  0.00271153  1
  Fe  Fe88  1  0.50102425  0.00113020  0.49821821  1
  Fe  Fe89  1  0.75022607  0.25087588  0.49883849  1
  Co  Co90  1  0.49841931  0.25076794  0.00505387  1
  Co  Co91  1  0.25030520  0.50009204  -0.00187490  1
  Co  Co92  1  0.50212400  0.24848877  0.49883450  1
  Co  Co93  1  0.12600017  0.12702942  0.87336717  1
  Co  Co94  1  0.87075930  0.62394414  0.12560623  1
  Co  Co95  1  0.62566807  0.37497954  0.12757657  1
  Co  Co96  1  0.12346062  0.87546224  0.37446604  1
  Co  Co97  1  0.75136726  0.25203908  0.00074925  1
  Co  Co98  1  0.50204954  0.50217161  0.49905997  1
  Co  Co99  1  0.12558677  0.12373337  0.13416162  1
  Co  Co100  1  -0.00233684  0.75333215  0.24439870  1
  Co  Co101  1  0.00590852  0.00228786  0.00051827  1
  Co  Co102  1  0.87614074  0.37701189  0.12028796  1
  Co  Co103  1  0.11987740  0.62358001  0.36946069  1
  Co  Co104  1  0.25373247  0.25428039  0.24677797  1
  Co  Co105  1  0.75121036  -0.00228494  0.25211635  1
  Co  Co106  1  0.37486774  0.62598504  0.37447526  1
  Co  Co107  1  0.00546584  0.74801696  0.50173634  1
  Co  Co108  1  0.12400470  0.37692717  0.12616181  1
  Co  Co109  1  0.74480170  0.00024973  -0.00521936  1
  Co  Co110  1  0.75008317  0.49848806  0.75110652  1
  Co  Co111  1  0.74829446  0.74845891  0.50001077  1
  Co  Co112  1  0.12391951  0.12447876  0.62574010  1
  Co  Co113  1  0.87606967  0.87175107  0.38018576  1
  Co  Co114  1  -0.00600232  0.24984211  0.24613824  1
  Co  Co115  1  0.62401236  0.86981941  0.87325044  1
  Co  Co116  1  0.24539997  0.25031781  0.49833857  1
  Co  Co117  1  0.12661340  0.62311211  0.62984286  1
  Co  Co118  1  0.49665018  0.75074617  0.74829618  1
  Co  Co119  1  0.12815655  0.62436835  0.12553121  1
  Co  Co120  1  0.87438312  0.62361281  0.87660389  1
  Co  Co121  1  0.87245011  0.88046901  0.11950408  1
  Co  Co122  1  0.87863513  0.37585476  0.37789376  1
  Co  Co123  1  0.49823888  0.25000253  0.74751228  1
  Co  Co124  1  0.25261577  -0.00437234  0.25028615  1
  Co  Co125  1  0.62233417  0.37218660  0.87538948  1
  Co  Co126  1  0.37432699  0.87560980  0.87692056  1
  Co  Co127  1  0.50183024  0.75044411  0.00362648  1
