# generated using pymatgen
data_Fe45Co19
_symmetry_space_group_name_H-M   'P 1'
_cell_length_a   11.41549525
_cell_length_b   11.41422744
_cell_length_c   11.41439844
_cell_angle_alpha   90.00995223
_cell_angle_beta   89.99560868
_cell_angle_gamma   89.99237755
_symmetry_Int_Tables_number   1
_chemical_formula_structural   Fe45Co19
_chemical_formula_sum   'Fe90 Co38'
_cell_volume   1487.28533714
_cell_formula_units_Z   2
loop_
 _symmetry_equiv_pos_site_id
 _symmetry_equiv_pos_as_xyz
  1  'x, y, z'
loop_
 _atom_site_type_symbol
 _atom_site_label
 _atom_site_symmetry_multiplicity
 _atom_site_fract_x
 _atom_site_fract_y
 _atom_site_fract_z
 _atom_site_occupancy
  Fe  Fe0  1  0.00223822  0.49978672  0.74906730  1
  Fe  Fe1  1  0.25039812  0.25058256  0.49900999  1
  Fe  Fe2  1  -0.00025520  0.24894165  -0.00066201  1
  Fe  Fe3  1  0.12821743  0.37471549  0.62621675  1
  Fe  Fe4  1  0.37511996  0.62481766  0.37130482  1
  Fe  Fe5  1  0.74669816  0.49906960  0.75040391  1
  Fe  Fe6  1  0.62768714  0.13025501  0.12811145  1
  Fe  Fe7  1  0.49933768  0.00264298  0.00340084  1
  Fe  Fe8  1  0.75003457  0.24909170  0.49873501  1
  Fe  Fe9  1  0.75107583  -0.00124295  0.49713406  1
  Fe  Fe10  1  0.00035144  -0.00250665  0.25154266  1
  Fe  Fe11  1  0.61973526  0.37604212  0.62041724  1
  Fe  Fe12  1  -0.00300801  -0.00099237  0.49878880  1
  Fe  Fe13  1  0.74607594  0.25179278  0.75083542  1
  Fe  Fe14  1  0.62423241  0.87518313  0.62110177  1
  Fe  Fe15  1  -0.00029901  0.50177513  0.00156223  1
  Fe  Fe16  1  0.12446704  0.37502329  0.12486136  1
  Fe  Fe17  1  0.87283212  0.62491203  0.87358879  1
  Fe  Fe18  1  0.00057144  0.24891193  0.50056015  1
  Fe  Fe19  1  0.00046286  0.25098023  0.25136603  1
  Fe  Fe20  1  0.25200593  0.25461993  -0.00216912  1
  Fe  Fe21  1  0.74823606  0.49459501  0.25049451  1
  Fe  Fe22  1  0.87593541  0.87406182  0.12600564  1
  Fe  Fe23  1  0.62207850  0.12575464  0.87568720  1
  Fe  Fe24  1  0.74696328  0.00003249  0.74884845  1
  Fe  Fe25  1  0.00083928  0.75078426  0.74936101  1
  Fe  Fe26  1  0.74837999  0.00086699  0.00228577  1
  Fe  Fe27  1  0.62041811  0.87518259  0.12779688  1
  Fe  Fe28  1  0.25191453  0.50143193  0.50179827  1
  Fe  Fe29  1  0.37200953  0.12555057  0.36915254  1
  Fe  Fe30  1  0.49929616  0.74432501  -0.00073763  1
  Fe  Fe31  1  0.12675540  0.87524216  0.87659258  1
  Fe  Fe32  1  0.49967498  0.00377555  0.49854080  1
  Fe  Fe33  1  0.00103634  -0.00113378  0.74902497  1
  Fe  Fe34  1  0.62765838  0.12520300  0.37094504  1
  Fe  Fe35  1  0.12916766  0.62132678  0.87502244  1
  Fe  Fe36  1  0.87397316  0.37511434  0.62466031  1
  Fe  Fe37  1  0.37645613  0.87409147  0.87705661  1
  Fe  Fe38  1  0.25296229  0.00021010  0.75020469  1
  Fe  Fe39  1  0.00187227  0.24987462  0.74932460  1
  Fe  Fe40  1  0.62370804  0.37896630  0.88152130  1
  Fe  Fe41  1  0.12798960  0.12486464  0.62453846  1
  Fe  Fe42  1  0.87321876  0.12527436  0.62568502  1
  Fe  Fe43  1  0.62380091  0.87456335  0.87690382  1
  Fe  Fe44  1  0.87428374  0.62533006  0.12852955  1
  Fe  Fe45  1  0.12806718  0.12609617  0.87520415  1
  Fe  Fe46  1  0.24740088  0.49723465  0.25020773  1
  Fe  Fe47  1  0.62359014  0.62293723  0.62350624  1
  Fe  Fe48  1  0.25317610  -0.00289015  0.49710333  1
  Fe  Fe49  1  0.00096787  0.50152628  0.49984654  1
  Fe  Fe50  1  0.87303419  0.62485216  0.37348593  1
  Fe  Fe51  1  0.49929971  0.00024370  0.74923339  1
  Fe  Fe52  1  0.12654363  0.12272225  0.37307828  1
  Fe  Fe53  1  0.87223394  0.12656758  0.12888221  1
  Fe  Fe54  1  0.37616234  0.37456099  0.37433958  1
  Fe  Fe55  1  0.50148990  0.74618910  0.49533018  1
  Fe  Fe56  1  0.25103747  0.75064687  0.00232407  1
  Fe  Fe57  1  0.74823702  0.50106949  0.49887632  1
  Fe  Fe58  1  0.50311123  0.49574430  0.24949849  1
  Fe  Fe59  1  0.12662596  0.87336581  0.62148183  1
  Fe  Fe60  1  -0.00067011  0.00118866  0.00040828  1
  Fe  Fe61  1  0.12606499  0.62534840  0.12678656  1
  Fe  Fe62  1  0.37368951  0.62352580  0.12708051  1
  Fe  Fe63  1  0.49809238  0.25221545  0.75089218  1
  Fe  Fe64  1  0.87433114  0.62479262  0.62505629  1
  Fe  Fe65  1  0.25180634  0.75855404  0.25049268  1
  Fe  Fe66  1  0.37782977  0.62265143  0.62675955  1
  Fe  Fe67  1  0.49894972  0.24752224  0.49701314  1
  Fe  Fe68  1  0.37473852  0.12776039  0.62635090  1
  Fe  Fe69  1  0.87311092  0.87569824  0.87483609  1
  Fe  Fe70  1  0.62554547  0.62101470  0.12438961  1
  Fe  Fe71  1  0.87394199  0.37392310  0.12385688  1
  Fe  Fe72  1  0.37750236  0.87329597  0.62225251  1
  Fe  Fe73  1  0.74925706  0.74940089  0.00126910  1
  Fe  Fe74  1  0.87647404  0.37485474  0.37645793  1
  Fe  Fe75  1  0.74486532  0.75230381  0.25265892  1
  Fe  Fe76  1  0.12801165  0.12457570  0.12751989  1
  Fe  Fe77  1  0.37165640  0.12791684  0.12916983  1
  Fe  Fe78  1  0.25034005  0.74814761  0.74752996  1
  Fe  Fe79  1  -0.00232003  0.74995906  0.50038785  1
  Fe  Fe80  1  0.87349246  0.12459242  0.87311287  1
  Fe  Fe81  1  0.12419246  0.37621550  0.37588890  1
  Fe  Fe82  1  0.12667205  0.62676884  0.37541013  1
  Fe  Fe83  1  0.74798822  0.75011482  0.74801284  1
  Fe  Fe84  1  0.00194979  0.75113723  0.25155180  1
  Fe  Fe85  1  0.49581711  0.25320223  0.00198340  1
  Fe  Fe86  1  0.00000812  0.74842593  -0.00096138  1
  Fe  Fe87  1  0.87505604  0.37533205  0.87581297  1
  Fe  Fe88  1  0.25236169  -0.00165624  0.00277011  1
  Fe  Fe89  1  0.50122236  0.74749966  0.75289069  1
  Co  Co90  1  0.12510220  0.87374759  0.37914523  1
  Co  Co91  1  0.24748505  0.25379032  0.25161635  1
  Co  Co92  1  0.87343451  0.87517591  0.62506563  1
  Co  Co93  1  0.49568975  0.50214213  0.00202449  1
  Co  Co94  1  0.37667473  0.12397538  0.87622443  1
  Co  Co95  1  0.37801207  0.37454644  0.62304589  1
  Co  Co96  1  0.37422888  0.38148691  0.87325348  1
  Co  Co97  1  0.37501613  0.37589751  0.12915441  1
  Co  Co98  1  0.62279302  0.37420541  0.37957574  1
  Co  Co99  1  0.00061471  0.49941009  0.24998304  1
  Co  Co100  1  0.87487549  0.12651291  0.37279568  1
  Co  Co101  1  0.50204638  0.25250881  0.24998499  1
  Co  Co102  1  0.25508671  0.74784324  0.49923015  1
  Co  Co103  1  0.87350352  0.87180213  0.37350069  1
  Co  Co104  1  0.25340112  0.25059395  0.75249995  1
  Co  Co105  1  0.62714292  0.62360397  0.87715790  1
  Co  Co106  1  0.62684102  0.37430101  0.11937268  1
  Co  Co107  1  0.50083207  0.74652813  0.25006664  1
  Co  Co108  1  0.74986774  -0.00260876  0.24969332  1
  Co  Co109  1  0.12183068  0.87510383  0.12303371  1
  Co  Co110  1  0.74776211  0.74908953  0.49876558  1
  Co  Co111  1  0.25058208  0.49983020  0.74497779  1
  Co  Co112  1  0.37081625  0.62259469  0.87476527  1
  Co  Co113  1  0.75156764  0.24758356  -0.00238472  1
  Co  Co114  1  0.75375353  0.50236634  0.00131130  1
  Co  Co115  1  0.12521922  0.37664693  0.87475288  1
  Co  Co116  1  0.50217651  0.50059266  0.75256508  1
  Co  Co117  1  0.62586401  0.62238581  0.37305260  1
  Co  Co118  1  0.38229732  0.87502854  0.37470120  1
  Co  Co119  1  0.38120825  0.87342627  0.12416987  1
  Co  Co120  1  0.62479858  0.12617447  0.62469678  1
  Co  Co121  1  0.49799166  0.00462093  0.24812678  1
  Co  Co122  1  0.74922804  0.25611058  0.25267600  1
  Co  Co123  1  0.49710420  0.50296348  0.49636879  1
  Co  Co124  1  0.12384986  0.62578577  0.62320727  1
  Co  Co125  1  0.25060678  0.49753421  0.00395780  1
  Co  Co126  1  0.61989764  0.87726057  0.37422742  1
  Co  Co127  1  0.25123434  -0.00740024  0.24917837  1
