# generated using pymatgen
data_Fe45Co19
_symmetry_space_group_name_H-M   'P 1'
_cell_length_a   11.41624944
_cell_length_b   11.41610225
_cell_length_c   11.41666290
_cell_angle_alpha   89.99499115
_cell_angle_beta   89.99846415
_cell_angle_gamma   89.99370460
_symmetry_Int_Tables_number   1
_chemical_formula_structural   Fe45Co19
_chemical_formula_sum   'Fe90 Co38'
_cell_volume   1487.92305436
_cell_formula_units_Z   2
loop_
 _symmetry_equiv_pos_site_id
 _symmetry_equiv_pos_as_xyz
  1  'x, y, z'
loop_
 _atom_site_type_symbol
 _atom_site_label
 _atom_site_symmetry_multiplicity
 _atom_site_fract_x
 _atom_site_fract_y
 _atom_site_fract_z
 _atom_site_occupancy
  Fe  Fe0  1  0.25291183  0.25291912  0.00152031  1
  Fe  Fe1  1  0.74575392  0.00076302  0.24741556  1
  Fe  Fe2  1  0.12291119  0.12638099  0.12638029  1
  Fe  Fe3  1  -0.00193663  0.24940239  -0.00149453  1
  Fe  Fe4  1  0.25286144  0.75046917  0.25182282  1
  Fe  Fe5  1  0.12311814  0.87467540  0.87491673  1
  Fe  Fe6  1  0.12391250  0.87587342  0.12567053  1
  Fe  Fe7  1  -0.00124845  0.74981628  0.49936169  1
  Fe  Fe8  1  0.49964149  0.75058188  0.75166753  1
  Fe  Fe9  1  0.25087007  0.25365367  0.24962944  1
  Fe  Fe10  1  0.37577150  0.12308974  0.87572435  1
  Fe  Fe11  1  0.24914766  -0.00064831  0.49889722  1
  Fe  Fe12  1  0.25176370  0.49617051  0.00085534  1
  Fe  Fe13  1  0.75082241  0.25184227  0.49847689  1
  Fe  Fe14  1  0.12409233  0.37333183  0.37484985  1
  Fe  Fe15  1  0.62283520  0.62259778  0.37584030  1
  Fe  Fe16  1  0.87501141  0.37685219  0.86739432  1
  Fe  Fe17  1  0.74485319  -0.00232135  0.00315255  1
  Fe  Fe18  1  -0.00158740  0.50005670  -0.00141312  1
  Fe  Fe19  1  0.75069276  0.25174379  0.25203081  1
  Fe  Fe20  1  0.62322117  0.37560425  0.87428369  1
  Fe  Fe21  1  0.37659165  0.12345375  0.62336493  1
  Fe  Fe22  1  0.49650511  0.74984024  0.49656023  1
  Fe  Fe23  1  0.62839254  0.62729217  0.87512543  1
  Fe  Fe24  1  0.25165683  0.75075802  0.00086791  1
  Fe  Fe25  1  0.12580772  0.62514160  0.37524404  1
  Fe  Fe26  1  0.87541077  0.12449174  0.37367231  1
  Fe  Fe27  1  0.25118503  0.75101565  0.75170364  1
  Fe  Fe28  1  0.62491524  0.37243526  0.12410457  1
  Fe  Fe29  1  0.87565712  0.12272608  0.12541552  1
  Fe  Fe30  1  0.50017698  0.24725041  0.74957550  1
  Fe  Fe31  1  0.62275265  0.12258039  0.87617954  1
  Fe  Fe32  1  -0.00531784  0.75035994  0.00041002  1
  Fe  Fe33  1  -0.00235490  0.49808350  0.50381216  1
  Fe  Fe34  1  0.87400673  0.87764927  0.37366390  1
  Fe  Fe35  1  0.49724376  0.75130234  0.25039771  1
  Fe  Fe36  1  0.37639896  0.37438370  0.62508271  1
  Fe  Fe37  1  0.62634755  0.62846557  0.62418164  1
  Fe  Fe38  1  0.50081298  0.25279551  0.25269351  1
  Fe  Fe39  1  0.62342822  0.87420410  0.62528426  1
  Fe  Fe40  1  0.49847826  0.25046778  -0.00020370  1
  Fe  Fe41  1  0.25151655  0.50049598  0.49831385  1
  Fe  Fe42  1  0.62388085  0.87539855  0.37450454  1
  Fe  Fe43  1  0.87208491  0.12741571  0.62667256  1
  Fe  Fe44  1  0.37401521  0.62130004  0.12782620  1
  Fe  Fe45  1  0.75032918  0.49863666  -0.00001850  1
  Fe  Fe46  1  0.12471749  0.37224916  0.62747503  1
  Fe  Fe47  1  0.87533894  0.87476564  0.62543052  1
  Fe  Fe48  1  0.62514597  0.37103796  0.62428661  1
  Fe  Fe49  1  0.87515676  0.62221961  0.37589326  1
  Fe  Fe50  1  0.37740731  0.12279188  0.12689850  1
  Fe  Fe51  1  0.00159156  0.49879549  0.24923193  1
  Fe  Fe52  1  -0.00382507  0.74693279  0.75126829  1
  Fe  Fe53  1  0.87349526  0.12141784  0.87522686  1
  Fe  Fe54  1  0.37462521  0.87531176  0.62272378  1
  Fe  Fe55  1  0.24900462  0.00034991  0.00208185  1
  Fe  Fe56  1  0.87603077  0.37511809  0.12652471  1
  Fe  Fe57  1  0.12491536  0.87314233  0.62476558  1
  Fe  Fe58  1  0.49817065  0.75048564  0.00135815  1
  Fe  Fe59  1  0.25033456  0.49884803  0.75111796  1
  Fe  Fe60  1  0.62339253  0.12549200  0.37656934  1
  Fe  Fe61  1  0.75097757  0.49768004  0.50223208  1
  Fe  Fe62  1  -0.00324038  0.75059849  0.24909133  1
  Fe  Fe63  1  0.00117702  0.00275265  0.75012799  1
  Fe  Fe64  1  0.12680849  0.62721051  0.62424787  1
  Fe  Fe65  1  -0.00013556  0.00092372  0.49945770  1
  Fe  Fe66  1  0.74770650  0.49870080  0.25037299  1
  Fe  Fe67  1  0.75092374  0.75019228  0.49913042  1
  Fe  Fe68  1  0.25081672  -0.00027573  0.74957819  1
  Fe  Fe69  1  0.50198038  0.50189739  0.74895605  1
  Fe  Fe70  1  0.12812840  0.12710240  0.87436929  1
  Fe  Fe71  1  0.50036963  0.50017282  0.00119934  1
  Fe  Fe72  1  0.12619306  0.87495437  0.37516221  1
  Fe  Fe73  1  -0.00307426  0.25084856  0.50055106  1
  Fe  Fe74  1  0.37345901  0.62626288  0.62420842  1
  Fe  Fe75  1  0.75482630  0.75294227  -0.00064141  1
  Fe  Fe76  1  0.74619335  -0.00118269  0.74920372  1
  Fe  Fe77  1  0.62702193  0.62705705  0.12419821  1
  Fe  Fe78  1  0.37734359  0.12074404  0.37344686  1
  Fe  Fe79  1  0.12420576  0.12650459  0.37436004  1
  Fe  Fe80  1  0.75109141  0.25064047  -0.00212356  1
  Fe  Fe81  1  0.12659022  0.12711858  0.62456585  1
  Fe  Fe82  1  0.12562494  0.37264659  0.87261140  1
  Fe  Fe83  1  0.37803063  0.87849706  0.87769051  1
  Fe  Fe84  1  0.12495958  0.62431420  0.12404190  1
  Fe  Fe85  1  0.37449634  0.62333768  0.87542440  1
  Fe  Fe86  1  0.74818792  0.00019018  0.50086533  1
  Fe  Fe87  1  0.25378004  0.25067394  0.49830542  1
  Fe  Fe88  1  0.12552267  0.62480230  0.87637162  1
  Fe  Fe89  1  0.75273749  0.74898804  0.24972085  1
  Co  Co90  1  0.50492040  -0.00156783  0.24686039  1
  Co  Co91  1  0.25224241  0.74963129  0.49667767  1
  Co  Co92  1  0.75125930  0.75247883  0.75075704  1
  Co  Co93  1  0.50381792  -0.00035029  0.00572299  1
  Co  Co94  1  0.87246293  0.62574627  0.62443414  1
  Co  Co95  1  0.50514814  0.49919637  0.24728521  1
  Co  Co96  1  0.12219985  0.37372971  0.12296198  1
  Co  Co97  1  0.87429812  0.62193669  0.12571490  1
  Co  Co98  1  0.00022105  0.24593444  0.75127180  1
  Co  Co99  1  0.62321556  0.37618120  0.37797756  1
  Co  Co100  1  0.87567139  0.87913501  0.87451015  1
  Co  Co101  1  0.37784590  0.37648038  0.12705889  1
  Co  Co102  1  0.00320495  0.00109889  -0.00046732  1
  Co  Co103  1  0.62508391  0.13163844  0.12512420  1
  Co  Co104  1  0.37716184  0.37982958  0.37400027  1
  Co  Co105  1  0.87390323  0.37160206  0.63052042  1
  Co  Co106  1  0.37541314  0.87991874  0.37468294  1
  Co  Co107  1  0.87529272  0.88034896  0.12633841  1
  Co  Co108  1  0.50076040  0.00053076  0.74812837  1
  Co  Co109  1  0.25335799  0.24947378  0.74886564  1
  Co  Co110  1  0.37424801  0.87817221  0.12467612  1
  Co  Co111  1  0.24767074  0.00053989  0.24941808  1
  Co  Co112  1  0.62550938  0.12706732  0.62252731  1
  Co  Co113  1  0.50237986  -0.00035821  0.50012423  1
  Co  Co114  1  0.62576666  0.86924160  0.12512775  1
  Co  Co115  1  0.74648412  0.24782978  0.75419834  1
  Co  Co116  1  0.24630157  0.49707152  0.24925916  1
  Co  Co117  1  0.62273857  0.87392140  0.87582894  1
  Co  Co118  1  0.37737753  0.37500359  0.87322424  1
  Co  Co119  1  0.74637333  0.50062100  0.74677800  1
  Co  Co120  1  0.37600283  0.61962926  0.37264876  1
  Co  Co121  1  0.87625210  0.37669714  0.37385305  1
  Co  Co122  1  0.00177592  0.00048215  0.25196040  1
  Co  Co123  1  0.50039092  0.50079039  0.50341303  1
  Co  Co124  1  0.87118565  0.62234340  0.87354377  1
  Co  Co125  1  0.00187663  0.50303435  0.74799729  1
  Co  Co126  1  0.49796281  0.24910423  0.49840002  1
  Co  Co127  1  -0.00132371  0.24978347  0.24960042  1
