# generated using pymatgen
data_Fe45Co19
_symmetry_space_group_name_H-M   'P 1'
_cell_length_a   11.41388340
_cell_length_b   11.41348701
_cell_length_c   11.41672554
_cell_angle_alpha   90.00381821
_cell_angle_beta   89.99858974
_cell_angle_gamma   90.01074546
_symmetry_Int_Tables_number   1
_chemical_formula_structural   Fe45Co19
_chemical_formula_sum   'Fe90 Co38'
_cell_volume   1487.28203519
_cell_formula_units_Z   2
loop_
 _symmetry_equiv_pos_site_id
 _symmetry_equiv_pos_as_xyz
  1  'x, y, z'
loop_
 _atom_site_type_symbol
 _atom_site_label
 _atom_site_symmetry_multiplicity
 _atom_site_fract_x
 _atom_site_fract_y
 _atom_site_fract_z
 _atom_site_occupancy
  Fe  Fe0  1  0.25146467  0.50049801  0.50056759  1
  Fe  Fe1  1  0.25394661  0.75067343  0.24953440  1
  Fe  Fe2  1  0.12796409  0.62689527  0.62634479  1
  Fe  Fe3  1  -0.00138369  -0.00111725  0.24933185  1
  Fe  Fe4  1  -0.00087576  0.24964123  0.49974239  1
  Fe  Fe5  1  0.37578074  0.62526808  0.87501177  1
  Fe  Fe6  1  0.87465823  0.37374696  0.37633664  1
  Fe  Fe7  1  -0.00065804  0.75158424  0.25109057  1
  Fe  Fe8  1  0.87097312  0.12106909  0.37463911  1
  Fe  Fe9  1  0.87316994  0.12440186  0.12806775  1
  Fe  Fe10  1  0.37668090  0.37317000  0.37522016  1
  Fe  Fe11  1  0.87422965  0.62668589  0.12621001  1
  Fe  Fe12  1  0.62069051  0.87824786  0.37544717  1
  Fe  Fe13  1  0.75006044  0.75539531  0.75146276  1
  Fe  Fe14  1  0.37773305  0.87849544  0.88072162  1
  Fe  Fe15  1  0.00006256  0.00086040  0.00266975  1
  Fe  Fe16  1  0.37642920  0.37480908  0.87736043  1
  Fe  Fe17  1  0.49723664  0.00086969  0.24836697  1
  Fe  Fe18  1  0.37596213  0.37105183  0.62457505  1
  Fe  Fe19  1  0.37545778  0.37420641  0.12239703  1
  Fe  Fe20  1  0.62450479  0.62764440  0.62560720  1
  Fe  Fe21  1  0.74961352  0.75319271  -0.00067770  1
  Fe  Fe22  1  0.87474277  0.37320709  0.12552748  1
  Fe  Fe23  1  0.12613055  0.87620213  0.12535201  1
  Fe  Fe24  1  0.50051268  0.50227974  0.24783963  1
  Fe  Fe25  1  0.37042790  0.12454083  0.12426783  1
  Fe  Fe26  1  0.12238605  0.37247470  0.87347245  1
  Fe  Fe27  1  0.62554646  0.37395041  0.12437933  1
  Fe  Fe28  1  0.00120820  0.50198511  -0.00046367  1
  Fe  Fe29  1  0.75051621  0.75526139  0.25127351  1
  Fe  Fe30  1  0.00026516  0.49897052  0.50104107  1
  Fe  Fe31  1  -0.00000837  0.75230882  0.74693584  1
  Fe  Fe32  1  0.24759917  0.25121170  0.24986469  1
  Fe  Fe33  1  0.12918098  0.12166576  0.62585377  1
  Fe  Fe34  1  0.37653014  0.12281266  0.87360396  1
  Fe  Fe35  1  0.00213254  0.74795939  0.00111714  1
  Fe  Fe36  1  0.12309193  0.87570234  0.87452754  1
  Fe  Fe37  1  0.12372671  0.37213754  0.62575590  1
  Fe  Fe38  1  0.62237623  0.87637202  0.12217637  1
  Fe  Fe39  1  -0.00085532  -0.00182175  0.74679152  1
  Fe  Fe40  1  0.62800285  0.12313855  0.12675062  1
  Fe  Fe41  1  0.12671730  0.62483730  0.37474999  1
  Fe  Fe42  1  0.74855322  0.24693663  -0.00198584  1
  Fe  Fe43  1  0.25092285  0.24920612  0.75185364  1
  Fe  Fe44  1  0.87044104  0.12443138  0.62291369  1
  Fe  Fe45  1  0.75020193  0.49832244  0.74921320  1
  Fe  Fe46  1  0.25091109  0.49990821  0.25058264  1
  Fe  Fe47  1  0.50002494  0.49924736  0.74874728  1
  Fe  Fe48  1  0.49685252  0.00462758  0.50013046  1
  Fe  Fe49  1  0.74833184  0.24880968  0.74955879  1
  Fe  Fe50  1  0.00036375  -0.00241324  0.50165372  1
  Fe  Fe51  1  -0.00032464  0.50118439  0.74841141  1
  Fe  Fe52  1  0.87431527  0.12285557  0.87450333  1
  Fe  Fe53  1  0.25197328  0.75333604  0.75054164  1
  Fe  Fe54  1  0.49868507  0.75429502  0.74880575  1
  Fe  Fe55  1  0.50215375  0.24863365  0.25093142  1
  Fe  Fe56  1  0.62452893  0.37191309  0.62334569  1
  Fe  Fe57  1  0.62409387  0.37314542  0.87526864  1
  Fe  Fe58  1  0.25160878  -0.00179498  0.25192671  1
  Fe  Fe59  1  0.74773830  0.25108289  0.25448035  1
  Fe  Fe60  1  0.49671810  0.74959977  0.24730529  1
  Fe  Fe61  1  0.25367161  0.74895451  0.49893304  1
  Fe  Fe62  1  0.87701223  0.37268137  0.87287143  1
  Fe  Fe63  1  0.25083177  0.49945426  0.74941142  1
  Fe  Fe64  1  0.87426819  0.62665254  0.37530850  1
  Fe  Fe65  1  0.50320487  0.50392101  0.00153282  1
  Fe  Fe66  1  0.00107901  0.24685354  0.00186019  1
  Fe  Fe67  1  0.37106848  0.88015440  0.62138186  1
  Fe  Fe68  1  0.62216380  0.62694436  0.37603573  1
  Fe  Fe69  1  0.74766576  0.49996060  0.25072614  1
  Fe  Fe70  1  0.87499286  0.62695476  0.87434713  1
  Fe  Fe71  1  0.25074881  0.24668010  0.49888426  1
  Fe  Fe72  1  0.12622020  0.87511079  0.37729842  1
  Fe  Fe73  1  0.24917508  0.74946727  0.00124202  1
  Fe  Fe74  1  0.74983989  0.49854809  0.50046217  1
  Fe  Fe75  1  0.74919367  0.75455742  0.49800178  1
  Fe  Fe76  1  0.62314907  0.88195031  0.87718996  1
  Fe  Fe77  1  0.12405579  0.12541058  0.37301726  1
  Fe  Fe78  1  0.50264884  0.24387336  0.49894028  1
  Fe  Fe79  1  0.50118152  0.24585817  -0.00085569  1
  Fe  Fe80  1  -0.00002192  0.75171684  0.50123953  1
  Fe  Fe81  1  0.49850214  0.50251010  0.50171764  1
  Fe  Fe82  1  0.24624676  0.50156430  0.00006350  1
  Fe  Fe83  1  0.62474552  0.62670961  0.87347958  1
  Fe  Fe84  1  0.62561917  0.87978725  0.62474144  1
  Fe  Fe85  1  0.74999264  0.50063862  -0.00024720  1
  Fe  Fe86  1  0.12303675  0.37214578  0.12525143  1
  Fe  Fe87  1  0.00122416  0.49888738  0.25173039  1
  Fe  Fe88  1  0.87250635  0.62703339  0.62464728  1
  Fe  Fe89  1  0.12549958  0.12338348  0.87488304  1
  Co  Co90  1  0.12597389  0.62693117  0.87127847  1
  Co  Co91  1  0.75076910  0.00058418  0.00058744  1
  Co  Co92  1  0.12973113  0.87629040  0.62270709  1
  Co  Co93  1  0.74919358  -0.00244301  0.50004791  1
  Co  Co94  1  0.62126877  0.37698551  0.37609255  1
  Co  Co95  1  0.87854478  0.87528924  0.87633070  1
  Co  Co96  1  0.62665846  0.12276560  0.62755033  1
  Co  Co97  1  0.25030028  -0.00194580  0.75352743  1
  Co  Co98  1  0.87729848  0.87399264  0.12251062  1
  Co  Co99  1  0.50042708  0.00563137  0.00293093  1
  Co  Co100  1  0.50109219  0.74813534  -0.00034624  1
  Co  Co101  1  0.74686591  0.25008591  0.49750095  1
  Co  Co102  1  0.24833026  0.00021897  -0.00060720  1
  Co  Co103  1  0.37413950  0.62450390  0.12206760  1
  Co  Co104  1  0.00020170  0.24478178  0.74803018  1
  Co  Co105  1  0.50005327  0.25028353  0.75041745  1
  Co  Co106  1  0.62802868  0.62787461  0.12583881  1
  Co  Co107  1  0.37536574  0.87649796  0.12140548  1
  Co  Co108  1  -0.00117922  0.24922585  0.25187665  1
  Co  Co109  1  0.37478159  0.12728961  0.37117397  1
  Co  Co110  1  0.75046789  -0.00617173  0.24760372  1
  Co  Co111  1  0.37582868  0.62633031  0.62758267  1
  Co  Co112  1  0.75358697  -0.00143113  0.75118159  1
  Co  Co113  1  0.37748704  0.62510179  0.37526939  1
  Co  Co114  1  0.12660018  0.12412554  0.12773233  1
  Co  Co115  1  0.87534269  0.37236880  0.62605720  1
  Co  Co116  1  0.87661929  0.87731455  0.37689004  1
  Co  Co117  1  0.62804383  0.11917410  0.37356082  1
  Co  Co118  1  0.49890921  0.75229512  0.50389122  1
  Co  Co119  1  0.49752736  -0.00201733  0.74742386  1
  Co  Co120  1  0.25181635  0.00383261  0.49494775  1
  Co  Co121  1  0.24884321  0.24841358  -0.00167043  1
  Co  Co122  1  0.37325907  0.12416274  0.62847522  1
  Co  Co123  1  0.37731305  0.87499645  0.37671378  1
  Co  Co124  1  0.87384511  0.87451663  0.62457456  1
  Co  Co125  1  0.12619925  0.37353764  0.37649543  1
  Co  Co126  1  0.62376460  0.12071474  0.87061607  1
  Co  Co127  1  0.12515339  0.62557941  0.12860620  1
