# generated using pymatgen
data_Fe45Co19
_symmetry_space_group_name_H-M   'P 1'
_cell_length_a   11.41508449
_cell_length_b   11.41373674
_cell_length_c   11.41439637
_cell_angle_alpha   90.00307576
_cell_angle_beta   89.99997921
_cell_angle_gamma   89.99837725
_symmetry_Int_Tables_number   1
_chemical_formula_structural   Fe45Co19
_chemical_formula_sum   'Fe90 Co38'
_cell_volume   1487.16765092
_cell_formula_units_Z   2
loop_
 _symmetry_equiv_pos_site_id
 _symmetry_equiv_pos_as_xyz
  1  'x, y, z'
loop_
 _atom_site_type_symbol
 _atom_site_label
 _atom_site_symmetry_multiplicity
 _atom_site_fract_x
 _atom_site_fract_y
 _atom_site_fract_z
 _atom_site_occupancy
  Fe  Fe0  1  0.25063743  0.24982037  -0.00050762  1
  Fe  Fe1  1  0.00109519  0.49910908  0.24722490  1
  Fe  Fe2  1  0.87628839  0.37856202  0.87783218  1
  Fe  Fe3  1  0.00117671  -0.00169291  0.74792499  1
  Fe  Fe4  1  0.00042536  -0.00051749  0.50039046  1
  Fe  Fe5  1  0.75136415  0.24777670  0.49808216  1
  Fe  Fe6  1  0.62544630  0.12185687  0.37788538  1
  Fe  Fe7  1  -0.00206379  0.25078088  0.00129372  1
  Fe  Fe8  1  0.12645337  0.62774852  0.12682083  1
  Fe  Fe9  1  0.00183942  0.00087594  0.00322314  1
  Fe  Fe10  1  0.49854605  0.74988611  0.50040574  1
  Fe  Fe11  1  0.24884340  0.25047815  0.25266011  1
  Fe  Fe12  1  0.37397556  0.37714060  0.37872017  1
  Fe  Fe13  1  0.62549756  0.12493532  0.87489529  1
  Fe  Fe14  1  0.62423674  0.87692024  0.87721576  1
  Fe  Fe15  1  0.87481837  0.87501140  0.37388846  1
  Fe  Fe16  1  0.25035260  0.74935543  -0.00248106  1
  Fe  Fe17  1  0.11916721  0.62291824  0.87079123  1
  Fe  Fe18  1  0.75303586  0.50048921  0.74965729  1
  Fe  Fe19  1  0.37400020  0.37565139  0.12455436  1
  Fe  Fe20  1  0.49975825  -0.00260240  0.74923258  1
  Fe  Fe21  1  0.62659330  0.87466754  0.62283347  1
  Fe  Fe22  1  0.37519204  0.12430122  0.87327147  1
  Fe  Fe23  1  0.37558622  0.87487637  0.12336729  1
  Fe  Fe24  1  0.75243496  0.24887648  0.75139445  1
  Fe  Fe25  1  0.75075597  0.25045249  0.25361612  1
  Fe  Fe26  1  0.24869873  0.00179867  0.50390695  1
  Fe  Fe27  1  0.37159381  0.87332529  0.37694354  1
  Fe  Fe28  1  0.50103622  0.49785197  0.25164220  1
  Fe  Fe29  1  0.25095490  0.25063768  0.74630183  1
  Fe  Fe30  1  0.00283395  -0.00077828  0.24790048  1
  Fe  Fe31  1  0.49920557  0.49887072  -0.00061485  1
  Fe  Fe32  1  0.62469971  0.62353442  0.37631675  1
  Fe  Fe33  1  0.24730268  0.00034073  0.74768188  1
  Fe  Fe34  1  0.62540732  0.62448800  0.87480441  1
  Fe  Fe35  1  0.62733168  0.62402288  0.62429751  1
  Fe  Fe36  1  -0.00001493  0.24809455  0.49724574  1
  Fe  Fe37  1  0.37626125  0.62574929  0.87151231  1
  Fe  Fe38  1  0.25065627  0.50184172  0.25123638  1
  Fe  Fe39  1  0.12573721  0.37327013  0.12491366  1
  Fe  Fe40  1  0.24888798  -0.00025066  0.00070152  1
  Fe  Fe41  1  0.87405301  0.37540049  0.62210948  1
  Fe  Fe42  1  0.12331262  0.37601173  0.87575832  1
  Fe  Fe43  1  0.87499179  0.87766643  0.87707349  1
  Fe  Fe44  1  0.24672685  -0.00190405  0.24712438  1
  Fe  Fe45  1  0.12311558  0.12639809  0.87357889  1
  Fe  Fe46  1  0.87549686  0.12695537  0.12724152  1
  Fe  Fe47  1  -0.00133854  0.74899711  -0.00100855  1
  Fe  Fe48  1  0.75432117  0.74680680  0.49739679  1
  Fe  Fe49  1  0.49899232  0.75151857  -0.00289475  1
  Fe  Fe50  1  0.75107778  0.75053928  0.75322000  1
  Fe  Fe51  1  0.62688618  0.37167823  0.12462521  1
  Fe  Fe52  1  0.87660011  0.87194345  0.62343083  1
  Fe  Fe53  1  -0.00183126  0.50773938  0.50162787  1
  Fe  Fe54  1  0.37467775  0.12435286  0.12597824  1
  Fe  Fe55  1  0.75118758  0.75067959  0.00088880  1
  Fe  Fe56  1  0.62738064  0.87581952  0.37701250  1
  Fe  Fe57  1  0.24949006  0.50135777  -0.00149515  1
  Fe  Fe58  1  0.00049917  0.75183717  0.25039121  1
  Fe  Fe59  1  0.50016556  0.25033099  0.25238249  1
  Fe  Fe60  1  0.49975433  0.24922788  -0.00018976  1
  Fe  Fe61  1  0.62403337  0.12276416  0.62301863  1
  Fe  Fe62  1  0.87612443  0.37744270  0.37468895  1
  Fe  Fe63  1  0.74869395  -0.00188570  0.24752107  1
  Fe  Fe64  1  0.24942764  0.50807953  0.49922149  1
  Fe  Fe65  1  0.12696966  0.87054519  0.37796270  1
  Fe  Fe66  1  0.37614749  0.62653775  0.62811955  1
  Fe  Fe67  1  0.12522686  0.37699832  0.37710038  1
  Fe  Fe68  1  0.75125616  0.50034955  0.00150257  1
  Fe  Fe69  1  0.12511842  0.87474299  0.87486388  1
  Fe  Fe70  1  0.62697982  0.37702225  0.62142226  1
  Fe  Fe71  1  0.49804387  0.25033548  0.50083041  1
  Fe  Fe72  1  0.50071356  0.75188327  0.25135679  1
  Fe  Fe73  1  0.74822508  0.49888828  0.25123909  1
  Fe  Fe74  1  0.49994777  0.49770283  0.74894557  1
  Fe  Fe75  1  0.37221704  0.87221245  0.62706509  1
  Fe  Fe76  1  0.49790591  0.25300929  0.74735009  1
  Fe  Fe77  1  0.12475111  0.12488766  0.37503035  1
  Fe  Fe78  1  0.87653532  0.12431363  0.62433807  1
  Fe  Fe79  1  0.50151435  -0.00078811  0.24961934  1
  Fe  Fe80  1  0.62553899  0.37490408  0.87529482  1
  Fe  Fe81  1  0.37586023  0.62575746  0.12690061  1
  Fe  Fe82  1  0.75105749  0.00002271  0.74806656  1
  Fe  Fe83  1  0.37412096  0.12280688  0.37660420  1
  Fe  Fe84  1  -0.00182717  0.25153760  0.74997574  1
  Fe  Fe85  1  0.62420330  0.62710490  0.12526559  1
  Fe  Fe86  1  0.24937514  0.49883465  0.75019440  1
  Fe  Fe87  1  0.74869102  0.00139359  0.00377917  1
  Fe  Fe88  1  0.87381353  0.62640566  0.12719645  1
  Fe  Fe89  1  0.12623062  0.37549732  0.62178843  1
  Co  Co90  1  0.49790115  -0.00362489  0.49993432  1
  Co  Co91  1  0.75260324  0.24929691  -0.00309165  1
  Co  Co92  1  0.50384849  0.75145692  0.75026072  1
  Co  Co93  1  0.37478317  0.37488751  0.87527356  1
  Co  Co94  1  0.75273150  -0.00022922  0.50113171  1
  Co  Co95  1  0.37428102  0.87600627  0.87297455  1
  Co  Co96  1  0.62601904  0.12842897  0.12606284  1
  Co  Co97  1  0.24701707  0.74998902  0.75217613  1
  Co  Co98  1  0.00064954  0.50052237  0.00518701  1
  Co  Co99  1  0.24982405  0.24651194  0.49962032  1
  Co  Co100  1  -0.00205702  0.75379081  0.75223481  1
  Co  Co101  1  0.87332214  0.37381833  0.12636998  1
  Co  Co102  1  0.12415767  0.62759101  0.37076455  1
  Co  Co103  1  0.37132301  0.37744164  0.62109196  1
  Co  Co104  1  0.00094516  0.25088515  0.25212761  1
  Co  Co105  1  0.37712409  0.62611903  0.37237715  1
  Co  Co106  1  0.87526064  0.62801986  0.62966428  1
  Co  Co107  1  0.12171968  0.12704644  0.62508450  1
  Co  Co108  1  0.62490806  0.37559189  0.37930741  1
  Co  Co109  1  0.50018455  0.00188004  0.00029946  1
  Co  Co110  1  0.37692636  0.12361499  0.62495229  1
  Co  Co111  1  0.25153648  0.75121532  0.24934306  1
  Co  Co112  1  0.12204387  0.62770437  0.63045321  1
  Co  Co113  1  0.62209122  0.87332652  0.12342692  1
  Co  Co114  1  0.87551690  0.62453789  0.36933377  1
  Co  Co115  1  0.87622795  0.87393042  0.12558537  1
  Co  Co116  1  0.87720965  0.62280426  0.87450315  1
  Co  Co117  1  0.87535141  0.12154363  0.37341847  1
  Co  Co118  1  0.74761563  0.75138066  0.25017578  1
  Co  Co119  1  0.75423239  0.50294101  0.49851862  1
  Co  Co120  1  0.12527509  0.87081315  0.12341473  1
  Co  Co121  1  0.12505505  0.12838467  0.12551098  1
  Co  Co122  1  -0.00127583  0.74558927  0.49820030  1
  Co  Co123  1  0.12507573  0.87031437  0.62216149  1
  Co  Co124  1  -0.00218448  0.49637569  0.74598216  1
  Co  Co125  1  0.24943029  0.74364515  0.50081341  1
  Co  Co126  1  0.49870809  0.50168165  0.50087697  1
  Co  Co127  1  0.87611333  0.12162908  0.87498083  1
