# generated using pymatgen
data_Fe45Co19
_symmetry_space_group_name_H-M   'P 1'
_cell_length_a   11.41421131
_cell_length_b   11.41465359
_cell_length_c   11.41497362
_cell_angle_alpha   89.99634784
_cell_angle_beta   90.00444178
_cell_angle_gamma   89.99445852
_symmetry_Int_Tables_number   1
_chemical_formula_structural   Fe45Co19
_chemical_formula_sum   'Fe90 Co38'
_cell_volume   1487.24854338
_cell_formula_units_Z   2
loop_
 _symmetry_equiv_pos_site_id
 _symmetry_equiv_pos_as_xyz
  1  'x, y, z'
loop_
 _atom_site_type_symbol
 _atom_site_label
 _atom_site_symmetry_multiplicity
 _atom_site_fract_x
 _atom_site_fract_y
 _atom_site_fract_z
 _atom_site_occupancy
  Fe  Fe0  1  0.87572836  0.87217248  0.12592029  1
  Fe  Fe1  1  0.62551124  0.37748934  0.87366948  1
  Fe  Fe2  1  0.12419433  0.62202428  0.12295087  1
  Fe  Fe3  1  0.12676453  0.12553684  0.12253064  1
  Fe  Fe4  1  0.62109301  0.37516342  0.12875122  1
  Fe  Fe5  1  0.62409310  0.12572160  0.62400305  1
  Fe  Fe6  1  0.75018673  0.25011787  0.25137198  1
  Fe  Fe7  1  0.37840162  0.87145588  0.87744764  1
  Fe  Fe8  1  0.49829172  0.00163409  0.24883345  1
  Fe  Fe9  1  0.00112126  0.50085239  0.75105914  1
  Fe  Fe10  1  0.87551224  0.37707336  0.62465361  1
  Fe  Fe11  1  0.12694208  0.12265421  0.37408139  1
  Fe  Fe12  1  0.75024440  0.25169171  0.74863577  1
  Fe  Fe13  1  0.74989247  0.00045448  0.75069163  1
  Fe  Fe14  1  0.50069075  0.50115041  0.74602869  1
  Fe  Fe15  1  0.75234347  -0.00200504  0.49969232  1
  Fe  Fe16  1  0.24596513  0.75124504  0.25094823  1
  Fe  Fe17  1  0.12493584  0.87532302  0.12430325  1
  Fe  Fe18  1  0.62433545  0.12730382  0.87764973  1
  Fe  Fe19  1  0.87615085  0.87315127  0.87180239  1
  Fe  Fe20  1  0.12651153  0.62194624  0.87837211  1
  Fe  Fe21  1  0.62401214  0.87419202  0.37599452  1
  Fe  Fe22  1  0.87377242  0.12717233  0.87642479  1
  Fe  Fe23  1  0.37675687  0.87346004  0.12430036  1
  Fe  Fe24  1  0.37577233  0.12777304  0.87909365  1
  Fe  Fe25  1  0.74898246  -0.00080801  -0.00000851  1
  Fe  Fe26  1  0.49872334  -0.00032016  0.75123384  1
  Fe  Fe27  1  0.49953904  0.25229607  0.49959442  1
  Fe  Fe28  1  0.62535741  0.12407547  0.37585709  1
  Fe  Fe29  1  0.24912280  0.74780002  0.75064397  1
  Fe  Fe30  1  0.75115942  0.74618902  0.74856495  1
  Fe  Fe31  1  0.74977260  0.49922635  0.49783243  1
  Fe  Fe32  1  0.62682616  0.62311088  0.62296348  1
  Fe  Fe33  1  0.62292156  0.87163137  0.87595978  1
  Fe  Fe34  1  0.62803114  0.62408270  0.12818617  1
  Fe  Fe35  1  0.49948329  0.25304505  0.75037279  1
  Fe  Fe36  1  0.24982046  0.25213817  0.75186653  1
  Fe  Fe37  1  0.62194041  0.87340837  0.12385818  1
  Fe  Fe38  1  0.12482966  0.62530768  0.62274223  1
  Fe  Fe39  1  0.12501913  0.37663668  0.62321264  1
  Fe  Fe40  1  0.00099527  0.25140236  -0.00101727  1
  Fe  Fe41  1  0.87446424  0.37543020  0.87465375  1
  Fe  Fe42  1  0.50029093  0.74654764  0.74824317  1
  Fe  Fe43  1  0.12854935  0.37875129  0.87959376  1
  Fe  Fe44  1  0.74981803  -0.00040002  0.24986506  1
  Fe  Fe45  1  0.87895569  0.87295504  0.37286871  1
  Fe  Fe46  1  0.37298492  0.37838499  0.62483786  1
  Fe  Fe47  1  0.37234768  0.62312292  0.37727668  1
  Fe  Fe48  1  0.37410557  0.12540381  0.62535825  1
  Fe  Fe49  1  0.75095761  0.49900510  0.00192869  1
  Fe  Fe50  1  0.00209121  -0.00262807  0.50323694  1
  Fe  Fe51  1  0.37290342  0.62605318  0.12709882  1
  Fe  Fe52  1  0.49767280  0.50058180  0.00215658  1
  Fe  Fe53  1  -0.00128659  -0.00039951  -0.00163417  1
  Fe  Fe54  1  0.87451815  0.62850704  0.37146176  1
  Fe  Fe55  1  0.87791414  0.37291128  0.37478464  1
  Fe  Fe56  1  0.00055793  0.00044172  0.24845208  1
  Fe  Fe57  1  0.50153442  0.74692011  0.25224993  1
  Fe  Fe58  1  0.25273534  -0.00063322  0.00048982  1
  Fe  Fe59  1  0.00108990  0.24897347  0.25017723  1
  Fe  Fe60  1  0.24797210  0.49749334  0.24943808  1
  Fe  Fe61  1  0.24990648  0.25119584  0.24622785  1
  Fe  Fe62  1  0.74929413  0.25136787  0.49818956  1
  Fe  Fe63  1  0.62154500  0.12793997  0.12303313  1
  Fe  Fe64  1  0.37279660  0.87609843  0.37382635  1
  Fe  Fe65  1  0.49957183  0.74682269  0.49944901  1
  Fe  Fe66  1  0.87371617  0.12633838  0.12399457  1
  Fe  Fe67  1  0.00221639  0.50167217  0.49612236  1
  Fe  Fe68  1  0.00038902  0.50129377  0.24995748  1
  Fe  Fe69  1  0.37524343  0.37807996  0.37435660  1
  Fe  Fe70  1  0.24539857  0.75252474  0.49910237  1
  Fe  Fe71  1  0.62115510  0.37848246  0.37337078  1
  Fe  Fe72  1  0.62528313  0.87517744  0.62495029  1
  Fe  Fe73  1  0.87383414  0.12532536  0.62433690  1
  Fe  Fe74  1  0.87722078  0.37455738  0.12527937  1
  Fe  Fe75  1  0.00221057  0.24780107  0.49999763  1
  Fe  Fe76  1  0.00157665  0.25074360  0.75051294  1
  Fe  Fe77  1  0.49733660  -0.00014251  0.50054752  1
  Fe  Fe78  1  0.74946139  0.74805535  0.00088010  1
  Fe  Fe79  1  -0.00073056  0.74794248  0.00040338  1
  Fe  Fe80  1  0.37274359  0.87375086  0.62560101  1
  Fe  Fe81  1  0.24956978  0.25173218  0.49906174  1
  Fe  Fe82  1  0.12285524  0.87574283  0.87119925  1
  Fe  Fe83  1  0.12873347  0.12154843  0.62821934  1
  Fe  Fe84  1  0.25000755  0.74922571  -0.00045306  1
  Fe  Fe85  1  0.37209455  0.12373543  0.37424692  1
  Fe  Fe86  1  0.75265435  0.75029248  0.50056887  1
  Fe  Fe87  1  0.87406805  0.62356267  0.87494345  1
  Fe  Fe88  1  0.12686802  0.12413746  0.87564264  1
  Fe  Fe89  1  0.37475760  0.62231119  0.87420411  1
  Co  Co90  1  0.37800935  0.12802041  0.12165642  1
  Co  Co91  1  -0.00246519  0.00349487  0.75014475  1
  Co  Co92  1  0.62420835  0.62367784  0.87518082  1
  Co  Co93  1  0.25155683  0.00010423  0.24598106  1
  Co  Co94  1  0.50025232  -0.00093481  -0.00050758  1
  Co  Co95  1  0.74737228  0.75283883  0.24960980  1
  Co  Co96  1  0.24944183  -0.00238707  0.50109677  1
  Co  Co97  1  0.25542304  0.49799732  0.00469475  1
  Co  Co98  1  0.87634656  0.87392892  0.62845662  1
  Co  Co99  1  0.62749987  0.62434707  0.37516293  1
  Co  Co100  1  -0.00397812  0.50118039  -0.00017836  1
  Co  Co101  1  0.37175481  0.62490071  0.62313547  1
  Co  Co102  1  0.87624842  0.12397266  0.37556670  1
  Co  Co103  1  0.49894682  0.25683470  -0.00312304  1
  Co  Co104  1  0.50001499  0.74376155  0.00227979  1
  Co  Co105  1  0.75235014  0.49692888  0.25088709  1
  Co  Co106  1  0.24673247  0.50195924  0.74727463  1
  Co  Co107  1  0.12567056  0.87574220  0.63126946  1
  Co  Co108  1  0.25130376  0.25416339  0.00188404  1
  Co  Co109  1  0.00152346  0.75106970  0.50111479  1
  Co  Co110  1  0.49911463  0.24761066  0.25402552  1
  Co  Co111  1  0.37922475  0.37332259  0.12925877  1
  Co  Co112  1  0.87380037  0.62659641  0.12779574  1
  Co  Co113  1  0.37256014  0.38013338  0.87167847  1
  Co  Co114  1  -0.00006710  0.74435761  0.74910328  1
  Co  Co115  1  0.12470698  0.37309131  0.37392143  1
  Co  Co116  1  0.49857110  0.50559713  0.25035584  1
  Co  Co117  1  0.50013992  0.50168964  0.50183853  1
  Co  Co118  1  0.12206109  0.37736219  0.12307315  1
  Co  Co119  1  0.62647579  0.37527691  0.62444312  1
  Co  Co120  1  0.00436090  0.74832924  0.24786903  1
  Co  Co121  1  0.12558778  0.62524548  0.37402408  1
  Co  Co122  1  0.12356248  0.87759882  0.37259646  1
  Co  Co123  1  0.74874113  0.25354800  0.00168211  1
  Co  Co124  1  0.75039636  0.50091823  0.74992010  1
  Co  Co125  1  0.87608899  0.62068510  0.62302060  1
  Co  Co126  1  0.25530127  -0.00073860  0.75354398  1
  Co  Co127  1  0.24745836  0.49906086  0.49887988  1
