# generated using pymatgen
data_Fe45Co19
_symmetry_space_group_name_H-M   'P 1'
_cell_length_a   11.41454165
_cell_length_b   11.41431219
_cell_length_c   11.41578566
_cell_angle_alpha   90.01111273
_cell_angle_beta   89.99137679
_cell_angle_gamma   90.00422422
_symmetry_Int_Tables_number   1
_chemical_formula_structural   Fe45Co19
_chemical_formula_sum   'Fe90 Co38'
_cell_volume   1487.35286874
_cell_formula_units_Z   2
loop_
 _symmetry_equiv_pos_site_id
 _symmetry_equiv_pos_as_xyz
  1  'x, y, z'
loop_
 _atom_site_type_symbol
 _atom_site_label
 _atom_site_symmetry_multiplicity
 _atom_site_fract_x
 _atom_site_fract_y
 _atom_site_fract_z
 _atom_site_occupancy
  Fe  Fe0  1  0.12670412  0.12651966  0.87530876  1
  Fe  Fe1  1  0.62622800  0.12632734  0.37485442  1
  Fe  Fe2  1  0.25088992  0.49876739  0.74784149  1
  Fe  Fe3  1  0.37456879  0.87250223  0.87407016  1
  Fe  Fe4  1  0.62421705  0.87614983  0.12611212  1
  Fe  Fe5  1  0.37542036  0.87589066  0.62514173  1
  Fe  Fe6  1  0.87112666  0.62422805  0.87431327  1
  Fe  Fe7  1  0.50145102  0.74790243  0.24950737  1
  Fe  Fe8  1  0.25206016  0.00066745  0.75079095  1
  Fe  Fe9  1  0.12541129  0.37494854  0.87206961  1
  Fe  Fe10  1  0.62360323  0.37799653  0.12425668  1
  Fe  Fe11  1  0.87411404  0.62357872  0.62336248  1
  Fe  Fe12  1  0.37897977  0.62120097  0.62656853  1
  Fe  Fe13  1  0.00034330  0.50191556  -0.00438536  1
  Fe  Fe14  1  -0.00010102  0.74729272  0.74923403  1
  Fe  Fe15  1  0.74994623  0.49620446  0.49983975  1
  Fe  Fe16  1  0.12433049  0.87073757  0.37624058  1
  Fe  Fe17  1  0.74855755  0.25190325  0.24764888  1
  Fe  Fe18  1  -0.00018286  0.25029149  -0.00058927  1
  Fe  Fe19  1  0.25003214  -0.00093769  0.24982967  1
  Fe  Fe20  1  0.87389871  0.12815503  0.37598314  1
  Fe  Fe21  1  0.12414132  0.87676236  0.62499009  1
  Fe  Fe22  1  0.75186317  0.24790782  0.74933648  1
  Fe  Fe23  1  0.87472291  0.37116813  0.37564955  1
  Fe  Fe24  1  0.74787286  -0.00033034  -0.00090651  1
  Fe  Fe25  1  0.62473116  0.12403814  0.62489465  1
  Fe  Fe26  1  0.75002077  0.74987335  0.24869183  1
  Fe  Fe27  1  0.49789979  0.74768288  -0.00118188  1
  Fe  Fe28  1  0.74912899  0.49946000  0.25024372  1
  Fe  Fe29  1  0.49976606  0.00026043  0.75173906  1
  Fe  Fe30  1  0.24771812  0.50288748  0.24998990  1
  Fe  Fe31  1  0.49891770  0.25078999  -0.00101135  1
  Fe  Fe32  1  0.62417661  0.62164637  0.12302567  1
  Fe  Fe33  1  0.87816606  0.62433411  0.12504670  1
  Fe  Fe34  1  0.62550542  0.12650324  0.87520512  1
  Fe  Fe35  1  0.12721247  0.12885171  0.37236903  1
  Fe  Fe36  1  0.87428319  0.87752510  0.62539766  1
  Fe  Fe37  1  -0.00130977  0.00299029  0.75238511  1
  Fe  Fe38  1  0.74614822  0.75047712  0.74940441  1
  Fe  Fe39  1  0.37510487  0.37516449  0.37478346  1
  Fe  Fe40  1  0.37418016  0.12496418  0.12728580  1
  Fe  Fe41  1  0.87400765  0.37475160  0.87377868  1
  Fe  Fe42  1  0.75012603  0.25208069  0.00191202  1
  Fe  Fe43  1  0.12275811  0.86953847  0.12235621  1
  Fe  Fe44  1  0.50433073  0.74711688  0.75037205  1
  Fe  Fe45  1  0.87597014  0.87370563  0.37569567  1
  Fe  Fe46  1  0.12379137  0.37597248  0.12522282  1
  Fe  Fe47  1  0.24826067  0.74559243  0.24730100  1
  Fe  Fe48  1  0.25159036  0.25161465  0.50378453  1
  Fe  Fe49  1  0.12523141  0.12678011  0.12656731  1
  Fe  Fe50  1  0.74838221  -0.00116418  0.25104923  1
  Fe  Fe51  1  0.49952225  0.00114665  0.00049647  1
  Fe  Fe52  1  0.62710257  0.62453981  0.37654394  1
  Fe  Fe53  1  0.49955573  0.24982701  0.49952978  1
  Fe  Fe54  1  0.87717476  0.62714601  0.37706712  1
  Fe  Fe55  1  0.50087512  0.74996730  0.50049654  1
  Fe  Fe56  1  0.25031774  0.74765426  0.50243056  1
  Fe  Fe57  1  0.00134710  0.00102838  0.49847768  1
  Fe  Fe58  1  0.49632626  0.25216930  0.75292177  1
  Fe  Fe59  1  0.74647377  0.49973192  0.74961940  1
  Fe  Fe60  1  0.49971989  0.50089163  -0.00659876  1
  Fe  Fe61  1  0.00020051  -0.00064886  0.24959772  1
  Fe  Fe62  1  0.25130222  0.00117154  0.49921162  1
  Fe  Fe63  1  0.12203913  0.61945938  0.62130245  1
  Fe  Fe64  1  0.24886960  0.74821523  0.74711921  1
  Fe  Fe65  1  0.25079909  -0.00152363  0.00034786  1
  Fe  Fe66  1  0.50127783  0.49931357  0.49804661  1
  Fe  Fe67  1  0.25322256  0.25142058  0.74751343  1
  Fe  Fe68  1  0.12500240  0.12626368  0.62648065  1
  Fe  Fe69  1  0.87976243  0.37412281  0.62584073  1
  Fe  Fe70  1  0.87749915  0.37670906  0.12569181  1
  Fe  Fe71  1  0.87322463  0.87619499  0.87416866  1
  Fe  Fe72  1  0.00000124  -0.00061987  -0.00022817  1
  Fe  Fe73  1  0.50005323  0.25064495  0.24911549  1
  Fe  Fe74  1  0.37607007  0.37925533  0.12466062  1
  Fe  Fe75  1  0.62599870  0.87754670  0.62412569  1
  Fe  Fe76  1  0.49886396  -0.00005788  0.49671563  1
  Fe  Fe77  1  0.87456633  0.12459760  0.12489765  1
  Fe  Fe78  1  0.75082296  0.75067504  0.00153820  1
  Fe  Fe79  1  0.24972902  0.50547755  0.00021071  1
  Fe  Fe80  1  0.37480223  0.62398819  0.37446262  1
  Fe  Fe81  1  0.25144652  0.25076758  0.00140420  1
  Fe  Fe82  1  0.87461715  0.12439514  0.62281605  1
  Fe  Fe83  1  0.74890997  0.75239294  0.50092541  1
  Fe  Fe84  1  0.12575412  0.37380319  0.37704628  1
  Fe  Fe85  1  0.62240796  0.37523498  0.62600907  1
  Fe  Fe86  1  0.37573910  0.87386534  0.12671903  1
  Fe  Fe87  1  0.12569201  0.87087685  0.87585584  1
  Fe  Fe88  1  0.37508261  0.87360878  0.37336273  1
  Fe  Fe89  1  0.00189312  0.50094058  0.25368528  1
  Co  Co90  1  0.50173957  0.49967001  0.25310050  1
  Co  Co91  1  0.37620653  0.12377779  0.62494298  1
  Co  Co92  1  0.12289705  0.62769633  0.37814684  1
  Co  Co93  1  0.25138442  0.49945820  0.49932149  1
  Co  Co94  1  0.25381748  0.74664385  0.00181697  1
  Co  Co95  1  0.37801852  0.62154245  0.12633349  1
  Co  Co96  1  0.74950225  -0.00048040  0.49863609  1
  Co  Co97  1  -0.00010625  0.25069067  0.24898566  1
  Co  Co98  1  -0.00101549  0.50224303  0.75255603  1
  Co  Co99  1  0.50359775  0.49986099  0.75497038  1
  Co  Co100  1  -0.00218113  0.49752230  0.49749297  1
  Co  Co101  1  -0.00013093  0.75097035  0.50468931  1
  Co  Co102  1  -0.00155387  0.24760667  0.75173908  1
  Co  Co103  1  0.25204247  0.25391392  0.24724631  1
  Co  Co104  1  0.75156088  0.49823139  0.00146450  1
  Co  Co105  1  0.37313335  0.12670195  0.37340536  1
  Co  Co106  1  0.62876518  0.37336100  0.87517368  1
  Co  Co107  1  0.00198156  0.24930801  0.50077323  1
  Co  Co108  1  0.62395564  0.87375513  0.37408912  1
  Co  Co109  1  0.62555053  0.37423441  0.37492680  1
  Co  Co110  1  0.37356056  0.12461648  0.87616078  1
  Co  Co111  1  0.37139110  0.37670635  0.87550812  1
  Co  Co112  1  0.12707990  0.62692925  0.87458073  1
  Co  Co113  1  0.37363958  0.62585964  0.87058412  1
  Co  Co114  1  0.87311608  0.12496516  0.87908126  1
  Co  Co115  1  0.12149209  0.37605960  0.62657698  1
  Co  Co116  1  0.50028208  0.00161192  0.25131523  1
  Co  Co117  1  -0.00430134  0.74895592  -0.00406352  1
  Co  Co118  1  0.74895453  0.25187130  0.50281325  1
  Co  Co119  1  0.74945458  0.00179659  0.75104801  1
  Co  Co120  1  0.37909213  0.37824507  0.62455616  1
  Co  Co121  1  0.62542729  0.12517836  0.12500814  1
  Co  Co122  1  0.11954848  0.62728526  0.12316095  1
  Co  Co123  1  -0.00106657  0.75103214  0.24978973  1
  Co  Co124  1  0.62863536  0.62462958  0.87807280  1
  Co  Co125  1  0.62440432  0.87504371  0.87632072  1
  Co  Co126  1  0.87450172  0.87665735  0.12478806  1
  Co  Co127  1  0.62525980  0.62246683  0.62188308  1
