# generated using pymatgen
data_Fe45Co19
_symmetry_space_group_name_H-M   'P 1'
_cell_length_a   11.41574546
_cell_length_b   11.41479151
_cell_length_c   11.41556347
_cell_angle_alpha   89.99754081
_cell_angle_beta   89.99962713
_cell_angle_gamma   89.99401123
_symmetry_Int_Tables_number   1
_chemical_formula_structural   Fe45Co19
_chemical_formula_sum   'Fe90 Co38'
_cell_volume   1487.54327996
_cell_formula_units_Z   2
loop_
 _symmetry_equiv_pos_site_id
 _symmetry_equiv_pos_as_xyz
  1  'x, y, z'
loop_
 _atom_site_type_symbol
 _atom_site_label
 _atom_site_symmetry_multiplicity
 _atom_site_fract_x
 _atom_site_fract_y
 _atom_site_fract_z
 _atom_site_occupancy
  Fe  Fe0  1  0.49928102  0.75148678  0.50300892  1
  Fe  Fe1  1  0.00252919  0.74923740  0.74596257  1
  Fe  Fe2  1  0.62757619  0.87325183  0.37872013  1
  Fe  Fe3  1  -0.00214932  0.50341457  -0.00420299  1
  Fe  Fe4  1  0.12394448  0.37554572  0.87362360  1
  Fe  Fe5  1  0.87713073  0.87177359  0.87372329  1
  Fe  Fe6  1  0.37465047  0.12451285  0.12596925  1
  Fe  Fe7  1  0.87518229  0.37876913  0.12483218  1
  Fe  Fe8  1  0.37329889  0.62601779  0.12568629  1
  Fe  Fe9  1  0.50273236  0.75070656  0.24812983  1
  Fe  Fe10  1  0.50003253  0.50038220  -0.00161141  1
  Fe  Fe11  1  0.24589380  0.25215913  0.24815674  1
  Fe  Fe12  1  0.62748514  0.87775246  0.12460927  1
  Fe  Fe13  1  0.50184013  0.49900981  0.25332699  1
  Fe  Fe14  1  0.87668272  0.86988846  0.37465032  1
  Fe  Fe15  1  0.37351678  0.37615650  0.62552732  1
  Fe  Fe16  1  0.62398005  0.62371958  0.62383704  1
  Fe  Fe17  1  0.87690615  0.87390439  0.12815641  1
  Fe  Fe18  1  -0.00077931  0.74697256  0.00234286  1
  Fe  Fe19  1  0.62688628  0.87764410  0.62227002  1
  Fe  Fe20  1  0.00069344  0.50032183  0.25304673  1
  Fe  Fe21  1  0.37402274  0.87339085  0.37706152  1
  Fe  Fe22  1  0.37438510  0.37231050  0.37432585  1
  Fe  Fe23  1  0.37535292  0.12687049  0.37489889  1
  Fe  Fe24  1  0.24726848  0.00052215  0.25343158  1
  Fe  Fe25  1  0.75283272  0.24596802  0.49968557  1
  Fe  Fe26  1  0.74960072  0.50137646  0.75304006  1
  Fe  Fe27  1  0.87694502  0.62280972  0.62636665  1
  Fe  Fe28  1  0.37412225  0.62551080  0.62376540  1
  Fe  Fe29  1  0.12250594  0.87435169  0.87581033  1
  Fe  Fe30  1  0.12356099  0.12249546  0.12453915  1
  Fe  Fe31  1  0.12169538  0.87351541  0.37803366  1
  Fe  Fe32  1  0.37625801  0.12695667  0.87497648  1
  Fe  Fe33  1  0.37546704  0.62765737  0.37466078  1
  Fe  Fe34  1  0.12065065  0.12291606  0.87038360  1
  Fe  Fe35  1  0.62762899  0.62247280  0.12595443  1
  Fe  Fe36  1  0.24808090  0.49759476  0.25287990  1
  Fe  Fe37  1  0.87682848  0.63192278  0.37374199  1
  Fe  Fe38  1  0.25025074  0.49946602  -0.00301724  1
  Fe  Fe39  1  0.87815246  0.12496797  0.87030943  1
  Fe  Fe40  1  0.00148802  0.25338095  0.24724746  1
  Fe  Fe41  1  0.24567187  0.25124000  0.50276683  1
  Fe  Fe42  1  0.37713007  0.86971338  0.87599173  1
  Fe  Fe43  1  0.75100333  -0.00081583  0.75189699  1
  Fe  Fe44  1  0.11952290  0.12884248  0.37673840  1
  Fe  Fe45  1  0.24936226  0.75074492  0.74725408  1
  Fe  Fe46  1  0.24815431  0.25083774  0.74849622  1
  Fe  Fe47  1  -0.00036670  0.24918262  0.00087015  1
  Fe  Fe48  1  0.00045435  0.25454037  0.74011243  1
  Fe  Fe49  1  0.62846803  0.37627365  0.12539948  1
  Fe  Fe50  1  0.62486256  0.37493469  0.87516441  1
  Fe  Fe51  1  0.62720839  0.12061089  0.62249813  1
  Fe  Fe52  1  0.12914602  0.88067028  0.62273942  1
  Fe  Fe53  1  0.37105640  0.12031973  0.62405228  1
  Fe  Fe54  1  0.50472010  0.24961793  0.24957108  1
  Fe  Fe55  1  0.37359668  0.37496260  0.12496423  1
  Fe  Fe56  1  0.50207683  0.00102323  0.25248604  1
  Fe  Fe57  1  0.12399358  0.87700413  0.12417966  1
  Fe  Fe58  1  0.37679731  0.63018340  0.87639396  1
  Fe  Fe59  1  0.75135742  0.24899025  0.00120654  1
  Fe  Fe60  1  0.75119085  0.00240979  0.25462669  1
  Fe  Fe61  1  0.75131982  0.74648741  0.00151639  1
  Fe  Fe62  1  0.75011774  0.50050626  0.25470767  1
  Fe  Fe63  1  0.75098329  0.50382245  0.49610445  1
  Fe  Fe64  1  0.87476903  0.37469869  0.87341989  1
  Fe  Fe65  1  0.50137058  0.25087298  0.00160254  1
  Fe  Fe66  1  0.74780458  0.74814050  0.74819522  1
  Fe  Fe67  1  0.74896382  0.25000405  0.74916030  1
  Fe  Fe68  1  0.75358166  0.00120102  -0.00187362  1
  Fe  Fe69  1  0.25150018  0.50021909  0.75276462  1
  Fe  Fe70  1  0.62764706  0.37657833  0.62212733  1
  Fe  Fe71  1  0.87568054  0.12336211  0.12812965  1
  Fe  Fe72  1  0.12568674  0.62273560  0.12440797  1
  Fe  Fe73  1  0.62389029  0.12423213  0.87542545  1
  Fe  Fe74  1  0.49749818  -0.00266221  0.74781724  1
  Fe  Fe75  1  0.12464569  0.61827894  0.62234720  1
  Fe  Fe76  1  0.62367792  0.87148324  0.87533120  1
  Fe  Fe77  1  0.24798383  0.25036252  -0.00049698  1
  Fe  Fe78  1  0.24936860  0.00008045  -0.00266549  1
  Fe  Fe79  1  0.87591952  0.36987535  0.37726200  1
  Fe  Fe80  1  0.87287568  0.87512218  0.62436770  1
  Fe  Fe81  1  0.37317920  0.87470446  0.12607280  1
  Fe  Fe82  1  -0.00402660  0.00304260  0.50164000  1
  Fe  Fe83  1  0.49983215  -0.00051664  0.00088494  1
  Fe  Fe84  1  0.24614416  0.75045674  0.25144895  1
  Fe  Fe85  1  0.49992551  0.50012054  0.75152526  1
  Fe  Fe86  1  0.50067829  0.24960456  0.50129877  1
  Fe  Fe87  1  0.12385356  0.62423314  0.37966958  1
  Fe  Fe88  1  0.49927194  0.49863736  0.49739695  1
  Fe  Fe89  1  0.50068344  0.24974227  0.74726382  1
  Co  Co90  1  0.24784216  0.75088119  0.00175102  1
  Co  Co91  1  0.37565258  0.37290998  0.87456436  1
  Co  Co92  1  -0.00512176  0.49799082  0.49745413  1
  Co  Co93  1  0.75112133  0.74776176  0.50287534  1
  Co  Co94  1  0.00060342  -0.00124141  0.25172643  1
  Co  Co95  1  0.87280604  0.12348024  0.62870538  1
  Co  Co96  1  0.24839772  0.74824791  0.50055857  1
  Co  Co97  1  0.50021356  0.75147497  0.74436851  1
  Co  Co98  1  0.12759963  0.11884835  0.62794531  1
  Co  Co99  1  0.75215630  0.50155804  -0.00350147  1
  Co  Co100  1  -0.00224672  -0.00367357  0.74696626  1
  Co  Co101  1  0.74939132  0.24925958  0.24850614  1
  Co  Co102  1  0.50284849  0.74923361  0.00563237  1
  Co  Co103  1  0.74759311  0.75021508  0.24862013  1
  Co  Co104  1  0.00056062  0.25030745  0.50933947  1
  Co  Co105  1  0.24896781  0.00221685  0.49322053  1
  Co  Co106  1  0.12331661  0.37892888  0.12218968  1
  Co  Co107  1  0.62340054  0.62904534  0.37621931  1
  Co  Co108  1  0.62705151  0.37270064  0.37759923  1
  Co  Co109  1  -0.00169265  0.49810263  0.75167488  1
  Co  Co110  1  0.25459915  0.49926921  0.49642133  1
  Co  Co111  1  0.12497650  0.62696299  0.87327452  1
  Co  Co112  1  0.00444487  0.74846113  0.24778286  1
  Co  Co113  1  0.00093486  0.75005371  0.50531179  1
  Co  Co114  1  0.88004433  0.12996113  0.37295593  1
  Co  Co115  1  0.12316655  0.37402050  0.37890703  1
  Co  Co116  1  0.75634033  0.00115539  0.49594696  1
  Co  Co117  1  0.12698818  0.38375671  0.62285952  1
  Co  Co118  1  0.62498909  0.12527982  0.37746392  1
  Co  Co119  1  0.87553398  0.62856009  0.87101959  1
  Co  Co120  1  0.37009458  0.87767093  0.62178467  1
  Co  Co121  1  0.62336560  0.62798883  0.87502605  1
  Co  Co122  1  0.25334823  -0.00227589  0.75643881  1
  Co  Co123  1  0.62655688  0.12315076  0.12478827  1
  Co  Co124  1  0.49812480  -0.00047369  0.49922147  1
  Co  Co125  1  -0.00242623  0.00021818  -0.00027506  1
  Co  Co126  1  0.86920450  0.37895870  0.62370983  1
  Co  Co127  1  0.87460765  0.62323663  0.12882554  1
