# generated using pymatgen
data_Fe45Co19
_symmetry_space_group_name_H-M   'P 1'
_cell_length_a   11.41294959
_cell_length_b   11.41237982
_cell_length_c   11.41417996
_cell_angle_alpha   90.00713251
_cell_angle_beta   89.99444738
_cell_angle_gamma   89.99506161
_symmetry_Int_Tables_number   1
_chemical_formula_structural   Fe45Co19
_chemical_formula_sum   'Fe90 Co38'
_cell_volume   1486.68453901
_cell_formula_units_Z   2
loop_
 _symmetry_equiv_pos_site_id
 _symmetry_equiv_pos_as_xyz
  1  'x, y, z'
loop_
 _atom_site_type_symbol
 _atom_site_label
 _atom_site_symmetry_multiplicity
 _atom_site_fract_x
 _atom_site_fract_y
 _atom_site_fract_z
 _atom_site_occupancy
  Fe  Fe0  1  0.49947763  0.50110777  -0.00280315  1
  Fe  Fe1  1  0.50074519  -0.00115422  -0.00038972  1
  Fe  Fe2  1  0.75217599  0.74615578  0.50065573  1
  Fe  Fe3  1  0.62360185  0.62246818  0.62305606  1
  Fe  Fe4  1  0.37498459  0.12479820  0.12491034  1
  Fe  Fe5  1  0.12637576  0.12522706  0.37388045  1
  Fe  Fe6  1  0.00113143  0.50423855  -0.00241974  1
  Fe  Fe7  1  0.25670014  0.49823288  0.50167227  1
  Fe  Fe8  1  0.87800372  0.62944586  0.87373425  1
  Fe  Fe9  1  0.37177839  0.62278529  0.36951813  1
  Fe  Fe10  1  0.37493115  0.37939073  0.12745193  1
  Fe  Fe11  1  -0.00033864  -0.00035866  0.00105959  1
  Fe  Fe12  1  0.87414643  0.12299581  0.87196766  1
  Fe  Fe13  1  0.87555855  0.37795552  0.62497154  1
  Fe  Fe14  1  0.87385215  0.37913280  0.12527649  1
  Fe  Fe15  1  0.24713952  0.25264809  0.74858156  1
  Fe  Fe16  1  0.62176218  0.87102096  0.37837470  1
  Fe  Fe17  1  0.24840184  0.25262308  0.24951205  1
  Fe  Fe18  1  0.87656235  0.87271681  0.12574555  1
  Fe  Fe19  1  0.74932863  0.50347319  0.25330191  1
  Fe  Fe20  1  0.00411033  0.74609926  0.25101681  1
  Fe  Fe21  1  0.50243619  0.25065736  0.25034826  1
  Fe  Fe22  1  -0.00008081  0.24872273  0.50086815  1
  Fe  Fe23  1  0.24967971  -0.00113200  0.25012257  1
  Fe  Fe24  1  0.12798680  0.62451491  0.62427140  1
  Fe  Fe25  1  0.00111059  0.25200022  0.74790003  1
  Fe  Fe26  1  0.62578645  0.12621557  0.12505204  1
  Fe  Fe27  1  0.75113394  -0.00162608  -0.00076805  1
  Fe  Fe28  1  0.74772364  -0.00190513  0.25263100  1
  Fe  Fe29  1  0.74686743  -0.00138934  0.49914824  1
  Fe  Fe30  1  -0.00189286  -0.00530018  0.74818908  1
  Fe  Fe31  1  0.62510120  0.12594910  0.87653837  1
  Fe  Fe32  1  0.24786199  0.49686173  0.75119290  1
  Fe  Fe33  1  0.37528473  0.12616979  0.37527036  1
  Fe  Fe34  1  0.12515420  0.87527113  0.12683699  1
  Fe  Fe35  1  0.00076987  0.00154601  0.25152070  1
  Fe  Fe36  1  0.62679614  0.62642454  0.87495915  1
  Fe  Fe37  1  -0.00206325  0.50249154  0.49972670  1
  Fe  Fe38  1  0.24928053  -0.00210200  0.49947579  1
  Fe  Fe39  1  0.37227524  0.62563411  0.87428182  1
  Fe  Fe40  1  0.37466617  0.12364009  0.62594115  1
  Fe  Fe41  1  0.87173568  0.12667257  0.37459613  1
  Fe  Fe42  1  0.12461470  0.37588061  0.12162103  1
  Fe  Fe43  1  0.75400198  0.75278235  0.74568764  1
  Fe  Fe44  1  0.37458378  0.87505211  0.62571666  1
  Fe  Fe45  1  0.74863786  0.25319794  0.50032821  1
  Fe  Fe46  1  0.00318995  0.50112779  0.75114203  1
  Fe  Fe47  1  0.75161900  0.25135585  -0.00081229  1
  Fe  Fe48  1  0.12561695  0.12205000  0.62629510  1
  Fe  Fe49  1  0.74967058  0.74804151  0.25169779  1
  Fe  Fe50  1  0.37617071  0.37412913  0.87287531  1
  Fe  Fe51  1  0.37383647  0.87325588  0.37378062  1
  Fe  Fe52  1  0.24877875  -0.00035524  -0.00159313  1
  Fe  Fe53  1  0.74942066  0.49992176  0.75162175  1
  Fe  Fe54  1  0.00162977  0.74907042  0.50331536  1
  Fe  Fe55  1  0.37555269  0.12548283  0.87438311  1
  Fe  Fe56  1  0.37632282  0.87328551  0.12480475  1
  Fe  Fe57  1  -0.00128057  0.24863046  0.00100226  1
  Fe  Fe58  1  0.25090093  0.74901782  0.00230368  1
  Fe  Fe59  1  0.37585637  0.87388492  0.87523374  1
  Fe  Fe60  1  0.12154366  0.87067186  0.87420103  1
  Fe  Fe61  1  0.62341478  0.87267947  0.12440142  1
  Fe  Fe62  1  0.62106554  0.38118493  0.62433969  1
  Fe  Fe63  1  0.87819416  0.87336775  0.37699396  1
  Fe  Fe64  1  0.87629337  0.37576023  0.87495959  1
  Fe  Fe65  1  0.49871548  0.74638306  0.24863457  1
  Fe  Fe66  1  0.49444676  0.74534593  0.50124905  1
  Fe  Fe67  1  0.75287673  0.74937250  0.00176291  1
  Fe  Fe68  1  0.87334068  0.12194212  0.62439428  1
  Fe  Fe69  1  0.12936040  0.62309763  0.12387524  1
  Fe  Fe70  1  0.49783321  0.25224320  0.49899494  1
  Fe  Fe71  1  0.50184900  -0.00200361  0.74895069  1
  Fe  Fe72  1  0.62232760  0.37959334  0.37722635  1
  Fe  Fe73  1  0.00300879  0.50225564  0.25228856  1
  Fe  Fe74  1  0.87488179  0.37612398  0.37459515  1
  Fe  Fe75  1  0.25160657  0.25278813  0.50260627  1
  Fe  Fe76  1  0.62347852  0.12281410  0.62237558  1
  Fe  Fe77  1  0.62451232  0.62481437  0.12334641  1
  Fe  Fe78  1  0.00042996  0.25081285  0.24970612  1
  Fe  Fe79  1  0.12421306  0.12519405  0.87427857  1
  Fe  Fe80  1  0.87253906  0.12552987  0.12805212  1
  Fe  Fe81  1  0.25049247  0.25061398  0.00000776  1
  Fe  Fe82  1  0.24858872  0.75231098  0.74791677  1
  Fe  Fe83  1  0.50027204  0.74912225  0.74965591  1
  Fe  Fe84  1  0.74819837  0.25150459  0.74883675  1
  Fe  Fe85  1  0.62702809  0.87327096  0.87451396  1
  Fe  Fe86  1  0.50122792  0.00034410  0.25252372  1
  Fe  Fe87  1  0.50237018  0.25081071  0.75017883  1
  Fe  Fe88  1  0.62696625  0.37735207  0.12173122  1
  Fe  Fe89  1  0.12621871  0.37668829  0.37875582  1
  Co  Co90  1  0.49770656  -0.00178359  0.49942477  1
  Co  Co91  1  0.12709133  0.87565243  0.62320638  1
  Co  Co92  1  0.12357883  0.37295004  0.87755664  1
  Co  Co93  1  0.12605184  0.12525962  0.12482423  1
  Co  Co94  1  0.50093815  0.50256834  0.75404575  1
  Co  Co95  1  0.75178595  0.50296468  -0.00306018  1
  Co  Co96  1  0.37907648  0.37524396  0.62972836  1
  Co  Co97  1  0.74801981  -0.00207491  0.74913640  1
  Co  Co98  1  0.24889889  0.74897519  0.24875440  1
  Co  Co99  1  0.87414556  0.87852622  0.62002261  1
  Co  Co100  1  0.49910197  0.74811169  -0.00133279  1
  Co  Co101  1  0.62466922  0.12540537  0.37669252  1
  Co  Co102  1  0.37514837  0.37545465  0.37111495  1
  Co  Co103  1  0.12356470  0.37789801  0.62171036  1
  Co  Co104  1  0.00161199  0.74732911  0.00401380  1
  Co  Co105  1  0.24592359  0.49952306  0.25034424  1
  Co  Co106  1  -0.00160475  0.75141333  0.74280532  1
  Co  Co107  1  0.49251171  0.50289729  0.49937843  1
  Co  Co108  1  0.12876199  0.62368241  0.38035623  1
  Co  Co109  1  0.37427664  0.62239482  0.12523892  1
  Co  Co110  1  0.25261094  0.74998446  0.50013304  1
  Co  Co111  1  0.25017099  -0.00230422  0.75233630  1
  Co  Co112  1  0.12444077  0.87354446  0.37497458  1
  Co  Co113  1  0.74746437  0.25358904  0.25111533  1
  Co  Co114  1  0.75174621  0.50112739  0.49812537  1
  Co  Co115  1  0.25053950  0.49945403  -0.00321286  1
  Co  Co116  1  0.37312157  0.62385914  0.63061932  1
  Co  Co117  1  0.62499907  0.37408736  0.87648040  1
  Co  Co118  1  0.87487348  0.62117551  0.62583900  1
  Co  Co119  1  0.87646652  0.87153139  0.87705389  1
  Co  Co120  1  0.50313066  0.50202021  0.24932754  1
  Co  Co121  1  0.49821523  0.25246776  0.00191497  1
  Co  Co122  1  0.87671658  0.62654486  0.37440794  1
  Co  Co123  1  0.12602855  0.62966312  0.87286112  1
  Co  Co124  1  0.62325640  0.62527222  0.37888937  1
  Co  Co125  1  0.62322944  0.87133338  0.62173935  1
  Co  Co126  1  0.87480388  0.62391785  0.12719228  1
  Co  Co127  1  0.00246671  0.00221968  0.49830766  1
