# generated using pymatgen
data_Fe45Co19
_symmetry_space_group_name_H-M   'P 1'
_cell_length_a   11.41487240
_cell_length_b   11.41390312
_cell_length_c   11.41494465
_cell_angle_alpha   89.99578885
_cell_angle_beta   90.00110518
_cell_angle_gamma   89.99887938
_symmetry_Int_Tables_number   1
_chemical_formula_structural   Fe45Co19
_chemical_formula_sum   'Fe90 Co38'
_cell_volume   1487.23313065
_cell_formula_units_Z   2
loop_
 _symmetry_equiv_pos_site_id
 _symmetry_equiv_pos_as_xyz
  1  'x, y, z'
loop_
 _atom_site_type_symbol
 _atom_site_label
 _atom_site_symmetry_multiplicity
 _atom_site_fract_x
 _atom_site_fract_y
 _atom_site_fract_z
 _atom_site_occupancy
  Fe  Fe0  1  0.62329528  0.12618872  0.37456270  1
  Fe  Fe1  1  0.75016341  0.49658833  0.49723327  1
  Fe  Fe2  1  0.87473819  0.37503453  0.87582906  1
  Fe  Fe3  1  0.49735019  0.74645275  0.74597637  1
  Fe  Fe4  1  0.87731624  0.37304130  0.61958610  1
  Fe  Fe5  1  0.62709925  0.12225328  0.12630724  1
  Fe  Fe6  1  0.74896300  0.74921076  -0.00012789  1
  Fe  Fe7  1  0.12831270  0.12565536  0.12287630  1
  Fe  Fe8  1  0.12290491  0.37361635  0.37651334  1
  Fe  Fe9  1  0.12337374  0.37433134  0.62346318  1
  Fe  Fe10  1  0.62641897  0.87588270  0.12496243  1
  Fe  Fe11  1  0.37519573  0.87107240  0.37785356  1
  Fe  Fe12  1  0.49931700  -0.00180269  0.25067400  1
  Fe  Fe13  1  0.12643855  0.87474866  0.37664588  1
  Fe  Fe14  1  0.49961758  0.50173463  0.50077146  1
  Fe  Fe15  1  0.00112053  0.50135061  -0.00007484  1
  Fe  Fe16  1  0.49944863  -0.00193968  0.50048685  1
  Fe  Fe17  1  0.00032790  0.00038919  0.25158502  1
  Fe  Fe18  1  0.87422629  0.62366514  0.62274632  1
  Fe  Fe19  1  0.74805904  0.25503478  0.74823302  1
  Fe  Fe20  1  0.87509227  0.87367108  0.37761612  1
  Fe  Fe21  1  0.62732228  0.62184408  0.62566265  1
  Fe  Fe22  1  0.00211458  0.00181122  0.50122282  1
  Fe  Fe23  1  0.74845910  0.25282694  0.25345213  1
  Fe  Fe24  1  0.12378984  0.62530646  0.87316853  1
  Fe  Fe25  1  0.62342757  0.87168586  0.37734021  1
  Fe  Fe26  1  0.00123338  0.24920548  0.24957835  1
  Fe  Fe27  1  0.74553842  0.50147921  -0.00252323  1
  Fe  Fe28  1  0.62534433  0.62657687  0.37460058  1
  Fe  Fe29  1  -0.00042973  0.00138554  -0.00163525  1
  Fe  Fe30  1  0.87283204  0.12749110  0.37662722  1
  Fe  Fe31  1  0.25205871  -0.00028519  0.25113614  1
  Fe  Fe32  1  0.24988890  0.74565857  0.00061585  1
  Fe  Fe33  1  0.25229570  0.25198678  0.75184630  1
  Fe  Fe34  1  0.24982191  0.74733006  0.24913784  1
  Fe  Fe35  1  -0.00006723  0.74841705  0.00159729  1
  Fe  Fe36  1  0.37848675  0.37738802  0.62700326  1
  Fe  Fe37  1  0.37234213  0.38027034  0.12459325  1
  Fe  Fe38  1  0.50085632  0.74215192  0.00303589  1
  Fe  Fe39  1  -0.00141558  0.50008231  0.25141865  1
  Fe  Fe40  1  0.50168815  0.25241913  0.50096181  1
  Fe  Fe41  1  0.87185190  0.12261140  0.12600769  1
  Fe  Fe42  1  0.25100804  -0.00320013  0.74958970  1
  Fe  Fe43  1  0.38018365  0.38011507  0.87677295  1
  Fe  Fe44  1  0.50105276  -0.00093990  -0.00055036  1
  Fe  Fe45  1  0.74784527  -0.00140523  0.50116885  1
  Fe  Fe46  1  0.12451882  0.87420513  0.12586084  1
  Fe  Fe47  1  0.62452225  0.12596217  0.62539193  1
  Fe  Fe48  1  0.62482460  0.37721751  0.12616217  1
  Fe  Fe49  1  0.00123312  0.74844897  0.50134327  1
  Fe  Fe50  1  0.87632002  0.87431507  0.87419817  1
  Fe  Fe51  1  -0.00270933  0.49941887  0.74864319  1
  Fe  Fe52  1  0.75166861  0.75048986  0.74752118  1
  Fe  Fe53  1  0.12850936  0.37767885  0.12484573  1
  Fe  Fe54  1  0.87466264  0.37540126  0.12489850  1
  Fe  Fe55  1  0.74883267  -0.00154835  0.75123508  1
  Fe  Fe56  1  0.12838028  0.12727334  0.62571519  1
  Fe  Fe57  1  0.87357862  0.62397675  0.87382242  1
  Fe  Fe58  1  0.25201887  0.74950233  0.74939924  1
  Fe  Fe59  1  0.37293110  0.12574280  0.12459352  1
  Fe  Fe60  1  0.25000934  0.50028258  0.49791210  1
  Fe  Fe61  1  0.37559836  0.87253996  0.12394910  1
  Fe  Fe62  1  0.25146488  0.50040192  0.75098312  1
  Fe  Fe63  1  0.12365799  0.37444061  0.87464618  1
  Fe  Fe64  1  0.12982335  0.12661101  0.37723795  1
  Fe  Fe65  1  0.75272953  0.49834072  0.25411412  1
  Fe  Fe66  1  0.37479076  0.12795755  0.37528189  1
  Fe  Fe67  1  0.37673091  0.62832833  0.37572105  1
  Fe  Fe68  1  0.62377708  0.12681111  0.87396110  1
  Fe  Fe69  1  0.12530576  0.62475676  0.62586073  1
  Fe  Fe70  1  0.87668295  0.87510692  0.62416791  1
  Fe  Fe71  1  0.49962142  0.50351923  0.24782854  1
  Fe  Fe72  1  0.87279593  0.12820281  0.62381223  1
  Fe  Fe73  1  0.37699314  0.37368610  0.37194786  1
  Fe  Fe74  1  0.75139407  0.75103141  0.25139332  1
  Fe  Fe75  1  0.37473202  0.12621528  0.62362377  1
  Fe  Fe76  1  0.12149443  0.62563702  0.37309982  1
  Fe  Fe77  1  0.87314641  0.87830393  0.12520486  1
  Fe  Fe78  1  0.49754695  -0.00130407  0.74966130  1
  Fe  Fe79  1  0.49970502  0.25174998  0.00207084  1
  Fe  Fe80  1  0.87509670  0.12653058  0.87349203  1
  Fe  Fe81  1  0.87495054  0.62445366  0.12693847  1
  Fe  Fe82  1  0.37401446  0.12467553  0.87615600  1
  Fe  Fe83  1  0.25008015  -0.00219528  -0.00208364  1
  Fe  Fe84  1  0.37307330  0.87236241  0.62075234  1
  Fe  Fe85  1  0.00123051  0.24898089  -0.00056794  1
  Fe  Fe86  1  0.62181812  0.87162053  0.87330499  1
  Fe  Fe87  1  0.12420081  0.87345874  0.87312691  1
  Fe  Fe88  1  0.00220037  0.00095475  0.74914228  1
  Fe  Fe89  1  0.74844037  0.25044098  -0.00045496  1
  Co  Co90  1  0.12414125  0.62249071  0.12698321  1
  Co  Co91  1  0.50483979  0.50521987  0.00166752  1
  Co  Co92  1  0.75277700  0.49595799  0.74901665  1
  Co  Co93  1  0.24940867  0.50174112  0.25560251  1
  Co  Co94  1  -0.00185839  0.74792576  0.74858663  1
  Co  Co95  1  0.62122405  0.37772778  0.62661558  1
  Co  Co96  1  -0.00146991  0.75180954  0.24917856  1
  Co  Co97  1  0.87962592  0.37258657  0.37793942  1
  Co  Co98  1  0.00109025  0.50309661  0.50008865  1
  Co  Co99  1  0.25010939  0.25145544  0.24963530  1
  Co  Co100  1  0.37233638  0.62312139  0.62380402  1
  Co  Co101  1  0.74858430  -0.00201522  0.25432196  1
  Co  Co102  1  0.62954500  0.62420203  0.12998006  1
  Co  Co103  1  0.00220744  0.24598748  0.50031333  1
  Co  Co104  1  0.74890018  0.75017660  0.50236031  1
  Co  Co105  1  0.37549284  0.62304185  0.87542125  1
  Co  Co106  1  0.12748398  0.12503467  0.87376694  1
  Co  Co107  1  0.62669318  0.62654010  0.86950534  1
  Co  Co108  1  0.24736455  0.74615087  0.49940752  1
  Co  Co109  1  0.25280131  0.25446282  0.50097292  1
  Co  Co110  1  0.37700010  0.87149256  0.87715204  1
  Co  Co111  1  -0.00016069  0.25096897  0.74980012  1
  Co  Co112  1  0.25103470  -0.00012992  0.50094364  1
  Co  Co113  1  0.49988945  0.24990599  0.24594545  1
  Co  Co114  1  0.49910119  0.24898581  0.75025641  1
  Co  Co115  1  0.24814154  0.50243720  -0.00327010  1
  Co  Co116  1  0.12528065  0.87297416  0.62458057  1
  Co  Co117  1  0.87505417  0.62668297  0.37573798  1
  Co  Co118  1  0.62168840  0.37581707  0.87362780  1
  Co  Co119  1  0.62002909  0.37733181  0.37292102  1
  Co  Co120  1  0.74445346  0.25419282  0.49823279  1
  Co  Co121  1  0.50235706  0.74815955  0.50442341  1
  Co  Co122  1  0.25156345  0.25344250  -0.00192995  1
  Co  Co123  1  0.74899724  -0.00068548  -0.00522344  1
  Co  Co124  1  0.50017496  0.74955010  0.24701131  1
  Co  Co125  1  0.37108957  0.62120326  0.12508954  1
  Co  Co126  1  0.62365286  0.87586780  0.62716873  1
  Co  Co127  1  0.50064977  0.50470990  0.75090169  1
