# generated using pymatgen
data_Fe45Co19
_symmetry_space_group_name_H-M   'P 1'
_cell_length_a   11.41520137
_cell_length_b   11.41473218
_cell_length_c   11.41377845
_cell_angle_alpha   90.00188185
_cell_angle_beta   89.99744256
_cell_angle_gamma   90.00974349
_symmetry_Int_Tables_number   1
_chemical_formula_structural   Fe45Co19
_chemical_formula_sum   'Fe90 Co38'
_cell_volume   1487.23204477
_cell_formula_units_Z   2
loop_
 _symmetry_equiv_pos_site_id
 _symmetry_equiv_pos_as_xyz
  1  'x, y, z'
loop_
 _atom_site_type_symbol
 _atom_site_label
 _atom_site_symmetry_multiplicity
 _atom_site_fract_x
 _atom_site_fract_y
 _atom_site_fract_z
 _atom_site_occupancy
  Fe  Fe0  1  0.24840722  0.25273675  0.75101777  1
  Fe  Fe1  1  0.24950113  0.75560835  -0.00476115  1
  Fe  Fe2  1  0.74936228  0.49478717  0.00068854  1
  Fe  Fe3  1  0.87437554  0.87362991  0.62490039  1
  Fe  Fe4  1  0.87862314  0.37444969  0.62721393  1
  Fe  Fe5  1  0.74928402  0.25129182  0.24290443  1
  Fe  Fe6  1  0.87583731  0.87394009  0.37252970  1
  Fe  Fe7  1  0.62295052  0.37731226  0.62593115  1
  Fe  Fe8  1  0.50150749  0.74758671  -0.00117204  1
  Fe  Fe9  1  0.62420348  0.87500122  0.87514229  1
  Fe  Fe10  1  0.37444471  0.37321797  0.37424978  1
  Fe  Fe11  1  0.87275819  0.62662286  0.62354807  1
  Fe  Fe12  1  0.00009251  0.00191596  0.00205310  1
  Fe  Fe13  1  0.25123425  -0.00075829  0.24974997  1
  Fe  Fe14  1  0.12720493  0.62724067  0.62513926  1
  Fe  Fe15  1  0.37721549  0.87574435  0.12393325  1
  Fe  Fe16  1  0.12112070  0.37639488  0.62699007  1
  Fe  Fe17  1  0.37737051  0.37465082  0.12622677  1
  Fe  Fe18  1  0.75214971  0.24975237  0.74960204  1
  Fe  Fe19  1  0.87159863  0.62755724  0.88002036  1
  Fe  Fe20  1  0.24682458  0.25167529  -0.00015749  1
  Fe  Fe21  1  0.37199654  0.62542591  0.12380153  1
  Fe  Fe22  1  0.37764840  0.37675106  0.62447270  1
  Fe  Fe23  1  0.50229928  0.25004463  0.00003367  1
  Fe  Fe24  1  -0.00184931  0.24970171  0.49957436  1
  Fe  Fe25  1  0.37403723  0.12525433  0.12448145  1
  Fe  Fe26  1  0.62799605  0.12510468  0.87766195  1
  Fe  Fe27  1  0.62710282  0.37326993  0.37467920  1
  Fe  Fe28  1  0.75241423  0.49624264  0.24642099  1
  Fe  Fe29  1  0.12454108  0.12355738  0.62573946  1
  Fe  Fe30  1  0.75238020  0.49999439  0.75108542  1
  Fe  Fe31  1  0.49940197  0.50495067  0.75039492  1
  Fe  Fe32  1  0.37704536  0.87477062  0.37631781  1
  Fe  Fe33  1  0.74930251  0.75409754  0.24587170  1
  Fe  Fe34  1  -0.00341699  0.00217323  0.74966863  1
  Fe  Fe35  1  0.24957048  0.25113820  0.50060857  1
  Fe  Fe36  1  0.74755378  0.74933653  0.75015208  1
  Fe  Fe37  1  0.24937412  0.49655863  -0.00076201  1
  Fe  Fe38  1  0.50162140  0.24645110  0.25131364  1
  Fe  Fe39  1  0.62661039  0.12437270  0.62275785  1
  Fe  Fe40  1  0.12749282  0.12679177  0.37426079  1
  Fe  Fe41  1  0.25098993  -0.00421995  0.75278227  1
  Fe  Fe42  1  0.12307235  0.87490992  0.12448482  1
  Fe  Fe43  1  0.50118651  0.24777470  0.49774596  1
  Fe  Fe44  1  -0.00025407  0.74957751  0.49919558  1
  Fe  Fe45  1  0.12561788  0.62419817  0.37382325  1
  Fe  Fe46  1  0.88108395  0.37230730  0.87697329  1
  Fe  Fe47  1  0.86882942  0.12686468  0.37440339  1
  Fe  Fe48  1  0.50135062  0.00441831  0.25379996  1
  Fe  Fe49  1  0.12235948  0.87462627  0.37314928  1
  Fe  Fe50  1  0.75043325  0.49821839  0.50028643  1
  Fe  Fe51  1  0.25094691  0.50015212  0.75001905  1
  Fe  Fe52  1  -0.00031484  0.74827371  0.75149636  1
  Fe  Fe53  1  0.50020568  0.74719551  0.24930579  1
  Fe  Fe54  1  0.37489834  0.87121023  0.62579883  1
  Fe  Fe55  1  0.49962866  0.00116665  -0.00053229  1
  Fe  Fe56  1  0.62783055  0.62460532  0.37558614  1
  Fe  Fe57  1  0.74956691  -0.00334157  0.49998191  1
  Fe  Fe58  1  -0.00175650  0.50008716  0.49684500  1
  Fe  Fe59  1  0.50106179  0.00067090  0.74856586  1
  Fe  Fe60  1  0.62395889  0.37521597  0.87296705  1
  Fe  Fe61  1  -0.00372284  0.00260590  0.24943930  1
  Fe  Fe62  1  0.12495442  0.87317700  0.62640847  1
  Fe  Fe63  1  -0.00111432  0.00083538  0.49872915  1
  Fe  Fe64  1  0.49947962  0.50173384  0.25181198  1
  Fe  Fe65  1  -0.00157866  0.25275502  0.25164389  1
  Fe  Fe66  1  0.75082229  -0.00047787  0.74973434  1
  Fe  Fe67  1  0.00085581  0.50470842  0.00374379  1
  Fe  Fe68  1  0.87328940  0.62478714  0.37246349  1
  Fe  Fe69  1  0.12597700  0.12334800  0.87387735  1
  Fe  Fe70  1  0.25007682  0.49921927  0.25157951  1
  Fe  Fe71  1  0.49998885  0.24748105  0.75071611  1
  Fe  Fe72  1  0.37619997  0.37518627  0.87473154  1
  Fe  Fe73  1  0.50114149  0.74612572  0.50118427  1
  Fe  Fe74  1  0.25010716  -0.00237649  0.49865645  1
  Fe  Fe75  1  0.25086988  0.75147616  0.25156736  1
  Fe  Fe76  1  0.75053649  -0.00376123  0.00648494  1
  Fe  Fe77  1  0.12234124  0.37623810  0.12772585  1
  Fe  Fe78  1  0.12570973  0.12530671  0.12724444  1
  Fe  Fe79  1  0.87341260  0.12833369  0.88046089  1
  Fe  Fe80  1  0.62778426  0.62370319  0.12342565  1
  Fe  Fe81  1  0.12671666  0.62461107  0.87482449  1
  Fe  Fe82  1  0.50042147  0.50108956  -0.00065290  1
  Fe  Fe83  1  0.87719940  0.87209665  0.87939636  1
  Fe  Fe84  1  0.37388317  0.12416024  0.62439773  1
  Fe  Fe85  1  0.37288560  0.12445868  0.87619179  1
  Fe  Fe86  1  0.25179790  0.50085773  0.49868828  1
  Fe  Fe87  1  0.50170424  0.74553616  0.75121080  1
  Fe  Fe88  1  0.62400396  0.87593472  0.37540989  1
  Fe  Fe89  1  0.00013924  0.74444237  0.24493982  1
  Co  Co90  1  0.62882345  0.62367902  0.87737103  1
  Co  Co91  1  0.12531078  0.37513046  0.37529018  1
  Co  Co92  1  0.74627732  0.25532745  0.00306915  1
  Co  Co93  1  -0.00052776  0.50203347  0.24879112  1
  Co  Co94  1  0.11875294  0.87692497  0.87500511  1
  Co  Co95  1  0.62490746  0.87355282  0.62492737  1
  Co  Co96  1  0.88083913  0.37400595  0.12165234  1
  Co  Co97  1  -0.00228991  0.50620429  0.75062496  1
  Co  Co98  1  0.37277665  0.62365541  0.87688660  1
  Co  Co99  1  0.75094406  -0.00373769  0.24597957  1
  Co  Co100  1  0.37385555  0.62541650  0.37463472  1
  Co  Co101  1  0.75000440  0.25366518  0.50505611  1
  Co  Co102  1  0.87356314  0.12387035  0.62253803  1
  Co  Co103  1  0.62539267  0.12280123  0.12381891  1
  Co  Co104  1  0.24909309  0.75150896  0.49625204  1
  Co  Co105  1  0.88073804  0.87247706  0.12394727  1
  Co  Co106  1  0.75037889  0.75114665  0.49813968  1
  Co  Co107  1  0.24909095  -0.00187492  0.00041527  1
  Co  Co108  1  0.86933158  0.62509079  0.12319419  1
  Co  Co109  1  0.00647106  0.24833020  -0.00021485  1
  Co  Co110  1  0.61856656  0.87659845  0.12629826  1
  Co  Co111  1  0.37067684  0.12569278  0.37534571  1
  Co  Co112  1  -0.00041683  0.24545666  0.75017618  1
  Co  Co113  1  0.62022120  0.37691437  0.12579190  1
  Co  Co114  1  0.12029614  0.37794659  0.87180368  1
  Co  Co115  1  0.87505873  0.12834926  0.12326282  1
  Co  Co116  1  0.63253851  0.12509304  0.37607178  1
  Co  Co117  1  0.00306018  0.74518342  0.00228580  1
  Co  Co118  1  0.74622830  0.75556038  0.00420536  1
  Co  Co119  1  0.62710433  0.62275005  0.62353612  1
  Co  Co120  1  0.13273356  0.62518336  0.12490407  1
  Co  Co121  1  0.87250817  0.37404977  0.37376486  1
  Co  Co122  1  0.24933730  0.75161817  0.75553053  1
  Co  Co123  1  0.38030403  0.87610833  0.87401639  1
  Co  Co124  1  0.50038016  0.50057200  0.49627207  1
  Co  Co125  1  0.37263876  0.62693080  0.62471828  1
  Co  Co126  1  0.49939989  0.00139197  0.50022507  1
  Co  Co127  1  0.24986338  0.25154301  0.24741441  1
