# generated using pymatgen
data_Fe45Co19
_symmetry_space_group_name_H-M   'P 1'
_cell_length_a   11.41562657
_cell_length_b   11.41402936
_cell_length_c   11.41436218
_cell_angle_alpha   90.00438389
_cell_angle_beta   90.00913455
_cell_angle_gamma   90.00353057
_symmetry_Int_Tables_number   1
_chemical_formula_structural   Fe45Co19
_chemical_formula_sum   'Fe90 Co38'
_cell_volume   1487.27192489
_cell_formula_units_Z   2
loop_
 _symmetry_equiv_pos_site_id
 _symmetry_equiv_pos_as_xyz
  1  'x, y, z'
loop_
 _atom_site_type_symbol
 _atom_site_label
 _atom_site_symmetry_multiplicity
 _atom_site_fract_x
 _atom_site_fract_y
 _atom_site_fract_z
 _atom_site_occupancy
  Fe  Fe0  1  0.50054226  0.74913267  -0.00016981  1
  Fe  Fe1  1  0.37594893  0.62206772  0.62401949  1
  Fe  Fe2  1  0.00322718  0.25551563  0.49935132  1
  Fe  Fe3  1  0.12816996  0.12922923  0.37606422  1
  Fe  Fe4  1  0.12521751  0.12610081  0.62652347  1
  Fe  Fe5  1  0.24795415  0.49472508  0.50023977  1
  Fe  Fe6  1  0.62455815  0.87690220  0.62712061  1
  Fe  Fe7  1  0.49759963  -0.00031223  0.50186402  1
  Fe  Fe8  1  0.62512163  0.12288532  0.12584455  1
  Fe  Fe9  1  0.24944370  0.50275993  0.25032036  1
  Fe  Fe10  1  0.00525479  -0.00521092  -0.00098530  1
  Fe  Fe11  1  0.37551864  0.87552527  0.37601312  1
  Fe  Fe12  1  0.12929538  0.87632948  0.62789967  1
  Fe  Fe13  1  0.36949481  0.87451027  0.12121056  1
  Fe  Fe14  1  0.62603047  0.12292080  0.62616310  1
  Fe  Fe15  1  -0.00011576  0.25115446  0.00002587  1
  Fe  Fe16  1  0.12398935  0.62303713  0.62220163  1
  Fe  Fe17  1  0.37360000  0.62631251  0.12408907  1
  Fe  Fe18  1  -0.00288223  0.24993611  0.74953111  1
  Fe  Fe19  1  0.00161700  0.74789792  0.25131056  1
  Fe  Fe20  1  0.37547567  0.12583429  0.12359666  1
  Fe  Fe21  1  0.75102351  0.24938730  0.74912364  1
  Fe  Fe22  1  0.62114019  0.62455226  0.37615542  1
  Fe  Fe23  1  0.74943831  0.75138017  0.00046250  1
  Fe  Fe24  1  0.62509705  0.12107334  0.87129735  1
  Fe  Fe25  1  0.88003101  0.62585593  0.38427077  1
  Fe  Fe26  1  -0.00019469  0.50230962  0.00199526  1
  Fe  Fe27  1  0.00244616  -0.00206557  0.49862130  1
  Fe  Fe28  1  0.49942172  -0.00100901  -0.00342381  1
  Fe  Fe29  1  0.24990614  0.00106704  0.24930026  1
  Fe  Fe30  1  0.49705402  0.74904398  0.24932048  1
  Fe  Fe31  1  0.25089251  0.24972350  0.75107885  1
  Fe  Fe32  1  0.62480480  0.87349224  0.12721160  1
  Fe  Fe33  1  0.87413176  0.87226609  0.62047311  1
  Fe  Fe34  1  0.37190646  0.37075436  0.37095490  1
  Fe  Fe35  1  0.87616898  0.12523233  0.37561528  1
  Fe  Fe36  1  0.75006271  0.74887456  0.74687203  1
  Fe  Fe37  1  0.74980328  0.75058810  0.25529210  1
  Fe  Fe38  1  0.25044943  0.50138910  0.75136480  1
  Fe  Fe39  1  0.87408396  0.62493758  0.87574499  1
  Fe  Fe40  1  0.37450341  0.62451964  0.37718895  1
  Fe  Fe41  1  0.50185542  0.50203726  0.00199628  1
  Fe  Fe42  1  0.12640785  0.62883424  0.12517950  1
  Fe  Fe43  1  -0.00138104  -0.00132320  0.74954722  1
  Fe  Fe44  1  0.12444080  0.37647565  0.12748513  1
  Fe  Fe45  1  0.75155003  0.50340119  0.25357627  1
  Fe  Fe46  1  0.62537424  0.62528508  0.87591406  1
  Fe  Fe47  1  0.74953060  -0.00407606  0.49709815  1
  Fe  Fe48  1  0.49924201  0.75201670  0.50166302  1
  Fe  Fe49  1  -0.00157137  0.50172436  0.74729335  1
  Fe  Fe50  1  0.74954279  0.25243753  0.49834648  1
  Fe  Fe51  1  0.49718038  0.25184810  0.50048647  1
  Fe  Fe52  1  0.87392063  0.37759438  0.62254547  1
  Fe  Fe53  1  0.87425215  0.37761251  0.87677227  1
  Fe  Fe54  1  0.00021750  0.24945368  0.24969868  1
  Fe  Fe55  1  -0.00044760  0.74943859  0.74684008  1
  Fe  Fe56  1  0.87782094  0.87563651  0.12910773  1
  Fe  Fe57  1  0.74860769  0.24844950  0.25043417  1
  Fe  Fe58  1  0.87495125  0.12405251  0.62112217  1
  Fe  Fe59  1  0.87399877  0.37699394  0.12685549  1
  Fe  Fe60  1  0.37423014  0.12561614  0.62546663  1
  Fe  Fe61  1  0.62360426  0.37726105  0.37475562  1
  Fe  Fe62  1  0.37556277  0.37447110  0.12630659  1
  Fe  Fe63  1  0.49755163  0.75092652  0.75045825  1
  Fe  Fe64  1  0.24939826  0.50171333  -0.00119014  1
  Fe  Fe65  1  0.12349156  0.37501836  0.87373657  1
  Fe  Fe66  1  0.12306183  0.62738540  0.87603711  1
  Fe  Fe67  1  0.25308052  0.74759048  0.75156082  1
  Fe  Fe68  1  0.37639379  0.37707561  0.87446756  1
  Fe  Fe69  1  0.12521789  0.87352840  0.37209557  1
  Fe  Fe70  1  0.25325937  0.00125512  0.75589289  1
  Fe  Fe71  1  0.74913762  0.50127770  0.74688441  1
  Fe  Fe72  1  0.49746409  0.00030516  0.24994642  1
  Fe  Fe73  1  0.24896460  0.24880647  -0.00110579  1
  Fe  Fe74  1  0.62581481  0.37865629  0.12837427  1
  Fe  Fe75  1  0.74942958  -0.00277806  -0.00109979  1
  Fe  Fe76  1  0.87523850  0.87310646  0.87387193  1
  Fe  Fe77  1  0.75060059  -0.00162928  0.25350044  1
  Fe  Fe78  1  0.62618637  0.37681989  0.87448042  1
  Fe  Fe79  1  0.50117172  0.25191379  0.74820218  1
  Fe  Fe80  1  0.87587008  0.12242527  0.12494673  1
  Fe  Fe81  1  0.24849771  0.75043362  0.49922045  1
  Fe  Fe82  1  0.62307058  0.62164001  0.62139444  1
  Fe  Fe83  1  0.25097959  0.00117628  0.49885341  1
  Fe  Fe84  1  0.87596685  0.12336034  0.87681959  1
  Fe  Fe85  1  0.62190062  0.12330033  0.37534411  1
  Fe  Fe86  1  0.50282471  0.25050280  0.00112198  1
  Fe  Fe87  1  0.87343047  0.62547906  0.12418775  1
  Fe  Fe88  1  0.12390793  0.12365259  0.12388461  1
  Fe  Fe89  1  0.74917619  0.24981698  0.00052840  1
  Co  Co90  1  0.62646691  0.62637078  0.12760599  1
  Co  Co91  1  0.49582301  0.49572389  0.49870061  1
  Co  Co92  1  0.37460672  0.37757570  0.62908433  1
  Co  Co93  1  0.12194849  0.12726511  0.87257037  1
  Co  Co94  1  0.75036854  0.50020008  0.49883968  1
  Co  Co95  1  0.00310307  0.00169768  0.25278944  1
  Co  Co96  1  0.37185122  0.87406880  0.62411866  1
  Co  Co97  1  0.12739381  0.87116148  0.12708348  1
  Co  Co98  1  0.12723895  0.87088787  0.87281079  1
  Co  Co99  1  0.87616901  0.37551614  0.37259047  1
  Co  Co100  1  0.37742515  0.62264410  0.87514538  1
  Co  Co101  1  0.61947936  0.87511507  0.37343853  1
  Co  Co102  1  0.50269267  0.50017937  0.74978470  1
  Co  Co103  1  0.37339324  0.87339931  0.87820416  1
  Co  Co104  1  0.37444663  0.12714651  0.37474262  1
  Co  Co105  1  0.50175267  0.24929113  0.24938964  1
  Co  Co106  1  -0.00129967  0.75096855  0.00094476  1
  Co  Co107  1  0.87643888  0.62572189  0.61831334  1
  Co  Co108  1  0.37807218  0.12837771  0.87601682  1
  Co  Co109  1  0.12549501  0.37416546  0.63023397  1
  Co  Co110  1  0.00001848  0.50390293  0.24975710  1
  Co  Co111  1  0.49484827  -0.00262136  0.74980502  1
  Co  Co112  1  0.74881818  0.50084965  0.00104421  1
  Co  Co113  1  0.00453515  0.49400726  0.50021381  1
  Co  Co114  1  0.62564011  0.37608051  0.62219843  1
  Co  Co115  1  0.24660503  0.00291442  -0.00273941  1
  Co  Co116  1  0.12417051  0.62346226  0.37777784  1
  Co  Co117  1  0.49686651  0.50157291  0.24996614  1
  Co  Co118  1  0.87854476  0.87264404  0.37612135  1
  Co  Co119  1  0.25171906  0.74901923  0.25366998  1
  Co  Co120  1  0.75434111  -0.00051780  0.74872844  1
  Co  Co121  1  0.74506478  0.75180405  0.49849586  1
  Co  Co122  1  0.00672480  0.75399512  0.50231842  1
  Co  Co123  1  0.25058000  0.25304561  0.50369151  1
  Co  Co124  1  0.24941919  0.24651351  0.24558425  1
  Co  Co125  1  0.62465799  0.87548593  0.87248747  1
  Co  Co126  1  0.12761062  0.37402452  0.36942536  1
  Co  Co127  1  0.24976000  0.74771468  -0.00301279  1
