# generated using pymatgen
data_Fe45Co19
_symmetry_space_group_name_H-M   'P 1'
_cell_length_a   11.41511163
_cell_length_b   11.41554616
_cell_length_c   11.41559567
_cell_angle_alpha   89.99330802
_cell_angle_beta   89.99839006
_cell_angle_gamma   90.00148091
_symmetry_Int_Tables_number   1
_chemical_formula_structural   Fe45Co19
_chemical_formula_sum   'Fe90 Co38'
_cell_volume   1487.56322135
_cell_formula_units_Z   2
loop_
 _symmetry_equiv_pos_site_id
 _symmetry_equiv_pos_as_xyz
  1  'x, y, z'
loop_
 _atom_site_type_symbol
 _atom_site_label
 _atom_site_symmetry_multiplicity
 _atom_site_fract_x
 _atom_site_fract_y
 _atom_site_fract_z
 _atom_site_occupancy
  Fe  Fe0  1  0.25060118  0.75235820  0.74573525  1
  Fe  Fe1  1  -0.00080545  -0.00034341  0.00008305  1
  Fe  Fe2  1  0.87795303  0.37592267  0.62901403  1
  Fe  Fe3  1  0.50005014  0.24396590  0.25433126  1
  Fe  Fe4  1  0.12665557  0.62551519  0.87670494  1
  Fe  Fe5  1  0.12643430  0.62418907  0.62149402  1
  Fe  Fe6  1  0.00008706  0.74615353  0.75065859  1
  Fe  Fe7  1  0.50061843  0.74646200  0.74674095  1
  Fe  Fe8  1  0.62431826  0.87687498  0.12987943  1
  Fe  Fe9  1  0.62379827  0.87486398  0.62452157  1
  Fe  Fe10  1  0.62345210  0.37475697  0.12735476  1
  Fe  Fe11  1  0.50181474  0.00377820  0.75251324  1
  Fe  Fe12  1  0.37544078  0.87560488  0.87321636  1
  Fe  Fe13  1  0.25075044  0.25007919  0.74746425  1
  Fe  Fe14  1  0.12297429  0.87420660  0.87497299  1
  Fe  Fe15  1  -0.00020125  0.00496691  0.25171293  1
  Fe  Fe16  1  0.25052323  0.75229714  0.00153527  1
  Fe  Fe17  1  0.87423811  0.12289890  0.62246433  1
  Fe  Fe18  1  -0.00443765  0.75288580  0.49783729  1
  Fe  Fe19  1  0.87235191  0.12393095  0.37786611  1
  Fe  Fe20  1  -0.00012916  0.50140972  0.25115330  1
  Fe  Fe21  1  0.12578058  0.37335324  0.37359216  1
  Fe  Fe22  1  -0.00117586  0.74552630  0.25146196  1
  Fe  Fe23  1  0.87283913  0.62513231  0.87627042  1
  Fe  Fe24  1  0.37548898  0.12259744  0.62329528  1
  Fe  Fe25  1  0.62673385  0.87650399  0.87425607  1
  Fe  Fe26  1  0.74821826  0.24865537  0.74994090  1
  Fe  Fe27  1  0.50226672  0.24813758  -0.00287853  1
  Fe  Fe28  1  0.87543177  0.12899223  0.12156300  1
  Fe  Fe29  1  0.75026552  0.75359911  0.00218838  1
  Fe  Fe30  1  0.25001554  -0.00507405  0.50118911  1
  Fe  Fe31  1  0.50272047  0.24424134  0.75195867  1
  Fe  Fe32  1  0.24854437  0.25096936  0.00174314  1
  Fe  Fe33  1  0.37704298  0.37354533  0.87280699  1
  Fe  Fe34  1  0.12264857  0.87422819  0.12524322  1
  Fe  Fe35  1  0.74999200  0.24897551  0.25056208  1
  Fe  Fe36  1  0.24957373  -0.00038543  0.74887678  1
  Fe  Fe37  1  0.37265363  0.62546305  0.87447236  1
  Fe  Fe38  1  0.74963222  0.25308903  0.50097682  1
  Fe  Fe39  1  0.86976263  0.12405343  0.87808430  1
  Fe  Fe40  1  0.62374970  0.37459296  0.37423525  1
  Fe  Fe41  1  0.49864495  0.24887285  0.49766482  1
  Fe  Fe42  1  0.49973172  0.50488782  0.25311789  1
  Fe  Fe43  1  0.49952030  0.75094101  -0.00078682  1
  Fe  Fe44  1  0.49880667  -0.00192003  0.49355992  1
  Fe  Fe45  1  0.87665418  0.37394778  0.87187359  1
  Fe  Fe46  1  0.74833462  0.74935365  0.74664829  1
  Fe  Fe47  1  0.11863264  0.87681778  0.62618853  1
  Fe  Fe48  1  0.87427321  0.87562632  0.87182651  1
  Fe  Fe49  1  0.75328228  -0.00596359  0.50054884  1
  Fe  Fe50  1  0.62826599  0.62909267  0.38007875  1
  Fe  Fe51  1  0.74839932  0.50226114  0.25064084  1
  Fe  Fe52  1  0.37426365  0.62605326  0.12385114  1
  Fe  Fe53  1  0.50012278  0.00053156  -0.00159681  1
  Fe  Fe54  1  0.62657779  0.12373911  0.12350974  1
  Fe  Fe55  1  0.36933806  0.62978766  0.38039542  1
  Fe  Fe56  1  0.12427332  0.87354254  0.37344546  1
  Fe  Fe57  1  0.12117786  0.37134280  0.12864814  1
  Fe  Fe58  1  0.25399943  0.25654622  0.50211099  1
  Fe  Fe59  1  0.74970888  0.49772020  0.50049469  1
  Fe  Fe60  1  0.12469423  0.12592692  0.62203642  1
  Fe  Fe61  1  0.49752357  0.50112877  0.49975532  1
  Fe  Fe62  1  0.12917244  0.12709187  0.37461693  1
  Fe  Fe63  1  0.62282852  0.37662573  0.62702135  1
  Fe  Fe64  1  0.49797145  0.75015463  0.25150122  1
  Fe  Fe65  1  0.25281008  -0.00241757  0.24896553  1
  Fe  Fe66  1  0.12571350  0.12550984  0.87678620  1
  Fe  Fe67  1  0.87583315  0.87440223  0.13001489  1
  Fe  Fe68  1  0.62918377  0.87496662  0.37080658  1
  Fe  Fe69  1  0.24954326  0.49629375  0.00110096  1
  Fe  Fe70  1  0.87255589  0.62396616  0.62292032  1
  Fe  Fe71  1  0.37436927  0.12391098  0.12471756  1
  Fe  Fe72  1  -0.00119145  0.00483755  0.75052065  1
  Fe  Fe73  1  0.50080466  0.50068079  -0.00219487  1
  Fe  Fe74  1  0.24952300  -0.00101376  0.00080044  1
  Fe  Fe75  1  -0.00042732  0.24971489  0.49915840  1
  Fe  Fe76  1  0.12171580  0.37330148  0.87011397  1
  Fe  Fe77  1  0.37859876  0.37449170  0.12784077  1
  Fe  Fe78  1  0.12876732  0.62641079  0.37918143  1
  Fe  Fe79  1  0.62628147  0.12256376  0.62074436  1
  Fe  Fe80  1  0.87450083  0.62278087  0.12337548  1
  Fe  Fe81  1  0.00100606  0.49817862  0.50042372  1
  Fe  Fe82  1  0.25074782  0.50031141  0.25075893  1
  Fe  Fe83  1  0.62523015  0.62609049  0.12292770  1
  Fe  Fe84  1  0.87521311  0.37609994  0.37276127  1
  Fe  Fe85  1  0.24931588  0.49831056  0.74556211  1
  Fe  Fe86  1  0.12448186  0.62559658  0.12265692  1
  Fe  Fe87  1  0.50291916  0.50557743  0.74998356  1
  Fe  Fe88  1  0.74762365  0.49570673  -0.00160307  1
  Fe  Fe89  1  0.00045955  0.49775182  -0.00120664  1
  Co  Co90  1  0.37759951  0.87596117  0.12473564  1
  Co  Co91  1  0.37962089  0.87860534  0.62687279  1
  Co  Co92  1  0.62208105  0.37489950  0.87199088  1
  Co  Co93  1  0.87500444  0.37528408  0.12739192  1
  Co  Co94  1  0.74797484  0.25540087  -0.00074913  1
  Co  Co95  1  0.62828888  0.62517095  0.61950574  1
  Co  Co96  1  0.75146767  0.74532735  0.24983729  1
  Co  Co97  1  -0.00231730  0.24314044  0.74961507  1
  Co  Co98  1  0.87432499  0.87679592  0.36895459  1
  Co  Co99  1  0.75172928  0.00552144  0.24797438  1
  Co  Co100  1  0.36947922  0.12436082  0.37722714  1
  Co  Co101  1  0.37267831  0.62495893  0.62183927  1
  Co  Co102  1  0.87417014  0.62243843  0.37763723  1
  Co  Co103  1  0.87952940  0.87583395  0.62899558  1
  Co  Co104  1  0.74815154  0.50080942  0.75102809  1
  Co  Co105  1  0.25282203  0.25144776  0.24787794  1
  Co  Co106  1  0.24937393  0.75730152  0.50606187  1
  Co  Co107  1  0.74914364  0.00023349  0.74635399  1
  Co  Co108  1  0.24934901  0.75013975  0.24646270  1
  Co  Co109  1  -0.00014170  0.00005849  0.49723341  1
  Co  Co110  1  0.75453963  0.75582850  0.49994702  1
  Co  Co111  1  0.00137818  0.25068176  -0.00124763  1
  Co  Co112  1  0.37254438  0.87138836  0.37446823  1
  Co  Co113  1  0.75122836  -0.00503368  0.00405431  1
  Co  Co114  1  0.25103694  0.49283121  0.50194038  1
  Co  Co115  1  -0.00197229  0.75078038  -0.00020926  1
  Co  Co116  1  0.12492607  0.12535705  0.12673367  1
  Co  Co117  1  -0.00315178  0.24698958  0.25314931  1
  Co  Co118  1  0.49809211  0.00281326  0.25426220  1
  Co  Co119  1  0.63181297  0.12140792  0.87862448  1
  Co  Co120  1  0.37740767  0.37515079  0.37135724  1
  Co  Co121  1  0.11924432  0.37256837  0.62727840  1
  Co  Co122  1  0.63064759  0.12311611  0.37848277  1
  Co  Co123  1  0.50021998  0.75270509  0.50042685  1
  Co  Co124  1  0.38157326  0.37526982  0.62922334  1
  Co  Co125  1  0.62710992  0.62753294  0.87763048  1
  Co  Co126  1  0.37165619  0.12510279  0.87567804  1
  Co  Co127  1  0.00092649  0.50471412  0.74999321  1
