# generated using pymatgen
data_Fe45Co19
_symmetry_space_group_name_H-M   'P 1'
_cell_length_a   11.41489521
_cell_length_b   11.41523409
_cell_length_c   11.41539107
_cell_angle_alpha   89.99918543
_cell_angle_beta   89.99432979
_cell_angle_gamma   89.99361389
_symmetry_Int_Tables_number   1
_chemical_formula_structural   Fe45Co19
_chemical_formula_sum   'Fe90 Co38'
_cell_volume   1487.46768780
_cell_formula_units_Z   2
loop_
 _symmetry_equiv_pos_site_id
 _symmetry_equiv_pos_as_xyz
  1  'x, y, z'
loop_
 _atom_site_type_symbol
 _atom_site_label
 _atom_site_symmetry_multiplicity
 _atom_site_fract_x
 _atom_site_fract_y
 _atom_site_fract_z
 _atom_site_occupancy
  Fe  Fe0  1  0.12103640  0.62305726  0.37739884  1
  Fe  Fe1  1  0.62472180  0.37583897  0.12684516  1
  Fe  Fe2  1  0.49877318  0.50019977  0.25217476  1
  Fe  Fe3  1  0.62300897  0.87408470  0.62578819  1
  Fe  Fe4  1  0.12340894  0.37712929  0.62684556  1
  Fe  Fe5  1  -0.00190612  0.49908678  0.25237661  1
  Fe  Fe6  1  0.87271948  0.12195241  0.37590911  1
  Fe  Fe7  1  0.62014586  0.12176981  0.12498782  1
  Fe  Fe8  1  0.00067104  0.75301597  0.25324384  1
  Fe  Fe9  1  0.74762432  0.24955031  0.00115450  1
  Fe  Fe10  1  0.12852286  0.87776367  0.37510789  1
  Fe  Fe11  1  0.87778963  0.87206612  0.62612547  1
  Fe  Fe12  1  0.49600994  -0.00338409  0.00226345  1
  Fe  Fe13  1  0.87705289  0.37491076  0.12439494  1
  Fe  Fe14  1  0.49778399  -0.00113080  0.75055032  1
  Fe  Fe15  1  0.50233186  0.75644318  0.25471237  1
  Fe  Fe16  1  0.87087847  0.87673956  0.37519031  1
  Fe  Fe17  1  0.24600070  0.25285516  0.00002568  1
  Fe  Fe18  1  0.49884014  0.75060463  -0.00468796  1
  Fe  Fe19  1  0.25297497  0.00208256  0.74786944  1
  Fe  Fe20  1  0.25071889  0.24876177  0.74975334  1
  Fe  Fe21  1  0.25189487  -0.00118305  0.00213464  1
  Fe  Fe22  1  0.74787435  0.75208044  0.25036025  1
  Fe  Fe23  1  0.25238995  0.00146419  0.50304164  1
  Fe  Fe24  1  0.12739650  0.87653865  0.87235863  1
  Fe  Fe25  1  0.50133414  0.49977658  -0.00118084  1
  Fe  Fe26  1  0.00116962  0.74948930  -0.00222081  1
  Fe  Fe27  1  0.25358509  0.50315093  0.74624982  1
  Fe  Fe28  1  0.50028471  0.25112423  0.75122446  1
  Fe  Fe29  1  0.75038119  0.50216464  0.00035344  1
  Fe  Fe30  1  -0.00402195  0.50196842  0.75046892  1
  Fe  Fe31  1  0.25103513  0.74643678  0.74802845  1
  Fe  Fe32  1  0.37443215  0.37602491  0.87584877  1
  Fe  Fe33  1  0.37600628  0.62848365  0.37772765  1
  Fe  Fe34  1  0.50065663  0.24901527  0.49850759  1
  Fe  Fe35  1  0.24445482  0.74831007  0.50450885  1
  Fe  Fe36  1  0.75071957  0.24745559  0.74953310  1
  Fe  Fe37  1  0.62201360  0.62526506  0.62802312  1
  Fe  Fe38  1  0.12315499  0.12414517  0.62600676  1
  Fe  Fe39  1  0.00171200  0.25044446  0.49791384  1
  Fe  Fe40  1  0.24976474  0.24974256  0.24842864  1
  Fe  Fe41  1  0.24697925  0.49802886  0.00300338  1
  Fe  Fe42  1  0.12324724  0.12216817  0.12387867  1
  Fe  Fe43  1  0.74840711  0.24815979  0.49898080  1
  Fe  Fe44  1  0.12268692  0.62279074  0.12625404  1
  Fe  Fe45  1  0.87723264  0.87545400  0.12444882  1
  Fe  Fe46  1  0.62308455  0.12359548  0.62442153  1
  Fe  Fe47  1  0.74970379  0.24814466  0.24952684  1
  Fe  Fe48  1  0.37598666  0.62729871  0.12475009  1
  Fe  Fe49  1  0.62664413  0.62377062  0.87007029  1
  Fe  Fe50  1  0.24950942  0.50151549  0.50095741  1
  Fe  Fe51  1  0.74709113  0.74954755  0.49964120  1
  Fe  Fe52  1  0.62622713  0.87520548  0.87406931  1
  Fe  Fe53  1  0.12584683  0.37672577  0.37380328  1
  Fe  Fe54  1  0.00045032  0.24784509  0.25193566  1
  Fe  Fe55  1  0.87507710  0.37217124  0.62306499  1
  Fe  Fe56  1  0.37587969  0.87089898  0.62442304  1
  Fe  Fe57  1  0.62588451  0.37681687  0.62549336  1
  Fe  Fe58  1  -0.00199753  0.00200333  0.75224008  1
  Fe  Fe59  1  0.12512992  0.62244384  0.87413689  1
  Fe  Fe60  1  0.37418334  0.37394755  0.37542544  1
  Fe  Fe61  1  0.25606481  0.00063411  0.24771801  1
  Fe  Fe62  1  0.75119294  -0.00074018  0.00194496  1
  Fe  Fe63  1  0.00472321  0.25186380  -0.00307804  1
  Fe  Fe64  1  0.49978279  0.24897733  0.25087889  1
  Fe  Fe65  1  0.62510784  0.12354085  0.87628653  1
  Fe  Fe66  1  0.50146069  0.50081654  0.49853480  1
  Fe  Fe67  1  0.37671431  0.37461499  0.62383505  1
  Fe  Fe68  1  -0.00000567  -0.00163254  0.49993860  1
  Fe  Fe69  1  0.75205873  0.00122177  0.74747553  1
  Fe  Fe70  1  0.87625459  0.62554585  0.12585777  1
  Fe  Fe71  1  0.75142294  0.50159647  0.49770618  1
  Fe  Fe72  1  0.12779583  0.12257912  0.37552687  1
  Fe  Fe73  1  0.62535745  0.11847927  0.37320249  1
  Fe  Fe74  1  0.87398543  0.87277827  0.87389671  1
  Fe  Fe75  1  0.37547481  0.12614838  0.87759211  1
  Fe  Fe76  1  0.62344449  0.62725478  0.12673781  1
  Fe  Fe77  1  0.87397834  0.37592339  0.87660698  1
  Fe  Fe78  1  -0.00009695  0.24750085  0.75364176  1
  Fe  Fe79  1  0.12436570  0.87639225  0.12595767  1
  Fe  Fe80  1  0.24901249  0.74952997  -0.00095729  1
  Fe  Fe81  1  0.37504450  0.37478939  0.12542299  1
  Fe  Fe82  1  0.24788291  0.74757495  0.25037011  1
  Fe  Fe83  1  0.75046388  0.49968570  0.25260674  1
  Fe  Fe84  1  0.24962303  0.24916369  0.50206997  1
  Fe  Fe85  1  0.87877323  0.62935867  0.62336328  1
  Fe  Fe86  1  0.49631833  -0.00271045  0.49627362  1
  Fe  Fe87  1  0.62727917  0.37758187  0.87215851  1
  Fe  Fe88  1  0.74953336  0.74891440  -0.00027638  1
  Fe  Fe89  1  0.87936009  0.12307842  0.12198512  1
  Co  Co90  1  0.49478343  -0.00447038  0.25043026  1
  Co  Co91  1  0.00291100  0.75531120  0.49741124  1
  Co  Co92  1  0.37440266  0.12660690  0.37499983  1
  Co  Co93  1  0.00059945  -0.00305779  -0.00376441  1
  Co  Co94  1  0.37780184  0.12603611  0.62514031  1
  Co  Co95  1  0.11958332  0.62258212  0.62463181  1
  Co  Co96  1  0.87792260  0.12787851  0.62333254  1
  Co  Co97  1  0.12792313  0.12186616  0.87492177  1
  Co  Co98  1  0.49671688  0.49979973  0.74994294  1
  Co  Co99  1  0.37381610  0.86822939  0.12514493  1
  Co  Co100  1  0.12260695  0.37667893  0.12993546  1
  Co  Co101  1  0.87340213  0.37276647  0.37466437  1
  Co  Co102  1  0.37620337  0.12858871  0.12219723  1
  Co  Co103  1  0.37294692  0.62250814  0.87810268  1
  Co  Co104  1  0.12482687  0.87767185  0.62863303  1
  Co  Co105  1  0.62531036  0.62486657  0.37270700  1
  Co  Co106  1  0.12514245  0.37925581  0.86956926  1
  Co  Co107  1  0.50537430  0.75241853  0.49670353  1
  Co  Co108  1  0.00322546  0.74933408  0.75243676  1
  Co  Co109  1  -0.00275355  0.49783874  0.49918843  1
  Co  Co110  1  0.75063822  0.00024544  0.24330962  1
  Co  Co111  1  -0.00023440  -0.00072446  0.25275552  1
  Co  Co112  1  0.87408249  0.62716323  0.87485240  1
  Co  Co113  1  0.50251226  0.25346405  -0.00166594  1
  Co  Co114  1  0.87587569  0.62779211  0.37493287  1
  Co  Co115  1  0.37184011  0.87556062  0.87383373  1
  Co  Co116  1  0.87299928  0.12570950  0.87837578  1
  Co  Co117  1  0.75463258  0.50117747  0.74704382  1
  Co  Co118  1  0.62351469  0.87407613  0.12253713  1
  Co  Co119  1  0.63071883  0.88184709  0.37594042  1
  Co  Co120  1  0.62578074  0.37468021  0.37475614  1
  Co  Co121  1  0.36945157  0.87031825  0.37768995  1
  Co  Co122  1  0.37985340  0.62839977  0.62067594  1
  Co  Co123  1  0.49695589  0.74919308  0.75366423  1
  Co  Co124  1  0.74865627  0.75080884  0.74807456  1
  Co  Co125  1  0.00076143  0.50058332  -0.00083526  1
  Co  Co126  1  0.25186206  0.50249430  0.25146105  1
  Co  Co127  1  0.75237920  0.00021143  0.50712008  1
