# generated using pymatgen
data_Fe45Co19
_symmetry_space_group_name_H-M   'P 1'
_cell_length_a   11.41444067
_cell_length_b   11.41431021
_cell_length_c   11.41515562
_cell_angle_alpha   89.98571226
_cell_angle_beta   89.98966738
_cell_angle_gamma   90.00221656
_symmetry_Int_Tables_number   1
_chemical_formula_structural   Fe45Co19
_chemical_formula_sum   'Fe90 Co38'
_cell_volume   1487.25734404
_cell_formula_units_Z   2
loop_
 _symmetry_equiv_pos_site_id
 _symmetry_equiv_pos_as_xyz
  1  'x, y, z'
loop_
 _atom_site_type_symbol
 _atom_site_label
 _atom_site_symmetry_multiplicity
 _atom_site_fract_x
 _atom_site_fract_y
 _atom_site_fract_z
 _atom_site_occupancy
  Fe  Fe0  1  0.37431245  0.37526970  0.87275394  1
  Fe  Fe1  1  0.87495598  0.12459293  0.37452038  1
  Fe  Fe2  1  0.87640025  0.37430022  0.37437033  1
  Fe  Fe3  1  0.74916947  -0.00475289  -0.00003636  1
  Fe  Fe4  1  0.12675768  0.12754575  0.12732340  1
  Fe  Fe5  1  -0.00005433  0.75132913  0.75169306  1
  Fe  Fe6  1  0.87758147  0.12580446  0.62313341  1
  Fe  Fe7  1  0.62329892  0.62594910  0.62208518  1
  Fe  Fe8  1  0.12486353  0.62692435  0.12526672  1
  Fe  Fe9  1  0.24735315  0.24781779  0.50325212  1
  Fe  Fe10  1  0.12692487  0.87503433  0.62553967  1
  Fe  Fe11  1  0.49899048  0.24660252  0.24924282  1
  Fe  Fe12  1  0.87537509  0.12187748  0.12484026  1
  Fe  Fe13  1  0.49984551  0.49848896  0.00093076  1
  Fe  Fe14  1  0.00067791  0.75223849  0.49776582  1
  Fe  Fe15  1  0.50155389  0.75495747  -0.00129081  1
  Fe  Fe16  1  0.74939506  0.24821024  0.24714834  1
  Fe  Fe17  1  0.37601689  0.37642016  0.37642702  1
  Fe  Fe18  1  0.12436277  0.87392619  0.12796956  1
  Fe  Fe19  1  0.12485919  0.62571483  0.37690347  1
  Fe  Fe20  1  0.50190568  0.49976016  0.74948980  1
  Fe  Fe21  1  0.12708735  0.62940363  0.87449658  1
  Fe  Fe22  1  0.62212083  0.12163904  0.12154635  1
  Fe  Fe23  1  0.74706897  0.50042070  0.24871628  1
  Fe  Fe24  1  0.62723667  0.37312862  0.62611241  1
  Fe  Fe25  1  0.62319045  0.37603104  0.37279926  1
  Fe  Fe26  1  0.37448993  0.12422397  0.37907688  1
  Fe  Fe27  1  0.00120417  -0.00364828  -0.00179259  1
  Fe  Fe28  1  0.62559260  0.62699256  0.87653939  1
  Fe  Fe29  1  0.87132728  0.87444847  0.62820966  1
  Fe  Fe30  1  0.75068126  0.24560685  0.75115790  1
  Fe  Fe31  1  0.37472497  0.37476488  0.62536594  1
  Fe  Fe32  1  0.62677801  0.37258966  0.87585778  1
  Fe  Fe33  1  0.49950789  0.24989985  0.00016607  1
  Fe  Fe34  1  0.12520466  0.12548945  0.37494187  1
  Fe  Fe35  1  -0.00028572  0.50183418  0.75029146  1
  Fe  Fe36  1  0.87631310  0.37448098  0.62447131  1
  Fe  Fe37  1  0.37525168  0.62327875  0.62262745  1
  Fe  Fe38  1  0.25239739  0.75052094  0.25214178  1
  Fe  Fe39  1  0.87452115  0.12444583  0.87776709  1
  Fe  Fe40  1  0.25070506  0.49930875  0.25037510  1
  Fe  Fe41  1  0.12596406  0.37332552  0.87330776  1
  Fe  Fe42  1  0.87462713  0.87478934  0.37193545  1
  Fe  Fe43  1  0.00096827  0.50076837  0.24943240  1
  Fe  Fe44  1  -0.00017303  0.25038854  0.00138152  1
  Fe  Fe45  1  -0.00288804  0.75384819  0.00010970  1
  Fe  Fe46  1  -0.00155350  -0.00189550  0.75249138  1
  Fe  Fe47  1  0.62626521  0.12478879  0.37807551  1
  Fe  Fe48  1  0.12360065  0.37305485  0.37483157  1
  Fe  Fe49  1  0.25058078  0.00312882  0.74763765  1
  Fe  Fe50  1  0.62266582  0.62635823  0.12522876  1
  Fe  Fe51  1  0.74781430  0.75216786  0.24716969  1
  Fe  Fe52  1  0.12148212  0.37310134  0.62512386  1
  Fe  Fe53  1  0.12521460  0.12597683  0.87257647  1
  Fe  Fe54  1  0.87680754  0.62531978  0.62253491  1
  Fe  Fe55  1  0.25035781  0.25012099  0.00010733  1
  Fe  Fe56  1  0.37798647  0.87682979  0.37528912  1
  Fe  Fe57  1  0.49910703  0.75044827  0.74802778  1
  Fe  Fe58  1  0.00135601  -0.00142051  0.49882493  1
  Fe  Fe59  1  0.24786986  0.50194340  0.74806165  1
  Fe  Fe60  1  0.37988792  0.62192963  0.37859728  1
  Fe  Fe61  1  0.74829665  0.50019596  0.00203734  1
  Fe  Fe62  1  0.74611436  0.75176872  0.49905140  1
  Fe  Fe63  1  0.50389181  -0.00232394  0.50217316  1
  Fe  Fe64  1  0.00155642  0.50044339  0.00055336  1
  Fe  Fe65  1  0.74895294  0.49999695  0.49876543  1
  Fe  Fe66  1  0.37524795  0.12434619  0.87553996  1
  Fe  Fe67  1  0.87252524  0.37481722  0.87596911  1
  Fe  Fe68  1  0.37467615  0.62524266  0.87461918  1
  Fe  Fe69  1  0.75175777  0.25049945  0.49922980  1
  Fe  Fe70  1  0.74692428  -0.00112812  0.25014274  1
  Fe  Fe71  1  0.24956564  0.49982787  0.00016341  1
  Fe  Fe72  1  0.50128406  0.25116821  0.50122125  1
  Fe  Fe73  1  0.00137578  -0.00055389  0.25128813  1
  Fe  Fe74  1  0.25156958  0.75296697  0.00041177  1
  Fe  Fe75  1  0.37437847  0.37366268  0.12625466  1
  Fe  Fe76  1  0.74968827  0.50262089  0.74939788  1
  Fe  Fe77  1  0.62973793  0.87526999  0.86763925  1
  Fe  Fe78  1  0.24980755  -0.00082970  0.00111946  1
  Fe  Fe79  1  0.50125034  0.24556218  0.74976920  1
  Fe  Fe80  1  0.37277150  0.87623591  0.87171257  1
  Fe  Fe81  1  0.25187695  0.00109109  0.25121628  1
  Fe  Fe82  1  0.74872723  -0.00255883  0.50103606  1
  Fe  Fe83  1  0.37629717  0.62636671  0.12420571  1
  Fe  Fe84  1  0.37511804  0.87761039  0.62445674  1
  Fe  Fe85  1  0.87375440  0.62588266  0.37391854  1
  Fe  Fe86  1  0.25107031  0.75097974  0.49957385  1
  Fe  Fe87  1  0.87507516  0.37559943  0.12498913  1
  Fe  Fe88  1  0.38000617  0.87811294  0.12765781  1
  Fe  Fe89  1  0.87210394  0.62795416  0.87809544  1
  Co  Co90  1  0.62761676  0.87572310  0.62975326  1
  Co  Co91  1  0.74992488  0.74403097  0.74747961  1
  Co  Co92  1  0.37562166  0.12288358  0.12266045  1
  Co  Co93  1  0.49996009  0.00565703  0.25384688  1
  Co  Co94  1  0.25124942  0.24776423  0.74716083  1
  Co  Co95  1  0.12369920  0.62794732  0.62337429  1
  Co  Co96  1  0.86901419  0.87303635  0.87231457  1
  Co  Co97  1  0.49988396  0.74826320  0.25134535  1
  Co  Co98  1  0.62591413  0.12455915  0.87857753  1
  Co  Co99  1  0.50295271  0.49743199  0.50213013  1
  Co  Co100  1  0.87771313  0.87708064  0.12796781  1
  Co  Co101  1  0.62535783  0.12536985  0.62169221  1
  Co  Co102  1  0.12624023  0.37350127  0.12589595  1
  Co  Co103  1  -0.00068843  0.74904109  0.25099101  1
  Co  Co104  1  0.75097166  0.00728742  0.74854402  1
  Co  Co105  1  0.62283639  0.87502943  0.37297625  1
  Co  Co106  1  0.75113141  0.24871491  0.00271686  1
  Co  Co107  1  0.50076337  0.00265171  0.74966338  1
  Co  Co108  1  -0.00274054  0.24984464  0.75224076  1
  Co  Co109  1  -0.00021557  0.24820093  0.49792171  1
  Co  Co110  1  0.25321892  0.24939368  0.25219165  1
  Co  Co111  1  0.87487177  0.62475368  0.12490254  1
  Co  Co112  1  0.49997265  -0.00418269  -0.00569437  1
  Co  Co113  1  0.25222436  0.74887592  0.74750409  1
  Co  Co114  1  0.12123811  0.12354716  0.62707342  1
  Co  Co115  1  0.24743486  0.00061221  0.49972379  1
  Co  Co116  1  0.74846836  0.75470945  0.00567340  1
  Co  Co117  1  -0.00065256  0.50012127  0.49909372  1
  Co  Co118  1  0.12574823  0.87480924  0.37343552  1
  Co  Co119  1  -0.00246899  0.24893812  0.24918037  1
  Co  Co120  1  0.37713968  0.12374849  0.62167590  1
  Co  Co121  1  0.12853017  0.87422743  0.87370549  1
  Co  Co122  1  0.62282880  0.62443295  0.37482384  1
  Co  Co123  1  0.50135511  0.75297007  0.50179982  1
  Co  Co124  1  0.49909217  0.49996456  0.24782748  1
  Co  Co125  1  0.24792513  0.49878632  0.50129723  1
  Co  Co126  1  0.61915154  0.87863849  0.12854194  1
  Co  Co127  1  0.62370859  0.37296324  0.12484109  1
