# generated using pymatgen
data_Fe45Co19
_symmetry_space_group_name_H-M   'P 1'
_cell_length_a   11.41513521
_cell_length_b   11.41591163
_cell_length_c   11.41524646
_cell_angle_alpha   90.00832880
_cell_angle_beta   90.00346275
_cell_angle_gamma   90.00297684
_symmetry_Int_Tables_number   1
_chemical_formula_structural   Fe45Co19
_chemical_formula_sum   'Fe90 Co38'
_cell_volume   1487.56840295
_cell_formula_units_Z   2
loop_
 _symmetry_equiv_pos_site_id
 _symmetry_equiv_pos_as_xyz
  1  'x, y, z'
loop_
 _atom_site_type_symbol
 _atom_site_label
 _atom_site_symmetry_multiplicity
 _atom_site_fract_x
 _atom_site_fract_y
 _atom_site_fract_z
 _atom_site_occupancy
  Fe  Fe0  1  0.74977077  -0.00148318  0.25238343  1
  Fe  Fe1  1  0.87450690  0.87581607  0.87633159  1
  Fe  Fe2  1  0.37552536  0.37526053  0.62510441  1
  Fe  Fe3  1  0.00144023  0.00042862  0.49874650  1
  Fe  Fe4  1  0.74843764  0.25328980  0.25242185  1
  Fe  Fe5  1  0.87351616  0.12658657  0.62433748  1
  Fe  Fe6  1  0.74698699  0.49699695  0.25089720  1
  Fe  Fe7  1  0.50046581  0.00075558  0.75049853  1
  Fe  Fe8  1  0.25041400  0.49991104  0.49794721  1
  Fe  Fe9  1  0.74932315  0.74937913  -0.00033485  1
  Fe  Fe10  1  0.25097529  0.00126845  -0.00039140  1
  Fe  Fe11  1  0.25026603  0.49943646  0.75358760  1
  Fe  Fe12  1  0.62752014  0.12604166  0.12522232  1
  Fe  Fe13  1  0.62779071  0.12845495  0.87545755  1
  Fe  Fe14  1  0.87147673  0.62445056  0.12608301  1
  Fe  Fe15  1  -0.00050145  0.49917141  0.25112037  1
  Fe  Fe16  1  0.62586811  0.87571053  0.12569661  1
  Fe  Fe17  1  -0.00034345  0.74893903  0.00091781  1
  Fe  Fe18  1  -0.00446708  0.24608513  0.00327331  1
  Fe  Fe19  1  0.37566492  0.62301568  0.62654230  1
  Fe  Fe20  1  -0.00059306  -0.00186648  0.74846675  1
  Fe  Fe21  1  0.37746548  0.62553337  0.87605413  1
  Fe  Fe22  1  0.12585797  0.62432334  0.62523430  1
  Fe  Fe23  1  -0.00163135  0.50037196  0.75270542  1
  Fe  Fe24  1  0.74957279  -0.00084825  0.75060662  1
  Fe  Fe25  1  -0.00115877  0.74972938  0.74996758  1
  Fe  Fe26  1  0.12504343  0.12397582  0.12625993  1
  Fe  Fe27  1  0.62657112  0.37363667  0.62385816  1
  Fe  Fe28  1  0.87206873  0.87306512  0.62153997  1
  Fe  Fe29  1  0.62145265  0.12419619  0.37358167  1
  Fe  Fe30  1  0.12733242  0.87455223  0.62038459  1
  Fe  Fe31  1  0.12370651  0.12566874  0.87508099  1
  Fe  Fe32  1  0.37453970  0.62652498  0.37217716  1
  Fe  Fe33  1  0.62312009  0.87345299  0.87511758  1
  Fe  Fe34  1  0.49965197  0.50066975  0.49947723  1
  Fe  Fe35  1  0.74955320  0.00113452  0.49787689  1
  Fe  Fe36  1  0.37730746  0.87425105  0.87507294  1
  Fe  Fe37  1  0.37607467  0.12551772  0.12807742  1
  Fe  Fe38  1  0.62558640  0.62751226  0.87432187  1
  Fe  Fe39  1  0.37492971  0.12476830  0.62465288  1
  Fe  Fe40  1  0.62449925  0.87456337  0.62354944  1
  Fe  Fe41  1  -0.00058597  -0.00098922  0.25210145  1
  Fe  Fe42  1  0.37778900  0.37461529  0.12417199  1
  Fe  Fe43  1  0.25081876  -0.00114728  0.25468196  1
  Fe  Fe44  1  0.24977781  0.25045353  0.49938886  1
  Fe  Fe45  1  0.12168079  0.37395188  0.37475378  1
  Fe  Fe46  1  0.62741962  0.37055246  0.87891178  1
  Fe  Fe47  1  0.24782841  0.25299389  0.24732867  1
  Fe  Fe48  1  0.12404374  0.12747607  0.37488634  1
  Fe  Fe49  1  0.49992889  0.75042183  0.50071416  1
  Fe  Fe50  1  0.25204553  0.74975999  0.74926082  1
  Fe  Fe51  1  0.12512440  0.62223108  0.12355067  1
  Fe  Fe52  1  0.87333693  0.37319289  0.62144349  1
  Fe  Fe53  1  0.87364000  0.37638063  0.12468611  1
  Fe  Fe54  1  0.74997274  0.75154345  0.25288090  1
  Fe  Fe55  1  0.62670437  0.62489258  0.62651034  1
  Fe  Fe56  1  0.87696423  0.12954479  0.37443469  1
  Fe  Fe57  1  -0.00193819  0.50152066  0.49835460  1
  Fe  Fe58  1  0.12667137  0.12473093  0.62457647  1
  Fe  Fe59  1  0.50161593  0.00106939  0.00215923  1
  Fe  Fe60  1  0.50472334  0.50186251  0.00357772  1
  Fe  Fe61  1  0.12518943  0.87431894  0.87634608  1
  Fe  Fe62  1  0.87538952  0.87256835  0.37763117  1
  Fe  Fe63  1  0.12519528  0.37650968  0.62498352  1
  Fe  Fe64  1  0.75121655  0.49931877  0.49586217  1
  Fe  Fe65  1  0.49482287  -0.00189072  0.49535266  1
  Fe  Fe66  1  0.24966911  0.49853189  0.24817117  1
  Fe  Fe67  1  0.75126145  0.49817993  0.75345006  1
  Fe  Fe68  1  0.62492070  0.12627226  0.62541870  1
  Fe  Fe69  1  0.87225390  0.62672562  0.62516667  1
  Fe  Fe70  1  0.00041097  0.75036663  0.24991755  1
  Fe  Fe71  1  0.62439434  0.62395515  0.37306242  1
  Fe  Fe72  1  -0.00300208  0.25119969  0.75005325  1
  Fe  Fe73  1  0.12593838  0.62791049  0.37529127  1
  Fe  Fe74  1  0.87337292  0.87682441  0.12455507  1
  Fe  Fe75  1  -0.00257605  0.50316957  -0.00251980  1
  Fe  Fe76  1  0.37670541  0.62496829  0.12585488  1
  Fe  Fe77  1  0.25023886  0.74865387  0.00166754  1
  Fe  Fe78  1  0.12498052  0.37438040  0.87959769  1
  Fe  Fe79  1  0.50172690  0.75147173  0.24934726  1
  Fe  Fe80  1  0.25022111  -0.00052164  0.74983599  1
  Fe  Fe81  1  0.50212436  0.49731968  0.75109683  1
  Fe  Fe82  1  0.25128691  0.25129127  0.75157418  1
  Fe  Fe83  1  -0.00277924  0.00220818  0.00149469  1
  Fe  Fe84  1  0.37611166  0.12638006  0.87510798  1
  Fe  Fe85  1  0.50073197  0.25060358  0.49989066  1
  Fe  Fe86  1  0.37649300  0.37395551  0.87880430  1
  Fe  Fe87  1  0.37862850  0.37419430  0.37295389  1
  Fe  Fe88  1  0.12519449  0.87730552  0.12563617  1
  Fe  Fe89  1  0.37481347  0.87528942  0.12649912  1
  Co  Co90  1  0.74753649  0.74853543  0.49754525  1
  Co  Co91  1  0.12628464  0.87155074  0.37647256  1
  Co  Co92  1  0.87445858  0.12186067  0.87245436  1
  Co  Co93  1  0.37276008  0.87042848  0.37189311  1
  Co  Co94  1  0.75617343  0.24809548  0.00103438  1
  Co  Co95  1  0.50149948  0.50018478  0.24676094  1
  Co  Co96  1  0.25236302  0.50174131  0.00081795  1
  Co  Co97  1  0.49968553  0.24703159  0.00135169  1
  Co  Co98  1  0.87088940  0.12229778  0.12956271  1
  Co  Co99  1  0.12279239  0.37720756  0.11988610  1
  Co  Co100  1  0.37625643  0.12926931  0.37231360  1
  Co  Co101  1  0.62058892  0.37715159  0.37622125  1
  Co  Co102  1  0.24693025  0.74859126  0.24548129  1
  Co  Co103  1  0.00026613  0.25108353  0.24478186  1
  Co  Co104  1  0.87488758  0.37556527  0.87828301  1
  Co  Co105  1  0.74684961  0.24931605  0.49633398  1
  Co  Co106  1  0.62824070  0.62733646  0.12790243  1
  Co  Co107  1  0.25318725  0.74917523  0.50275848  1
  Co  Co108  1  0.25065959  0.24812979  0.00217069  1
  Co  Co109  1  0.74870092  -0.00021103  -0.00106544  1
  Co  Co110  1  0.62572097  0.37176592  0.12155422  1
  Co  Co111  1  0.87307443  0.62673634  0.87485504  1
  Co  Co112  1  0.74732078  0.50201335  -0.00005266  1
  Co  Co113  1  0.12582291  0.62580728  0.87503258  1
  Co  Co114  1  0.74976029  0.75226859  0.75060573  1
  Co  Co115  1  0.49951428  -0.00154786  0.24931675  1
  Co  Co116  1  0.50335596  0.25108552  0.24854447  1
  Co  Co117  1  0.87754674  0.37216017  0.37554149  1
  Co  Co118  1  0.87357868  0.62531605  0.37253384  1
  Co  Co119  1  0.75237188  0.25096685  0.74972586  1
  Co  Co120  1  0.50099825  0.75010694  0.00288758  1
  Co  Co121  1  0.25212524  0.00073182  0.49589642  1
  Co  Co122  1  0.00126645  0.24992667  0.50244192  1
  Co  Co123  1  0.50014815  0.25124739  0.74948000  1
  Co  Co124  1  0.49991167  0.74947276  0.74723907  1
  Co  Co125  1  -0.00138645  0.74723211  0.49979082  1
  Co  Co126  1  0.62389491  0.87585370  0.37528452  1
  Co  Co127  1  0.37588018  0.87774894  0.62597860  1
