# generated using pymatgen
data_Fe45Co19
_symmetry_space_group_name_H-M   'P 1'
_cell_length_a   11.41697773
_cell_length_b   11.41452858
_cell_length_c   11.41502071
_cell_angle_alpha   89.99787239
_cell_angle_beta   90.00770749
_cell_angle_gamma   90.00161860
_symmetry_Int_Tables_number   1
_chemical_formula_structural   Fe45Co19
_chemical_formula_sum   'Fe90 Co38'
_cell_volume   1487.59884791
_cell_formula_units_Z   2
loop_
 _symmetry_equiv_pos_site_id
 _symmetry_equiv_pos_as_xyz
  1  'x, y, z'
loop_
 _atom_site_type_symbol
 _atom_site_label
 _atom_site_symmetry_multiplicity
 _atom_site_fract_x
 _atom_site_fract_y
 _atom_site_fract_z
 _atom_site_occupancy
  Fe  Fe0  1  -0.00212417  0.50254157  -0.00085721  1
  Fe  Fe1  1  -0.00296191  0.49765664  0.49859721  1
  Fe  Fe2  1  0.87535933  0.87455549  0.12524432  1
  Fe  Fe3  1  0.12671193  0.62571026  0.87253314  1
  Fe  Fe4  1  0.87394705  0.87387256  0.87438921  1
  Fe  Fe5  1  0.12497786  0.37778549  0.12442498  1
  Fe  Fe6  1  0.87489303  0.62470323  0.62652944  1
  Fe  Fe7  1  0.87572550  0.37125869  0.62933704  1
  Fe  Fe8  1  0.87471904  0.62564356  0.37202007  1
  Fe  Fe9  1  0.49994757  0.25076656  0.75176463  1
  Fe  Fe10  1  0.37546798  0.12479940  0.12446088  1
  Fe  Fe11  1  0.49958318  -0.00044987  0.50053694  1
  Fe  Fe12  1  0.74973173  0.74969920  0.50131913  1
  Fe  Fe13  1  0.87633968  0.87723848  0.62480627  1
  Fe  Fe14  1  0.37571913  0.12629800  0.37551896  1
  Fe  Fe15  1  0.62413157  0.37667104  0.12117032  1
  Fe  Fe16  1  0.62391099  0.12542287  0.12181965  1
  Fe  Fe17  1  0.74680743  0.25177216  -0.00687810  1
  Fe  Fe18  1  0.87407078  0.12663801  0.12417124  1
  Fe  Fe19  1  0.25022709  0.24892092  0.50198947  1
  Fe  Fe20  1  0.25180929  0.50363677  -0.00004326  1
  Fe  Fe21  1  -0.00081017  0.00099008  -0.00242155  1
  Fe  Fe22  1  0.49816814  0.50617010  0.74874076  1
  Fe  Fe23  1  0.25113634  -0.00210580  0.00015308  1
  Fe  Fe24  1  0.49740558  0.50761105  0.00186757  1
  Fe  Fe25  1  0.12382367  0.87679615  0.62390150  1
  Fe  Fe26  1  0.62633316  0.62825741  0.87320380  1
  Fe  Fe27  1  0.25009056  0.24988802  -0.00066269  1
  Fe  Fe28  1  0.75041187  0.74847602  0.00106572  1
  Fe  Fe29  1  0.49891174  -0.00065885  0.24921317  1
  Fe  Fe30  1  0.00258670  0.24687295  -0.00353273  1
  Fe  Fe31  1  0.75042043  0.00150445  0.49994848  1
  Fe  Fe32  1  0.50032951  -0.00332571  -0.00233578  1
  Fe  Fe33  1  0.12680764  0.12691272  0.62894663  1
  Fe  Fe34  1  0.12643252  0.37526801  0.87434264  1
  Fe  Fe35  1  0.25247335  -0.00162325  0.74975535  1
  Fe  Fe36  1  0.87517697  0.87454828  0.37619280  1
  Fe  Fe37  1  0.00241634  0.74935677  0.00081312  1
  Fe  Fe38  1  0.37359919  0.62546046  0.37457386  1
  Fe  Fe39  1  0.37509763  0.37692083  0.12431278  1
  Fe  Fe40  1  0.62559820  0.87535625  0.37482002  1
  Fe  Fe41  1  0.24659361  0.75284389  0.24809837  1
  Fe  Fe42  1  0.62375667  0.12587887  0.37507685  1
  Fe  Fe43  1  0.62596043  0.87449558  0.12445604  1
  Fe  Fe44  1  0.37394479  0.86528027  0.87655559  1
  Fe  Fe45  1  0.49911505  0.50105724  0.24857645  1
  Fe  Fe46  1  0.12558121  0.11913589  0.12828251  1
  Fe  Fe47  1  0.37502808  0.12545468  0.87523906  1
  Fe  Fe48  1  0.00043158  0.75012451  0.74928357  1
  Fe  Fe49  1  0.25219035  0.50280593  0.74775774  1
  Fe  Fe50  1  0.75009509  0.25103886  0.50113994  1
  Fe  Fe51  1  0.12394640  0.62324964  0.37433340  1
  Fe  Fe52  1  0.00134297  0.00453598  0.49755005  1
  Fe  Fe53  1  0.37662057  0.37495649  0.62393174  1
  Fe  Fe54  1  0.87558173  0.37347032  0.12302192  1
  Fe  Fe55  1  0.37473318  0.87145728  0.12312792  1
  Fe  Fe56  1  0.00071830  0.00210964  0.75331702  1
  Fe  Fe57  1  0.62482790  0.37596990  0.62634633  1
  Fe  Fe58  1  0.37466976  0.87258160  0.37692946  1
  Fe  Fe59  1  0.75255060  0.49879105  0.49950249  1
  Fe  Fe60  1  0.74731749  -0.00107331  0.75231841  1
  Fe  Fe61  1  0.87405898  0.12755768  0.63003117  1
  Fe  Fe62  1  0.50106345  0.50240710  0.50019889  1
  Fe  Fe63  1  0.37626418  0.37420629  0.37572390  1
  Fe  Fe64  1  0.37588923  0.87113830  0.62345597  1
  Fe  Fe65  1  0.62295215  0.12612549  0.62655058  1
  Fe  Fe66  1  0.12504307  0.62157910  0.12811758  1
  Fe  Fe67  1  -0.00136384  0.50000635  0.75210127  1
  Fe  Fe68  1  0.62410821  0.87195866  0.62537351  1
  Fe  Fe69  1  0.62593094  0.37447894  0.37496746  1
  Fe  Fe70  1  0.12721535  0.87424985  0.87545266  1
  Fe  Fe71  1  0.00116740  0.75242408  0.24910171  1
  Fe  Fe72  1  0.75259744  0.50182406  -0.00234694  1
  Fe  Fe73  1  0.87641794  0.13092544  0.37245298  1
  Fe  Fe74  1  0.24615493  0.74821490  0.50275479  1
  Fe  Fe75  1  0.24958486  0.00219741  0.49943978  1
  Fe  Fe76  1  0.12157156  0.37226444  0.37503778  1
  Fe  Fe77  1  0.62734098  0.62486580  0.37357158  1
  Fe  Fe78  1  0.24917193  0.49984555  0.50055431  1
  Fe  Fe79  1  0.12331329  0.37397335  0.62736381  1
  Fe  Fe80  1  0.75133840  0.00091302  0.25012453  1
  Fe  Fe81  1  0.24911989  0.25125364  0.24852611  1
  Fe  Fe82  1  0.74857990  -0.00069064  -0.00302422  1
  Fe  Fe83  1  0.50179095  0.25124036  0.24801548  1
  Fe  Fe84  1  0.75363966  0.49776353  0.24878489  1
  Fe  Fe85  1  0.75113324  0.49919017  0.75290311  1
  Fe  Fe86  1  0.00067071  0.74923769  0.50125309  1
  Fe  Fe87  1  0.49917044  -0.00392898  0.75192032  1
  Fe  Fe88  1  0.37665827  0.37720970  0.87621100  1
  Fe  Fe89  1  0.50217735  0.74843619  0.24814211  1
  Co  Co90  1  0.50214932  0.74554494  0.00350541  1
  Co  Co91  1  0.49885070  0.74719623  0.74846615  1
  Co  Co92  1  0.74961880  0.75217380  0.25000274  1
  Co  Co93  1  0.24463808  0.74821105  0.00417885  1
  Co  Co94  1  0.37709276  0.12521135  0.62595111  1
  Co  Co95  1  0.25281836  0.25203402  0.75112519  1
  Co  Co96  1  0.74646109  0.25077129  0.24782535  1
  Co  Co97  1  0.87553355  0.62776405  0.87424502  1
  Co  Co98  1  0.37528410  0.62682743  0.62077008  1
  Co  Co99  1  0.62491079  0.86996471  0.87533047  1
  Co  Co100  1  0.24753451  0.74842762  0.74496003  1
  Co  Co101  1  0.87201548  0.12488261  0.87377808  1
  Co  Co102  1  0.00245012  0.25122436  0.24521833  1
  Co  Co103  1  0.24934332  0.49707818  0.25248628  1
  Co  Co104  1  0.37067049  0.62593693  0.12852781  1
  Co  Co105  1  0.00222088  0.24778450  0.75513596  1
  Co  Co106  1  0.75238789  0.75144084  0.74748279  1
  Co  Co107  1  0.62940400  0.62367010  0.12668929  1
  Co  Co108  1  0.87588903  0.62619174  0.12677378  1
  Co  Co109  1  0.49860463  0.25107172  -0.00036110  1
  Co  Co110  1  0.12343540  0.88073859  0.12494063  1
  Co  Co111  1  0.62781217  0.62461985  0.62516358  1
  Co  Co112  1  0.50346123  0.74776777  0.49911970  1
  Co  Co113  1  0.87825496  0.37361428  0.87564380  1
  Co  Co114  1  0.74601206  0.25204939  0.75482265  1
  Co  Co115  1  0.12487969  0.87678461  0.37648973  1
  Co  Co116  1  0.25381569  -0.00274195  0.25130185  1
  Co  Co117  1  0.12167071  0.62127780  0.62486457  1
  Co  Co118  1  -0.00398761  -0.00101737  0.25271851  1
  Co  Co119  1  0.62149372  0.12372956  0.87536006  1
  Co  Co120  1  0.12624334  0.12547844  0.37133711  1
  Co  Co121  1  0.87569607  0.37004262  0.37276878  1
  Co  Co122  1  0.13035977  0.12299522  0.87457930  1
  Co  Co123  1  -0.00238379  0.49759321  0.25065576  1
  Co  Co124  1  -0.00006205  0.24859595  0.50287049  1
  Co  Co125  1  0.61918653  0.38051980  0.87600936  1
  Co  Co126  1  0.37180014  0.63062178  0.87542083  1
  Co  Co127  1  0.50126402  0.25107422  0.50048466  1
