# generated using pymatgen
data_Fe45Co19
_symmetry_space_group_name_H-M   'P 1'
_cell_length_a   11.41488833
_cell_length_b   11.41478038
_cell_length_c   11.41459150
_cell_angle_alpha   90.01368359
_cell_angle_beta   90.00536806
_cell_angle_gamma   90.00285708
_symmetry_Int_Tables_number   1
_chemical_formula_structural   Fe45Co19
_chemical_formula_sum   'Fe90 Co38'
_cell_volume   1487.30345311
_cell_formula_units_Z   2
loop_
 _symmetry_equiv_pos_site_id
 _symmetry_equiv_pos_as_xyz
  1  'x, y, z'
loop_
 _atom_site_type_symbol
 _atom_site_label
 _atom_site_symmetry_multiplicity
 _atom_site_fract_x
 _atom_site_fract_y
 _atom_site_fract_z
 _atom_site_occupancy
  Fe  Fe0  1  0.62430742  0.12593642  0.62745426  1
  Fe  Fe1  1  0.49925444  0.50059239  0.50170438  1
  Fe  Fe2  1  -0.00038033  0.00063796  0.74948613  1
  Fe  Fe3  1  0.12307783  0.12468841  0.37631545  1
  Fe  Fe4  1  0.37538078  0.12593032  0.62749325  1
  Fe  Fe5  1  -0.00167673  0.50151235  0.75070184  1
  Fe  Fe6  1  0.00030172  0.24827368  0.00087056  1
  Fe  Fe7  1  0.12526743  0.37452258  0.12594807  1
  Fe  Fe8  1  0.74880993  0.50029622  0.25025853  1
  Fe  Fe9  1  0.12500510  0.37263683  0.87544773  1
  Fe  Fe10  1  0.87636638  0.87453828  0.87430507  1
  Fe  Fe11  1  0.12830060  0.62617986  0.62536899  1
  Fe  Fe12  1  0.74976376  0.24778446  -0.00247744  1
  Fe  Fe13  1  0.62568670  0.37490614  0.87420785  1
  Fe  Fe14  1  0.49778476  0.49860912  0.75113245  1
  Fe  Fe15  1  0.25525350  0.75327080  0.75234617  1
  Fe  Fe16  1  0.12794209  0.62610278  0.12237526  1
  Fe  Fe17  1  0.62761982  0.12542277  0.12651203  1
  Fe  Fe18  1  0.75150222  0.75048855  0.25107900  1
  Fe  Fe19  1  0.12674763  0.12564663  0.87382091  1
  Fe  Fe20  1  0.00103342  -0.00040813  -0.00038201  1
  Fe  Fe21  1  0.00067589  0.24962082  0.74776194  1
  Fe  Fe22  1  0.12763274  0.62810343  0.87573920  1
  Fe  Fe23  1  0.75046623  0.74961196  0.75120708  1
  Fe  Fe24  1  0.75097003  0.25136153  0.74957593  1
  Fe  Fe25  1  0.37339473  0.12393925  0.12434028  1
  Fe  Fe26  1  0.87579494  0.37486480  0.87596995  1
  Fe  Fe27  1  0.24861691  -0.00382118  -0.00251747  1
  Fe  Fe28  1  0.75247413  0.75390351  0.49797272  1
  Fe  Fe29  1  0.49888318  0.00073953  0.75241905  1
  Fe  Fe30  1  0.25076606  0.50004197  0.24922822  1
  Fe  Fe31  1  0.37627556  0.87589281  0.12268252  1
  Fe  Fe32  1  -0.00196523  0.74869412  0.74729948  1
  Fe  Fe33  1  0.49943696  0.25042735  0.24709614  1
  Fe  Fe34  1  0.49871330  0.74822467  0.50168515  1
  Fe  Fe35  1  0.11932820  0.87190887  0.37183969  1
  Fe  Fe36  1  0.62466829  0.12511472  0.37448357  1
  Fe  Fe37  1  0.12534362  0.87440041  0.62592793  1
  Fe  Fe38  1  0.87195942  0.62531116  0.12232798  1
  Fe  Fe39  1  0.49750112  0.74935223  0.74945700  1
  Fe  Fe40  1  0.25007699  -0.00103510  0.49891020  1
  Fe  Fe41  1  -0.00295880  -0.00303477  0.50053264  1
  Fe  Fe42  1  0.87729617  0.87606943  0.12764123  1
  Fe  Fe43  1  -0.00108374  0.50167816  0.50040655  1
  Fe  Fe44  1  0.49869390  0.75029637  0.24974171  1
  Fe  Fe45  1  0.12521047  0.37693014  0.62419176  1
  Fe  Fe46  1  0.74882174  0.25207700  0.50124961  1
  Fe  Fe47  1  0.87168372  0.37485260  0.12402924  1
  Fe  Fe48  1  0.25172799  0.75000891  0.24880933  1
  Fe  Fe49  1  0.50188602  0.00014555  0.50011165  1
  Fe  Fe50  1  -0.00188882  0.24809486  0.24990764  1
  Fe  Fe51  1  0.75011333  -0.00092202  -0.00228383  1
  Fe  Fe52  1  0.62571973  0.87574318  0.62468752  1
  Fe  Fe53  1  0.74450363  0.50294755  -0.00110686  1
  Fe  Fe54  1  0.37845019  0.87575286  0.37572826  1
  Fe  Fe55  1  0.37246902  0.37306515  0.87868778  1
  Fe  Fe56  1  0.25100130  0.25023759  0.24965925  1
  Fe  Fe57  1  0.87126133  0.62216088  0.62298820  1
  Fe  Fe58  1  0.12270727  0.62732025  0.37527317  1
  Fe  Fe59  1  0.87267175  0.12496178  0.12565157  1
  Fe  Fe60  1  0.87504241  0.37504605  0.37520506  1
  Fe  Fe61  1  0.00066739  0.25032968  0.50182063  1
  Fe  Fe62  1  0.50254806  0.74584329  -0.00174214  1
  Fe  Fe63  1  0.50011420  0.25215648  0.50285437  1
  Fe  Fe64  1  0.25233132  -0.00172230  0.75151825  1
  Fe  Fe65  1  0.62440904  0.37459325  0.37406583  1
  Fe  Fe66  1  0.37466466  0.62188992  0.12054713  1
  Fe  Fe67  1  0.62499993  0.62584740  0.37474210  1
  Fe  Fe68  1  0.87364849  0.12407482  0.62392926  1
  Fe  Fe69  1  0.62747810  0.62155842  0.62646503  1
  Fe  Fe70  1  0.37688954  0.12468983  0.37430528  1
  Fe  Fe71  1  0.12493803  0.37567478  0.37434652  1
  Fe  Fe72  1  0.75007735  -0.00085834  0.25536305  1
  Fe  Fe73  1  0.25121429  0.49851439  0.75137478  1
  Fe  Fe74  1  0.25253589  0.75026529  0.49907197  1
  Fe  Fe75  1  0.25222726  0.50181408  0.49935288  1
  Fe  Fe76  1  0.25021330  -0.00129773  0.25157805  1
  Fe  Fe77  1  0.74936678  0.00078419  0.75161015  1
  Fe  Fe78  1  0.00172204  0.75239088  0.00174578  1
  Fe  Fe79  1  0.62415633  0.87415399  0.87533307  1
  Fe  Fe80  1  0.87327106  0.62645385  0.87769198  1
  Fe  Fe81  1  0.00204842  0.50028463  -0.00032752  1
  Fe  Fe82  1  0.50163272  0.49851809  0.24607921  1
  Fe  Fe83  1  0.50167180  0.00333835  -0.00100231  1
  Fe  Fe84  1  0.50019934  0.24873496  -0.00002507  1
  Fe  Fe85  1  0.12623464  0.12365257  0.12546032  1
  Fe  Fe86  1  -0.00157883  0.50239343  0.24878195  1
  Fe  Fe87  1  0.24965794  0.24922330  0.50235119  1
  Fe  Fe88  1  0.62459662  0.87467656  0.12613155  1
  Fe  Fe89  1  0.37492900  0.37571008  0.37466846  1
  Co  Co90  1  0.37344403  0.62373199  0.87747524  1
  Co  Co91  1  0.37625104  0.87685396  0.62301643  1
  Co  Co92  1  0.62519208  0.62763273  0.12718250  1
  Co  Co93  1  0.24813922  0.25038483  0.74645720  1
  Co  Co94  1  0.24813448  0.24997295  0.00255900  1
  Co  Co95  1  0.37220184  0.12710570  0.87461480  1
  Co  Co96  1  0.74935526  0.49759544  0.49778318  1
  Co  Co97  1  0.74862054  0.75233719  -0.00033004  1
  Co  Co98  1  -0.00256322  0.74976752  0.50524347  1
  Co  Co99  1  0.49899573  0.25286223  0.75178971  1
  Co  Co100  1  0.37695214  0.62365934  0.37319130  1
  Co  Co101  1  0.87516087  0.12613460  0.37854288  1
  Co  Co102  1  0.75060345  0.24960429  0.25276660  1
  Co  Co103  1  0.24659166  0.49810902  -0.00093938  1
  Co  Co104  1  0.62134293  0.87351332  0.37504829  1
  Co  Co105  1  0.62515116  0.37771334  0.62716881  1
  Co  Co106  1  0.62519777  0.62562243  0.87081160  1
  Co  Co107  1  0.62504059  0.12569487  0.87345994  1
  Co  Co108  1  0.87563966  0.62564149  0.37643674  1
  Co  Co109  1  0.37385828  0.37502022  0.62372116  1
  Co  Co110  1  0.87294140  0.87690558  0.62769826  1
  Co  Co111  1  0.24920595  0.75396263  -0.00063558  1
  Co  Co112  1  0.62773961  0.37181911  0.12366325  1
  Co  Co113  1  0.88069401  0.87281892  0.37158478  1
  Co  Co114  1  0.12369066  0.87592056  0.12895658  1
  Co  Co115  1  0.87600068  0.37576169  0.62489024  1
  Co  Co116  1  0.12507348  0.12142804  0.62478595  1
  Co  Co117  1  0.75283673  0.49887617  0.75236781  1
  Co  Co118  1  0.74955954  -0.00232998  0.49713676  1
  Co  Co119  1  0.87625569  0.12482237  0.87418371  1
  Co  Co120  1  0.37340748  0.62429206  0.62648752  1
  Co  Co121  1  -0.00094633  0.74421568  0.24526944  1
  Co  Co122  1  0.12207517  0.87357637  0.87161543  1
  Co  Co123  1  0.37520811  0.37682735  0.12220869  1
  Co  Co124  1  -0.00064533  0.00491579  0.25037096  1
  Co  Co125  1  0.50078937  0.00077154  0.24920828  1
  Co  Co126  1  0.50464873  0.50031679  -0.00055149  1
  Co  Co127  1  0.37960060  0.87479685  0.87818169  1
