# generated using pymatgen
data_Fe45Co19
_symmetry_space_group_name_H-M   'P 1'
_cell_length_a   11.41509773
_cell_length_b   11.41617218
_cell_length_c   11.41518455
_cell_angle_alpha   90.01170192
_cell_angle_beta   89.98913288
_cell_angle_gamma   90.00098937
_symmetry_Int_Tables_number   1
_chemical_formula_structural   Fe45Co19
_chemical_formula_sum   'Fe90 Co38'
_cell_volume   1487.58936437
_cell_formula_units_Z   2
loop_
 _symmetry_equiv_pos_site_id
 _symmetry_equiv_pos_as_xyz
  1  'x, y, z'
loop_
 _atom_site_type_symbol
 _atom_site_label
 _atom_site_symmetry_multiplicity
 _atom_site_fract_x
 _atom_site_fract_y
 _atom_site_fract_z
 _atom_site_occupancy
  Fe  Fe0  1  0.12621612  0.37217604  0.62039995  1
  Fe  Fe1  1  0.74796897  0.25316737  0.25173595  1
  Fe  Fe2  1  0.75159987  0.49948322  0.00057196  1
  Fe  Fe3  1  0.25092855  0.25359038  0.75106654  1
  Fe  Fe4  1  0.62502890  0.87501150  0.87552959  1
  Fe  Fe5  1  0.87759162  0.37025515  0.12191055  1
  Fe  Fe6  1  0.87442982  0.62612037  0.12710821  1
  Fe  Fe7  1  0.49995582  0.24745647  0.50014824  1
  Fe  Fe8  1  0.37097499  0.62547345  0.87656588  1
  Fe  Fe9  1  0.74758148  0.25233594  0.49889204  1
  Fe  Fe10  1  0.12152445  0.87777005  0.12707111  1
  Fe  Fe11  1  0.00090412  0.24880601  0.74747316  1
  Fe  Fe12  1  0.62523755  0.87328600  0.12514239  1
  Fe  Fe13  1  0.87948604  0.37482607  0.87722700  1
  Fe  Fe14  1  0.62478075  0.12443052  0.37381496  1
  Fe  Fe15  1  0.37733740  0.37544302  0.37705747  1
  Fe  Fe16  1  0.37030704  0.12548407  0.62567392  1
  Fe  Fe17  1  0.88060880  0.62257075  0.87247698  1
  Fe  Fe18  1  0.74942401  0.74863330  0.49807563  1
  Fe  Fe19  1  0.12667740  0.62388412  0.62698192  1
  Fe  Fe20  1  0.62270411  0.37701522  0.87653021  1
  Fe  Fe21  1  0.50011287  0.74753582  0.74916875  1
  Fe  Fe22  1  0.50090967  0.74727656  0.50065982  1
  Fe  Fe23  1  0.00044485  0.00574762  0.50380498  1
  Fe  Fe24  1  0.37315146  0.12686486  0.12528449  1
  Fe  Fe25  1  0.62807630  0.12472103  0.87132209  1
  Fe  Fe26  1  0.87677310  0.37214539  0.62122894  1
  Fe  Fe27  1  0.37606963  0.87369465  0.87718525  1
  Fe  Fe28  1  0.75109725  -0.00147775  0.50123698  1
  Fe  Fe29  1  0.12097102  0.37771167  0.87582389  1
  Fe  Fe30  1  0.12586369  0.12208790  0.86968143  1
  Fe  Fe31  1  0.24929859  0.49815845  0.00007651  1
  Fe  Fe32  1  0.49960832  0.25118916  0.74951002  1
  Fe  Fe33  1  0.24680387  0.75198750  0.49781901  1
  Fe  Fe34  1  0.24598828  0.75165152  0.75414743  1
  Fe  Fe35  1  0.49933288  0.00036370  0.24766012  1
  Fe  Fe36  1  0.37483022  0.87717035  0.37486537  1
  Fe  Fe37  1  0.24979084  0.49717184  0.25078945  1
  Fe  Fe38  1  0.88053850  0.87456258  0.37533814  1
  Fe  Fe39  1  0.62743391  0.62148312  0.37490179  1
  Fe  Fe40  1  0.75108240  0.75091814  0.25208465  1
  Fe  Fe41  1  0.49775635  0.50148739  0.00438096  1
  Fe  Fe42  1  0.62309763  0.37721025  0.62330960  1
  Fe  Fe43  1  0.74955536  0.49719047  0.24964777  1
  Fe  Fe44  1  0.75226383  0.49756324  0.74858535  1
  Fe  Fe45  1  0.25069301  0.25041763  0.25277763  1
  Fe  Fe46  1  0.87122427  0.12715914  0.87003466  1
  Fe  Fe47  1  0.12802268  0.62483358  0.12590694  1
  Fe  Fe48  1  0.62608251  0.87364729  0.62567102  1
  Fe  Fe49  1  0.11971054  0.87918868  0.87359914  1
  Fe  Fe50  1  0.37108151  0.62474962  0.37504004  1
  Fe  Fe51  1  -0.00041432  0.50215600  0.24936519  1
  Fe  Fe52  1  0.62599315  0.62397607  0.87408744  1
  Fe  Fe53  1  0.75115000  0.74845097  -0.00158546  1
  Fe  Fe54  1  0.12266898  0.87855856  0.62741253  1
  Fe  Fe55  1  0.87671051  0.37595549  0.37705376  1
  Fe  Fe56  1  0.50026814  0.00058799  0.00115589  1
  Fe  Fe57  1  0.49970783  0.00011041  0.50260031  1
  Fe  Fe58  1  0.37431190  0.12587871  0.87481139  1
  Fe  Fe59  1  0.87516559  0.62649458  0.62468542  1
  Fe  Fe60  1  0.24767308  0.75416859  0.25045140  1
  Fe  Fe61  1  0.12363623  0.37538981  0.37760233  1
  Fe  Fe62  1  0.49912805  0.74688877  0.00346008  1
  Fe  Fe63  1  0.62356564  0.87606013  0.37474409  1
  Fe  Fe64  1  0.12687457  0.12228260  0.37654487  1
  Fe  Fe65  1  0.00074880  0.50291581  0.49934531  1
  Fe  Fe66  1  0.49967454  0.74750518  0.24889476  1
  Fe  Fe67  1  0.12261677  0.37238246  0.12391352  1
  Fe  Fe68  1  0.37404192  0.87260270  0.62521665  1
  Fe  Fe69  1  0.37430422  0.12245470  0.37481526  1
  Fe  Fe70  1  0.87382182  0.12569293  0.37558719  1
  Fe  Fe71  1  0.12524773  0.12563585  0.12614852  1
  Fe  Fe72  1  0.00358311  0.74647597  0.49700949  1
  Fe  Fe73  1  0.25106647  -0.00198162  0.00054729  1
  Fe  Fe74  1  0.75114716  0.00164198  0.00032675  1
  Fe  Fe75  1  0.49674118  0.50285591  0.74707348  1
  Fe  Fe76  1  0.49876707  -0.00076820  0.74964219  1
  Fe  Fe77  1  0.00356223  0.74546446  -0.00114205  1
  Fe  Fe78  1  0.75443981  0.75372662  0.75148678  1
  Fe  Fe79  1  0.49987897  0.25160110  0.00105696  1
  Fe  Fe80  1  0.63009667  0.12346967  0.62851590  1
  Fe  Fe81  1  0.49804897  0.50511571  0.50408421  1
  Fe  Fe82  1  -0.00309543  0.00642953  0.00040604  1
  Fe  Fe83  1  0.25178381  0.49707971  0.74767118  1
  Fe  Fe84  1  0.00046314  0.24778853  0.25209456  1
  Fe  Fe85  1  0.50002074  0.49932297  0.24607754  1
  Fe  Fe86  1  0.75263452  -0.00113689  0.24885673  1
  Fe  Fe87  1  0.62655905  0.12845687  0.12608783  1
  Fe  Fe88  1  0.87840671  0.87454123  0.12475984  1
  Fe  Fe89  1  0.24841888  0.25192473  -0.00238680  1
  Co  Co90  1  0.62954126  0.62635737  0.62705332  1
  Co  Co91  1  0.74886441  0.25784191  0.75030639  1
  Co  Co92  1  -0.00192966  0.00461083  0.25017245  1
  Co  Co93  1  0.49968351  0.25117659  0.25058707  1
  Co  Co94  1  0.25368746  -0.00314972  0.75083251  1
  Co  Co95  1  -0.00001970  0.49684725  0.74441084  1
  Co  Co96  1  0.12057001  0.87902726  0.37312437  1
  Co  Co97  1  0.12411608  0.61957523  0.87210542  1
  Co  Co98  1  0.00038491  0.75083895  0.75120236  1
  Co  Co99  1  0.25115613  0.24935693  0.49649003  1
  Co  Co100  1  0.36907514  0.62919696  0.62584433  1
  Co  Co101  1  0.00152341  0.24502842  -0.00317537  1
  Co  Co102  1  0.86954963  0.12899579  0.62695107  1
  Co  Co103  1  0.62799838  0.62501828  0.12598376  1
  Co  Co104  1  0.00176079  0.74631664  0.25089164  1
  Co  Co105  1  0.00037425  0.50312985  0.00430151  1
  Co  Co106  1  0.12757859  0.62265909  0.37335394  1
  Co  Co107  1  0.37566146  0.37288319  0.62200744  1
  Co  Co108  1  0.37562355  0.87381484  0.12528806  1
  Co  Co109  1  0.25029895  0.49977309  0.50085477  1
  Co  Co110  1  0.24912054  -0.00253522  0.50053347  1
  Co  Co111  1  0.87974555  0.87473370  0.88052974  1
  Co  Co112  1  0.87860569  0.87149524  0.61892579  1
  Co  Co113  1  0.62136647  0.37799270  0.37807118  1
  Co  Co114  1  0.87361094  0.12953381  0.12652956  1
  Co  Co115  1  0.37262090  0.37313828  0.12551338  1
  Co  Co116  1  0.37696756  0.37640937  0.87602798  1
  Co  Co117  1  -0.00664950  0.00186694  0.74626327  1
  Co  Co118  1  0.00100578  0.24549434  0.50024832  1
  Co  Co119  1  0.75464467  -0.00763256  0.74977958  1
  Co  Co120  1  0.36929484  0.62565319  0.12519584  1
  Co  Co121  1  0.62571737  0.37355583  0.12296145  1
  Co  Co122  1  0.87404186  0.62419137  0.37465521  1
  Co  Co123  1  0.24495365  0.75295567  -0.00145166  1
  Co  Co124  1  0.74948315  0.25048892  -0.00243050  1
  Co  Co125  1  0.25002105  -0.00084793  0.24907567  1
  Co  Co126  1  0.75154804  0.49959151  0.50164557  1
  Co  Co127  1  0.13005158  0.12482911  0.62786604  1
