# generated using pymatgen
data_Fe45Co19
_symmetry_space_group_name_H-M   'P 1'
_cell_length_a   11.41341716
_cell_length_b   11.41599011
_cell_length_c   11.41520225
_cell_angle_alpha   89.99853238
_cell_angle_beta   90.00235187
_cell_angle_gamma   89.98756703
_symmetry_Int_Tables_number   1
_chemical_formula_structural   Fe45Co19
_chemical_formula_sum   'Fe90 Co38'
_cell_volume   1487.34896179
_cell_formula_units_Z   2
loop_
 _symmetry_equiv_pos_site_id
 _symmetry_equiv_pos_as_xyz
  1  'x, y, z'
loop_
 _atom_site_type_symbol
 _atom_site_label
 _atom_site_symmetry_multiplicity
 _atom_site_fract_x
 _atom_site_fract_y
 _atom_site_fract_z
 _atom_site_occupancy
  Fe  Fe0  1  0.62367140  0.87551997  0.87192376  1
  Fe  Fe1  1  0.50077627  0.75040812  0.25094308  1
  Fe  Fe2  1  0.25114393  0.50030148  -0.00046089  1
  Fe  Fe3  1  0.74896000  -0.00174280  -0.00114747  1
  Fe  Fe4  1  0.87255474  0.37569013  0.62257984  1
  Fe  Fe5  1  0.87444701  0.12385650  0.37709028  1
  Fe  Fe6  1  0.25352366  0.24515133  0.25381842  1
  Fe  Fe7  1  0.87216326  0.87370889  0.37597422  1
  Fe  Fe8  1  0.25051942  0.00073790  0.75036610  1
  Fe  Fe9  1  -0.00053696  0.50333421  0.74824101  1
  Fe  Fe10  1  0.12438757  0.87392123  0.62739393  1
  Fe  Fe11  1  0.12628591  0.37505451  0.12861999  1
  Fe  Fe12  1  -0.00034283  -0.00079457  0.50125712  1
  Fe  Fe13  1  0.25251506  0.50167325  0.25170850  1
  Fe  Fe14  1  0.13098642  0.37446170  0.62516084  1
  Fe  Fe15  1  0.00017865  0.25139284  0.00174733  1
  Fe  Fe16  1  -0.00042343  0.25049017  0.74876601  1
  Fe  Fe17  1  0.12447743  0.12444826  0.12796311  1
  Fe  Fe18  1  0.50102141  0.75231856  0.49990819  1
  Fe  Fe19  1  0.24992559  0.00135138  0.49654356  1
  Fe  Fe20  1  0.37615723  0.62567659  0.12406103  1
  Fe  Fe21  1  0.49918009  0.49998168  0.50037846  1
  Fe  Fe22  1  0.37348814  0.87492720  0.62346845  1
  Fe  Fe23  1  0.24795496  -0.00161552  0.00165839  1
  Fe  Fe24  1  0.12374589  0.12572523  0.87369173  1
  Fe  Fe25  1  0.37212045  0.62431533  0.62307400  1
  Fe  Fe26  1  0.74934743  -0.00191501  0.25006549  1
  Fe  Fe27  1  0.87765455  0.87437568  0.87336291  1
  Fe  Fe28  1  0.49974989  0.25147452  0.75253501  1
  Fe  Fe29  1  0.49414682  0.49768873  0.75030943  1
  Fe  Fe30  1  0.87281546  0.12697090  0.62323374  1
  Fe  Fe31  1  0.12583681  0.12644081  0.62382084  1
  Fe  Fe32  1  0.87360211  0.12623709  0.12391595  1
  Fe  Fe33  1  0.00095009  0.49835245  0.00263620  1
  Fe  Fe34  1  0.12466329  0.37696271  0.37286161  1
  Fe  Fe35  1  0.62394351  0.12498822  0.12680478  1
  Fe  Fe36  1  0.37428804  0.12849356  0.62159918  1
  Fe  Fe37  1  0.50218764  0.25243289  0.49912301  1
  Fe  Fe38  1  0.87528311  0.12526236  0.87462592  1
  Fe  Fe39  1  0.87461991  0.62721914  0.12298143  1
  Fe  Fe40  1  0.37549857  0.37362203  0.12614666  1
  Fe  Fe41  1  0.75213502  0.50238106  0.74894306  1
  Fe  Fe42  1  0.62372658  0.62605321  0.62643133  1
  Fe  Fe43  1  0.00091988  0.25085814  0.49898178  1
  Fe  Fe44  1  0.62430947  0.37844427  0.37260633  1
  Fe  Fe45  1  0.62547950  0.62536863  0.37457867  1
  Fe  Fe46  1  -0.00238648  0.25146265  0.24944715  1
  Fe  Fe47  1  0.00322225  0.50327837  0.49944913  1
  Fe  Fe48  1  0.49921166  0.75034001  -0.00151822  1
  Fe  Fe49  1  0.24901159  0.24906252  0.00005100  1
  Fe  Fe50  1  0.37602334  0.37414220  0.37624470  1
  Fe  Fe51  1  0.87420469  0.37657715  0.87539081  1
  Fe  Fe52  1  0.50271446  0.25141498  -0.00075411  1
  Fe  Fe53  1  0.62776009  0.12693887  0.62477572  1
  Fe  Fe54  1  0.62286707  0.12130037  0.37462993  1
  Fe  Fe55  1  0.75039750  0.00053925  0.74844420  1
  Fe  Fe56  1  0.12846231  0.62608601  0.87385494  1
  Fe  Fe57  1  0.50151080  -0.00114722  0.00195949  1
  Fe  Fe58  1  0.74884508  0.50198345  0.00130384  1
  Fe  Fe59  1  0.87449075  0.37981583  0.37603758  1
  Fe  Fe60  1  0.25386689  0.00259903  0.25173563  1
  Fe  Fe61  1  -0.00047321  0.74733540  0.25225615  1
  Fe  Fe62  1  0.49866578  0.49933835  -0.00029454  1
  Fe  Fe63  1  0.37357815  0.87483469  0.12487955  1
  Fe  Fe64  1  0.62717371  0.87116920  0.12620187  1
  Fe  Fe65  1  0.75319837  0.74657886  0.75244624  1
  Fe  Fe66  1  0.37627916  0.12450012  0.87770612  1
  Fe  Fe67  1  0.74923521  0.25047232  0.25233841  1
  Fe  Fe68  1  0.00211757  0.74744765  0.49916814  1
  Fe  Fe69  1  0.49921990  0.00005546  0.74805697  1
  Fe  Fe70  1  0.12549720  0.62506816  0.12609034  1
  Fe  Fe71  1  0.62359324  0.37715404  0.12757107  1
  Fe  Fe72  1  0.74821527  0.75002421  0.50025267  1
  Fe  Fe73  1  0.50378175  -0.00493039  0.50114670  1
  Fe  Fe74  1  0.87417831  0.87236207  0.12441033  1
  Fe  Fe75  1  0.49462106  0.75058294  0.75124441  1
  Fe  Fe76  1  0.00240192  0.75095566  -0.00047277  1
  Fe  Fe77  1  0.75098999  0.50388048  0.24827303  1
  Fe  Fe78  1  0.00152304  -0.00099927  0.00086593  1
  Fe  Fe79  1  0.37254689  0.62783337  0.37802942  1
  Fe  Fe80  1  0.62315806  0.62381371  0.87483686  1
  Fe  Fe81  1  -0.00174152  -0.00089770  0.24898747  1
  Fe  Fe82  1  0.74681851  0.25088130  -0.00282267  1
  Fe  Fe83  1  0.12698502  0.37551483  0.87281859  1
  Fe  Fe84  1  0.24962083  0.75026645  0.24971008  1
  Fe  Fe85  1  0.87579391  0.87275225  0.62605342  1
  Fe  Fe86  1  0.12620568  0.87527556  0.37352101  1
  Fe  Fe87  1  0.13026524  0.62571537  0.62561651  1
  Fe  Fe88  1  0.12528858  0.87284927  0.87178610  1
  Fe  Fe89  1  0.62673769  0.37486867  0.62694290  1
  Co  Co90  1  0.87243341  0.37422870  0.12420422  1
  Co  Co91  1  0.74827976  -0.00188317  0.50219554  1
  Co  Co92  1  0.12051481  0.12364894  0.37360415  1
  Co  Co93  1  0.37375965  0.62535656  0.87710556  1
  Co  Co94  1  0.37476556  0.87789956  0.87644718  1
  Co  Co95  1  0.74814759  0.25126650  0.49613656  1
  Co  Co96  1  0.25411323  0.49964616  0.75115262  1
  Co  Co97  1  0.37233708  0.37188646  0.62283432  1
  Co  Co98  1  -0.00203912  0.50236609  0.24787150  1
  Co  Co99  1  0.74537663  0.50059985  0.50161124  1
  Co  Co100  1  0.74968381  0.25017973  0.75210146  1
  Co  Co101  1  0.25165082  0.24842678  0.75109067  1
  Co  Co102  1  0.87395104  0.62478995  0.62010515  1
  Co  Co103  1  0.37536887  0.87420319  0.37531686  1
  Co  Co104  1  0.62626828  0.87103996  0.62927887  1
  Co  Co105  1  0.12762602  0.62505703  0.37428571  1
  Co  Co106  1  0.25092267  0.49863653  0.49811752  1
  Co  Co107  1  -0.00085336  0.74495305  0.74909096  1
  Co  Co108  1  0.25399625  0.75105966  0.75003171  1
  Co  Co109  1  0.24989615  0.75111277  0.00076021  1
  Co  Co110  1  0.24831429  0.75293607  0.50109173  1
  Co  Co111  1  0.24876543  0.24776998  0.49468757  1
  Co  Co112  1  0.37661674  0.12574076  0.12266649  1
  Co  Co113  1  0.49948842  0.25008535  0.24971948  1
  Co  Co114  1  0.87698786  0.62281909  0.87892838  1
  Co  Co115  1  0.62577687  0.37971884  0.87326549  1
  Co  Co116  1  0.74867031  0.75013129  -0.00357951  1
  Co  Co117  1  0.38263374  0.12266635  0.37808299  1
  Co  Co118  1  0.37341320  0.37281973  0.87715435  1
  Co  Co119  1  0.62313964  0.62571949  0.12400734  1
  Co  Co120  1  0.49935218  -0.00308842  0.24740210  1
  Co  Co121  1  0.12510157  0.87522009  0.12860669  1
  Co  Co122  1  0.87323598  0.62301448  0.37797339  1
  Co  Co123  1  -0.00016803  0.00212613  0.74852902  1
  Co  Co124  1  0.75022893  0.74758887  0.25036725  1
  Co  Co125  1  0.62564431  0.87469188  0.37345015  1
  Co  Co126  1  0.49730825  0.50281423  0.25173217  1
  Co  Co127  1  0.62357490  0.12165007  0.87360853  1
