# generated using pymatgen
data_Fe45Co19
_symmetry_space_group_name_H-M   'P 1'
_cell_length_a   11.41447791
_cell_length_b   11.41339894
_cell_length_c   11.41524605
_cell_angle_alpha   90.00320955
_cell_angle_beta   90.00998918
_cell_angle_gamma   90.00646738
_symmetry_Int_Tables_number   1
_chemical_formula_structural   Fe45Co19
_chemical_formula_sum   'Fe90 Co38'
_cell_volume   1487.15527713
_cell_formula_units_Z   2
loop_
 _symmetry_equiv_pos_site_id
 _symmetry_equiv_pos_as_xyz
  1  'x, y, z'
loop_
 _atom_site_type_symbol
 _atom_site_label
 _atom_site_symmetry_multiplicity
 _atom_site_fract_x
 _atom_site_fract_y
 _atom_site_fract_z
 _atom_site_occupancy
  Fe  Fe0  1  0.37245650  0.37714131  0.12555435  1
  Fe  Fe1  1  -0.00534294  0.74764975  -0.00117772  1
  Fe  Fe2  1  0.50196860  -0.00049448  0.50034427  1
  Fe  Fe3  1  0.37234498  0.37456334  0.87507081  1
  Fe  Fe4  1  0.50141458  0.25459306  0.74882042  1
  Fe  Fe5  1  0.62559402  0.87402394  0.87477153  1
  Fe  Fe6  1  0.62351292  0.37801051  0.62152416  1
  Fe  Fe7  1  0.24973759  0.74580799  0.50255556  1
  Fe  Fe8  1  0.74920697  0.25240351  0.74818114  1
  Fe  Fe9  1  0.12610003  0.37596645  0.62536645  1
  Fe  Fe10  1  0.37558559  0.37907065  0.62386643  1
  Fe  Fe11  1  0.87295989  0.87432200  0.12238434  1
  Fe  Fe12  1  0.37567812  0.87398320  0.62363542  1
  Fe  Fe13  1  0.25117869  0.50302399  0.74960758  1
  Fe  Fe14  1  0.12397352  0.62503850  0.87437984  1
  Fe  Fe15  1  -0.00504099  0.25366445  0.24640413  1
  Fe  Fe16  1  0.62459961  0.62295409  0.87202157  1
  Fe  Fe17  1  0.25212262  0.74681196  0.74976380  1
  Fe  Fe18  1  0.37512057  0.62144826  0.12515544  1
  Fe  Fe19  1  0.25010536  0.74856986  0.24917975  1
  Fe  Fe20  1  -0.00107250  0.00050673  -0.00088923  1
  Fe  Fe21  1  0.87421005  0.37483148  0.87654440  1
  Fe  Fe22  1  0.50472207  0.74579692  0.50097995  1
  Fe  Fe23  1  0.37385969  0.37780724  0.37483846  1
  Fe  Fe24  1  0.75069112  0.00120687  0.25194681  1
  Fe  Fe25  1  0.37461967  0.87663123  0.12365005  1
  Fe  Fe26  1  -0.00153517  -0.00170080  0.24966706  1
  Fe  Fe27  1  0.37780372  0.12512950  0.12641700  1
  Fe  Fe28  1  0.87587319  0.37523022  0.62204874  1
  Fe  Fe29  1  -0.00026857  0.49951021  0.00079359  1
  Fe  Fe30  1  -0.00049241  0.25128917  0.74898679  1
  Fe  Fe31  1  0.37463576  0.87281359  0.37599778  1
  Fe  Fe32  1  0.75198090  0.74955784  0.25031092  1
  Fe  Fe33  1  0.37673411  0.12618560  0.37428181  1
  Fe  Fe34  1  0.74971915  0.50148344  -0.00085190  1
  Fe  Fe35  1  0.74940679  0.49750052  0.74993196  1
  Fe  Fe36  1  0.74828881  0.00028563  -0.00057773  1
  Fe  Fe37  1  0.12489580  0.87434773  0.37620856  1
  Fe  Fe38  1  0.50153686  -0.00238971  0.25119215  1
  Fe  Fe39  1  0.12489543  0.62412991  0.37403682  1
  Fe  Fe40  1  0.00027084  0.50122336  0.49908921  1
  Fe  Fe41  1  0.25091934  0.00527559  -0.00261170  1
  Fe  Fe42  1  -0.00238674  0.74625074  0.50174657  1
  Fe  Fe43  1  -0.00359128  0.74931985  0.75020292  1
  Fe  Fe44  1  0.75139093  0.49384138  0.25371269  1
  Fe  Fe45  1  0.62640522  0.87455282  0.12502571  1
  Fe  Fe46  1  0.37554664  0.12632846  0.62602827  1
  Fe  Fe47  1  -0.00178467  0.00206974  0.50140037  1
  Fe  Fe48  1  0.12375139  0.37435742  0.37329765  1
  Fe  Fe49  1  0.62649531  0.62172420  0.12868103  1
  Fe  Fe50  1  0.12771210  0.37366303  0.12413409  1
  Fe  Fe51  1  0.87025339  0.87477513  0.62211180  1
  Fe  Fe52  1  0.12515935  0.87421349  0.62536865  1
  Fe  Fe53  1  0.24924033  0.00061068  0.25057374  1
  Fe  Fe54  1  0.75256046  0.25077877  0.00361439  1
  Fe  Fe55  1  0.25015920  0.25171838  0.49977677  1
  Fe  Fe56  1  0.24980076  0.00104597  0.49897976  1
  Fe  Fe57  1  0.75092449  0.74785463  0.74894564  1
  Fe  Fe58  1  0.49960616  0.25260380  0.00035435  1
  Fe  Fe59  1  0.75008331  0.00166785  0.74896570  1
  Fe  Fe60  1  0.12578295  0.87496139  0.12292378  1
  Fe  Fe61  1  0.37724038  0.87558238  0.87722654  1
  Fe  Fe62  1  0.62755620  0.87344414  0.37804655  1
  Fe  Fe63  1  0.12747132  0.37165644  0.87665193  1
  Fe  Fe64  1  0.49905198  0.74827399  0.25031187  1
  Fe  Fe65  1  0.75113138  0.50400027  0.49793190  1
  Fe  Fe66  1  0.50177599  0.50425139  0.49539594  1
  Fe  Fe67  1  -0.00071962  0.49926776  0.75074834  1
  Fe  Fe68  1  0.49955192  0.74800274  0.74794080  1
  Fe  Fe69  1  0.12330893  0.12779788  0.12463248  1
  Fe  Fe70  1  0.87606699  0.12649860  0.87518477  1
  Fe  Fe71  1  0.75007557  0.25060975  0.49962272  1
  Fe  Fe72  1  0.87333676  0.87318187  0.37870661  1
  Fe  Fe73  1  0.50223443  0.25586962  0.25060449  1
  Fe  Fe74  1  0.62322044  0.12829570  0.87617210  1
  Fe  Fe75  1  0.50133365  0.49866462  -0.00166142  1
  Fe  Fe76  1  0.12421848  0.62376861  0.12503413  1
  Fe  Fe77  1  0.62502640  0.12724820  0.12673253  1
  Fe  Fe78  1  -0.00253984  0.00024418  0.74888630  1
  Fe  Fe79  1  0.50297768  0.74853479  0.00112659  1
  Fe  Fe80  1  0.12318341  0.12722817  0.37376307  1
  Fe  Fe81  1  0.62457822  0.12614894  0.62333754  1
  Fe  Fe82  1  0.25068948  0.74760218  -0.00129760  1
  Fe  Fe83  1  0.62454512  0.12886222  0.37475597  1
  Fe  Fe84  1  0.12575012  0.12627799  0.62652264  1
  Fe  Fe85  1  0.87543321  0.12904756  0.37534131  1
  Fe  Fe86  1  -0.00132589  0.74947221  0.24868463  1
  Fe  Fe87  1  0.25049949  0.00153848  0.75270321  1
  Fe  Fe88  1  0.12398887  0.87481635  0.87486379  1
  Fe  Fe89  1  0.50190980  -0.00057173  0.74946609  1
  Co  Co90  1  0.87554158  0.62432237  0.37200418  1
  Co  Co91  1  0.24834600  0.50113315  0.25017792  1
  Co  Co92  1  0.25137412  0.25012611  0.25088340  1
  Co  Co93  1  0.87557085  0.62208013  0.62695480  1
  Co  Co94  1  0.37348796  0.62522560  0.37509089  1
  Co  Co95  1  0.74896395  0.74647114  -0.00101521  1
  Co  Co96  1  0.75100972  0.25340183  0.24966068  1
  Co  Co97  1  0.62493189  0.37405392  0.37818506  1
  Co  Co98  1  0.24856029  0.50091097  -0.00090968  1
  Co  Co99  1  0.12097513  0.12795848  0.87409227  1
  Co  Co100  1  0.24717415  0.50019458  0.49928044  1
  Co  Co101  1  0.87426738  0.12336058  0.12553776  1
  Co  Co102  1  0.62630170  0.37648530  0.12425114  1
  Co  Co103  1  0.00225937  0.25006854  0.50282078  1
  Co  Co104  1  0.87426150  0.12789447  0.62506103  1
  Co  Co105  1  0.74975802  0.00417788  0.49886163  1
  Co  Co106  1  0.87715470  0.37346415  0.37864991  1
  Co  Co107  1  0.49971471  0.49662392  0.75358445  1
  Co  Co108  1  0.74799205  0.74312964  0.50168504  1
  Co  Co109  1  -0.00269843  0.25229724  0.00131926  1
  Co  Co110  1  0.12328305  0.62432071  0.62692653  1
  Co  Co111  1  0.37778513  0.62162005  0.62409412  1
  Co  Co112  1  0.00072424  0.49833016  0.24927851  1
  Co  Co113  1  0.25084027  0.25043334  0.74871124  1
  Co  Co114  1  0.87287483  0.62234100  0.12728013  1
  Co  Co115  1  0.38024013  0.12693734  0.87291560  1
  Co  Co116  1  0.49803487  0.25114190  0.50076010  1
  Co  Co117  1  0.37680822  0.62416258  0.87652271  1
  Co  Co118  1  0.62827406  0.87528257  0.62385240  1
  Co  Co119  1  0.62750782  0.37354324  0.87724134  1
  Co  Co120  1  0.87315186  0.37949598  0.12321456  1
  Co  Co121  1  0.87277782  0.87580884  0.87588731  1
  Co  Co122  1  0.62721560  0.62479409  0.36972869  1
  Co  Co123  1  0.62387896  0.62029398  0.62911953  1
  Co  Co124  1  0.25181302  0.24615878  -0.00060274  1
  Co  Co125  1  0.49975722  0.49793745  0.25192846  1
  Co  Co126  1  0.87420113  0.62149101  0.87372657  1
  Co  Co127  1  0.50223409  -0.00063066  0.00055872  1
