# generated using pymatgen
data_Fe45Co19
_symmetry_space_group_name_H-M   'P 1'
_cell_length_a   11.41405660
_cell_length_b   11.41486698
_cell_length_c   11.41454290
_cell_angle_alpha   90.00697205
_cell_angle_beta   89.99124415
_cell_angle_gamma   90.00244823
_symmetry_Int_Tables_number   1
_chemical_formula_structural   Fe45Co19
_chemical_formula_sum   'Fe90 Co38'
_cell_volume   1487.20005536
_cell_formula_units_Z   2
loop_
 _symmetry_equiv_pos_site_id
 _symmetry_equiv_pos_as_xyz
  1  'x, y, z'
loop_
 _atom_site_type_symbol
 _atom_site_label
 _atom_site_symmetry_multiplicity
 _atom_site_fract_x
 _atom_site_fract_y
 _atom_site_fract_z
 _atom_site_occupancy
  Fe  Fe0  1  0.62154143  0.12547076  0.37543354  1
  Fe  Fe1  1  0.37288548  0.37531571  0.37624459  1
  Fe  Fe2  1  0.62132704  0.12321421  0.12454273  1
  Fe  Fe3  1  0.00079403  0.25310940  0.00298058  1
  Fe  Fe4  1  0.75329655  0.00100887  -0.00195548  1
  Fe  Fe5  1  0.87807748  0.62125187  0.62407847  1
  Fe  Fe6  1  0.49607138  0.49938601  0.00052781  1
  Fe  Fe7  1  0.75262688  0.49864773  0.00053965  1
  Fe  Fe8  1  0.74829123  0.74699559  0.50215556  1
  Fe  Fe9  1  0.62274149  0.12569559  0.87678291  1
  Fe  Fe10  1  0.25177098  0.25143097  0.74358559  1
  Fe  Fe11  1  0.00260361  0.25444416  0.74505228  1
  Fe  Fe12  1  0.87675962  0.37431988  0.87401425  1
  Fe  Fe13  1  0.00257361  0.74909956  0.74768107  1
  Fe  Fe14  1  0.62344764  0.12438020  0.62365132  1
  Fe  Fe15  1  0.00342667  0.25522904  0.50031919  1
  Fe  Fe16  1  0.12576649  0.12654663  0.87571640  1
  Fe  Fe17  1  0.37496772  0.12651631  0.87454521  1
  Fe  Fe18  1  0.74709940  0.24931400  0.25026012  1
  Fe  Fe19  1  0.25196164  0.50303445  0.25218992  1
  Fe  Fe20  1  0.00012624  0.49798789  0.25179457  1
  Fe  Fe21  1  0.25079373  -0.00032107  0.24930968  1
  Fe  Fe22  1  0.87760371  0.12514794  0.12736819  1
  Fe  Fe23  1  0.37989095  0.63360052  0.37002311  1
  Fe  Fe24  1  0.24997540  -0.00022951  0.75033631  1
  Fe  Fe25  1  0.12482897  0.87469464  0.87454109  1
  Fe  Fe26  1  0.74559104  0.74908626  0.24650664  1
  Fe  Fe27  1  0.87525432  0.87480109  0.12601414  1
  Fe  Fe28  1  0.74615816  0.50006163  0.25234931  1
  Fe  Fe29  1  0.37344266  0.37476067  0.87425873  1
  Fe  Fe30  1  0.12507621  0.87875771  0.37753313  1
  Fe  Fe31  1  0.12290218  0.62340954  0.12489525  1
  Fe  Fe32  1  0.49470878  -0.00207148  0.00181110  1
  Fe  Fe33  1  0.25006470  0.24831752  0.24984880  1
  Fe  Fe34  1  0.37587440  0.62794593  0.12838898  1
  Fe  Fe35  1  0.75089447  0.50054812  0.75073393  1
  Fe  Fe36  1  0.25238068  0.24830603  0.00316402  1
  Fe  Fe37  1  0.49726343  -0.00638988  0.24896229  1
  Fe  Fe38  1  0.00291664  0.75141436  0.25016625  1
  Fe  Fe39  1  0.75071368  0.00080859  0.75065020  1
  Fe  Fe40  1  0.62598479  0.87487613  0.87584599  1
  Fe  Fe41  1  0.12159737  0.62347451  0.87546327  1
  Fe  Fe42  1  0.37318182  0.87182762  0.62769997  1
  Fe  Fe43  1  0.62349121  0.37451468  0.87606848  1
  Fe  Fe44  1  0.49941598  0.50452106  0.49735116  1
  Fe  Fe45  1  0.74794935  0.50070408  0.49745344  1
  Fe  Fe46  1  0.62258910  0.37677963  0.12554210  1
  Fe  Fe47  1  0.00026176  -0.00092979  0.00031335  1
  Fe  Fe48  1  0.49755977  0.25253386  0.24838646  1
  Fe  Fe49  1  0.37535121  0.62817184  0.62816853  1
  Fe  Fe50  1  0.87751058  0.12539124  0.37515387  1
  Fe  Fe51  1  0.49621721  0.24962657  0.50215781  1
  Fe  Fe52  1  0.49845683  0.25062566  0.74840812  1
  Fe  Fe53  1  0.12724568  0.37531148  0.87398873  1
  Fe  Fe54  1  0.74974548  0.74834651  0.75079330  1
  Fe  Fe55  1  0.25022630  0.50347083  0.74949331  1
  Fe  Fe56  1  0.87246704  0.37312947  0.37475335  1
  Fe  Fe57  1  0.12297720  0.62156182  0.37860852  1
  Fe  Fe58  1  0.37374223  0.12403133  0.37588610  1
  Fe  Fe59  1  0.12613707  0.12270831  0.37774454  1
  Fe  Fe60  1  0.50067408  0.75047530  0.00233346  1
  Fe  Fe61  1  0.87722207  0.12689029  0.87403990  1
  Fe  Fe62  1  0.74982946  0.25057110  0.00185294  1
  Fe  Fe63  1  0.37253080  0.87082915  0.87400410  1
  Fe  Fe64  1  0.12812295  0.12211642  0.62098340  1
  Fe  Fe65  1  0.00325092  0.25159477  0.25065986  1
  Fe  Fe66  1  0.00049007  0.00014133  0.74823247  1
  Fe  Fe67  1  0.12801298  0.87650704  0.12385794  1
  Fe  Fe68  1  0.87477697  0.87391807  0.37444695  1
  Fe  Fe69  1  0.87542620  0.87508740  0.62554556  1
  Fe  Fe70  1  0.87478109  0.62628993  0.37392703  1
  Fe  Fe71  1  0.24852095  0.74745101  -0.00144106  1
  Fe  Fe72  1  0.87973590  0.62517526  0.87698702  1
  Fe  Fe73  1  0.12763509  0.37644322  0.12705557  1
  Fe  Fe74  1  0.87488018  0.12706596  0.62300790  1
  Fe  Fe75  1  0.74948900  0.00022220  0.25216713  1
  Fe  Fe76  1  0.24862482  0.74967254  0.50009934  1
  Fe  Fe77  1  0.49918237  0.50161952  0.75101402  1
  Fe  Fe78  1  0.75106201  0.74981272  0.00038883  1
  Fe  Fe79  1  0.62432969  0.37628035  0.62248955  1
  Fe  Fe80  1  0.74891540  0.25055132  0.74866401  1
  Fe  Fe81  1  0.25088090  0.50168897  -0.00008071  1
  Fe  Fe82  1  0.49921634  -0.00115182  0.75039413  1
  Fe  Fe83  1  0.00126297  0.75141925  0.50063806  1
  Fe  Fe84  1  0.49559320  -0.00403747  0.49911444  1
  Fe  Fe85  1  0.62430846  0.87149132  0.37699195  1
  Fe  Fe86  1  0.75057449  0.00152810  0.49876017  1
  Fe  Fe87  1  0.62399363  0.62468019  0.87628184  1
  Fe  Fe88  1  0.87717555  0.62383944  0.12482801  1
  Fe  Fe89  1  0.62475304  0.87361282  0.62554782  1
  Co  Co90  1  0.00145492  0.75211361  0.00176649  1
  Co  Co91  1  0.12679524  0.87634099  0.62445488  1
  Co  Co92  1  0.37226747  0.37721851  0.12644197  1
  Co  Co93  1  0.25185371  0.00147270  -0.00095923  1
  Co  Co94  1  0.12313742  0.62063931  0.62117091  1
  Co  Co95  1  0.24241128  0.74880906  0.25256336  1
  Co  Co96  1  0.62392666  0.61982289  0.12333566  1
  Co  Co97  1  0.37507509  0.86788586  0.37148041  1
  Co  Co98  1  0.25516576  -0.00316672  0.49891708  1
  Co  Co99  1  -0.00252339  -0.00069262  0.50075290  1
  Co  Co100  1  0.49957357  0.49916487  0.25264862  1
  Co  Co101  1  0.00125664  0.49779409  0.75065124  1
  Co  Co102  1  0.87227242  0.37669958  0.62409052  1
  Co  Co103  1  0.74918935  0.24861978  0.49926426  1
  Co  Co104  1  0.36874590  0.87001371  0.12653211  1
  Co  Co105  1  0.50734748  0.75442211  0.24291745  1
  Co  Co106  1  0.87425570  0.37609198  0.12846354  1
  Co  Co107  1  0.37616294  0.62683526  0.87444459  1
  Co  Co108  1  -0.00311337  0.49527974  0.49712506  1
  Co  Co109  1  0.62488272  0.62325886  0.62653455  1
  Co  Co110  1  0.25713122  0.50625822  0.49756521  1
  Co  Co111  1  0.87679877  0.87424563  0.87298855  1
  Co  Co112  1  0.00133584  -0.00184990  0.24979604  1
  Co  Co113  1  0.62228428  0.37300076  0.37754745  1
  Co  Co114  1  0.50027684  0.74956138  0.50349433  1
  Co  Co115  1  0.49732270  0.25194834  0.00098935  1
  Co  Co116  1  0.00078894  0.49604827  0.00045050  1
  Co  Co117  1  0.50292075  0.74958399  0.75176697  1
  Co  Co118  1  0.25113725  0.24972516  0.50264638  1
  Co  Co119  1  0.62847868  0.87995535  0.12105794  1
  Co  Co120  1  0.37552919  0.37948542  0.62387775  1
  Co  Co121  1  0.62241695  0.62947789  0.37322478  1
  Co  Co122  1  0.24528102  0.74659001  0.75005435  1
  Co  Co123  1  0.37456903  0.12161082  0.62542446  1
  Co  Co124  1  0.13116409  0.37739599  0.37624223  1
  Co  Co125  1  0.12470701  0.12409982  0.12438385  1
  Co  Co126  1  0.37604243  0.12396213  0.12603236  1
  Co  Co127  1  0.12982719  0.38276715  0.62078766  1
