# generated using pymatgen
data_Fe45Co19
_symmetry_space_group_name_H-M   'P 1'
_cell_length_a   11.41411929
_cell_length_b   11.41399450
_cell_length_c   11.41397920
_cell_angle_alpha   90.00185965
_cell_angle_beta   89.99129392
_cell_angle_gamma   90.00931271
_symmetry_Int_Tables_number   1
_chemical_formula_structural   Fe45Co19
_chemical_formula_sum   'Fe90 Co38'
_cell_volume   1487.02110229
_cell_formula_units_Z   2
loop_
 _symmetry_equiv_pos_site_id
 _symmetry_equiv_pos_as_xyz
  1  'x, y, z'
loop_
 _atom_site_type_symbol
 _atom_site_label
 _atom_site_symmetry_multiplicity
 _atom_site_fract_x
 _atom_site_fract_y
 _atom_site_fract_z
 _atom_site_occupancy
  Fe  Fe0  1  0.25146428  0.49993482  0.00237175  1
  Fe  Fe1  1  0.87479522  0.62450302  0.12549057  1
  Fe  Fe2  1  0.74922612  0.00097461  0.00038918  1
  Fe  Fe3  1  0.74944732  0.49984382  0.00077425  1
  Fe  Fe4  1  0.75062736  0.75155664  0.24934417  1
  Fe  Fe5  1  0.62356398  0.87664968  0.12773386  1
  Fe  Fe6  1  0.12635507  0.12590344  0.12612982  1
  Fe  Fe7  1  0.62387905  0.87607997  0.62386893  1
  Fe  Fe8  1  0.37671471  0.12723157  0.62106321  1
  Fe  Fe9  1  0.25411925  0.75032661  -0.00178472  1
  Fe  Fe10  1  0.50053274  0.75197397  0.49908698  1
  Fe  Fe11  1  0.12378987  0.37622731  0.37607298  1
  Fe  Fe12  1  0.87171962  0.12855357  0.62257713  1
  Fe  Fe13  1  0.37563568  0.37637432  0.87429593  1
  Fe  Fe14  1  0.87332792  0.62373086  0.37463949  1
  Fe  Fe15  1  0.74849066  0.24903373  -0.00192836  1
  Fe  Fe16  1  0.62367879  0.12356919  0.12685313  1
  Fe  Fe17  1  0.25148650  0.00035592  0.74866352  1
  Fe  Fe18  1  0.74995325  0.74920649  0.75109360  1
  Fe  Fe19  1  0.49743334  0.24388559  0.25353792  1
  Fe  Fe20  1  0.00101338  0.00034539  0.00009856  1
  Fe  Fe21  1  0.00131064  0.24751993  0.74909473  1
  Fe  Fe22  1  0.50066294  0.50051425  0.74859635  1
  Fe  Fe23  1  0.49802928  0.75065212  0.75232729  1
  Fe  Fe24  1  0.87473302  0.37442421  0.12809406  1
  Fe  Fe25  1  0.50130129  0.24793145  0.75196734  1
  Fe  Fe26  1  0.37778049  0.87786576  0.12022759  1
  Fe  Fe27  1  0.74946188  0.00176355  0.74818819  1
  Fe  Fe28  1  0.49799012  0.49915486  0.49919763  1
  Fe  Fe29  1  0.87555445  0.87663874  0.87545550  1
  Fe  Fe30  1  0.12644324  0.62616169  0.62134226  1
  Fe  Fe31  1  0.12611512  0.12476104  0.87383299  1
  Fe  Fe32  1  0.12276493  0.37469620  0.62383264  1
  Fe  Fe33  1  0.62445227  0.11917794  0.38092789  1
  Fe  Fe34  1  -0.00028001  0.74831973  0.75188661  1
  Fe  Fe35  1  0.74840222  0.75361092  0.49879536  1
  Fe  Fe36  1  0.24815669  0.25105987  0.50017359  1
  Fe  Fe37  1  0.74957185  0.75051524  0.00020568  1
  Fe  Fe38  1  0.00116347  0.50178442  0.25001999  1
  Fe  Fe39  1  0.13022976  0.62564098  0.37364225  1
  Fe  Fe40  1  -0.00069863  0.00032819  0.50174868  1
  Fe  Fe41  1  0.12481647  0.87401049  0.62507967  1
  Fe  Fe42  1  0.00274249  0.75091812  0.49544168  1
  Fe  Fe43  1  0.87428472  0.12516273  0.12466658  1
  Fe  Fe44  1  0.62423963  0.37260728  0.62471237  1
  Fe  Fe45  1  0.50182648  0.24852284  -0.00184028  1
  Fe  Fe46  1  0.87487254  0.62607725  0.62309892  1
  Fe  Fe47  1  0.12322760  0.87276853  0.12778922  1
  Fe  Fe48  1  -0.00159636  0.74920167  -0.00024686  1
  Fe  Fe49  1  0.12744743  0.12170072  0.37606250  1
  Fe  Fe50  1  0.62399383  0.37621789  0.37295912  1
  Fe  Fe51  1  0.49907922  0.50281340  0.00330614  1
  Fe  Fe52  1  -0.00215420  -0.00071964  0.24864529  1
  Fe  Fe53  1  0.49924084  0.50241243  0.24870954  1
  Fe  Fe54  1  -0.00049770  0.00201274  0.74867636  1
  Fe  Fe55  1  0.62435669  0.37444278  0.12705373  1
  Fe  Fe56  1  0.62526491  0.62458744  0.62262456  1
  Fe  Fe57  1  0.49923889  0.74960967  0.24833556  1
  Fe  Fe58  1  0.12529082  0.37371831  0.12574275  1
  Fe  Fe59  1  0.25432710  0.00095663  0.24707823  1
  Fe  Fe60  1  0.62261719  0.87635261  0.87561806  1
  Fe  Fe61  1  0.87623222  0.87291313  0.62531554  1
  Fe  Fe62  1  0.87388113  0.12527026  0.37698895  1
  Fe  Fe63  1  0.12592397  0.87575289  0.87448785  1
  Fe  Fe64  1  0.74868317  0.24840614  0.25325809  1
  Fe  Fe65  1  0.37400840  0.12208923  0.87843174  1
  Fe  Fe66  1  0.12799529  0.62775692  0.12776488  1
  Fe  Fe67  1  0.74728313  0.24941339  0.75233058  1
  Fe  Fe68  1  0.49976575  0.00137845  0.74776605  1
  Fe  Fe69  1  0.12510567  0.37516122  0.87464472  1
  Fe  Fe70  1  0.25144641  -0.00403450  0.50244371  1
  Fe  Fe71  1  0.25012394  0.49953478  0.74806255  1
  Fe  Fe72  1  0.37584968  0.37269890  0.62503749  1
  Fe  Fe73  1  0.37515389  0.37137854  0.12798093  1
  Fe  Fe74  1  0.62313973  0.62445049  0.87618733  1
  Fe  Fe75  1  0.37145087  0.62527271  0.37381531  1
  Fe  Fe76  1  0.87621915  0.37585064  0.87497267  1
  Fe  Fe77  1  0.75300464  0.49471665  0.49924962  1
  Fe  Fe78  1  0.37382110  0.62720877  0.62340195  1
  Fe  Fe79  1  -0.00114949  0.50208382  0.74940436  1
  Fe  Fe80  1  0.12565445  0.62333487  0.87669175  1
  Fe  Fe81  1  0.00195907  0.24805874  0.25162306  1
  Fe  Fe82  1  0.87462846  0.87657888  0.37344014  1
  Fe  Fe83  1  0.25230596  0.75059916  0.75201956  1
  Fe  Fe84  1  -0.00044531  0.24980637  -0.00055712  1
  Fe  Fe85  1  0.37597799  0.87588393  0.37570543  1
  Fe  Fe86  1  0.37293120  0.37386889  0.37336653  1
  Fe  Fe87  1  0.62592250  0.62493512  0.37440359  1
  Fe  Fe88  1  0.75074652  0.50003996  0.74970594  1
  Fe  Fe89  1  0.24969931  0.24953690  -0.00014330  1
  Co  Co90  1  0.49592788  0.00318220  0.25129446  1
  Co  Co91  1  0.25175172  0.49806835  0.50113556  1
  Co  Co92  1  0.37592888  0.87979738  0.87786717  1
  Co  Co93  1  0.87541936  0.87580450  0.12441944  1
  Co  Co94  1  0.75060812  -0.00387835  0.50146118  1
  Co  Co95  1  0.74916219  0.25454162  0.49623498  1
  Co  Co96  1  -0.00168151  0.50166479  0.49888432  1
  Co  Co97  1  0.00086820  0.50031579  0.00231276  1
  Co  Co98  1  0.74950523  0.49930984  0.25032569  1
  Co  Co99  1  0.62456555  0.12275498  0.87419701  1
  Co  Co100  1  0.62624783  0.62578100  0.12591457  1
  Co  Co101  1  -0.00168601  0.74934416  0.25298307  1
  Co  Co102  1  0.12719033  0.12446920  0.62362755  1
  Co  Co103  1  0.49876004  -0.00380190  0.50131115  1
  Co  Co104  1  0.24956375  0.49696962  0.24854126  1
  Co  Co105  1  0.50090465  0.25258462  0.49695778  1
  Co  Co106  1  0.12543951  0.87962425  0.37243680  1
  Co  Co107  1  0.24900025  0.75355874  0.49820560  1
  Co  Co108  1  0.62382218  0.37762937  0.87575870  1
  Co  Co109  1  0.75092221  0.00091000  0.25017381  1
  Co  Co110  1  0.62508968  0.12647700  0.62039632  1
  Co  Co111  1  0.87671171  0.37198865  0.62661616  1
  Co  Co112  1  0.49861404  0.74791029  0.00021541  1
  Co  Co113  1  0.87849142  0.37344999  0.37138139  1
  Co  Co114  1  0.25107240  0.24929044  0.75010823  1
  Co  Co115  1  0.24502837  0.00010889  0.00240283  1
  Co  Co116  1  0.37596398  0.62227689  0.87338609  1
  Co  Co117  1  0.37208680  0.12439086  0.38019630  1
  Co  Co118  1  0.87433366  0.62416051  0.87578220  1
  Co  Co119  1  0.87571891  0.12467962  0.87535698  1
  Co  Co120  1  0.37535731  0.12617469  0.12150131  1
  Co  Co121  1  0.37490522  0.87188527  0.62623189  1
  Co  Co122  1  0.25310507  0.75579302  0.24996660  1
  Co  Co123  1  0.24934022  0.24805713  0.25131803  1
  Co  Co124  1  0.50450826  0.00222748  0.00094866  1
  Co  Co125  1  0.62403206  0.87686544  0.37137765  1
  Co  Co126  1  0.37175334  0.62539531  0.12830297  1
  Co  Co127  1  0.00133067  0.24813753  0.49922662  1
