# generated using pymatgen
data_Fe45Co19
_symmetry_space_group_name_H-M   'P 1'
_cell_length_a   11.41393703
_cell_length_b   11.41424634
_cell_length_c   11.41484595
_cell_angle_alpha   89.99331046
_cell_angle_beta   89.99202223
_cell_angle_gamma   90.00600619
_symmetry_Int_Tables_number   1
_chemical_formula_structural   Fe45Co19
_chemical_formula_sum   'Fe90 Co38'
_cell_volume   1487.14309352
_cell_formula_units_Z   2
loop_
 _symmetry_equiv_pos_site_id
 _symmetry_equiv_pos_as_xyz
  1  'x, y, z'
loop_
 _atom_site_type_symbol
 _atom_site_label
 _atom_site_symmetry_multiplicity
 _atom_site_fract_x
 _atom_site_fract_y
 _atom_site_fract_z
 _atom_site_occupancy
  Fe  Fe0  1  0.62491627  0.12542489  0.62515161  1
  Fe  Fe1  1  0.87434062  0.62731314  0.87295276  1
  Fe  Fe2  1  -0.00134362  0.49993965  -0.00131008  1
  Fe  Fe3  1  0.12843463  0.87616957  0.12565351  1
  Fe  Fe4  1  0.75108152  0.00143545  0.50144421  1
  Fe  Fe5  1  0.74848218  0.75001120  0.74681954  1
  Fe  Fe6  1  0.75075842  -0.00095231  0.74985748  1
  Fe  Fe7  1  0.37347851  0.87067617  0.37707591  1
  Fe  Fe8  1  0.62431346  0.62112439  0.12829082  1
  Fe  Fe9  1  -0.00660626  0.49865997  0.50141707  1
  Fe  Fe10  1  0.12418263  0.37724102  0.12538196  1
  Fe  Fe11  1  0.12571026  0.87176589  0.37298166  1
  Fe  Fe12  1  0.63134793  0.38142434  0.37461890  1
  Fe  Fe13  1  -0.00153542  0.25077541  0.50102541  1
  Fe  Fe14  1  0.49986264  -0.00063210  0.49854965  1
  Fe  Fe15  1  0.87519635  0.87340677  0.87526205  1
  Fe  Fe16  1  0.12612411  0.37604851  0.87438383  1
  Fe  Fe17  1  0.00114972  0.75089621  0.00231384  1
  Fe  Fe18  1  -0.00220665  -0.00049625  0.74934089  1
  Fe  Fe19  1  -0.00207177  0.25119460  0.24700393  1
  Fe  Fe20  1  0.87356890  0.37191983  0.87359110  1
  Fe  Fe21  1  0.25313922  0.49935955  0.75046279  1
  Fe  Fe22  1  0.24888551  0.74998915  -0.00103250  1
  Fe  Fe23  1  0.37344091  0.87479390  0.12405151  1
  Fe  Fe24  1  0.37613128  0.62370787  0.12504318  1
  Fe  Fe25  1  0.12391048  0.37554554  0.62505682  1
  Fe  Fe26  1  0.24925031  0.25017097  0.49950246  1
  Fe  Fe27  1  0.50077405  0.25125941  0.25032445  1
  Fe  Fe28  1  0.25100871  0.50105136  0.25038218  1
  Fe  Fe29  1  0.24828130  0.50210560  0.49966063  1
  Fe  Fe30  1  0.75044702  0.25210016  0.24806051  1
  Fe  Fe31  1  -0.00099730  0.00107266  0.49968163  1
  Fe  Fe32  1  0.74539598  0.24980171  -0.00033068  1
  Fe  Fe33  1  0.62328133  0.12248178  0.87596296  1
  Fe  Fe34  1  0.49862448  -0.00062960  0.25161855  1
  Fe  Fe35  1  0.74685973  0.74539953  0.50343601  1
  Fe  Fe36  1  0.62143049  0.38017258  0.87516386  1
  Fe  Fe37  1  0.62544996  0.12458509  0.37321258  1
  Fe  Fe38  1  0.50090467  0.74895805  0.25160801  1
  Fe  Fe39  1  0.75145904  -0.00144615  0.25004237  1
  Fe  Fe40  1  0.25014845  -0.00011386  0.49727664  1
  Fe  Fe41  1  0.37519303  0.62766147  0.37685564  1
  Fe  Fe42  1  0.37752681  0.37623973  0.12221088  1
  Fe  Fe43  1  0.50290326  0.50210236  0.49881824  1
  Fe  Fe44  1  0.37677957  0.37577144  0.62363517  1
  Fe  Fe45  1  0.12369035  0.37506300  0.37383288  1
  Fe  Fe46  1  0.49998871  0.00187570  0.00185373  1
  Fe  Fe47  1  0.12308101  0.62522147  0.87387772  1
  Fe  Fe48  1  -0.00078130  -0.00182231  0.24909658  1
  Fe  Fe49  1  0.25089785  0.50107622  -0.00132426  1
  Fe  Fe50  1  0.25012453  0.25170962  0.74997314  1
  Fe  Fe51  1  0.87451633  0.87158681  0.37652515  1
  Fe  Fe52  1  0.24868016  0.75196722  0.75188230  1
  Fe  Fe53  1  0.00198775  0.24929613  0.00027940  1
  Fe  Fe54  1  0.12649284  0.12749357  0.37127620  1
  Fe  Fe55  1  0.87178996  0.12442149  0.12310005  1
  Fe  Fe56  1  0.25228347  -0.00365060  0.75352682  1
  Fe  Fe57  1  0.75026183  0.50114899  -0.00007969  1
  Fe  Fe58  1  0.24868286  0.24965718  0.00115996  1
  Fe  Fe59  1  0.87282706  0.13046490  0.62750859  1
  Fe  Fe60  1  0.37397692  0.37473409  0.37629903  1
  Fe  Fe61  1  0.62597404  0.87761477  0.12489679  1
  Fe  Fe62  1  0.12229504  0.62575389  0.37211176  1
  Fe  Fe63  1  0.37701532  0.62613969  0.87477209  1
  Fe  Fe64  1  0.75086016  0.74949326  0.24841675  1
  Fe  Fe65  1  0.62374497  0.87513969  0.87549262  1
  Fe  Fe66  1  0.87639293  0.62562930  0.12505708  1
  Fe  Fe67  1  0.12563100  0.12262263  0.87527394  1
  Fe  Fe68  1  0.37549249  0.12591453  0.62327819  1
  Fe  Fe69  1  0.62325962  0.37902027  0.12540680  1
  Fe  Fe70  1  0.12277769  0.62410276  0.62747977  1
  Fe  Fe71  1  0.62637728  0.87380043  0.37670369  1
  Fe  Fe72  1  -0.00425656  0.49719563  0.74950772  1
  Fe  Fe73  1  -0.00513692  0.49950179  0.24956015  1
  Fe  Fe74  1  0.87420391  0.12706294  0.37430652  1
  Fe  Fe75  1  0.50350766  0.74698557  0.00078289  1
  Fe  Fe76  1  -0.00076547  -0.00082870  0.00193890  1
  Fe  Fe77  1  0.50399335  0.25160738  0.49828663  1
  Fe  Fe78  1  0.37587656  0.62636462  0.62315434  1
  Fe  Fe79  1  0.50136074  0.25338425  0.74987189  1
  Fe  Fe80  1  0.87430377  0.12716462  0.87495780  1
  Fe  Fe81  1  0.37624444  0.87218432  0.62281547  1
  Fe  Fe82  1  0.49898687  -0.00146200  0.74908599  1
  Fe  Fe83  1  -0.00029871  0.74874987  0.50184911  1
  Fe  Fe84  1  0.37576495  0.12667202  0.87575886  1
  Fe  Fe85  1  0.50310264  0.74833503  0.74784583  1
  Fe  Fe86  1  0.12413335  0.87535799  0.62596074  1
  Fe  Fe87  1  0.74854869  0.74999302  0.00126582  1
  Fe  Fe88  1  0.37299020  0.12531731  0.12718994  1
  Fe  Fe89  1  0.12646860  0.12413527  0.62601494  1
  Co  Co90  1  0.62701102  0.37836657  0.62429374  1
  Co  Co91  1  0.25134168  0.25344777  0.24906763  1
  Co  Co92  1  0.74971341  -0.00068947  -0.00231454  1
  Co  Co93  1  0.62874619  0.62166045  0.37215236  1
  Co  Co94  1  0.50550060  0.74773016  0.49958505  1
  Co  Co95  1  0.00069271  0.75189777  0.74948331  1
  Co  Co96  1  0.87480749  0.37411107  0.12046893  1
  Co  Co97  1  0.75610957  0.50300129  0.50380225  1
  Co  Co98  1  0.50003072  0.50358206  -0.00206793  1
  Co  Co99  1  0.62709027  0.62435862  0.87319142  1
  Co  Co100  1  0.12167967  0.87519078  0.87630202  1
  Co  Co101  1  0.75647795  0.49991464  0.24726115  1
  Co  Co102  1  0.62440130  0.61831009  0.62636960  1
  Co  Co103  1  0.87265759  0.37402434  0.37666183  1
  Co  Co104  1  0.87259613  0.87589169  0.12442511  1
  Co  Co105  1  0.24565963  0.74841586  0.50113178  1
  Co  Co106  1  0.49703200  0.50016629  0.75085637  1
  Co  Co107  1  -0.00067421  0.75158963  0.24643441  1
  Co  Co108  1  0.62484700  0.87729883  0.62423788  1
  Co  Co109  1  0.87624426  0.62703682  0.62839520  1
  Co  Co110  1  0.37535508  0.12754526  0.37551748  1
  Co  Co111  1  0.12668627  0.12306686  0.12670532  1
  Co  Co112  1  0.25221577  -0.00109886  -0.00293242  1
  Co  Co113  1  0.87492081  0.87442029  0.62310342  1
  Co  Co114  1  0.25081711  0.74694208  0.24865210  1
  Co  Co115  1  0.12357561  0.62245981  0.12502607  1
  Co  Co116  1  0.62701310  0.12268629  0.12755866  1
  Co  Co117  1  0.74355443  0.25067243  0.75435876  1
  Co  Co118  1  0.25121139  -0.00061244  0.25357104  1
  Co  Co119  1  0.38087714  0.87259547  0.87697405  1
  Co  Co120  1  0.87096081  0.36838520  0.62724592  1
  Co  Co121  1  0.49691836  0.50033645  0.25294114  1
  Co  Co122  1  0.75305465  0.49984639  0.74900714  1
  Co  Co123  1  0.74762744  0.24936853  0.49852059  1
  Co  Co124  1  0.00362897  0.25024449  0.75074039  1
  Co  Co125  1  0.50273609  0.24784485  0.00160908  1
  Co  Co126  1  0.37614217  0.37345955  0.87777361  1
  Co  Co127  1  0.87397810  0.62784978  0.37354953  1
