# generated using pymatgen
data_Fe45Co19
_symmetry_space_group_name_H-M   'P 1'
_cell_length_a   11.41436406
_cell_length_b   11.41666952
_cell_length_c   11.41533275
_cell_angle_alpha   90.00984966
_cell_angle_beta   89.98065918
_cell_angle_gamma   90.00343187
_symmetry_Int_Tables_number   1
_chemical_formula_structural   Fe45Co19
_chemical_formula_sum   'Fe90 Co38'
_cell_volume   1487.57781524
_cell_formula_units_Z   2
loop_
 _symmetry_equiv_pos_site_id
 _symmetry_equiv_pos_as_xyz
  1  'x, y, z'
loop_
 _atom_site_type_symbol
 _atom_site_label
 _atom_site_symmetry_multiplicity
 _atom_site_fract_x
 _atom_site_fract_y
 _atom_site_fract_z
 _atom_site_occupancy
  Fe  Fe0  1  0.00253798  0.50177348  0.74803787  1
  Fe  Fe1  1  -0.00145646  0.75173542  0.00336091  1
  Fe  Fe2  1  -0.00017431  0.50087598  0.50308426  1
  Fe  Fe3  1  0.75063905  0.74777532  0.50134448  1
  Fe  Fe4  1  0.00071700  0.50199178  0.24788539  1
  Fe  Fe5  1  0.87622122  0.62457240  0.37637130  1
  Fe  Fe6  1  0.62280117  0.87362897  0.37397477  1
  Fe  Fe7  1  0.12518672  0.37454009  0.87250539  1
  Fe  Fe8  1  0.50202807  0.24888256  0.75055016  1
  Fe  Fe9  1  0.87522939  0.62744450  0.12397505  1
  Fe  Fe10  1  0.49960923  0.49971010  0.49895114  1
  Fe  Fe11  1  0.12368625  0.62650942  0.37666972  1
  Fe  Fe12  1  0.62648249  0.12491063  0.12466072  1
  Fe  Fe13  1  0.37647896  0.12585576  0.37461837  1
  Fe  Fe14  1  0.50213406  -0.00014499  0.74920236  1
  Fe  Fe15  1  0.62703336  0.12321386  0.87482056  1
  Fe  Fe16  1  0.75397713  -0.00558616  -0.00246677  1
  Fe  Fe17  1  0.87191429  0.37504162  0.12761488  1
  Fe  Fe18  1  0.62874169  0.37728931  0.62598466  1
  Fe  Fe19  1  0.62478370  0.62475625  0.37520940  1
  Fe  Fe20  1  0.24965483  0.00035517  0.75181760  1
  Fe  Fe21  1  0.49851751  0.74898226  0.49930161  1
  Fe  Fe22  1  0.87456846  0.12335234  0.12499594  1
  Fe  Fe23  1  0.74944545  0.00019875  0.25196153  1
  Fe  Fe24  1  0.25068248  0.74847573  0.25065032  1
  Fe  Fe25  1  0.49980485  0.25007192  -0.00080412  1
  Fe  Fe26  1  0.87209925  0.12224848  0.62235917  1
  Fe  Fe27  1  0.37575129  0.12513919  0.62533093  1
  Fe  Fe28  1  0.50254173  0.50020494  0.00075285  1
  Fe  Fe29  1  0.87241250  0.37839199  0.62566456  1
  Fe  Fe30  1  0.50140567  0.74886949  0.00054643  1
  Fe  Fe31  1  0.24965633  0.50032522  0.25162310  1
  Fe  Fe32  1  0.37711934  0.87541283  0.37283799  1
  Fe  Fe33  1  -0.00121247  -0.00040439  0.74886680  1
  Fe  Fe34  1  0.49938310  0.50232452  0.25000322  1
  Fe  Fe35  1  0.37475503  0.62579736  0.12461679  1
  Fe  Fe36  1  0.37294779  0.62478119  0.62467654  1
  Fe  Fe37  1  0.00125776  0.50013012  0.00136646  1
  Fe  Fe38  1  0.12428858  0.12481520  0.87617026  1
  Fe  Fe39  1  0.00349283  0.74723466  0.74311913  1
  Fe  Fe40  1  0.74825131  0.74675962  0.74922339  1
  Fe  Fe41  1  0.12058098  0.37411124  0.37677082  1
  Fe  Fe42  1  0.62788855  0.37644111  0.87366035  1
  Fe  Fe43  1  0.62470949  0.87316729  0.12666220  1
  Fe  Fe44  1  0.49867443  0.74844838  0.75071430  1
  Fe  Fe45  1  0.24964833  -0.00062485  0.49874672  1
  Fe  Fe46  1  0.49624672  0.00072275  0.00348916  1
  Fe  Fe47  1  0.25156516  0.24869434  -0.00254041  1
  Fe  Fe48  1  0.12528113  0.87352462  0.12552400  1
  Fe  Fe49  1  -0.00171393  0.25188778  -0.00005648  1
  Fe  Fe50  1  0.12378013  0.87357616  0.87345654  1
  Fe  Fe51  1  0.75064652  0.74862022  0.24941564  1
  Fe  Fe52  1  0.37496525  0.37455051  0.12581702  1
  Fe  Fe53  1  0.62877988  0.12440772  0.62398933  1
  Fe  Fe54  1  -0.00104571  0.25087603  0.74745021  1
  Fe  Fe55  1  0.87569268  0.62680234  0.87510307  1
  Fe  Fe56  1  0.75015194  0.25115696  0.00018595  1
  Fe  Fe57  1  0.62946808  0.37776705  0.37175285  1
  Fe  Fe58  1  0.25219480  -0.00026972  0.24735205  1
  Fe  Fe59  1  0.87374564  0.12483771  0.87380893  1
  Fe  Fe60  1  0.24898213  0.75227421  0.50035651  1
  Fe  Fe61  1  0.37228896  0.37555107  0.62805354  1
  Fe  Fe62  1  -0.00199922  -0.00351935  -0.00043463  1
  Fe  Fe63  1  0.87274394  0.37708662  0.87328041  1
  Fe  Fe64  1  0.50170065  0.25006658  0.24934849  1
  Fe  Fe65  1  0.24862355  0.74848121  -0.00207210  1
  Fe  Fe66  1  0.12201696  0.87379842  0.37532406  1
  Fe  Fe67  1  0.24809386  0.50213587  -0.00275909  1
  Fe  Fe68  1  0.87753183  0.87499349  0.37614158  1
  Fe  Fe69  1  0.12553465  0.37479840  0.12479687  1
  Fe  Fe70  1  0.37374780  0.87533275  0.62618407  1
  Fe  Fe71  1  0.00016646  -0.00089454  0.24952129  1
  Fe  Fe72  1  0.24903367  0.25175535  0.25191114  1
  Fe  Fe73  1  0.25080414  0.49729294  0.49820234  1
  Fe  Fe74  1  0.37426911  0.37551227  0.87195859  1
  Fe  Fe75  1  0.50101779  -0.00118745  0.49991486  1
  Fe  Fe76  1  -0.00386783  0.24995412  0.25191031  1
  Fe  Fe77  1  0.50162164  0.50287208  0.75063070  1
  Fe  Fe78  1  0.62507036  0.12428040  0.37576845  1
  Fe  Fe79  1  0.74799680  0.50251328  0.00161579  1
  Fe  Fe80  1  0.50090425  0.25293948  0.50015718  1
  Fe  Fe81  1  0.12490631  0.12574896  0.12361354  1
  Fe  Fe82  1  0.62514761  0.87351236  0.62434818  1
  Fe  Fe83  1  0.87419732  0.87570300  0.62447817  1
  Fe  Fe84  1  0.12418053  0.12536664  0.62299109  1
  Fe  Fe85  1  0.62622062  0.87403586  0.87521623  1
  Fe  Fe86  1  0.12162354  0.12531001  0.37705392  1
  Fe  Fe87  1  0.24955264  0.25176225  0.50029979  1
  Fe  Fe88  1  0.37410638  0.87566107  0.87627220  1
  Fe  Fe89  1  0.75403473  0.25195363  0.49587736  1
  Co  Co90  1  0.74789997  -0.00320947  0.49873430  1
  Co  Co91  1  0.87701270  0.12029438  0.37679450  1
  Co  Co92  1  0.62433470  0.62788272  0.12507436  1
  Co  Co93  1  0.87469017  0.38083655  0.37320873  1
  Co  Co94  1  0.37369066  0.12875186  0.12684211  1
  Co  Co95  1  0.37359263  0.62545646  0.37685231  1
  Co  Co96  1  0.24898616  0.24770113  0.75035832  1
  Co  Co97  1  0.37798470  0.62508460  0.87636461  1
  Co  Co98  1  0.12773718  0.87643766  0.62613297  1
  Co  Co99  1  0.37651077  0.37321632  0.37399370  1
  Co  Co100  1  0.75052451  0.24958527  0.74989163  1
  Co  Co101  1  0.37516508  0.87058755  0.12461810  1
  Co  Co102  1  -0.00434974  0.25179280  0.50087428  1
  Co  Co103  1  0.74958893  -0.00258438  0.75066371  1
  Co  Co104  1  0.25043424  0.74799956  0.75224502  1
  Co  Co105  1  0.49885613  0.00013480  0.24814769  1
  Co  Co106  1  0.75256454  0.24729150  0.25265011  1
  Co  Co107  1  0.62597511  0.37426060  0.12731467  1
  Co  Co108  1  0.00128067  -0.00302793  0.50166627  1
  Co  Co109  1  0.25017824  -0.00026367  0.00151319  1
  Co  Co110  1  0.87394381  0.62372114  0.62474362  1
  Co  Co111  1  0.49852845  0.74781507  0.25130162  1
  Co  Co112  1  0.00082363  0.75016609  0.50372731  1
  Co  Co113  1  0.12558154  0.62566380  0.12533972  1
  Co  Co114  1  0.11977679  0.62727325  0.87575295  1
  Co  Co115  1  0.74883302  0.50470283  0.75087493  1
  Co  Co116  1  0.13092611  0.62352659  0.62186519  1
  Co  Co117  1  -0.00056734  0.74856326  0.24972826  1
  Co  Co118  1  0.62628259  0.62651442  0.87621983  1
  Co  Co119  1  0.24790639  0.50458165  0.75420730  1
  Co  Co120  1  0.74909086  0.50197901  0.50067977  1
  Co  Co121  1  0.87471906  0.87534846  0.12899710  1
  Co  Co122  1  0.75036634  0.50429941  0.24691711  1
  Co  Co123  1  0.75172467  0.75200063  0.00064144  1
  Co  Co124  1  0.87740608  0.86966395  0.86950159  1
  Co  Co125  1  0.37614486  0.12332414  0.87348520  1
  Co  Co126  1  0.12669495  0.37546674  0.62564395  1
  Co  Co127  1  0.62225495  0.62512970  0.62373425  1
