# generated using pymatgen
data_Fe45Co19
_symmetry_space_group_name_H-M   'P 1'
_cell_length_a   11.41637326
_cell_length_b   11.41497459
_cell_length_c   11.41692658
_cell_angle_alpha   90.00933017
_cell_angle_beta   89.99431161
_cell_angle_gamma   90.00193450
_symmetry_Int_Tables_number   1
_chemical_formula_structural   Fe45Co19
_chemical_formula_sum   'Fe90 Co38'
_cell_volume   1487.82656515
_cell_formula_units_Z   2
loop_
 _symmetry_equiv_pos_site_id
 _symmetry_equiv_pos_as_xyz
  1  'x, y, z'
loop_
 _atom_site_type_symbol
 _atom_site_label
 _atom_site_symmetry_multiplicity
 _atom_site_fract_x
 _atom_site_fract_y
 _atom_site_fract_z
 _atom_site_occupancy
  Fe  Fe0  1  0.75017190  0.00338853  0.25097980  1
  Fe  Fe1  1  0.50137270  0.25070325  0.75102434  1
  Fe  Fe2  1  0.74684907  0.24892964  0.00175973  1
  Fe  Fe3  1  0.00119930  -0.00040160  0.75016187  1
  Fe  Fe4  1  0.87710049  0.87115531  0.62201978  1
  Fe  Fe5  1  0.62518281  0.87510442  0.37417272  1
  Fe  Fe6  1  0.75064249  0.74760946  0.24852366  1
  Fe  Fe7  1  0.24885051  -0.00205088  0.49893633  1
  Fe  Fe8  1  0.24850299  -0.00287277  0.74992093  1
  Fe  Fe9  1  0.87577346  0.87296259  0.87513367  1
  Fe  Fe10  1  0.49989865  0.50075039  0.75064523  1
  Fe  Fe11  1  0.37607090  0.12541010  0.12349817  1
  Fe  Fe12  1  0.75249268  0.50078319  0.50017272  1
  Fe  Fe13  1  0.24990113  0.49890440  0.50096912  1
  Fe  Fe14  1  0.62541400  0.12671085  0.62418275  1
  Fe  Fe15  1  0.87635110  0.87600939  0.12589525  1
  Fe  Fe16  1  0.50060524  0.74926540  0.49923014  1
  Fe  Fe17  1  0.62621329  0.87361808  0.87505157  1
  Fe  Fe18  1  0.87662692  0.12490416  0.12505977  1
  Fe  Fe19  1  0.37423417  0.87466482  0.37505851  1
  Fe  Fe20  1  0.37375832  0.12540331  0.87515342  1
  Fe  Fe21  1  0.87425609  0.12698533  0.87241866  1
  Fe  Fe22  1  0.38093360  0.37587200  0.12600470  1
  Fe  Fe23  1  0.37147199  0.62338912  0.37363549  1
  Fe  Fe24  1  0.37350809  0.12693203  0.62565019  1
  Fe  Fe25  1  0.12375924  0.62470839  0.12524713  1
  Fe  Fe26  1  0.75133398  0.50115966  0.74710065  1
  Fe  Fe27  1  0.62719437  0.62448188  0.87672103  1
  Fe  Fe28  1  0.50014910  0.00010150  0.74991413  1
  Fe  Fe29  1  0.62396528  0.37560299  0.62385138  1
  Fe  Fe30  1  0.12552616  0.37505263  0.37409081  1
  Fe  Fe31  1  0.50016970  0.00306374  0.25123333  1
  Fe  Fe32  1  0.74873717  0.00178939  -0.00068728  1
  Fe  Fe33  1  0.75290748  0.74827521  0.00242967  1
  Fe  Fe34  1  0.49965664  0.74830358  0.74943438  1
  Fe  Fe35  1  0.87513023  0.87401009  0.37581081  1
  Fe  Fe36  1  0.62722962  0.37379178  0.37052262  1
  Fe  Fe37  1  0.50041633  0.00048272  0.50031190  1
  Fe  Fe38  1  -0.00202659  0.50119394  -0.00059464  1
  Fe  Fe39  1  0.87369944  0.37444150  0.87465777  1
  Fe  Fe40  1  0.62534040  0.87574173  0.12519633  1
  Fe  Fe41  1  0.37394499  0.62520382  0.62346081  1
  Fe  Fe42  1  0.25091890  0.49879908  0.00310247  1
  Fe  Fe43  1  0.37237231  0.62640931  0.87833806  1
  Fe  Fe44  1  0.49708722  0.25262896  0.49769387  1
  Fe  Fe45  1  -0.00286966  0.50096914  0.25256349  1
  Fe  Fe46  1  0.87525425  0.37391022  0.12782820  1
  Fe  Fe47  1  0.37530823  0.37514883  0.87626455  1
  Fe  Fe48  1  0.24620206  0.25258753  0.75184967  1
  Fe  Fe49  1  0.49740650  0.49730840  0.49713122  1
  Fe  Fe50  1  -0.00020315  0.50186951  0.49726605  1
  Fe  Fe51  1  0.50047777  0.74641562  0.24886259  1
  Fe  Fe52  1  0.24910617  0.75130993  0.24973792  1
  Fe  Fe53  1  0.74937470  -0.00151786  0.50042819  1
  Fe  Fe54  1  0.12123062  0.37386400  0.12538427  1
  Fe  Fe55  1  0.24937791  0.50094106  0.74996677  1
  Fe  Fe56  1  -0.00187957  0.24692852  0.25521712  1
  Fe  Fe57  1  0.00032608  0.74903347  0.25139766  1
  Fe  Fe58  1  0.12603262  0.87114075  0.62405595  1
  Fe  Fe59  1  0.87725573  0.12859703  0.62472626  1
  Fe  Fe60  1  0.00157469  0.00006894  -0.00165724  1
  Fe  Fe61  1  0.00226752  0.00160978  0.49678329  1
  Fe  Fe62  1  0.00245372  0.24960794  -0.00355000  1
  Fe  Fe63  1  0.62400054  0.87365698  0.62528296  1
  Fe  Fe64  1  0.12256238  0.37608467  0.62550539  1
  Fe  Fe65  1  0.87863538  0.37357230  0.62437271  1
  Fe  Fe66  1  0.49958896  0.74737998  0.00251196  1
  Fe  Fe67  1  0.75052529  0.74713114  0.74632770  1
  Fe  Fe68  1  0.37628652  0.87525625  0.12587189  1
  Fe  Fe69  1  0.62824169  0.62429407  0.37581264  1
  Fe  Fe70  1  -0.00091466  0.50136830  0.75172714  1
  Fe  Fe71  1  0.24755425  0.25122100  0.00080241  1
  Fe  Fe72  1  0.25039311  0.49818964  0.24718286  1
  Fe  Fe73  1  0.00504928  0.74586214  0.49528783  1
  Fe  Fe74  1  0.75266251  0.25113115  0.49829522  1
  Fe  Fe75  1  0.37355850  0.87199317  0.62339240  1
  Fe  Fe76  1  0.25023131  0.24972344  0.24808600  1
  Fe  Fe77  1  0.12379136  0.12711188  0.62507620  1
  Fe  Fe78  1  0.00111100  0.74766079  0.75140538  1
  Fe  Fe79  1  0.75080930  -0.00008170  0.74815221  1
  Fe  Fe80  1  0.12285626  0.87792425  0.12760349  1
  Fe  Fe81  1  0.37313491  0.87343983  0.87639436  1
  Fe  Fe82  1  0.50282437  0.00163427  -0.00129886  1
  Fe  Fe83  1  0.37250524  0.12546776  0.37584876  1
  Fe  Fe84  1  0.24699201  -0.00078273  0.00129783  1
  Fe  Fe85  1  0.75094165  0.50096187  0.00426297  1
  Fe  Fe86  1  0.24900809  0.25304603  0.50005772  1
  Fe  Fe87  1  0.12637988  0.62702660  0.87836207  1
  Fe  Fe88  1  0.62163036  0.37500917  0.12851207  1
  Fe  Fe89  1  0.62532080  0.37535760  0.87608058  1
  Co  Co90  1  0.00138731  0.25019166  0.49543443  1
  Co  Co91  1  0.62546757  0.12626698  0.37717241  1
  Co  Co92  1  0.87684354  0.62608761  0.62238752  1
  Co  Co93  1  0.87246525  0.62666995  0.37553015  1
  Co  Co94  1  0.12314271  0.12535958  0.12674811  1
  Co  Co95  1  0.74799141  0.75036834  0.50172224  1
  Co  Co96  1  0.50079357  0.50297913  0.25223294  1
  Co  Co97  1  0.75188462  0.24721633  0.24934421  1
  Co  Co98  1  0.87345577  0.12302603  0.37764070  1
  Co  Co99  1  0.49849573  0.24749028  0.25231399  1
  Co  Co100  1  0.37466838  0.37559301  0.62791058  1
  Co  Co101  1  0.62367617  0.12536368  0.12667712  1
  Co  Co102  1  0.87756746  0.62448530  0.12619293  1
  Co  Co103  1  0.24866768  0.75238249  0.00504250  1
  Co  Co104  1  -0.00221160  0.00253965  0.25274247  1
  Co  Co105  1  0.00196773  0.25249631  0.75299796  1
  Co  Co106  1  0.62497476  0.62329542  0.12440608  1
  Co  Co107  1  0.12486179  0.87324079  0.87531493  1
  Co  Co108  1  0.12570308  0.62462120  0.62560004  1
  Co  Co109  1  0.12598920  0.12336208  0.87466529  1
  Co  Co110  1  0.25019578  0.75017098  0.74972095  1
  Co  Co111  1  0.24738709  0.74945407  0.49675096  1
  Co  Co112  1  -0.00036452  0.75092859  0.00169802  1
  Co  Co113  1  0.87357863  0.37659998  0.37370133  1
  Co  Co114  1  0.75145025  0.50120324  0.24767369  1
  Co  Co115  1  0.62672246  0.12500742  0.87266234  1
  Co  Co116  1  0.62300328  0.62252786  0.62280154  1
  Co  Co117  1  0.74995571  0.25223576  0.74815378  1
  Co  Co118  1  0.49946572  0.50186914  0.00011268  1
  Co  Co119  1  0.12531874  0.87813815  0.37242593  1
  Co  Co120  1  0.50197932  0.24930831  -0.00143792  1
  Co  Co121  1  0.37363580  0.62393200  0.12639834  1
  Co  Co122  1  0.12818498  0.62083088  0.37155460  1
  Co  Co123  1  0.37247933  0.37575635  0.37119503  1
  Co  Co124  1  0.12534834  0.37912859  0.87689229  1
  Co  Co125  1  0.12882971  0.12464399  0.37340740  1
  Co  Co126  1  0.25212374  0.00018582  0.24879494  1
  Co  Co127  1  0.87364312  0.62523798  0.87585392  1
