# generated using pymatgen
data_Fe45Co19
_symmetry_space_group_name_H-M   'P 1'
_cell_length_a   11.41467122
_cell_length_b   11.41451455
_cell_length_c   11.41421315
_cell_angle_alpha   89.99051270
_cell_angle_beta   90.00286469
_cell_angle_gamma   90.00457709
_symmetry_Int_Tables_number   1
_chemical_formula_structural   Fe45Co19
_chemical_formula_sum   'Fe90 Co38'
_cell_volume   1487.19125642
_cell_formula_units_Z   2
loop_
 _symmetry_equiv_pos_site_id
 _symmetry_equiv_pos_as_xyz
  1  'x, y, z'
loop_
 _atom_site_type_symbol
 _atom_site_label
 _atom_site_symmetry_multiplicity
 _atom_site_fract_x
 _atom_site_fract_y
 _atom_site_fract_z
 _atom_site_occupancy
  Fe  Fe0  1  0.37233519  0.37215971  0.62298335  1
  Fe  Fe1  1  0.75569106  -0.00060111  0.49508102  1
  Fe  Fe2  1  0.87777060  0.12869314  0.87685819  1
  Fe  Fe3  1  0.49976522  0.74726224  0.49874906  1
  Fe  Fe4  1  0.62509759  0.12486098  0.37473361  1
  Fe  Fe5  1  0.00412800  0.25054268  0.50127151  1
  Fe  Fe6  1  0.49687013  0.00032607  0.25180522  1
  Fe  Fe7  1  0.87619631  0.12872340  0.12473589  1
  Fe  Fe8  1  0.62529965  0.12551149  0.87722671  1
  Fe  Fe9  1  0.49998175  0.50016768  0.74986922  1
  Fe  Fe10  1  0.37256979  0.12513349  0.87316409  1
  Fe  Fe11  1  0.37334048  0.62492891  0.62518970  1
  Fe  Fe12  1  0.87465519  0.62726555  0.87547437  1
  Fe  Fe13  1  0.87808032  0.87193302  0.12664840  1
  Fe  Fe14  1  0.62631253  0.62534683  0.37667045  1
  Fe  Fe15  1  0.37583623  0.37336100  0.87501277  1
  Fe  Fe16  1  0.87742862  0.37226946  0.37322147  1
  Fe  Fe17  1  0.49667618  0.00234733  0.49769490  1
  Fe  Fe18  1  0.74984498  0.25001038  0.75091017  1
  Fe  Fe19  1  0.87546534  0.37512545  0.62604930  1
  Fe  Fe20  1  0.37340407  0.37382052  0.12497013  1
  Fe  Fe21  1  0.50246410  0.24980401  0.24715562  1
  Fe  Fe22  1  0.87529949  0.87340575  0.87408530  1
  Fe  Fe23  1  0.62351249  0.37360983  0.87865635  1
  Fe  Fe24  1  0.75188348  0.00065976  0.75048356  1
  Fe  Fe25  1  0.62496972  0.87691163  0.62266896  1
  Fe  Fe26  1  0.49777386  0.00082365  0.75058362  1
  Fe  Fe27  1  0.12395592  0.62382957  0.87208821  1
  Fe  Fe28  1  0.37516610  0.37106773  0.37757016  1
  Fe  Fe29  1  0.12584719  0.62366637  0.12460982  1
  Fe  Fe30  1  0.75202594  0.00034715  0.00092092  1
  Fe  Fe31  1  0.49692727  0.50111715  0.00162606  1
  Fe  Fe32  1  0.62517825  0.87565838  0.87520237  1
  Fe  Fe33  1  0.49877506  0.50094627  0.49900291  1
  Fe  Fe34  1  0.62674707  0.12266511  0.62326940  1
  Fe  Fe35  1  0.37287353  0.12806679  0.62215295  1
  Fe  Fe36  1  0.75217183  0.49901970  0.24861373  1
  Fe  Fe37  1  0.37493972  0.87452951  0.62445983  1
  Fe  Fe38  1  0.74845375  0.74991505  0.74783885  1
  Fe  Fe39  1  0.25123741  -0.00181574  -0.00062251  1
  Fe  Fe40  1  0.12164921  0.37599071  0.87064975  1
  Fe  Fe41  1  0.49744332  0.00062209  -0.00040248  1
  Fe  Fe42  1  0.87414376  0.12686647  0.62370895  1
  Fe  Fe43  1  0.00132927  0.74997983  0.00080702  1
  Fe  Fe44  1  0.12576779  0.12097040  0.62395079  1
  Fe  Fe45  1  0.75607028  0.00072236  0.25298550  1
  Fe  Fe46  1  0.50093277  0.75033800  0.00074777  1
  Fe  Fe47  1  0.49789870  0.50147570  0.25078477  1
  Fe  Fe48  1  0.87805104  0.37039592  0.87628061  1
  Fe  Fe49  1  0.74835785  0.25175690  0.49928652  1
  Fe  Fe50  1  0.75093117  0.75014386  0.24942844  1
  Fe  Fe51  1  0.24553668  0.24997142  0.74919080  1
  Fe  Fe52  1  0.87149984  0.62422900  0.62535479  1
  Fe  Fe53  1  0.12473880  0.87696931  0.87414149  1
  Fe  Fe54  1  0.62516462  0.87716281  0.12671246  1
  Fe  Fe55  1  0.12589571  0.62206864  0.62789261  1
  Fe  Fe56  1  0.37395929  0.62708286  0.87345455  1
  Fe  Fe57  1  0.12393387  0.11814083  0.37498531  1
  Fe  Fe58  1  0.24971148  0.49812525  0.49990996  1
  Fe  Fe59  1  0.24989470  0.49917674  -0.00186869  1
  Fe  Fe60  1  0.12654981  0.12078888  0.12562437  1
  Fe  Fe61  1  0.25118236  0.49888253  0.25197859  1
  Fe  Fe62  1  0.75332041  0.49786010  0.00211562  1
  Fe  Fe63  1  0.50182752  0.74923483  0.74874505  1
  Fe  Fe64  1  0.87630673  0.87325589  0.62282041  1
  Fe  Fe65  1  0.62614237  0.87449324  0.37520097  1
  Fe  Fe66  1  0.62747181  0.37927869  0.62508217  1
  Fe  Fe67  1  0.87570444  0.62866309  0.37514699  1
  Fe  Fe68  1  -0.00009012  0.00092594  0.00070389  1
  Fe  Fe69  1  -0.00120068  0.50113922  0.24769170  1
  Fe  Fe70  1  0.37254148  0.87201918  0.37566372  1
  Fe  Fe71  1  0.62710025  0.62534915  0.87592419  1
  Fe  Fe72  1  0.62591981  0.62485970  0.12535193  1
  Fe  Fe73  1  0.50171611  0.24994675  0.74825246  1
  Fe  Fe74  1  0.24403934  0.75412971  0.25245536  1
  Fe  Fe75  1  0.24628292  0.25088792  -0.00103613  1
  Fe  Fe76  1  0.37320744  0.12569499  0.12706751  1
  Fe  Fe77  1  0.24849916  0.75111291  -0.00042296  1
  Fe  Fe78  1  0.62459157  0.37618344  0.37491003  1
  Fe  Fe79  1  0.24860268  0.75275972  0.74936522  1
  Fe  Fe80  1  -0.00040474  0.49783186  0.00230962  1
  Fe  Fe81  1  0.24737986  0.24990112  0.25329782  1
  Fe  Fe82  1  0.37286914  0.62777277  0.12801327  1
  Fe  Fe83  1  0.74635549  0.25072810  0.24574895  1
  Fe  Fe84  1  -0.00067969  0.00054008  0.74928310  1
  Fe  Fe85  1  0.12322839  0.87790752  0.61968019  1
  Fe  Fe86  1  0.37467989  0.87244078  0.12604601  1
  Fe  Fe87  1  0.12567133  0.62385673  0.37620595  1
  Fe  Fe88  1  -0.00076760  0.49998650  0.50111535  1
  Fe  Fe89  1  0.00485218  0.24997183  0.24790073  1
  Co  Co90  1  0.62477747  0.11982765  0.12531001  1
  Co  Co91  1  0.12441737  0.37846824  0.62758807  1
  Co  Co92  1  0.74998469  0.75210705  0.00209705  1
  Co  Co93  1  0.37490031  0.87383603  0.87441855  1
  Co  Co94  1  0.75011221  0.75114324  0.50080269  1
  Co  Co95  1  0.74778148  0.25029241  0.00336817  1
  Co  Co96  1  0.25028810  -0.00199200  0.74796981  1
  Co  Co97  1  0.00054142  0.75053335  0.74856893  1
  Co  Co98  1  0.37159615  0.62655718  0.37419839  1
  Co  Co99  1  0.00660927  0.25083784  0.00305220  1
  Co  Co100  1  0.25200260  -0.00296091  0.25223425  1
  Co  Co101  1  0.12048982  0.87940690  0.37945083  1
  Co  Co102  1  0.75139939  0.49859717  0.75454865  1
  Co  Co103  1  0.00533256  0.74899385  0.24959125  1
  Co  Co104  1  0.87609199  0.13327625  0.37361419  1
  Co  Co105  1  0.24763410  0.74989232  0.49998938  1
  Co  Co106  1  0.00218293  0.74569190  0.50177739  1
  Co  Co107  1  0.00167217  0.24712049  0.74701645  1
  Co  Co108  1  0.62288911  0.37893799  0.12242451  1
  Co  Co109  1  0.25209500  0.49890310  0.75133140  1
  Co  Co110  1  0.12264471  0.37853281  0.37445418  1
  Co  Co111  1  0.24296590  0.24996209  0.49748308  1
  Co  Co112  1  0.87620509  0.62712737  0.12431167  1
  Co  Co113  1  0.50122619  0.74959074  0.25193706  1
  Co  Co114  1  -0.00686934  0.00270131  0.49799698  1
  Co  Co115  1  0.88101957  0.86846693  0.37492811  1
  Co  Co116  1  0.75282889  0.49870590  0.49635556  1
  Co  Co117  1  0.25437187  0.00095010  0.49720266  1
  Co  Co118  1  0.49870247  0.24724398  0.00232202  1
  Co  Co119  1  0.12285929  0.87807881  0.12458470  1
  Co  Co120  1  0.50458097  0.25033410  0.50181404  1
  Co  Co121  1  0.12709550  0.37796950  0.12698243  1
  Co  Co122  1  0.87756671  0.37146477  0.12681787  1
  Co  Co123  1  -0.00425374  0.00010632  0.25068657  1
  Co  Co124  1  0.62688578  0.62195347  0.62339660  1
  Co  Co125  1  0.12436680  0.12187140  0.87460210  1
  Co  Co126  1  -0.00423503  0.50123345  0.75017339  1
  Co  Co127  1  0.37647905  0.13022875  0.37567013  1
