# generated using pymatgen
data_Fe45Co19
_symmetry_space_group_name_H-M   'P 1'
_cell_length_a   11.41570133
_cell_length_b   11.41620994
_cell_length_c   11.41531874
_cell_angle_alpha   90.00750089
_cell_angle_beta   90.00222487
_cell_angle_gamma   89.99216553
_symmetry_Int_Tables_number   1
_chemical_formula_structural   Fe45Co19
_chemical_formula_sum   'Fe90 Co38'
_cell_volume   1487.69046235
_cell_formula_units_Z   2
loop_
 _symmetry_equiv_pos_site_id
 _symmetry_equiv_pos_as_xyz
  1  'x, y, z'
loop_
 _atom_site_type_symbol
 _atom_site_label
 _atom_site_symmetry_multiplicity
 _atom_site_fract_x
 _atom_site_fract_y
 _atom_site_fract_z
 _atom_site_occupancy
  Fe  Fe0  1  0.75123652  0.25283197  0.50008216  1
  Fe  Fe1  1  0.37329838  0.87579696  0.87504631  1
  Fe  Fe2  1  0.12490064  0.87340571  0.87642001  1
  Fe  Fe3  1  0.12579232  0.37473219  0.87513897  1
  Fe  Fe4  1  0.12572320  0.12499783  0.87390534  1
  Fe  Fe5  1  0.49880713  0.74857128  0.24950561  1
  Fe  Fe6  1  -0.00032451  0.25051245  0.74947073  1
  Fe  Fe7  1  0.49842078  0.50143540  0.50027126  1
  Fe  Fe8  1  0.37578396  0.37588645  0.62624189  1
  Fe  Fe9  1  0.87144286  0.62728786  0.37748562  1
  Fe  Fe10  1  0.87418271  0.62460387  0.87467428  1
  Fe  Fe11  1  0.62475805  0.87233588  0.37539853  1
  Fe  Fe12  1  -0.00077271  0.24798435  0.49875008  1
  Fe  Fe13  1  0.87567924  0.12297540  0.62303726  1
  Fe  Fe14  1  0.00011875  0.50493024  0.49979405  1
  Fe  Fe15  1  0.12204113  0.37634852  0.12630785  1
  Fe  Fe16  1  0.62563805  0.62530461  0.12515884  1
  Fe  Fe17  1  0.24991605  0.24885929  0.74902415  1
  Fe  Fe18  1  0.49789469  0.24832007  0.49963910  1
  Fe  Fe19  1  0.00071828  -0.00163550  0.75136700  1
  Fe  Fe20  1  -0.00005671  0.24758547  0.25311572  1
  Fe  Fe21  1  0.49922659  0.24841852  0.75082678  1
  Fe  Fe22  1  0.37261046  0.62636964  0.87354901  1
  Fe  Fe23  1  0.87807858  0.62229338  0.12414492  1
  Fe  Fe24  1  0.00175648  0.50287092  0.74989883  1
  Fe  Fe25  1  0.62433156  0.87523589  0.12377771  1
  Fe  Fe26  1  0.49930251  0.00256999  0.00136557  1
  Fe  Fe27  1  0.62708406  0.12661433  0.37326078  1
  Fe  Fe28  1  0.49703755  0.24663739  0.00309981  1
  Fe  Fe29  1  0.62565324  0.12407232  0.62366081  1
  Fe  Fe30  1  0.50134010  0.50187952  -0.00038023  1
  Fe  Fe31  1  0.75018515  -0.00362880  0.49825177  1
  Fe  Fe32  1  0.24611718  0.50212056  0.00240894  1
  Fe  Fe33  1  0.25098127  0.25124243  0.50098360  1
  Fe  Fe34  1  0.37416109  0.37560262  0.87715137  1
  Fe  Fe35  1  0.62560056  0.62842366  0.87505217  1
  Fe  Fe36  1  0.50173826  0.00023299  0.25003934  1
  Fe  Fe37  1  0.24738407  0.74866383  0.00472938  1
  Fe  Fe38  1  0.87914574  0.12170126  0.12760343  1
  Fe  Fe39  1  0.74658078  0.75348061  0.74729819  1
  Fe  Fe40  1  0.88240724  0.87715658  0.12732738  1
  Fe  Fe41  1  0.37300691  0.37620434  0.37215339  1
  Fe  Fe42  1  0.00188855  0.74714794  0.74800466  1
  Fe  Fe43  1  0.00105943  0.50194832  0.25344625  1
  Fe  Fe44  1  0.74765327  0.49958147  0.74701661  1
  Fe  Fe45  1  0.37801228  0.87724677  0.62756736  1
  Fe  Fe46  1  0.00008816  -0.00122033  0.49155854  1
  Fe  Fe47  1  0.12291083  0.87360447  0.62034537  1
  Fe  Fe48  1  0.62710523  0.12439205  0.87686527  1
  Fe  Fe49  1  0.75199551  0.75119134  0.00151625  1
  Fe  Fe50  1  0.00118184  0.74764574  -0.00107295  1
  Fe  Fe51  1  0.24982467  0.75092082  0.74640269  1
  Fe  Fe52  1  0.62632749  0.62560363  0.37671689  1
  Fe  Fe53  1  0.25059044  -0.00173234  0.49934210  1
  Fe  Fe54  1  0.87689597  0.37798448  0.62264578  1
  Fe  Fe55  1  0.12437003  0.12338360  0.62327625  1
  Fe  Fe56  1  0.12409174  0.37660883  0.62382375  1
  Fe  Fe57  1  0.75009898  -0.00424722  0.75033480  1
  Fe  Fe58  1  0.62506405  0.37555373  0.37617619  1
  Fe  Fe59  1  0.00362554  0.75125414  0.25366352  1
  Fe  Fe60  1  0.87488805  0.37839477  0.87701591  1
  Fe  Fe61  1  0.75223795  0.25085947  0.00279161  1
  Fe  Fe62  1  0.37379894  0.87698250  0.12700967  1
  Fe  Fe63  1  0.37399958  0.62237961  0.12746480  1
  Fe  Fe64  1  0.36978728  0.12521284  0.36937478  1
  Fe  Fe65  1  0.37118298  0.87255937  0.37108127  1
  Fe  Fe66  1  0.62472726  0.37376209  0.87649026  1
  Fe  Fe67  1  0.49852121  0.00162475  0.49650958  1
  Fe  Fe68  1  0.24812562  0.50082854  0.74876052  1
  Fe  Fe69  1  0.75104052  0.25154506  0.74783573  1
  Fe  Fe70  1  0.75206608  0.49861946  0.24973656  1
  Fe  Fe71  1  0.13366370  0.62924256  0.37822328  1
  Fe  Fe72  1  0.75359844  -0.00269642  -0.00038627  1
  Fe  Fe73  1  0.50171465  -0.00044641  0.75341190  1
  Fe  Fe74  1  0.24775846  0.00194936  0.00281058  1
  Fe  Fe75  1  0.50142682  0.50114667  0.74961876  1
  Fe  Fe76  1  0.49890222  0.25017926  0.24701716  1
  Fe  Fe77  1  0.87510863  0.12407888  0.87322476  1
  Fe  Fe78  1  0.75312705  0.25295734  0.24905549  1
  Fe  Fe79  1  0.49830118  0.74982635  0.00061744  1
  Fe  Fe80  1  -0.00090574  0.25007789  -0.00109239  1
  Fe  Fe81  1  0.12559126  0.37446921  0.37603316  1
  Fe  Fe82  1  0.75104215  -0.00218890  0.25104029  1
  Fe  Fe83  1  0.25192735  0.24756428  0.00433269  1
  Fe  Fe84  1  0.87747422  0.87221479  0.62190164  1
  Fe  Fe85  1  0.37375482  0.12295323  0.62751754  1
  Fe  Fe86  1  0.75027311  0.75073716  0.24809302  1
  Fe  Fe87  1  0.49688316  0.74826052  0.50079282  1
  Fe  Fe88  1  0.49887460  0.50118729  0.25039375  1
  Fe  Fe89  1  0.62510272  0.37608313  0.12417027  1
  Co  Co90  1  0.00301655  0.50129480  -0.00295662  1
  Co  Co91  1  0.12776307  0.62566996  0.62159033  1
  Co  Co92  1  0.24255754  -0.00354880  0.24958051  1
  Co  Co93  1  0.62422994  0.62612928  0.62337419  1
  Co  Co94  1  0.62039418  0.87634134  0.62225359  1
  Co  Co95  1  0.13095594  0.12807744  0.37600645  1
  Co  Co96  1  0.12665444  0.62682283  0.87335645  1
  Co  Co97  1  0.37288436  0.12182717  0.13134202  1
  Co  Co98  1  0.37504776  0.37931729  0.12376731  1
  Co  Co99  1  0.62764746  0.12397032  0.12603226  1
  Co  Co100  1  -0.00093074  0.74715740  0.49720002  1
  Co  Co101  1  0.37272216  0.12320072  0.87364717  1
  Co  Co102  1  0.25665067  0.75192085  0.50568332  1
  Co  Co103  1  0.24850324  0.49998199  0.24969802  1
  Co  Co104  1  0.87396018  0.87158698  0.37382624  1
  Co  Co105  1  0.87741660  0.37599324  0.37711735  1
  Co  Co106  1  0.37090326  0.62637187  0.37353231  1
  Co  Co107  1  0.74955329  0.49910450  0.50068753  1
  Co  Co108  1  0.87172019  0.12543529  0.37461581  1
  Co  Co109  1  0.62349787  0.87433174  0.87882215  1
  Co  Co110  1  0.87952040  0.37798608  0.12471206  1
  Co  Co111  1  0.00008888  0.00069853  -0.00507388  1
  Co  Co112  1  0.13047301  0.86863280  0.37841633  1
  Co  Co113  1  0.12133071  0.12402931  0.12579637  1
  Co  Co114  1  0.24905065  0.75012838  0.24389218  1
  Co  Co115  1  0.37462260  0.62292498  0.62737196  1
  Co  Co116  1  0.74859193  0.75223664  0.50169198  1
  Co  Co117  1  0.87758715  0.87107591  0.87372770  1
  Co  Co118  1  0.49970764  0.75079398  0.75062212  1
  Co  Co119  1  0.24585307  -0.00205529  0.74860393  1
  Co  Co120  1  0.62274391  0.37374188  0.62352758  1
  Co  Co121  1  0.87312569  0.62661686  0.62501052  1
  Co  Co122  1  0.00511896  0.00004525  0.25936659  1
  Co  Co123  1  0.24927440  0.25356868  0.24665889  1
  Co  Co124  1  0.12155864  0.62455033  0.12710412  1
  Co  Co125  1  0.74896925  0.50094062  0.00136362  1
  Co  Co126  1  0.11942660  0.87700598  0.12351670  1
  Co  Co127  1  0.25210212  0.49762854  0.50000119  1
