# generated using pymatgen
data_Fe45Co19
_symmetry_space_group_name_H-M   'P 1'
_cell_length_a   11.41446362
_cell_length_b   11.41474707
_cell_length_c   11.41395277
_cell_angle_alpha   89.99094542
_cell_angle_beta   90.00170248
_cell_angle_gamma   89.99496443
_symmetry_Int_Tables_number   1
_chemical_formula_structural   Fe45Co19
_chemical_formula_sum   'Fe90 Co38'
_cell_volume   1487.16057829
_cell_formula_units_Z   2
loop_
 _symmetry_equiv_pos_site_id
 _symmetry_equiv_pos_as_xyz
  1  'x, y, z'
loop_
 _atom_site_type_symbol
 _atom_site_label
 _atom_site_symmetry_multiplicity
 _atom_site_fract_x
 _atom_site_fract_y
 _atom_site_fract_z
 _atom_site_occupancy
  Fe  Fe0  1  0.24927928  0.25249910  0.00104051  1
  Fe  Fe1  1  -0.00031934  -0.00275164  0.00189146  1
  Fe  Fe2  1  0.12363717  0.12586291  0.37427850  1
  Fe  Fe3  1  0.75060488  0.50136226  0.75050094  1
  Fe  Fe4  1  0.37630194  0.62464157  0.38211577  1
  Fe  Fe5  1  0.50245224  0.50050723  0.74877000  1
  Fe  Fe6  1  0.87645938  0.12556577  0.62512352  1
  Fe  Fe7  1  0.12356407  0.12571835  0.62337616  1
  Fe  Fe8  1  0.87905738  0.62491662  0.62440689  1
  Fe  Fe9  1  0.12511838  0.37865971  0.87594162  1
  Fe  Fe10  1  0.50034560  0.74971888  0.74804964  1
  Fe  Fe11  1  0.37555850  0.37665715  0.87302252  1
  Fe  Fe12  1  0.00270664  0.74900575  0.75202226  1
  Fe  Fe13  1  0.50153134  0.25080900  0.74967823  1
  Fe  Fe14  1  0.12606186  0.12533394  0.12514369  1
  Fe  Fe15  1  0.37558807  0.12791933  0.37335496  1
  Fe  Fe16  1  0.12480291  0.12394781  0.87584689  1
  Fe  Fe17  1  0.74771876  0.24747797  0.24986942  1
  Fe  Fe18  1  0.49781680  -0.00006160  0.24846087  1
  Fe  Fe19  1  0.37698861  0.37375169  0.12877365  1
  Fe  Fe20  1  0.25158195  0.50003051  0.00162972  1
  Fe  Fe21  1  0.87539609  0.12606939  0.37339274  1
  Fe  Fe22  1  0.62480391  0.12450464  0.37668531  1
  Fe  Fe23  1  0.62866646  0.87185127  0.12737101  1
  Fe  Fe24  1  0.75025903  0.00145116  0.74884637  1
  Fe  Fe25  1  0.12436523  0.62460427  0.37934221  1
  Fe  Fe26  1  -0.00102924  0.75310037  0.49815905  1
  Fe  Fe27  1  0.87478739  0.12558607  0.12454951  1
  Fe  Fe28  1  0.49879832  0.00013830  0.74929137  1
  Fe  Fe29  1  0.37622602  0.12541424  0.62314700  1
  Fe  Fe30  1  0.50334097  0.49780548  0.00076791  1
  Fe  Fe31  1  0.50216893  0.49848785  0.25215800  1
  Fe  Fe32  1  0.75101885  -0.00192568  0.00042997  1
  Fe  Fe33  1  0.24829006  0.50379651  0.74547694  1
  Fe  Fe34  1  0.24772630  0.74535872  0.74650291  1
  Fe  Fe35  1  0.37610523  0.62725302  0.12512458  1
  Fe  Fe36  1  0.37346088  0.87296211  0.87421838  1
  Fe  Fe37  1  -0.00090325  0.49872775  0.25247382  1
  Fe  Fe38  1  0.62804628  0.37495042  0.62326544  1
  Fe  Fe39  1  0.62581770  0.62412710  0.87731289  1
  Fe  Fe40  1  -0.00227444  0.25306444  0.49678280  1
  Fe  Fe41  1  0.25216220  -0.00005543  0.24913975  1
  Fe  Fe42  1  0.62360298  0.12508810  0.12486921  1
  Fe  Fe43  1  0.12077639  0.37916797  0.62303472  1
  Fe  Fe44  1  0.75186382  0.00089345  0.50143300  1
  Fe  Fe45  1  0.87007455  0.37456525  0.87764420  1
  Fe  Fe46  1  0.62361531  0.62486600  0.62164123  1
  Fe  Fe47  1  -0.00024921  0.25129736  0.75233018  1
  Fe  Fe48  1  0.24875735  0.25106760  0.74878725  1
  Fe  Fe49  1  0.75348227  0.50091034  0.49759680  1
  Fe  Fe50  1  0.50056580  0.74935545  0.25207663  1
  Fe  Fe51  1  0.62475623  0.12412137  0.87547900  1
  Fe  Fe52  1  0.25007488  -0.00146624  0.49922645  1
  Fe  Fe53  1  0.74929025  0.24685818  0.75012005  1
  Fe  Fe54  1  0.49831328  -0.00249370  0.50004849  1
  Fe  Fe55  1  0.50226314  0.25289573  0.00065897  1
  Fe  Fe56  1  0.25069513  0.00182080  0.74886464  1
  Fe  Fe57  1  0.49800875  -0.00257168  0.00314885  1
  Fe  Fe58  1  0.75125229  0.75013902  0.49884267  1
  Fe  Fe59  1  0.12856538  0.87199407  0.12762411  1
  Fe  Fe60  1  0.37491245  0.12661440  0.87701578  1
  Fe  Fe61  1  -0.00004004  -0.00008002  0.74976307  1
  Fe  Fe62  1  0.62546422  0.87590025  0.62541787  1
  Fe  Fe63  1  0.00007662  0.25049533  0.00077601  1
  Fe  Fe64  1  0.62418468  0.62474770  0.37743230  1
  Fe  Fe65  1  0.37513491  0.62463843  0.87536249  1
  Fe  Fe66  1  0.37598287  0.37808744  0.62380396  1
  Fe  Fe67  1  0.24968578  0.25283109  0.49996904  1
  Fe  Fe68  1  0.37229370  0.87172752  0.37526322  1
  Fe  Fe69  1  0.12494724  0.87511161  0.62431904  1
  Fe  Fe70  1  0.12620658  0.62454555  0.12395329  1
  Fe  Fe71  1  0.74932914  0.74983351  0.75072511  1
  Fe  Fe72  1  0.87452482  0.62500172  0.87616296  1
  Fe  Fe73  1  0.74941922  0.50444243  0.24884995  1
  Fe  Fe74  1  0.24985498  0.50088549  0.25229942  1
  Fe  Fe75  1  0.00227843  0.75166735  -0.00133364  1
  Fe  Fe76  1  0.24815283  0.25166804  0.24934763  1
  Fe  Fe77  1  0.00078202  0.75045248  0.25130023  1
  Fe  Fe78  1  -0.00122329  -0.00186256  0.49867584  1
  Fe  Fe79  1  0.87458978  0.87540009  0.87433867  1
  Fe  Fe80  1  0.87329834  0.62920728  0.12459924  1
  Fe  Fe81  1  0.50143855  0.25369308  0.49784153  1
  Fe  Fe82  1  -0.00206965  0.49973876  0.00009058  1
  Fe  Fe83  1  -0.00068097  -0.00083342  0.24886627  1
  Fe  Fe84  1  0.87461653  0.37590127  0.62432571  1
  Fe  Fe85  1  0.87221660  0.37410013  0.12634228  1
  Fe  Fe86  1  0.87261224  0.87497539  0.37124591  1
  Fe  Fe87  1  0.50133017  0.75160137  -0.00004280  1
  Fe  Fe88  1  0.62749560  0.87614395  0.37382076  1
  Fe  Fe89  1  0.25244772  -0.00250331  0.00223763  1
  Co  Co90  1  0.62721596  0.37561856  0.12698476  1
  Co  Co91  1  0.37935161  0.62459154  0.62058827  1
  Co  Co92  1  0.12613978  0.87505948  0.37338699  1
  Co  Co93  1  0.87480661  0.87335713  0.62649115  1
  Co  Co94  1  0.12688685  0.87643199  0.87386261  1
  Co  Co95  1  0.75031629  0.00272279  0.24900120  1
  Co  Co96  1  0.37526954  0.12932495  0.12507731  1
  Co  Co97  1  0.37413015  0.87447813  0.62634457  1
  Co  Co98  1  0.74834069  0.24768494  0.00073061  1
  Co  Co99  1  0.37369578  0.37534452  0.37342447  1
  Co  Co100  1  0.87267010  0.87133890  0.12730954  1
  Co  Co101  1  0.12432351  0.37763966  0.12562415  1
  Co  Co102  1  0.87617867  0.12338634  0.87545283  1
  Co  Co103  1  0.24821556  0.74872781  0.50362565  1
  Co  Co104  1  0.24908367  0.49970853  0.50155155  1
  Co  Co105  1  0.74926592  0.75035812  -0.00188264  1
  Co  Co106  1  0.12523205  0.37485721  0.37406453  1
  Co  Co107  1  0.00078039  0.25034337  0.24829985  1
  Co  Co108  1  0.12552851  0.62100558  0.87675126  1
  Co  Co109  1  0.37345776  0.86935457  0.12711055  1
  Co  Co110  1  -0.00479524  0.49657181  0.49425158  1
  Co  Co111  1  0.50338242  0.25032083  0.25167599  1
  Co  Co112  1  0.62268645  0.12416392  0.62338646  1
  Co  Co113  1  0.62986145  0.37570272  0.37443649  1
  Co  Co114  1  0.25061185  0.74509979  0.25329683  1
  Co  Co115  1  0.75073673  0.24788569  0.50042619  1
  Co  Co116  1  0.62807250  0.37570542  0.87458005  1
  Co  Co117  1  0.24889467  0.74866314  -0.00149031  1
  Co  Co118  1  -0.00250881  0.49865737  0.75347095  1
  Co  Co119  1  0.74878018  0.50294200  0.00246657  1
  Co  Co120  1  0.11656419  0.62205946  0.62102790  1
  Co  Co121  1  0.62346597  0.62735567  0.12444155  1
  Co  Co122  1  0.62484906  0.87634093  0.87383086  1
  Co  Co123  1  0.87088226  0.37264001  0.37068641  1
  Co  Co124  1  0.50227106  0.49550833  0.49928544  1
  Co  Co125  1  0.74868681  0.74665827  0.25225025  1
  Co  Co126  1  0.50148243  0.75405829  0.50021555  1
  Co  Co127  1  0.87612663  0.62684646  0.37403106  1
