# generated using pymatgen
data_Fe45Co19
_symmetry_space_group_name_H-M   'P 1'
_cell_length_a   11.41507402
_cell_length_b   11.41551244
_cell_length_c   11.41637198
_cell_angle_alpha   89.99125888
_cell_angle_beta   89.99677042
_cell_angle_gamma   90.00643671
_symmetry_Int_Tables_number   1
_chemical_formula_structural   Fe45Co19
_chemical_formula_sum   'Fe90 Co38'
_cell_volume   1487.65506811
_cell_formula_units_Z   2
loop_
 _symmetry_equiv_pos_site_id
 _symmetry_equiv_pos_as_xyz
  1  'x, y, z'
loop_
 _atom_site_type_symbol
 _atom_site_label
 _atom_site_symmetry_multiplicity
 _atom_site_fract_x
 _atom_site_fract_y
 _atom_site_fract_z
 _atom_site_occupancy
  Fe  Fe0  1  0.87752634  0.62794349  0.37509827  1
  Fe  Fe1  1  0.49816640  0.50266484  0.25126286  1
  Fe  Fe2  1  0.75184477  0.49883128  0.49894926  1
  Fe  Fe3  1  0.75015282  0.24953095  -0.00057015  1
  Fe  Fe4  1  0.87456793  0.37503013  0.87423679  1
  Fe  Fe5  1  0.24459020  -0.00310638  0.50114636  1
  Fe  Fe6  1  0.49677451  0.24828028  0.24713710  1
  Fe  Fe7  1  0.74997769  0.50112330  0.75042221  1
  Fe  Fe8  1  0.49452176  0.49750896  0.50204426  1
  Fe  Fe9  1  -0.00113375  0.74947341  0.00060286  1
  Fe  Fe10  1  0.87437073  0.12453664  0.12469166  1
  Fe  Fe11  1  0.62387565  0.87657170  0.62752302  1
  Fe  Fe12  1  0.75255969  0.25169889  0.50017736  1
  Fe  Fe13  1  0.37299734  0.87442390  0.62766634  1
  Fe  Fe14  1  0.50011221  0.24742764  0.74761619  1
  Fe  Fe15  1  0.37458518  0.12311351  0.87712259  1
  Fe  Fe16  1  0.87408576  0.37517144  0.12538024  1
  Fe  Fe17  1  0.25019153  0.25287414  0.49993317  1
  Fe  Fe18  1  0.25027658  0.49737817  -0.00184997  1
  Fe  Fe19  1  0.00306108  0.24746115  0.75117259  1
  Fe  Fe20  1  0.62523459  0.12257904  0.12564041  1
  Fe  Fe21  1  0.37224177  0.12442295  0.62437647  1
  Fe  Fe22  1  0.75024684  0.25088001  0.25111761  1
  Fe  Fe23  1  0.37514069  0.62471325  0.12257802  1
  Fe  Fe24  1  0.37631636  0.37769432  0.87187567  1
  Fe  Fe25  1  0.62489036  0.12572691  0.37686054  1
  Fe  Fe26  1  0.12535250  0.37471916  0.37281735  1
  Fe  Fe27  1  0.50323754  0.50307376  -0.00099647  1
  Fe  Fe28  1  -0.00150226  0.49958127  0.00009503  1
  Fe  Fe29  1  0.74985454  0.24783638  0.74882168  1
  Fe  Fe30  1  -0.00021946  -0.00000806  -0.00032930  1
  Fe  Fe31  1  0.12429160  0.87419421  0.87440828  1
  Fe  Fe32  1  0.62443525  0.37494080  0.62558100  1
  Fe  Fe33  1  0.24978439  -0.00243928  -0.00005707  1
  Fe  Fe34  1  0.75173196  0.75211301  0.49879620  1
  Fe  Fe35  1  0.87698857  0.37512909  0.62643416  1
  Fe  Fe36  1  0.00059968  0.50088604  0.24848261  1
  Fe  Fe37  1  0.87095388  0.62756405  0.12430196  1
  Fe  Fe38  1  0.49703785  0.24983353  0.00182455  1
  Fe  Fe39  1  0.62502347  0.62466009  0.62351386  1
  Fe  Fe40  1  -0.00050277  0.25064517  0.24825126  1
  Fe  Fe41  1  0.12669057  0.62492968  0.12185553  1
  Fe  Fe42  1  0.12542078  0.37264515  0.87912119  1
  Fe  Fe43  1  0.87990002  0.12394263  0.37726432  1
  Fe  Fe44  1  -0.00013666  0.49822297  0.49836061  1
  Fe  Fe45  1  0.24459820  -0.00119254  0.24772735  1
  Fe  Fe46  1  0.49837433  0.75118443  0.50067515  1
  Fe  Fe47  1  0.49677234  0.25057539  0.50237294  1
  Fe  Fe48  1  0.87563464  0.12445897  0.87596317  1
  Fe  Fe49  1  0.75093228  -0.00065092  0.25118489  1
  Fe  Fe50  1  0.37252600  0.12344617  0.37350555  1
  Fe  Fe51  1  0.50651610  0.75094416  0.00081961  1
  Fe  Fe52  1  0.12633694  0.12956574  0.11853401  1
  Fe  Fe53  1  0.62449750  0.37621112  0.12505887  1
  Fe  Fe54  1  0.00231182  0.74616559  0.75070729  1
  Fe  Fe55  1  0.37745834  0.87663924  0.12787651  1
  Fe  Fe56  1  0.49879609  -0.00028154  0.50097942  1
  Fe  Fe57  1  0.49909275  0.74626270  0.75015450  1
  Fe  Fe58  1  0.62495555  0.12258190  0.87442949  1
  Fe  Fe59  1  0.88350250  0.87470096  0.37177778  1
  Fe  Fe60  1  0.37243828  0.62701370  0.37729262  1
  Fe  Fe61  1  0.62429533  0.37547939  0.87322328  1
  Fe  Fe62  1  0.12340924  0.12613903  0.37637296  1
  Fe  Fe63  1  0.62254619  0.87379777  0.37155278  1
  Fe  Fe64  1  0.37662941  0.87393671  0.87255754  1
  Fe  Fe65  1  0.24826900  0.75120645  0.24797680  1
  Fe  Fe66  1  0.24530460  0.75204804  0.50231771  1
  Fe  Fe67  1  0.00335437  0.50223446  0.75324020  1
  Fe  Fe68  1  0.75121738  -0.00265495  0.49930385  1
  Fe  Fe69  1  0.24657815  0.00226862  0.75095436  1
  Fe  Fe70  1  0.25029588  0.49925872  0.24943882  1
  Fe  Fe71  1  0.74905629  0.50267851  -0.00204908  1
  Fe  Fe72  1  0.75019197  0.49979979  0.25236900  1
  Fe  Fe73  1  0.87326991  0.87422638  0.12509182  1
  Fe  Fe74  1  0.62447199  0.62659398  0.37533835  1
  Fe  Fe75  1  0.37322149  0.87600772  0.37325319  1
  Fe  Fe76  1  0.24822098  0.74284044  0.75086863  1
  Fe  Fe77  1  0.24765387  0.24706912  0.75282634  1
  Fe  Fe78  1  0.62303032  0.37383657  0.37546627  1
  Fe  Fe79  1  0.12428381  0.62723888  0.37655935  1
  Fe  Fe80  1  0.87684015  0.62466830  0.62474682  1
  Fe  Fe81  1  0.25291925  0.25205400  0.24432174  1
  Fe  Fe82  1  0.87984521  0.12411021  0.62196456  1
  Fe  Fe83  1  0.12867401  0.37776683  0.62579710  1
  Fe  Fe84  1  0.87915865  0.87556709  0.62694627  1
  Fe  Fe85  1  0.25148566  0.75184597  0.00003968  1
  Fe  Fe86  1  0.50293438  -0.00321296  0.00031123  1
  Fe  Fe87  1  0.74980222  0.74820008  0.75133164  1
  Fe  Fe88  1  0.87303299  0.87434353  0.87586285  1
  Fe  Fe89  1  0.75077472  0.00166163  0.74886042  1
  Co  Co90  1  0.12524166  0.62078410  0.62149066  1
  Co  Co91  1  0.12359783  0.12570912  0.62222828  1
  Co  Co92  1  0.12351597  0.87339479  0.12202339  1
  Co  Co93  1  0.50019897  0.00167535  0.25159657  1
  Co  Co94  1  0.12427494  0.87410118  0.63160328  1
  Co  Co95  1  0.87597077  0.37422698  0.37337455  1
  Co  Co96  1  0.49836393  0.50306268  0.74744149  1
  Co  Co97  1  0.12606922  0.12622330  0.88210015  1
  Co  Co98  1  0.74428881  0.74995082  -0.00163907  1
  Co  Co99  1  0.00490270  -0.00439149  0.50157087  1
  Co  Co100  1  0.62670404  0.12363181  0.62204771  1
  Co  Co101  1  0.87475296  0.62614963  0.87539530  1
  Co  Co102  1  0.62574648  0.62412503  0.87170083  1
  Co  Co103  1  0.37015533  0.37507355  0.63064892  1
  Co  Co104  1  -0.00467042  0.25100223  -0.00040881  1
  Co  Co105  1  0.49795798  0.00276777  0.74805189  1
  Co  Co106  1  0.00437985  0.00229045  0.24534468  1
  Co  Co107  1  0.00182322  0.75162917  0.50342061  1
  Co  Co108  1  0.00231676  0.00294476  0.75295814  1
  Co  Co109  1  0.12376920  0.37405004  0.12282826  1
  Co  Co110  1  0.00241408  0.74791035  0.24510925  1
  Co  Co111  1  0.37661464  0.62563468  0.87921541  1
  Co  Co112  1  0.62624392  0.87437233  0.13076295  1
  Co  Co113  1  0.12141038  0.87236302  0.37220876  1
  Co  Co114  1  0.00124044  0.25478680  0.50046706  1
  Co  Co115  1  0.25249966  0.49721554  0.49699845  1
  Co  Co116  1  0.74835311  -0.00063430  0.00057734  1
  Co  Co117  1  0.37754268  0.38028676  0.12478206  1
  Co  Co118  1  0.62741495  0.62601302  0.12965851  1
  Co  Co119  1  0.37188405  0.62407504  0.62309162  1
  Co  Co120  1  0.25701610  0.25374183  0.00118567  1
  Co  Co121  1  0.37544336  0.37269680  0.37209916  1
  Co  Co122  1  0.75207911  0.75146573  0.25333246  1
  Co  Co123  1  0.49645320  0.74795607  0.24992350  1
  Co  Co124  1  0.62588337  0.87722758  0.86983616  1
  Co  Co125  1  0.24846790  0.50540615  0.75514413  1
  Co  Co126  1  0.12426900  0.62651841  0.88128807  1
  Co  Co127  1  0.37378232  0.11950398  0.12387971  1
