# generated using pymatgen
data_Fe45Co19
_symmetry_space_group_name_H-M   'P 1'
_cell_length_a   11.41534597
_cell_length_b   11.41582210
_cell_length_c   11.41515592
_cell_angle_alpha   89.99900159
_cell_angle_beta   90.00376020
_cell_angle_gamma   90.00038063
_symmetry_Int_Tables_number   1
_chemical_formula_structural   Fe45Co19
_chemical_formula_sum   'Fe90 Co38'
_cell_volume   1487.57241982
_cell_formula_units_Z   2
loop_
 _symmetry_equiv_pos_site_id
 _symmetry_equiv_pos_as_xyz
  1  'x, y, z'
loop_
 _atom_site_type_symbol
 _atom_site_label
 _atom_site_symmetry_multiplicity
 _atom_site_fract_x
 _atom_site_fract_y
 _atom_site_fract_z
 _atom_site_occupancy
  Fe  Fe0  1  0.74587515  0.50303925  -0.00282553  1
  Fe  Fe1  1  0.74974386  -0.00212537  0.50039002  1
  Fe  Fe2  1  0.62283421  0.62248426  0.37385161  1
  Fe  Fe3  1  0.00277995  0.24937296  0.50223049  1
  Fe  Fe4  1  0.75019507  0.49895637  0.75092818  1
  Fe  Fe5  1  0.37716322  0.62142410  0.12386890  1
  Fe  Fe6  1  0.12570576  0.12553699  0.37464332  1
  Fe  Fe7  1  0.12465242  0.62640770  0.62655648  1
  Fe  Fe8  1  0.12645639  0.62412450  0.12500328  1
  Fe  Fe9  1  0.12337515  0.87429451  0.62815198  1
  Fe  Fe10  1  0.00017238  -0.00009797  0.50108075  1
  Fe  Fe11  1  0.37562585  0.87436776  0.12282154  1
  Fe  Fe12  1  0.87498715  0.37315390  0.37615056  1
  Fe  Fe13  1  0.75089580  0.75086427  0.75136084  1
  Fe  Fe14  1  0.62386183  0.12441460  0.37423630  1
  Fe  Fe15  1  0.87564366  0.62435620  0.87610600  1
  Fe  Fe16  1  0.74892944  -0.00040362  0.24811575  1
  Fe  Fe17  1  -0.00125628  0.50306827  0.50029508  1
  Fe  Fe18  1  0.12784752  0.12404902  0.63061078  1
  Fe  Fe19  1  0.25003501  0.74829212  0.49886584  1
  Fe  Fe20  1  0.12199484  0.62244875  0.87294047  1
  Fe  Fe21  1  0.62770260  0.12543601  0.87478237  1
  Fe  Fe22  1  0.87651919  0.87290147  0.62480465  1
  Fe  Fe23  1  0.75152287  0.25000367  0.00041830  1
  Fe  Fe24  1  0.50089941  0.00007147  0.00104587  1
  Fe  Fe25  1  0.25159358  -0.00054786  0.24908602  1
  Fe  Fe26  1  0.87845142  0.87264619  0.37353345  1
  Fe  Fe27  1  0.62489606  0.12587739  0.12503867  1
  Fe  Fe28  1  0.37485428  0.37473108  0.37711342  1
  Fe  Fe29  1  0.24939833  0.49804312  -0.00476228  1
  Fe  Fe30  1  0.87570369  0.37361640  0.62422298  1
  Fe  Fe31  1  0.25254247  0.50265608  0.50194106  1
  Fe  Fe32  1  0.37332447  0.12489653  0.87335990  1
  Fe  Fe33  1  0.12696776  0.12472719  0.12380419  1
  Fe  Fe34  1  -0.00175251  0.00422652  -0.00200610  1
  Fe  Fe35  1  0.25102881  0.75042460  0.75259406  1
  Fe  Fe36  1  0.00023859  0.24963680  0.24835231  1
  Fe  Fe37  1  0.49946303  0.24925741  0.50194117  1
  Fe  Fe38  1  0.12161680  0.87310089  0.37230625  1
  Fe  Fe39  1  0.87406128  0.12549162  0.12581292  1
  Fe  Fe40  1  0.74774003  0.75139501  0.49955970  1
  Fe  Fe41  1  0.74956267  0.49831747  0.25210796  1
  Fe  Fe42  1  0.49977212  0.25261908  -0.00481590  1
  Fe  Fe43  1  -0.00055991  0.74715014  0.00091090  1
  Fe  Fe44  1  0.75048308  0.25180746  0.75051782  1
  Fe  Fe45  1  0.37874284  0.62215306  0.87285463  1
  Fe  Fe46  1  0.12604910  0.37588350  0.62830965  1
  Fe  Fe47  1  0.24984842  0.25186494  0.25015043  1
  Fe  Fe48  1  0.74827139  0.24975731  0.49901515  1
  Fe  Fe49  1  0.37206641  0.12683132  0.62837106  1
  Fe  Fe50  1  0.62606538  0.87429475  0.87758275  1
  Fe  Fe51  1  0.25247594  0.50039404  0.25106158  1
  Fe  Fe52  1  0.62561263  0.12386578  0.62601263  1
  Fe  Fe53  1  0.24979800  -0.00050785  0.50068739  1
  Fe  Fe54  1  0.62536037  0.62595496  0.62775980  1
  Fe  Fe55  1  0.87524394  0.87447734  0.12366664  1
  Fe  Fe56  1  0.37560245  0.37597333  0.12110389  1
  Fe  Fe57  1  0.25054877  0.74879146  -0.00219337  1
  Fe  Fe58  1  0.25169893  -0.00134851  -0.00191410  1
  Fe  Fe59  1  0.37362561  0.12779959  0.12314068  1
  Fe  Fe60  1  0.24573426  0.25363840  -0.00774084  1
  Fe  Fe61  1  0.62423322  0.37657355  0.12376177  1
  Fe  Fe62  1  0.75115140  -0.00174175  0.75040013  1
  Fe  Fe63  1  0.87987578  0.37440016  0.87680649  1
  Fe  Fe64  1  0.37507171  0.12483928  0.37560858  1
  Fe  Fe65  1  0.74945640  0.50002329  0.49982701  1
  Fe  Fe66  1  0.50001830  0.74935442  0.24833923  1
  Fe  Fe67  1  0.87460064  0.12659534  0.37407891  1
  Fe  Fe68  1  0.37669123  0.87662501  0.37524114  1
  Fe  Fe69  1  0.12310532  0.37607642  0.12319466  1
  Fe  Fe70  1  0.12334153  0.87520759  0.12485889  1
  Fe  Fe71  1  0.87641183  0.37653019  0.12287735  1
  Fe  Fe72  1  -0.00164186  0.50441877  0.25100037  1
  Fe  Fe73  1  0.62209474  0.87821800  0.37387108  1
  Fe  Fe74  1  0.50041856  0.75195064  0.74975376  1
  Fe  Fe75  1  0.25063417  0.74882971  0.25015250  1
  Fe  Fe76  1  0.37516488  0.87401720  0.62415052  1
  Fe  Fe77  1  0.87430370  0.62777645  0.62344582  1
  Fe  Fe78  1  0.49923943  -0.00134194  0.74957795  1
  Fe  Fe79  1  0.50098898  0.25254715  0.25038196  1
  Fe  Fe80  1  0.74997678  0.74894393  0.24736993  1
  Fe  Fe81  1  0.37366069  0.37358572  0.63127231  1
  Fe  Fe82  1  0.87472352  0.12575828  0.62631775  1
  Fe  Fe83  1  0.12521336  0.37670691  0.37603615  1
  Fe  Fe84  1  0.49841596  0.50049705  0.50284801  1
  Fe  Fe85  1  0.87373960  0.87508682  0.87766037  1
  Fe  Fe86  1  0.50404869  0.74661485  0.00153141  1
  Fe  Fe87  1  0.50105576  0.74986079  0.50077877  1
  Fe  Fe88  1  0.12388599  0.87740600  0.87427788  1
  Fe  Fe89  1  0.62497390  0.37406897  0.62582852  1
  Co  Co90  1  0.00100655  0.24905095  0.75057130  1
  Co  Co91  1  0.37833852  0.87302069  0.87812001  1
  Co  Co92  1  0.87210993  0.62276276  0.12298708  1
  Co  Co93  1  0.50397818  0.49820814  0.74984002  1
  Co  Co94  1  0.62416642  0.62740027  0.87058856  1
  Co  Co95  1  0.12637174  0.62447327  0.37506262  1
  Co  Co96  1  0.49923606  0.00122490  0.50312231  1
  Co  Co97  1  0.37617220  0.62685155  0.62850861  1
  Co  Co98  1  0.37647071  0.62530245  0.37520664  1
  Co  Co99  1  -0.00341522  0.50169608  0.74627576  1
  Co  Co100  1  0.24914800  0.50118812  0.75197200  1
  Co  Co101  1  0.74818564  0.74638700  0.00132043  1
  Co  Co102  1  -0.00135326  0.74960532  0.75222139  1
  Co  Co103  1  -0.00007231  0.00177319  0.24918449  1
  Co  Co104  1  0.50387223  0.50027746  -0.00342602  1
  Co  Co105  1  0.62445253  0.37514162  0.37795836  1
  Co  Co106  1  0.11676204  0.37953500  0.87320422  1
  Co  Co107  1  0.87254365  0.12730652  0.87312971  1
  Co  Co108  1  0.37752024  0.37824711  0.87145260  1
  Co  Co109  1  0.75017359  0.00182619  0.00126431  1
  Co  Co110  1  0.00184111  0.24594375  -0.00019358  1
  Co  Co111  1  -0.00088694  0.74504338  0.24660107  1
  Co  Co112  1  -0.00367293  0.00007556  0.75005401  1
  Co  Co113  1  0.62457646  0.62118804  0.12850163  1
  Co  Co114  1  0.24692711  0.25383148  0.75633977  1
  Co  Co115  1  0.50165940  0.24915553  0.75166909  1
  Co  Co116  1  0.00123274  0.50366496  0.00210441  1
  Co  Co117  1  0.87274488  0.62686053  0.37686734  1
  Co  Co118  1  0.12674504  0.12017987  0.87140733  1
  Co  Co119  1  0.24917454  0.25049018  0.50122527  1
  Co  Co120  1  0.25413273  -0.00488985  0.75120799  1
  Co  Co121  1  0.62538400  0.87510907  0.62646583  1
  Co  Co122  1  0.74884148  0.25200931  0.24910174  1
  Co  Co123  1  0.62693350  0.37313069  0.87437473  1
  Co  Co124  1  0.49844318  0.49628854  0.25043577  1
  Co  Co125  1  0.62571000  0.87528315  0.12305773  1
  Co  Co126  1  0.49844720  0.00128052  0.24614755  1
  Co  Co127  1  0.00095188  0.74831018  0.49989840  1
