# generated using pymatgen
data_Fe45Co19
_symmetry_space_group_name_H-M   'P 1'
_cell_length_a   11.41555781
_cell_length_b   11.41509054
_cell_length_c   11.41487802
_cell_angle_alpha   89.99521308
_cell_angle_beta   90.00806604
_cell_angle_gamma   90.00934295
_symmetry_Int_Tables_number   1
_chemical_formula_structural   Fe45Co19
_chemical_formula_sum   'Fe90 Co38'
_cell_volume   1487.46844550
_cell_formula_units_Z   2
loop_
 _symmetry_equiv_pos_site_id
 _symmetry_equiv_pos_as_xyz
  1  'x, y, z'
loop_
 _atom_site_type_symbol
 _atom_site_label
 _atom_site_symmetry_multiplicity
 _atom_site_fract_x
 _atom_site_fract_y
 _atom_site_fract_z
 _atom_site_occupancy
  Fe  Fe0  1  0.62466520  0.12335086  0.12691122  1
  Fe  Fe1  1  0.87579230  0.87476457  0.12223651  1
  Fe  Fe2  1  0.00158215  0.74991015  -0.00184401  1
  Fe  Fe3  1  0.62776371  0.62197391  0.62593741  1
  Fe  Fe4  1  0.87583511  0.37283958  0.37720766  1
  Fe  Fe5  1  0.12386850  0.37363740  0.12575937  1
  Fe  Fe6  1  0.62598960  0.37435916  0.62457378  1
  Fe  Fe7  1  0.49984863  0.74774770  0.25064784  1
  Fe  Fe8  1  0.37173507  0.62613615  0.62223808  1
  Fe  Fe9  1  0.87843941  0.87864520  0.37762484  1
  Fe  Fe10  1  0.74744820  0.00399739  0.49774247  1
  Fe  Fe11  1  0.62574743  0.37600463  0.12794169  1
  Fe  Fe12  1  0.74559878  0.75480816  -0.00358889  1
  Fe  Fe13  1  0.25118523  -0.00273000  0.50196675  1
  Fe  Fe14  1  0.37151414  0.62371009  0.37746694  1
  Fe  Fe15  1  0.49681876  0.49880845  0.74995572  1
  Fe  Fe16  1  0.37796315  0.87547995  0.87394919  1
  Fe  Fe17  1  0.25019730  0.24921774  0.00138362  1
  Fe  Fe18  1  0.49768408  0.49747073  0.49773723  1
  Fe  Fe19  1  0.62823246  0.62168550  0.37389599  1
  Fe  Fe20  1  0.25132928  0.49944735  0.00098533  1
  Fe  Fe21  1  0.25244735  0.00130705  0.25084518  1
  Fe  Fe22  1  0.87338236  0.62636809  0.62682438  1
  Fe  Fe23  1  0.37442168  0.62469754  0.87611206  1
  Fe  Fe24  1  0.75047627  0.75269022  0.25196356  1
  Fe  Fe25  1  0.00087092  0.75295356  0.25212043  1
  Fe  Fe26  1  0.87382223  0.62680969  0.12500504  1
  Fe  Fe27  1  0.12521680  0.62554761  0.12445898  1
  Fe  Fe28  1  0.12744360  0.62237801  0.62459899  1
  Fe  Fe29  1  -0.00169712  0.50110490  0.75085949  1
  Fe  Fe30  1  0.75280920  -0.00343984  0.75197106  1
  Fe  Fe31  1  0.75086983  0.25334096  0.75004961  1
  Fe  Fe32  1  0.87779728  0.37401019  0.12319275  1
  Fe  Fe33  1  0.25053234  0.75179269  0.74954699  1
  Fe  Fe34  1  0.87231976  0.62861746  0.87190033  1
  Fe  Fe35  1  0.75098759  0.49982025  -0.00057987  1
  Fe  Fe36  1  0.12583270  0.62435336  0.37631687  1
  Fe  Fe37  1  0.49798387  0.00058861  0.25081927  1
  Fe  Fe38  1  -0.00117173  0.50028137  0.24886341  1
  Fe  Fe39  1  0.37542644  0.87444809  0.12466668  1
  Fe  Fe40  1  0.75161177  0.00161220  0.25188864  1
  Fe  Fe41  1  0.62686257  0.62428421  0.12726404  1
  Fe  Fe42  1  0.50116478  0.74874975  0.74762121  1
  Fe  Fe43  1  0.50278534  0.75146053  0.00110190  1
  Fe  Fe44  1  0.12235482  0.12508042  0.12517969  1
  Fe  Fe45  1  0.62288862  0.37505777  0.87474950  1
  Fe  Fe46  1  0.37683520  0.12794847  0.37908260  1
  Fe  Fe47  1  0.62509036  0.12442807  0.87219006  1
  Fe  Fe48  1  0.49856429  0.49932275  0.00224284  1
  Fe  Fe49  1  0.74878765  -0.00358128  -0.00282729  1
  Fe  Fe50  1  0.87689219  0.37442529  0.87602403  1
  Fe  Fe51  1  0.12461741  0.37629694  0.87612264  1
  Fe  Fe52  1  0.12894018  0.12393797  0.62823570  1
  Fe  Fe53  1  0.74828850  0.75096335  0.50073668  1
  Fe  Fe54  1  0.49941485  0.24950498  0.00164975  1
  Fe  Fe55  1  0.74808444  0.25019791  0.00029894  1
  Fe  Fe56  1  0.12067262  0.87979383  0.87080719  1
  Fe  Fe57  1  0.37722132  0.87287536  0.38085989  1
  Fe  Fe58  1  0.25094483  0.25196185  0.75328862  1
  Fe  Fe59  1  0.12451566  0.87646755  0.12634237  1
  Fe  Fe60  1  0.62199202  0.87683536  0.37648828  1
  Fe  Fe61  1  0.62161303  0.87640402  0.62325905  1
  Fe  Fe62  1  0.75279790  0.49666713  0.50190898  1
  Fe  Fe63  1  0.50162331  0.00027414  0.00103730  1
  Fe  Fe64  1  0.87709345  0.87408591  0.62608492  1
  Fe  Fe65  1  0.00030901  0.49915348  0.50080192  1
  Fe  Fe66  1  0.24973126  0.75047521  0.25163217  1
  Fe  Fe67  1  0.87721396  0.12569990  0.12245117  1
  Fe  Fe68  1  0.12401470  0.87772291  0.62862344  1
  Fe  Fe69  1  -0.00017730  0.24509692  0.75393578  1
  Fe  Fe70  1  0.49740100  0.24946973  0.24905680  1
  Fe  Fe71  1  0.12383617  0.37544412  0.62732658  1
  Fe  Fe72  1  0.62634348  0.62312131  0.87245234  1
  Fe  Fe73  1  0.87229329  0.12739257  0.62269533  1
  Fe  Fe74  1  0.12716828  0.37599800  0.37109958  1
  Fe  Fe75  1  0.00343997  0.75225028  0.50047555  1
  Fe  Fe76  1  0.87505905  0.62505356  0.37589178  1
  Fe  Fe77  1  0.12682863  0.62302985  0.87453445  1
  Fe  Fe78  1  0.62432734  0.37354522  0.37382851  1
  Fe  Fe79  1  0.00162024  0.24809084  0.49969419  1
  Fe  Fe80  1  0.37298561  0.37351404  0.62320782  1
  Fe  Fe81  1  0.37371770  0.12557139  0.87591641  1
  Fe  Fe82  1  0.49445005  0.00367228  0.74322654  1
  Fe  Fe83  1  0.49845927  0.24825109  0.74736751  1
  Fe  Fe84  1  0.12120120  0.12039597  0.37395013  1
  Fe  Fe85  1  0.37230615  0.37520191  0.12928487  1
  Fe  Fe86  1  0.75321451  0.24774860  0.25251192  1
  Fe  Fe87  1  0.24772461  0.25249107  0.49644801  1
  Fe  Fe88  1  0.24939193  -0.00020326  -0.00071494  1
  Fe  Fe89  1  0.24904336  0.75300990  -0.00204884  1
  Co  Co90  1  0.25575911  -0.00286911  0.74831896  1
  Co  Co91  1  -0.00001509  0.00235903  -0.00233613  1
  Co  Co92  1  0.36797747  0.13057315  0.62238622  1
  Co  Co93  1  0.50420926  0.74458961  0.49917406  1
  Co  Co94  1  0.50196433  0.24918749  0.50333159  1
  Co  Co95  1  0.63056131  0.12556769  0.62852731  1
  Co  Co96  1  0.49823433  0.50180765  0.25040261  1
  Co  Co97  1  0.87980072  0.12298939  0.37744331  1
  Co  Co98  1  0.87997897  0.87127668  0.87348858  1
  Co  Co99  1  -0.00141315  0.50230098  -0.00085072  1
  Co  Co100  1  -0.00227094  -0.00113892  0.24647253  1
  Co  Co101  1  0.49975137  0.00625573  0.50417535  1
  Co  Co102  1  0.37341925  0.37327584  0.37247087  1
  Co  Co103  1  0.61945928  0.87850099  0.87059509  1
  Co  Co104  1  0.00357995  0.74714970  0.74832290  1
  Co  Co105  1  0.37566028  0.12342299  0.12319992  1
  Co  Co106  1  0.87007527  0.12573760  0.87723402  1
  Co  Co107  1  0.62126626  0.12696440  0.37270630  1
  Co  Co108  1  0.87866387  0.37136688  0.62457657  1
  Co  Co109  1  0.13045277  0.12227984  0.87348542  1
  Co  Co110  1  0.75341493  0.49764747  0.24971203  1
  Co  Co111  1  0.37781311  0.86993188  0.62019790  1
  Co  Co112  1  0.00180448  0.24735012  -0.00382728  1
  Co  Co113  1  0.37587141  0.37359583  0.87596372  1
  Co  Co114  1  0.74563921  0.75472172  0.74922260  1
  Co  Co115  1  -0.00421856  0.00700630  0.75094712  1
  Co  Co116  1  0.24979052  0.49628246  0.50025697  1
  Co  Co117  1  -0.00068339  0.24949977  0.25145779  1
  Co  Co118  1  0.37430050  0.62750388  0.12254974  1
  Co  Co119  1  0.75240752  0.49559750  0.74989085  1
  Co  Co120  1  0.62421847  0.87617808  0.12892391  1
  Co  Co121  1  0.24455618  0.75271199  0.50041188  1
  Co  Co122  1  0.24938308  0.50329685  0.24842633  1
  Co  Co123  1  0.74847578  0.24869075  0.49693949  1
  Co  Co124  1  0.12424468  0.87933686  0.37396457  1
  Co  Co125  1  0.00197759  0.00064688  0.50567110  1
  Co  Co126  1  0.25185209  0.49874018  0.75023080  1
  Co  Co127  1  0.24946734  0.24447810  0.25038520  1
