# generated using pymatgen
data_Fe45Co19
_symmetry_space_group_name_H-M   'P 1'
_cell_length_a   11.41465243
_cell_length_b   11.41441148
_cell_length_c   11.41457334
_cell_angle_alpha   90.00095786
_cell_angle_beta   90.00526403
_cell_angle_gamma   89.99636467
_symmetry_Int_Tables_number   1
_chemical_formula_structural   Fe45Co19
_chemical_formula_sum   'Fe90 Co38'
_cell_volume   1487.22232583
_cell_formula_units_Z   2
loop_
 _symmetry_equiv_pos_site_id
 _symmetry_equiv_pos_as_xyz
  1  'x, y, z'
loop_
 _atom_site_type_symbol
 _atom_site_label
 _atom_site_symmetry_multiplicity
 _atom_site_fract_x
 _atom_site_fract_y
 _atom_site_fract_z
 _atom_site_occupancy
  Fe  Fe0  1  0.00039243  -0.00235380  0.00131217  1
  Fe  Fe1  1  0.62354472  0.12647027  0.12624203  1
  Fe  Fe2  1  0.87372137  0.37695750  0.37533860  1
  Fe  Fe3  1  0.62616819  0.87457585  0.62539348  1
  Fe  Fe4  1  0.87213847  0.37638895  0.12705084  1
  Fe  Fe5  1  0.62803496  0.87607314  0.87241046  1
  Fe  Fe6  1  0.00083585  -0.00245796  0.24822350  1
  Fe  Fe7  1  0.62399920  0.12586937  0.87268551  1
  Fe  Fe8  1  0.12466378  0.37666663  0.87687337  1
  Fe  Fe9  1  0.75048343  0.74726103  -0.00062577  1
  Fe  Fe10  1  0.74795400  0.74803069  0.25070563  1
  Fe  Fe11  1  0.50114912  0.75207339  0.49984610  1
  Fe  Fe12  1  0.87763801  0.12654386  0.62313724  1
  Fe  Fe13  1  0.37197134  0.87426814  0.87707891  1
  Fe  Fe14  1  0.62184306  0.62444144  0.12259520  1
  Fe  Fe15  1  0.24990793  -0.00053562  0.24848762  1
  Fe  Fe16  1  0.87815871  0.62455728  0.37034913  1
  Fe  Fe17  1  0.12158320  0.62868562  0.37010230  1
  Fe  Fe18  1  0.12916531  0.87058499  0.12504255  1
  Fe  Fe19  1  0.49521192  0.25175029  0.49720168  1
  Fe  Fe20  1  0.75248138  0.50169821  -0.00027904  1
  Fe  Fe21  1  0.75183749  0.24738084  0.49733860  1
  Fe  Fe22  1  0.37497926  0.37589145  0.12705544  1
  Fe  Fe23  1  0.12256755  0.62440284  0.87709707  1
  Fe  Fe24  1  0.49948267  0.75148408  0.75100439  1
  Fe  Fe25  1  0.49841160  0.50273983  0.25186138  1
  Fe  Fe26  1  0.37776189  0.62429396  0.87813251  1
  Fe  Fe27  1  -0.00019421  0.25238631  0.74901850  1
  Fe  Fe28  1  0.62518232  0.37534334  0.12629716  1
  Fe  Fe29  1  0.25258761  0.50795831  0.24810681  1
  Fe  Fe30  1  0.75262680  0.25152157  0.74970534  1
  Fe  Fe31  1  0.12641895  0.37301218  0.62213439  1
  Fe  Fe32  1  0.37363560  0.87243623  0.37213970  1
  Fe  Fe33  1  0.62384233  0.87335848  0.12582836  1
  Fe  Fe34  1  0.75234627  0.74803924  0.50061049  1
  Fe  Fe35  1  -0.00209700  0.50094248  0.00462577  1
  Fe  Fe36  1  0.24828657  0.74889486  0.75167341  1
  Fe  Fe37  1  0.24994045  0.00109998  0.00197354  1
  Fe  Fe38  1  0.12489282  0.12452847  0.37490558  1
  Fe  Fe39  1  0.74881884  0.00013390  0.25154942  1
  Fe  Fe40  1  0.87108754  0.87405915  0.12434979  1
  Fe  Fe41  1  0.74981060  0.24912513  0.25155597  1
  Fe  Fe42  1  0.37657927  0.62554268  0.62267167  1
  Fe  Fe43  1  0.62871255  0.37545752  0.87476377  1
  Fe  Fe44  1  -0.00058139  0.25104821  0.25173080  1
  Fe  Fe45  1  0.62388265  0.62275015  0.87353773  1
  Fe  Fe46  1  0.24776085  -0.00083648  0.74959693  1
  Fe  Fe47  1  0.62242479  0.12410341  0.37521019  1
  Fe  Fe48  1  0.87741440  0.87363765  0.62493305  1
  Fe  Fe49  1  0.37154187  0.37468886  0.62511942  1
  Fe  Fe50  1  0.12120397  0.62709804  0.62550344  1
  Fe  Fe51  1  0.62373856  0.37603583  0.37567363  1
  Fe  Fe52  1  0.37293389  0.87341888  0.62566506  1
  Fe  Fe53  1  0.25001576  -0.00037794  0.49986201  1
  Fe  Fe54  1  0.37604300  0.12676939  0.62853119  1
  Fe  Fe55  1  0.50076334  -0.00245899  -0.00145619  1
  Fe  Fe56  1  0.12310899  0.12401105  0.87534349  1
  Fe  Fe57  1  0.25001123  0.24873240  -0.00034290  1
  Fe  Fe58  1  0.12843275  0.37458676  0.37461418  1
  Fe  Fe59  1  0.24906528  0.50186679  0.74954539  1
  Fe  Fe60  1  0.24564350  0.75059063  0.49855176  1
  Fe  Fe61  1  0.37737287  0.12452389  0.12614032  1
  Fe  Fe62  1  0.75010271  0.00022835  0.49948424  1
  Fe  Fe63  1  0.50118723  -0.00351128  0.25036843  1
  Fe  Fe64  1  0.37264705  0.37511415  0.87375854  1
  Fe  Fe65  1  0.75201987  0.74664940  0.74922936  1
  Fe  Fe66  1  -0.00207245  0.75007115  0.00122387  1
  Fe  Fe67  1  0.87620063  0.12548405  0.87665654  1
  Fe  Fe68  1  0.62176958  0.12540150  0.62597536  1
  Fe  Fe69  1  0.62732998  0.37577023  0.62352144  1
  Fe  Fe70  1  0.75159346  0.50424252  0.50260277  1
  Fe  Fe71  1  -0.00015366  0.25112245  0.00305819  1
  Fe  Fe72  1  0.49915940  -0.00228093  0.50053346  1
  Fe  Fe73  1  0.00167679  -0.00229611  0.49947325  1
  Fe  Fe74  1  0.12816600  0.37496209  0.12678076  1
  Fe  Fe75  1  0.00030568  0.50028796  0.49904845  1
  Fe  Fe76  1  0.37653068  0.12634960  0.87231763  1
  Fe  Fe77  1  0.74885391  0.00173216  -0.00015320  1
  Fe  Fe78  1  0.25019344  0.50374832  0.00280890  1
  Fe  Fe79  1  0.12463309  0.12618570  0.62398132  1
  Fe  Fe80  1  0.00082202  0.75417892  0.75303678  1
  Fe  Fe81  1  0.75260984  0.00103092  0.74851685  1
  Fe  Fe82  1  0.87466521  0.12514068  0.12631907  1
  Fe  Fe83  1  -0.00372353  0.49702595  0.74899067  1
  Fe  Fe84  1  0.62196627  0.62559675  0.37882282  1
  Fe  Fe85  1  0.87476448  0.87523321  0.37454018  1
  Fe  Fe86  1  0.25261746  0.24731175  0.25176971  1
  Fe  Fe87  1  0.24898085  0.50266541  0.49898049  1
  Fe  Fe88  1  0.50071752  0.49828840  0.74763615  1
  Fe  Fe89  1  0.50040550  0.25196619  -0.00013781  1
  Co  Co90  1  0.50022626  0.49489112  -0.00102058  1
  Co  Co91  1  -0.00199661  0.75403362  0.24708926  1
  Co  Co92  1  0.87287683  0.87543161  0.87614057  1
  Co  Co93  1  0.12712681  0.87512812  0.87765782  1
  Co  Co94  1  0.25445589  0.74406903  0.24794751  1
  Co  Co95  1  0.87982364  0.62642610  0.62659537  1
  Co  Co96  1  0.37693630  0.62677054  0.38082450  1
  Co  Co97  1  0.24923134  0.74565765  0.00114096  1
  Co  Co98  1  0.50097461  0.25443148  0.75025247  1
  Co  Co99  1  0.50290373  0.75455663  -0.00308284  1
  Co  Co100  1  0.37194200  0.37918173  0.37300851  1
  Co  Co101  1  0.62598465  0.87432268  0.37625093  1
  Co  Co102  1  0.12673223  0.87419606  0.37185249  1
  Co  Co103  1  0.50041456  0.74755091  0.25140246  1
  Co  Co104  1  0.00180942  0.49659198  0.24907913  1
  Co  Co105  1  0.87477913  0.37507296  0.87782167  1
  Co  Co106  1  0.38185549  0.62814587  0.11929213  1
  Co  Co107  1  0.87693550  0.12212152  0.37381432  1
  Co  Co108  1  0.12436835  0.87414403  0.62564795  1
  Co  Co109  1  0.87438123  0.62413354  0.12911114  1
  Co  Co110  1  0.74896143  0.24925253  0.00169394  1
  Co  Co111  1  0.62225498  0.62575352  0.62503521  1
  Co  Co112  1  -0.00002482  0.25109311  0.49724061  1
  Co  Co113  1  0.87345108  0.37506188  0.62104754  1
  Co  Co114  1  0.24652702  0.25031731  0.75127084  1
  Co  Co115  1  0.25367557  0.24765274  0.49792901  1
  Co  Co116  1  0.49921042  -0.00367297  0.75021039  1
  Co  Co117  1  0.74592785  0.50158776  0.25116249  1
  Co  Co118  1  0.37635061  0.12093622  0.37265002  1
  Co  Co119  1  0.12471232  0.12629459  0.12608795  1
  Co  Co120  1  0.37553319  0.87319420  0.12503018  1
  Co  Co121  1  0.75193318  0.50060711  0.74830667  1
  Co  Co122  1  0.49904356  0.49695172  0.50148438  1
  Co  Co123  1  0.49949299  0.25166789  0.25158725  1
  Co  Co124  1  0.00033914  0.75084261  0.49734968  1
  Co  Co125  1  -0.00029203  -0.00138650  0.75035673  1
  Co  Co126  1  0.87680530  0.62430637  0.87370526  1
  Co  Co127  1  0.12102739  0.62721267  0.12655181  1
