# generated using pymatgen
data_Fe45Co19
_symmetry_space_group_name_H-M   'P 1'
_cell_length_a   11.41657171
_cell_length_b   11.41461630
_cell_length_c   11.41602604
_cell_angle_alpha   89.99917627
_cell_angle_beta   89.99289483
_cell_angle_gamma   90.00144660
_symmetry_Int_Tables_number   1
_chemical_formula_structural   Fe45Co19
_chemical_formula_sum   'Fe90 Co38'
_cell_volume   1487.68838943
_cell_formula_units_Z   2
loop_
 _symmetry_equiv_pos_site_id
 _symmetry_equiv_pos_as_xyz
  1  'x, y, z'
loop_
 _atom_site_type_symbol
 _atom_site_label
 _atom_site_symmetry_multiplicity
 _atom_site_fract_x
 _atom_site_fract_y
 _atom_site_fract_z
 _atom_site_occupancy
  Fe  Fe0  1  0.62577113  0.12603087  0.37367600  1
  Fe  Fe1  1  -0.00116577  0.25222360  0.49778714  1
  Fe  Fe2  1  0.87919037  0.62819592  0.12956896  1
  Fe  Fe3  1  0.50433458  0.74904336  0.24771083  1
  Fe  Fe4  1  0.24854234  0.24720599  0.74723298  1
  Fe  Fe5  1  0.62312790  0.37789314  0.62356916  1
  Fe  Fe6  1  0.87555983  0.12605950  0.37159975  1
  Fe  Fe7  1  0.75343888  0.50075749  0.50017494  1
  Fe  Fe8  1  0.12474784  0.12590106  0.37468881  1
  Fe  Fe9  1  0.49756692  0.00208282  -0.00184034  1
  Fe  Fe10  1  0.50017308  0.24738031  0.75262191  1
  Fe  Fe11  1  0.62663699  0.37390821  0.87768898  1
  Fe  Fe12  1  0.87155681  0.87154127  0.87292144  1
  Fe  Fe13  1  0.12267861  0.87602260  0.62545523  1
  Fe  Fe14  1  0.12145352  0.62275175  0.62275695  1
  Fe  Fe15  1  0.87674267  0.87480411  0.62602507  1
  Fe  Fe16  1  0.75305441  0.50302615  -0.00024021  1
  Fe  Fe17  1  0.37042567  0.37828698  0.37462495  1
  Fe  Fe18  1  0.62813821  0.37508924  0.37530334  1
  Fe  Fe19  1  0.87854581  0.12252821  0.62738299  1
  Fe  Fe20  1  0.75024307  0.74792655  0.50188460  1
  Fe  Fe21  1  0.37583306  0.87345479  0.12583596  1
  Fe  Fe22  1  0.75277937  0.24935224  0.24554704  1
  Fe  Fe23  1  0.62725624  0.87482462  0.37405217  1
  Fe  Fe24  1  0.37265300  0.87397757  0.87417197  1
  Fe  Fe25  1  0.74962662  0.50170857  0.74958148  1
  Fe  Fe26  1  0.24562155  0.00343144  0.74981905  1
  Fe  Fe27  1  0.50161301  0.74848799  0.00333465  1
  Fe  Fe28  1  0.24807463  0.25222020  0.24706355  1
  Fe  Fe29  1  -0.00150340  0.50193060  -0.00296567  1
  Fe  Fe30  1  0.00029360  0.75023548  0.75314610  1
  Fe  Fe31  1  0.24955749  -0.00081405  0.00011483  1
  Fe  Fe32  1  0.62450175  0.12271925  0.12472402  1
  Fe  Fe33  1  0.62530026  0.37811021  0.12335632  1
  Fe  Fe34  1  0.24796568  -0.00085405  0.24777142  1
  Fe  Fe35  1  0.37363271  0.12470218  0.37398183  1
  Fe  Fe36  1  0.12622310  0.37437527  0.87801317  1
  Fe  Fe37  1  0.50245510  0.75054890  0.74940602  1
  Fe  Fe38  1  0.12220386  0.12543762  0.12355762  1
  Fe  Fe39  1  -0.00368689  0.25008504  0.00075043  1
  Fe  Fe40  1  0.37071944  0.62348846  0.37332449  1
  Fe  Fe41  1  0.75098782  0.00123488  0.49814546  1
  Fe  Fe42  1  0.50191587  0.50078053  0.75299610  1
  Fe  Fe43  1  0.24713122  0.50139305  0.75011116  1
  Fe  Fe44  1  0.62750120  0.87299431  0.87769451  1
  Fe  Fe45  1  0.62621483  0.62381783  0.37640824  1
  Fe  Fe46  1  0.49883185  0.25052653  0.49878093  1
  Fe  Fe47  1  -0.00033394  -0.00158620  0.49660597  1
  Fe  Fe48  1  0.62074658  0.12152546  0.62446379  1
  Fe  Fe49  1  0.87392157  0.87271163  0.12915120  1
  Fe  Fe50  1  0.37208679  0.87270117  0.37346119  1
  Fe  Fe51  1  0.24505489  0.74712579  0.24619414  1
  Fe  Fe52  1  0.62794608  0.62756870  0.87610392  1
  Fe  Fe53  1  0.49914269  0.49998070  0.25052321  1
  Fe  Fe54  1  0.00336646  0.49710927  0.25476674  1
  Fe  Fe55  1  0.25009011  0.00149632  0.50162737  1
  Fe  Fe56  1  0.87764427  0.62443550  0.62684536  1
  Fe  Fe57  1  0.37573062  0.37778200  0.12375499  1
  Fe  Fe58  1  0.49993939  0.74971889  0.49960409  1
  Fe  Fe59  1  0.37748320  0.87860299  0.62645015  1
  Fe  Fe60  1  0.37826706  0.62317349  0.62475600  1
  Fe  Fe61  1  0.24919430  0.74944574  0.50220540  1
  Fe  Fe62  1  0.12196986  0.37787591  0.62268798  1
  Fe  Fe63  1  0.25018283  0.50424440  0.00402494  1
  Fe  Fe64  1  0.75190833  0.50085091  0.25033953  1
  Fe  Fe65  1  0.62370580  0.87640774  0.62410578  1
  Fe  Fe66  1  0.49809034  0.24842104  -0.00016247  1
  Fe  Fe67  1  0.74887259  0.00063975  0.75081450  1
  Fe  Fe68  1  0.00167168  0.24904728  0.75239130  1
  Fe  Fe69  1  0.00156271  -0.00362652  0.25180625  1
  Fe  Fe70  1  0.75276376  0.00124313  0.00103928  1
  Fe  Fe71  1  0.87416785  0.37520523  0.87341493  1
  Fe  Fe72  1  0.37523622  0.62633010  0.87622610  1
  Fe  Fe73  1  0.12310436  0.87036557  0.12127153  1
  Fe  Fe74  1  0.00026622  0.25444715  0.24902209  1
  Fe  Fe75  1  0.87787010  0.37745935  0.62688545  1
  Fe  Fe76  1  0.37734236  0.37734575  0.62615528  1
  Fe  Fe77  1  0.25157001  0.24827840  0.00245458  1
  Fe  Fe78  1  0.12485227  0.62960243  0.87859667  1
  Fe  Fe79  1  0.00168936  0.74916583  0.49480548  1
  Fe  Fe80  1  0.50019915  -0.00044910  0.25132702  1
  Fe  Fe81  1  0.87157374  0.87153336  0.37224229  1
  Fe  Fe82  1  -0.00061905  -0.00284255  -0.00404706  1
  Fe  Fe83  1  0.24952313  0.74875053  0.74871969  1
  Fe  Fe84  1  0.75101567  0.24897518  0.50221098  1
  Fe  Fe85  1  0.25096937  0.24845765  0.50317504  1
  Fe  Fe86  1  0.74917070  0.24829286  0.74881062  1
  Fe  Fe87  1  0.49901841  0.25111626  0.24885245  1
  Fe  Fe88  1  0.75411447  0.24875199  0.00351347  1
  Fe  Fe89  1  0.37333676  0.37567118  0.87531954  1
  Co  Co90  1  0.25097831  0.50028733  0.50472146  1
  Co  Co91  1  0.75110898  0.74789208  0.00623892  1
  Co  Co92  1  0.37759064  0.62540557  0.12693779  1
  Co  Co93  1  0.49915399  0.50098682  -0.00222494  1
  Co  Co94  1  0.11974880  0.12404258  0.62292581  1
  Co  Co95  1  0.49941190  -0.00186251  0.49431009  1
  Co  Co96  1  0.87110135  0.37249402  0.37465324  1
  Co  Co97  1  0.62497613  0.61967119  0.12416161  1
  Co  Co98  1  0.24632232  0.50030452  0.24319816  1
  Co  Co99  1  0.12476158  0.12695288  0.87838744  1
  Co  Co100  1  0.87428362  0.62940545  0.37098967  1
  Co  Co101  1  0.12857988  0.87151634  0.87471884  1
  Co  Co102  1  0.87244462  0.62728607  0.87227877  1
  Co  Co103  1  0.12891939  0.62084955  0.37657387  1
  Co  Co104  1  0.00160566  -0.00101610  0.75486055  1
  Co  Co105  1  0.00298974  0.50104762  0.75505490  1
  Co  Co106  1  0.87496242  0.12598423  0.87358790  1
  Co  Co107  1  0.12343223  0.37534688  0.12079059  1
  Co  Co108  1  0.87582736  0.37968579  0.12512082  1
  Co  Co109  1  0.37988386  0.12144054  0.62606055  1
  Co  Co110  1  0.62778430  0.12667083  0.87790520  1
  Co  Co111  1  0.37153153  0.12450520  0.87308479  1
  Co  Co112  1  0.74856789  0.74986039  0.74634567  1
  Co  Co113  1  0.62526695  0.87977696  0.12326952  1
  Co  Co114  1  0.87884362  0.12136365  0.12686949  1
  Co  Co115  1  0.74449124  0.74921265  0.24561690  1
  Co  Co116  1  0.11792010  0.62762194  0.12330426  1
  Co  Co117  1  0.00564351  0.75280866  0.25572654  1
  Co  Co118  1  0.49856251  0.49966146  0.49649517  1
  Co  Co119  1  0.37459214  0.12384245  0.12670379  1
  Co  Co120  1  -0.00400816  0.49982175  0.49417005  1
  Co  Co121  1  0.50272789  -0.00036832  0.75615690  1
  Co  Co122  1  0.12962038  0.37636461  0.37812726  1
  Co  Co123  1  0.62370485  0.62311065  0.62364828  1
  Co  Co124  1  0.25229176  0.74870750  0.00247190  1
  Co  Co125  1  0.74995910  0.00091495  0.25079447  1
  Co  Co126  1  -0.00499623  0.75237389  -0.00317600  1
  Co  Co127  1  0.12953891  0.87584905  0.37730667  1
