# generated using pymatgen
data_Fe45Co19
_symmetry_space_group_name_H-M   'P 1'
_cell_length_a   11.41460767
_cell_length_b   11.41491777
_cell_length_c   11.41470701
_cell_angle_alpha   89.98922961
_cell_angle_beta   90.00946967
_cell_angle_gamma   89.99613564
_symmetry_Int_Tables_number   1
_chemical_formula_structural   Fe45Co19
_chemical_formula_sum   'Fe90 Co38'
_cell_volume   1487.29983659
_cell_formula_units_Z   2
loop_
 _symmetry_equiv_pos_site_id
 _symmetry_equiv_pos_as_xyz
  1  'x, y, z'
loop_
 _atom_site_type_symbol
 _atom_site_label
 _atom_site_symmetry_multiplicity
 _atom_site_fract_x
 _atom_site_fract_y
 _atom_site_fract_z
 _atom_site_occupancy
  Fe  Fe0  1  0.37586976  0.37550962  0.62374150  1
  Fe  Fe1  1  0.49815901  -0.00304808  0.75134792  1
  Fe  Fe2  1  0.62459270  0.87215221  0.62582837  1
  Fe  Fe3  1  0.62273363  0.62388163  0.12788102  1
  Fe  Fe4  1  0.49921058  0.25167923  0.74955290  1
  Fe  Fe5  1  0.87498738  0.37443536  0.61965150  1
  Fe  Fe6  1  0.12729857  0.87255065  0.37324523  1
  Fe  Fe7  1  0.87491434  0.12436066  0.87511320  1
  Fe  Fe8  1  0.62603907  0.87097222  0.87452851  1
  Fe  Fe9  1  0.87434849  0.87431155  0.37726928  1
  Fe  Fe10  1  0.75025278  0.25196019  0.24924249  1
  Fe  Fe11  1  0.37642397  0.12240259  0.12588820  1
  Fe  Fe12  1  0.87374090  0.62273036  0.12728824  1
  Fe  Fe13  1  0.37580634  0.12228090  0.37709785  1
  Fe  Fe14  1  0.37476302  0.87687272  0.61994935  1
  Fe  Fe15  1  0.62517475  0.62912061  0.87031834  1
  Fe  Fe16  1  0.49874321  0.25365883  0.24816303  1
  Fe  Fe17  1  0.50296660  0.49922056  -0.00200594  1
  Fe  Fe18  1  0.00381143  -0.00011699  0.49659944  1
  Fe  Fe19  1  0.50196190  0.50375823  0.49953748  1
  Fe  Fe20  1  0.74950536  0.50209134  0.74760089  1
  Fe  Fe21  1  0.24874564  0.50397428  -0.00366687  1
  Fe  Fe22  1  -0.00164513  0.74970789  0.25099118  1
  Fe  Fe23  1  0.12480881  0.87119981  0.87607321  1
  Fe  Fe24  1  0.50470828  0.24533233  0.50274164  1
  Fe  Fe25  1  0.50117011  0.00237388  -0.00298228  1
  Fe  Fe26  1  0.74927868  -0.00031001  0.00068548  1
  Fe  Fe27  1  0.62285056  0.62850064  0.37346242  1
  Fe  Fe28  1  0.25046508  0.50228701  0.49878316  1
  Fe  Fe29  1  0.00133261  0.49710529  0.75220651  1
  Fe  Fe30  1  0.62677256  0.12549508  0.87214815  1
  Fe  Fe31  1  0.12424982  0.87297757  0.62326459  1
  Fe  Fe32  1  0.74943477  0.75274370  0.24775381  1
  Fe  Fe33  1  0.00290181  0.00004446  0.00011566  1
  Fe  Fe34  1  0.00052494  0.25067473  0.74999908  1
  Fe  Fe35  1  0.87563497  0.62515872  0.87400173  1
  Fe  Fe36  1  0.74977577  0.50289053  0.50069249  1
  Fe  Fe37  1  0.00114125  0.74840802  0.00235148  1
  Fe  Fe38  1  0.12428461  0.12540235  0.62559820  1
  Fe  Fe39  1  0.12405050  0.37622838  0.62201740  1
  Fe  Fe40  1  0.12763756  0.62436514  0.12839691  1
  Fe  Fe41  1  0.25252264  0.74817576  0.49871130  1
  Fe  Fe42  1  0.24887044  -0.00009941  0.74970726  1
  Fe  Fe43  1  -0.00123025  0.25300366  0.24979274  1
  Fe  Fe44  1  0.49946590  0.49933701  0.75104778  1
  Fe  Fe45  1  0.12178387  0.62550083  0.62585336  1
  Fe  Fe46  1  0.37403993  0.38075828  0.12429130  1
  Fe  Fe47  1  0.49977810  0.25104380  0.00050550  1
  Fe  Fe48  1  0.75335883  -0.00526810  0.75166604  1
  Fe  Fe49  1  0.87270581  0.37596786  0.87733678  1
  Fe  Fe50  1  0.87480207  0.12434522  0.62285901  1
  Fe  Fe51  1  0.24633104  -0.00025166  0.00119689  1
  Fe  Fe52  1  0.74923165  0.49825285  0.25184244  1
  Fe  Fe53  1  0.25252807  0.74816613  0.75143322  1
  Fe  Fe54  1  0.75039166  0.25200250  0.74676240  1
  Fe  Fe55  1  0.00086911  0.24960336  0.00070499  1
  Fe  Fe56  1  0.25954193  0.75144002  0.24659738  1
  Fe  Fe57  1  0.74927643  0.24919409  0.00186644  1
  Fe  Fe58  1  0.00199488  0.50114096  -0.00041638  1
  Fe  Fe59  1  0.50011225  -0.00354265  0.25263342  1
  Fe  Fe60  1  0.49635133  0.74768884  0.00312751  1
  Fe  Fe61  1  0.12965010  0.36994895  0.87638770  1
  Fe  Fe62  1  0.75071993  0.74853481  0.00079206  1
  Fe  Fe63  1  0.37621383  0.37649586  0.37727199  1
  Fe  Fe64  1  0.75273686  0.74577408  0.50502253  1
  Fe  Fe65  1  0.87329331  0.12639582  0.37508750  1
  Fe  Fe66  1  0.87684610  0.87714176  0.12526075  1
  Fe  Fe67  1  0.25142931  0.25338389  0.24853115  1
  Fe  Fe68  1  0.25049578  -0.00219061  0.24989755  1
  Fe  Fe69  1  0.12422051  0.12548693  0.12741754  1
  Fe  Fe70  1  0.74382431  0.00430499  0.49771979  1
  Fe  Fe71  1  0.37522119  0.12222922  0.62328747  1
  Fe  Fe72  1  0.37063304  0.12823591  0.87465814  1
  Fe  Fe73  1  0.25034785  0.50097576  0.75142240  1
  Fe  Fe74  1  0.24877006  0.24984146  0.50101599  1
  Fe  Fe75  1  0.62227060  0.87633826  0.12437734  1
  Fe  Fe76  1  0.87440588  0.37873684  0.12416951  1
  Fe  Fe77  1  0.37738893  0.62505788  0.62512315  1
  Fe  Fe78  1  -0.00230204  0.50396875  0.49404536  1
  Fe  Fe79  1  -0.00610400  0.75326596  0.74721985  1
  Fe  Fe80  1  -0.00102860  -0.00155178  0.75157147  1
  Fe  Fe81  1  0.37301593  0.87296175  0.87903196  1
  Fe  Fe82  1  0.62573800  0.37269418  0.37746703  1
  Fe  Fe83  1  0.62449956  0.12409843  0.12821881  1
  Fe  Fe84  1  0.62272162  0.87128538  0.37586106  1
  Fe  Fe85  1  0.12353695  0.37533672  0.37456899  1
  Fe  Fe86  1  0.12651059  0.12643940  0.37272497  1
  Fe  Fe87  1  0.12714828  0.62675138  0.37202393  1
  Fe  Fe88  1  0.62688530  0.37441085  0.87509516  1
  Fe  Fe89  1  0.87473129  0.12146609  0.12770783  1
  Co  Co90  1  0.00202730  0.24857193  0.49881914  1
  Co  Co91  1  0.12728070  0.12724930  0.87459699  1
  Co  Co92  1  0.50615990  0.00172582  0.49983770  1
  Co  Co93  1  0.12185280  0.62921275  0.87168364  1
  Co  Co94  1  0.87650680  0.87376448  0.88121418  1
  Co  Co95  1  -0.00096844  0.50033269  0.25194545  1
  Co  Co96  1  0.24871076  0.49771195  0.25321869  1
  Co  Co97  1  0.87502535  0.87941072  0.61700183  1
  Co  Co98  1  -0.00014754  0.74797867  0.49824521  1
  Co  Co99  1  0.37718373  0.62225571  0.37123348  1
  Co  Co100  1  0.49623898  0.74878912  0.49920309  1
  Co  Co101  1  0.49467548  0.75239576  0.24865967  1
  Co  Co102  1  0.62203027  0.62860796  0.62801553  1
  Co  Co103  1  0.74769492  0.50365725  -0.00113807  1
  Co  Co104  1  0.37195293  0.37333301  0.87555375  1
  Co  Co105  1  0.62424062  0.37735376  0.62367076  1
  Co  Co106  1  0.37596957  0.61721134  0.12720584  1
  Co  Co107  1  0.24994437  0.25061687  0.74421707  1
  Co  Co108  1  0.87291886  0.37302004  0.37764246  1
  Co  Co109  1  0.25152123  0.24895435  0.00629547  1
  Co  Co110  1  0.62545055  0.12153299  0.63303054  1
  Co  Co111  1  0.12496324  0.37747337  0.12452763  1
  Co  Co112  1  0.12485246  0.87278381  0.12727677  1
  Co  Co113  1  0.87139546  0.62739145  0.37166886  1
  Co  Co114  1  0.74924436  -0.00347639  0.25148180  1
  Co  Co115  1  0.62663244  0.37559123  0.12408242  1
  Co  Co116  1  0.75655662  0.75126659  0.74748657  1
  Co  Co117  1  0.37787434  0.62548728  0.87552683  1
  Co  Co118  1  0.62311758  0.12764057  0.36762574  1
  Co  Co119  1  0.37547460  0.87909134  0.37978208  1
  Co  Co120  1  0.24523019  0.00066919  0.49973726  1
  Co  Co121  1  0.74477504  0.24577917  0.50240573  1
  Co  Co122  1  0.37627826  0.87918672  0.12086123  1
  Co  Co123  1  0.88007978  0.62132365  0.62657183  1
  Co  Co124  1  0.49540161  0.75338473  0.74900299  1
  Co  Co125  1  0.50407933  0.49754156  0.25261965  1
  Co  Co126  1  0.25170310  0.74678860  0.00261039  1
  Co  Co127  1  0.00009922  -0.00123187  0.25360869  1
