# generated using pymatgen
data_Fe45Co19
_symmetry_space_group_name_H-M   'P 1'
_cell_length_a   11.41808068
_cell_length_b   11.41465104
_cell_length_c   11.41552601
_cell_angle_alpha   89.98871854
_cell_angle_beta   90.00382617
_cell_angle_gamma   89.99589445
_symmetry_Int_Tables_number   1
_chemical_formula_structural   Fe45Co19
_chemical_formula_sum   'Fe90 Co38'
_cell_volume   1487.82435587
_cell_formula_units_Z   2
loop_
 _symmetry_equiv_pos_site_id
 _symmetry_equiv_pos_as_xyz
  1  'x, y, z'
loop_
 _atom_site_type_symbol
 _atom_site_label
 _atom_site_symmetry_multiplicity
 _atom_site_fract_x
 _atom_site_fract_y
 _atom_site_fract_z
 _atom_site_occupancy
  Fe  Fe0  1  0.24961908  0.00197733  0.25088674  1
  Fe  Fe1  1  0.75036443  0.25322369  0.50138451  1
  Fe  Fe2  1  0.62437286  0.62303157  0.87801731  1
  Fe  Fe3  1  0.87484228  0.12609819  0.62428599  1
  Fe  Fe4  1  -0.00113577  -0.00082809  -0.00038136  1
  Fe  Fe5  1  0.74874187  0.74806736  0.00124270  1
  Fe  Fe6  1  0.50018815  0.74914529  0.75029008  1
  Fe  Fe7  1  0.00211368  0.75112273  -0.00074051  1
  Fe  Fe8  1  0.12330625  0.87623102  0.87053769  1
  Fe  Fe9  1  0.75218452  0.74933704  0.49875612  1
  Fe  Fe10  1  0.74900268  0.24918827  0.24845776  1
  Fe  Fe11  1  0.87619292  0.62564097  0.87712292  1
  Fe  Fe12  1  0.37431908  0.37601370  0.12726119  1
  Fe  Fe13  1  0.62666108  0.12349847  0.87422776  1
  Fe  Fe14  1  0.62637778  0.87425854  0.37291612  1
  Fe  Fe15  1  0.00091520  0.00006248  0.25108928  1
  Fe  Fe16  1  0.12651718  0.37630711  0.87583098  1
  Fe  Fe17  1  0.87508089  0.12627347  0.37474253  1
  Fe  Fe18  1  0.00175078  0.25139205  0.24929567  1
  Fe  Fe19  1  0.00079852  -0.00109530  0.49903176  1
  Fe  Fe20  1  0.24690571  0.49780119  0.25107302  1
  Fe  Fe21  1  0.00166467  0.50012005  0.74972373  1
  Fe  Fe22  1  0.50079267  0.50025649  0.75139825  1
  Fe  Fe23  1  0.37430087  0.87735054  0.12548681  1
  Fe  Fe24  1  0.62625235  0.12454284  0.37596888  1
  Fe  Fe25  1  0.75084351  0.49890641  0.50019032  1
  Fe  Fe26  1  0.12452193  0.62604698  0.62167174  1
  Fe  Fe27  1  0.62422564  0.62465323  0.37572998  1
  Fe  Fe28  1  0.24854550  -0.00110322  0.50163336  1
  Fe  Fe29  1  0.62420874  0.87585766  0.62597656  1
  Fe  Fe30  1  0.87412086  0.87268760  0.37157050  1
  Fe  Fe31  1  0.50143854  0.24930743  0.24712443  1
  Fe  Fe32  1  0.50031935  0.25019136  0.00142251  1
  Fe  Fe33  1  0.37458178  0.87643691  0.62713339  1
  Fe  Fe34  1  0.12646540  0.62229344  0.87839989  1
  Fe  Fe35  1  0.49869779  0.74744072  0.25088678  1
  Fe  Fe36  1  0.37550778  0.62187313  0.12656970  1
  Fe  Fe37  1  0.25084022  0.25186040  0.00202571  1
  Fe  Fe38  1  0.49992675  0.00057407  0.49929650  1
  Fe  Fe39  1  0.24903443  0.25158140  0.74716593  1
  Fe  Fe40  1  0.49973489  0.25254009  0.50154158  1
  Fe  Fe41  1  -0.00035522  0.25151249  0.74897698  1
  Fe  Fe42  1  0.12501813  0.12608246  0.87522307  1
  Fe  Fe43  1  0.12551886  0.87296560  0.12762405  1
  Fe  Fe44  1  0.00008337  0.49708739  0.49899964  1
  Fe  Fe45  1  0.37254127  0.62340248  0.87456850  1
  Fe  Fe46  1  0.37429399  0.12416193  0.87482702  1
  Fe  Fe47  1  0.75017430  0.50024988  0.75011965  1
  Fe  Fe48  1  -0.00129257  0.25198568  0.00111762  1
  Fe  Fe49  1  0.62722341  0.37719147  0.87754521  1
  Fe  Fe50  1  0.49896402  0.74942848  0.00013954  1
  Fe  Fe51  1  0.37330102  0.87354237  0.37464944  1
  Fe  Fe52  1  0.25156423  0.49426412  0.49923195  1
  Fe  Fe53  1  0.12660905  0.13043538  0.37764822  1
  Fe  Fe54  1  0.87469575  0.12601156  0.12598486  1
  Fe  Fe55  1  0.62636020  0.87474682  0.12863448  1
  Fe  Fe56  1  0.62591036  0.87641049  0.87331902  1
  Fe  Fe57  1  0.87590191  0.37642979  0.37263364  1
  Fe  Fe58  1  0.12595555  0.12580865  0.12398172  1
  Fe  Fe59  1  0.12374773  0.12682328  0.62311640  1
  Fe  Fe60  1  0.87423399  0.87166740  0.12783011  1
  Fe  Fe61  1  0.87992084  0.87308226  0.62878646  1
  Fe  Fe62  1  0.37266213  0.37688444  0.87237857  1
  Fe  Fe63  1  0.24756516  0.74901275  0.74797294  1
  Fe  Fe64  1  0.75130280  0.74920552  0.75109926  1
  Fe  Fe65  1  0.75126840  -0.00133030  0.50039664  1
  Fe  Fe66  1  0.75102292  0.50535476  0.24591161  1
  Fe  Fe67  1  0.87363957  0.12491244  0.87466392  1
  Fe  Fe68  1  0.50037890  0.00135935  0.00067595  1
  Fe  Fe69  1  0.62724423  0.37815170  0.12162438  1
  Fe  Fe70  1  0.87631950  0.62449991  0.62380648  1
  Fe  Fe71  1  0.62521766  0.37603996  0.37442220  1
  Fe  Fe72  1  0.24866048  -0.00035375  -0.00122971  1
  Fe  Fe73  1  0.49732210  0.49794065  0.49722848  1
  Fe  Fe74  1  0.74818503  0.25169596  0.74706567  1
  Fe  Fe75  1  0.62483296  0.62373883  0.62401566  1
  Fe  Fe76  1  0.49938918  0.00290335  0.25018801  1
  Fe  Fe77  1  0.37406063  0.87621674  0.87281435  1
  Fe  Fe78  1  0.37247852  0.12959018  0.37419845  1
  Fe  Fe79  1  0.75137877  0.00024087  0.00150869  1
  Fe  Fe80  1  0.50257614  0.24994744  0.74818948  1
  Fe  Fe81  1  0.49758887  0.74884707  0.49923999  1
  Fe  Fe82  1  0.12726764  0.87092830  0.37487772  1
  Fe  Fe83  1  0.00162710  0.50116644  0.24806922  1
  Fe  Fe84  1  0.25023294  0.74940831  0.00153003  1
  Fe  Fe85  1  0.87333996  0.37507542  0.87569813  1
  Fe  Fe86  1  0.37547709  0.12449470  0.62559597  1
  Fe  Fe87  1  0.37443166  0.62260168  0.62463165  1
  Fe  Fe88  1  0.12688979  0.62811731  0.37642387  1
  Fe  Fe89  1  -0.00153669  0.49798299  0.00361204  1
  Co  Co90  1  -0.00046928  0.00355411  0.75083424  1
  Co  Co91  1  0.37495616  0.37142829  0.37112560  1
  Co  Co92  1  0.00190100  0.74511221  0.75172613  1
  Co  Co93  1  0.87574523  0.87378946  0.87503602  1
  Co  Co94  1  0.50152743  0.49935858  0.25176548  1
  Co  Co95  1  0.75114030  0.00208077  0.25057945  1
  Co  Co96  1  0.12507168  0.62634576  0.12446995  1
  Co  Co97  1  0.24805368  0.00130875  0.74920377  1
  Co  Co98  1  0.24622926  0.50065090  0.74769551  1
  Co  Co99  1  0.75014535  0.24881328  0.00012869  1
  Co  Co100  1  0.37698144  0.37713613  0.62839183  1
  Co  Co101  1  0.37272172  0.12424187  0.12418310  1
  Co  Co102  1  0.87372021  0.37336988  0.12643662  1
  Co  Co103  1  0.75393886  0.50263209  0.00229932  1
  Co  Co104  1  0.62606151  0.12336797  0.12473751  1
  Co  Co105  1  0.87926562  0.62974245  0.12298675  1
  Co  Co106  1  0.87555969  0.37716359  0.62601846  1
  Co  Co107  1  0.74934466  0.74332944  0.25088305  1
  Co  Co108  1  0.25318095  0.25449257  0.50335588  1
  Co  Co109  1  0.25220456  0.75165028  0.50264518  1
  Co  Co110  1  0.25227655  0.74852461  0.24802098  1
  Co  Co111  1  0.87665270  0.62284525  0.37658117  1
  Co  Co112  1  -0.00386134  0.25221830  0.50024220  1
  Co  Co113  1  0.62043790  0.62316548  0.12250903  1
  Co  Co114  1  0.62571235  0.12305611  0.62333918  1
  Co  Co115  1  0.12472490  0.37463787  0.12321545  1
  Co  Co116  1  0.12361030  0.37102963  0.37645818  1
  Co  Co117  1  -0.00160355  0.75149160  0.49776934  1
  Co  Co118  1  0.25085555  0.49924850  0.00195764  1
  Co  Co119  1  0.12143163  0.87399472  0.62730744  1
  Co  Co120  1  0.62396311  0.37816353  0.62441649  1
  Co  Co121  1  0.00017334  0.74753638  0.25302400  1
  Co  Co122  1  0.12274620  0.37378880  0.62393659  1
  Co  Co123  1  0.50038030  0.00071164  0.75076997  1
  Co  Co124  1  0.37243106  0.62394628  0.37442067  1
  Co  Co125  1  0.49670316  0.49824905  -0.00234862  1
  Co  Co126  1  0.24764265  0.25083148  0.24752803  1
  Co  Co127  1  0.75210672  -0.00109523  0.74853776  1
