# generated using pymatgen
data_Fe45Co19
_symmetry_space_group_name_H-M   'P 1'
_cell_length_a   11.41485456
_cell_length_b   11.41559978
_cell_length_c   11.41524381
_cell_angle_alpha   90.00208096
_cell_angle_beta   90.00359110
_cell_angle_gamma   90.00021042
_symmetry_Int_Tables_number   1
_chemical_formula_structural   Fe45Co19
_chemical_formula_sum   'Fe90 Co38'
_cell_volume   1487.49086507
_cell_formula_units_Z   2
loop_
 _symmetry_equiv_pos_site_id
 _symmetry_equiv_pos_as_xyz
  1  'x, y, z'
loop_
 _atom_site_type_symbol
 _atom_site_label
 _atom_site_symmetry_multiplicity
 _atom_site_fract_x
 _atom_site_fract_y
 _atom_site_fract_z
 _atom_site_occupancy
  Fe  Fe0  1  0.50140117  -0.00068398  0.74947154  1
  Fe  Fe1  1  0.12319966  0.62812337  0.12602091  1
  Fe  Fe2  1  0.00010225  0.50107378  0.25086967  1
  Fe  Fe3  1  0.87145581  0.62334197  0.37603620  1
  Fe  Fe4  1  0.24997174  0.25131037  0.74725205  1
  Fe  Fe5  1  0.37545371  0.62807297  0.37497629  1
  Fe  Fe6  1  0.62518091  0.62530724  0.12518544  1
  Fe  Fe7  1  0.00235297  0.00291697  0.49494675  1
  Fe  Fe8  1  0.74839076  0.75063936  0.49968148  1
  Fe  Fe9  1  0.37294076  0.12266513  0.62383097  1
  Fe  Fe10  1  0.50138303  0.75031283  -0.00017363  1
  Fe  Fe11  1  0.24748176  -0.00165397  0.49507162  1
  Fe  Fe12  1  0.25059680  0.50013709  0.25071082  1
  Fe  Fe13  1  -0.00118461  0.24787441  0.00288746  1
  Fe  Fe14  1  0.12336605  0.37622967  0.12572979  1
  Fe  Fe15  1  0.62675148  0.12736184  0.87671704  1
  Fe  Fe16  1  0.87185372  0.13014811  0.37676065  1
  Fe  Fe17  1  0.49984803  0.75341376  0.74740098  1
  Fe  Fe18  1  0.49850719  0.00315212  0.24989102  1
  Fe  Fe19  1  0.12395846  0.12105154  0.12797911  1
  Fe  Fe20  1  0.87638064  0.62145168  0.12174723  1
  Fe  Fe21  1  0.12476130  0.37334394  0.37631572  1
  Fe  Fe22  1  0.62643670  0.62610273  0.62645938  1
  Fe  Fe23  1  0.75171367  0.75135122  0.74831231  1
  Fe  Fe24  1  0.74990487  0.25003654  0.74806414  1
  Fe  Fe25  1  0.62668489  0.87496751  0.87483614  1
  Fe  Fe26  1  0.88253477  0.87937781  0.12583902  1
  Fe  Fe27  1  0.75234715  0.75111251  0.24855790  1
  Fe  Fe28  1  0.75085228  0.00035580  0.25344204  1
  Fe  Fe29  1  -0.00107926  0.24894788  0.24950238  1
  Fe  Fe30  1  0.12672248  0.62891313  0.37401460  1
  Fe  Fe31  1  0.25210564  0.75263711  0.49952773  1
  Fe  Fe32  1  0.49911762  0.50081248  0.25084622  1
  Fe  Fe33  1  0.87507479  0.37308598  0.37608987  1
  Fe  Fe34  1  0.50191378  0.24735219  0.50074337  1
  Fe  Fe35  1  0.25057147  0.49827829  0.75115943  1
  Fe  Fe36  1  0.00127563  0.50072323  0.49891476  1
  Fe  Fe37  1  0.12449058  0.87725539  0.62589032  1
  Fe  Fe38  1  0.24632276  0.24972178  0.50351418  1
  Fe  Fe39  1  0.25284879  0.25124862  0.24721488  1
  Fe  Fe40  1  0.87384405  0.87815943  0.62384845  1
  Fe  Fe41  1  0.75394456  0.00226473  -0.00173930  1
  Fe  Fe42  1  0.74864927  0.24987334  0.24735410  1
  Fe  Fe43  1  0.25041234  0.75209727  0.74880455  1
  Fe  Fe44  1  0.87688432  0.87542998  0.87518190  1
  Fe  Fe45  1  0.24579662  0.75560731  0.00350768  1
  Fe  Fe46  1  0.25016585  -0.00104241  0.75130386  1
  Fe  Fe47  1  -0.00091389  0.50129522  0.74994493  1
  Fe  Fe48  1  0.87277915  0.12344604  0.62219124  1
  Fe  Fe49  1  -0.00126712  0.74823925  0.74934058  1
  Fe  Fe50  1  0.87374709  0.37630133  0.87664074  1
  Fe  Fe51  1  0.87233746  0.62225506  0.87760089  1
  Fe  Fe52  1  0.62001138  0.37397194  0.12093747  1
  Fe  Fe53  1  0.75179993  0.75151438  0.00245749  1
  Fe  Fe54  1  0.50050952  0.24789419  0.74952167  1
  Fe  Fe55  1  0.62389476  0.37296340  0.37359098  1
  Fe  Fe56  1  0.37508316  0.62309271  0.62459122  1
  Fe  Fe57  1  0.87760369  0.87252212  0.37486973  1
  Fe  Fe58  1  0.12667993  0.62316320  0.62441592  1
  Fe  Fe59  1  0.62963656  0.12044295  0.62285535  1
  Fe  Fe60  1  0.24428793  -0.00601364  0.00159764  1
  Fe  Fe61  1  0.50325206  0.50013145  0.75587888  1
  Fe  Fe62  1  0.37291420  0.12435655  0.87655995  1
  Fe  Fe63  1  0.25155262  0.25048746  0.00304944  1
  Fe  Fe64  1  0.50130087  0.50204183  0.49760271  1
  Fe  Fe65  1  0.49752633  0.24461186  0.24560979  1
  Fe  Fe66  1  0.87595474  0.37579077  0.62268588  1
  Fe  Fe67  1  0.62239488  0.87326868  0.37523689  1
  Fe  Fe68  1  -0.00067236  0.74889903  0.50130411  1
  Fe  Fe69  1  0.37486697  0.87499269  0.87573632  1
  Fe  Fe70  1  0.37814885  0.37313338  0.87848464  1
  Fe  Fe71  1  0.24972998  0.49928099  0.00083831  1
  Fe  Fe72  1  0.50034348  -0.00077398  0.49988917  1
  Fe  Fe73  1  0.62419618  0.37609750  0.62618624  1
  Fe  Fe74  1  0.37505527  0.37216428  0.37598275  1
  Fe  Fe75  1  0.62517376  0.87812878  0.12521901  1
  Fe  Fe76  1  0.75315183  0.24897623  0.00377950  1
  Fe  Fe77  1  0.37391089  0.62770087  0.87625746  1
  Fe  Fe78  1  0.12488870  0.12634714  0.87363166  1
  Fe  Fe79  1  0.12490390  0.62607596  0.87595150  1
  Fe  Fe80  1  0.74919364  0.49813556  0.24762030  1
  Fe  Fe81  1  0.49951724  0.75042306  0.24906971  1
  Fe  Fe82  1  0.37539381  0.37704793  0.62399603  1
  Fe  Fe83  1  0.12364949  0.37402871  0.87494784  1
  Fe  Fe84  1  0.00115888  0.24983864  0.74619258  1
  Fe  Fe85  1  0.24988154  -0.00700611  0.25252500  1
  Fe  Fe86  1  0.49981724  0.00247316  0.00064871  1
  Fe  Fe87  1  -0.00181379  0.00177705  0.75237438  1
  Fe  Fe88  1  0.37514958  0.62535848  0.12388460  1
  Fe  Fe89  1  0.74743973  0.49897688  0.50011743  1
  Co  Co90  1  0.00173868  0.00172487  -0.00350967  1
  Co  Co91  1  0.37280254  0.87762370  0.62418666  1
  Co  Co92  1  -0.00543514  0.74461205  0.25062614  1
  Co  Co93  1  0.74496323  0.49900186  0.00046951  1
  Co  Co94  1  0.62508493  0.12545887  0.37509032  1
  Co  Co95  1  0.00036745  0.75094474  -0.00179511  1
  Co  Co96  1  0.87331590  0.62363173  0.62349041  1
  Co  Co97  1  0.12921668  0.12881533  0.37138662  1
  Co  Co98  1  0.25261858  0.75407644  0.24765375  1
  Co  Co99  1  0.12279014  0.87422240  0.87066257  1
  Co  Co100  1  0.25065941  0.49989225  0.49692080  1
  Co  Co101  1  0.74858216  0.49808145  0.75032426  1
  Co  Co102  1  0.11501043  0.87456058  0.13171674  1
  Co  Co103  1  0.12110966  0.86914380  0.37167199  1
  Co  Co104  1  0.62499950  0.36880333  0.87850224  1
  Co  Co105  1  0.37981368  0.87330002  0.37596306  1
  Co  Co106  1  0.62924152  0.87700268  0.62448896  1
  Co  Co107  1  0.75074723  0.00069706  0.75365555  1
  Co  Co108  1  0.49552762  0.24410851  0.00391410  1
  Co  Co109  1  0.37810202  0.37890103  0.12348471  1
  Co  Co110  1  0.00383752  0.24725710  0.50214684  1
  Co  Co111  1  0.12555922  0.12056051  0.62763328  1
  Co  Co112  1  0.62700695  0.62678566  0.37294444  1
  Co  Co113  1  0.62834326  0.12236339  0.12428528  1
  Co  Co114  1  0.74688630  0.25204469  0.50135896  1
  Co  Co115  1  0.37852189  0.87575901  0.12386317  1
  Co  Co116  1  0.37319502  0.12626524  0.37565865  1
  Co  Co117  1  0.87608982  0.12878275  0.87347442  1
  Co  Co118  1  0.36895108  0.11917109  0.12513483  1
  Co  Co119  1  0.50102152  0.74929662  0.50338588  1
  Co  Co120  1  0.87667050  0.37693367  0.12483728  1
  Co  Co121  1  0.62894085  0.62990455  0.87359398  1
  Co  Co122  1  -0.00099287  0.00438267  0.25827970  1
  Co  Co123  1  0.75106006  -0.00213056  0.49403051  1
  Co  Co124  1  0.50224449  0.50366940  -0.00435234  1
  Co  Co125  1  0.12463350  0.37963303  0.62478814  1
  Co  Co126  1  0.00240344  0.49934869  -0.00027521  1
  Co  Co127  1  0.87651189  0.12125671  0.12799294  1
