# generated using pymatgen
data_Fe45Co19
_symmetry_space_group_name_H-M   'P 1'
_cell_length_a   11.41433893
_cell_length_b   11.41405718
_cell_length_c   11.41452993
_cell_angle_alpha   90.00432483
_cell_angle_beta   89.99301888
_cell_angle_gamma   89.99457950
_symmetry_Int_Tables_number   1
_chemical_formula_structural   Fe45Co19
_chemical_formula_sum   'Fe90 Co38'
_cell_volume   1487.12965031
_cell_formula_units_Z   2
loop_
 _symmetry_equiv_pos_site_id
 _symmetry_equiv_pos_as_xyz
  1  'x, y, z'
loop_
 _atom_site_type_symbol
 _atom_site_label
 _atom_site_symmetry_multiplicity
 _atom_site_fract_x
 _atom_site_fract_y
 _atom_site_fract_z
 _atom_site_occupancy
  Fe  Fe0  1  0.00002511  0.49958421  0.24770933  1
  Fe  Fe1  1  0.37982517  0.62543701  0.87458228  1
  Fe  Fe2  1  0.87366222  0.12835595  0.62482698  1
  Fe  Fe3  1  0.37382614  0.37771577  0.87638662  1
  Fe  Fe4  1  0.50127141  0.25327204  0.24817843  1
  Fe  Fe5  1  -0.00498278  0.25556956  0.00460800  1
  Fe  Fe6  1  0.12416135  0.62484461  0.37388253  1
  Fe  Fe7  1  0.24980507  -0.00081030  0.00046094  1
  Fe  Fe8  1  0.12161474  0.12690125  0.87780350  1
  Fe  Fe9  1  0.12711346  0.87352342  0.87374943  1
  Fe  Fe10  1  0.50098006  0.74989015  0.50123895  1
  Fe  Fe11  1  0.12110989  0.12549999  0.12420254  1
  Fe  Fe12  1  0.37423549  0.12900605  0.62566638  1
  Fe  Fe13  1  0.25170779  0.50065225  0.50207365  1
  Fe  Fe14  1  0.62484965  0.12545719  0.87792192  1
  Fe  Fe15  1  0.24968053  0.00058746  0.24873856  1
  Fe  Fe16  1  0.38044086  0.62345194  0.62876830  1
  Fe  Fe17  1  0.62397405  0.62472078  0.37359970  1
  Fe  Fe18  1  0.62828831  0.37762715  0.12268102  1
  Fe  Fe19  1  0.62453146  0.12559688  0.37439340  1
  Fe  Fe20  1  0.74790863  0.50576471  0.24721727  1
  Fe  Fe21  1  0.87345783  0.87273998  0.62509781  1
  Fe  Fe22  1  0.49986918  -0.00221049  0.50072778  1
  Fe  Fe23  1  0.37713873  0.62425846  0.37507971  1
  Fe  Fe24  1  0.50012076  0.75042378  0.24809477  1
  Fe  Fe25  1  0.75080036  0.00504377  0.00449203  1
  Fe  Fe26  1  0.62095497  0.62524655  0.87632442  1
  Fe  Fe27  1  0.12414484  0.87254549  0.62679470  1
  Fe  Fe28  1  -0.00197343  0.25244446  0.49791723  1
  Fe  Fe29  1  0.62667345  0.87369633  0.12581931  1
  Fe  Fe30  1  0.49823867  -0.00649811  -0.00179498  1
  Fe  Fe31  1  0.74937329  0.24453273  0.24336154  1
  Fe  Fe32  1  0.12784802  0.37712572  0.12412989  1
  Fe  Fe33  1  0.37986819  0.62407793  0.12070187  1
  Fe  Fe34  1  0.50195713  -0.00348443  0.75105212  1
  Fe  Fe35  1  0.75061227  0.00180502  0.49844436  1
  Fe  Fe36  1  0.50236376  0.25431979  0.49941295  1
  Fe  Fe37  1  0.37496965  0.37691404  0.37548642  1
  Fe  Fe38  1  0.62876891  0.37584936  0.62554699  1
  Fe  Fe39  1  0.50125290  0.25353918  0.75118340  1
  Fe  Fe40  1  0.87122235  0.37490040  0.37045773  1
  Fe  Fe41  1  0.62944290  0.87316427  0.62580398  1
  Fe  Fe42  1  -0.00380681  0.74925445  0.49560266  1
  Fe  Fe43  1  0.87524733  0.12491310  0.37143943  1
  Fe  Fe44  1  0.87531970  0.12793884  0.87752897  1
  Fe  Fe45  1  0.12367152  0.12618948  0.37437739  1
  Fe  Fe46  1  0.12737876  0.37323149  0.62576334  1
  Fe  Fe47  1  0.24958174  0.00004008  0.50064140  1
  Fe  Fe48  1  0.62502767  0.62497465  0.62702783  1
  Fe  Fe49  1  0.25055912  0.74727247  0.50106988  1
  Fe  Fe50  1  0.37793593  0.12486011  0.12436414  1
  Fe  Fe51  1  0.37654489  0.12469575  0.87551340  1
  Fe  Fe52  1  0.87338927  0.87419023  0.12650960  1
  Fe  Fe53  1  0.74777750  0.74553543  0.00087751  1
  Fe  Fe54  1  0.12439332  0.37620692  0.87678989  1
  Fe  Fe55  1  0.12634013  0.87141494  0.37341142  1
  Fe  Fe56  1  0.50129411  -0.00169624  0.25061265  1
  Fe  Fe57  1  0.75373752  0.50303047  0.75330110  1
  Fe  Fe58  1  0.00020736  -0.00311658  0.24995804  1
  Fe  Fe59  1  -0.00155531  0.00028367  0.75172693  1
  Fe  Fe60  1  0.12120302  0.62383784  0.87822270  1
  Fe  Fe61  1  0.63198421  0.37415444  0.87861296  1
  Fe  Fe62  1  -0.00266161  0.25275300  0.75074385  1
  Fe  Fe63  1  0.75001101  0.00254605  0.75052424  1
  Fe  Fe64  1  -0.00503795  0.49849785  0.75162813  1
  Fe  Fe65  1  0.12219521  0.62582314  0.12271011  1
  Fe  Fe66  1  0.25033880  0.50088604  0.75084499  1
  Fe  Fe67  1  0.50028351  0.25377539  0.00076459  1
  Fe  Fe68  1  0.12519966  0.87167186  0.12611724  1
  Fe  Fe69  1  0.25247038  0.74939511  0.00021045  1
  Fe  Fe70  1  0.75310120  0.74738330  0.49628770  1
  Fe  Fe71  1  0.87092199  0.87386089  0.87657656  1
  Fe  Fe72  1  -0.00318584  0.74917918  0.75228425  1
  Fe  Fe73  1  0.37296187  0.87306541  0.37319927  1
  Fe  Fe74  1  0.25092592  0.25046413  0.00037858  1
  Fe  Fe75  1  0.37279217  0.87252090  0.62915507  1
  Fe  Fe76  1  0.12089214  0.62452495  0.62516945  1
  Fe  Fe77  1  0.87802543  0.62471650  0.12219705  1
  Fe  Fe78  1  -0.00037940  -0.00040616  0.50011826  1
  Fe  Fe79  1  0.62504157  0.12621337  0.62473444  1
  Fe  Fe80  1  0.74964705  0.49997899  0.49881619  1
  Fe  Fe81  1  0.50102084  0.49847971  0.24841229  1
  Fe  Fe82  1  0.25002780  0.24984170  0.24981026  1
  Fe  Fe83  1  0.12624197  0.12905518  0.62539753  1
  Fe  Fe84  1  0.12647352  0.37662285  0.37379356  1
  Fe  Fe85  1  0.37635908  0.12533353  0.37492990  1
  Fe  Fe86  1  0.62891935  0.87388267  0.37292185  1
  Fe  Fe87  1  0.24810329  0.00345878  0.75076374  1
  Fe  Fe88  1  0.25175805  0.50291995  0.24707655  1
  Fe  Fe89  1  -0.00314530  0.49737953  0.50071497  1
  Co  Co90  1  0.87879813  0.62579662  0.87858850  1
  Co  Co91  1  -0.00261725  0.49541435  0.00043734  1
  Co  Co92  1  0.75234849  0.24510183  0.00705420  1
  Co  Co93  1  0.50243839  0.49522862  0.75156769  1
  Co  Co94  1  0.62927843  0.37585515  0.37038571  1
  Co  Co95  1  0.37345969  0.37460242  0.62469278  1
  Co  Co96  1  0.24809782  0.74335184  0.75056701  1
  Co  Co97  1  0.25092400  0.50248879  -0.00078491  1
  Co  Co98  1  0.62045810  0.62555264  0.12342864  1
  Co  Co99  1  0.75022049  0.74593859  0.75286854  1
  Co  Co100  1  0.87523351  0.62533944  0.62389243  1
  Co  Co101  1  -0.00007793  0.75335645  -0.00066842  1
  Co  Co102  1  0.37007218  0.87381586  0.87068179  1
  Co  Co103  1  0.74924496  0.24971717  0.49813472  1
  Co  Co104  1  0.63156390  0.87683323  0.87684653  1
  Co  Co105  1  0.50465880  0.75506409  0.75217174  1
  Co  Co106  1  0.50230445  0.49652948  -0.00060106  1
  Co  Co107  1  0.86966140  0.37325379  0.87778629  1
  Co  Co108  1  0.86893983  0.37938368  0.12656648  1
  Co  Co109  1  0.37352696  0.37585926  0.12450542  1
  Co  Co110  1  0.87582736  0.61957907  0.37443978  1
  Co  Co111  1  0.74802670  0.00414829  0.24690633  1
  Co  Co112  1  0.50301373  0.49810799  0.49948756  1
  Co  Co113  1  0.88273783  0.12221637  0.12648866  1
  Co  Co114  1  0.50004502  0.75558321  -0.00227878  1
  Co  Co115  1  0.25139688  0.74553769  0.24745856  1
  Co  Co116  1  0.75025074  0.50541532  -0.00145213  1
  Co  Co117  1  0.75255350  0.74549534  0.24962991  1
  Co  Co118  1  0.87193250  0.87839616  0.37263549  1
  Co  Co119  1  0.00033400  0.25429266  0.24826305  1
  Co  Co120  1  -0.00019773  -0.00420285  -0.00117634  1
  Co  Co121  1  0.37456215  0.87559223  0.12716143  1
  Co  Co122  1  0.74863995  0.24835543  0.75057161  1
  Co  Co123  1  0.61704455  0.12346994  0.12220251  1
  Co  Co124  1  0.87143127  0.37444272  0.62576548  1
  Co  Co125  1  0.25073500  0.25126685  0.75470686  1
  Co  Co126  1  0.25003164  0.25086559  0.49679163  1
  Co  Co127  1  -0.00356546  0.74883703  0.25182096  1
