# generated using pymatgen
data_Fe45Co19
_symmetry_space_group_name_H-M   'P 1'
_cell_length_a   11.41632176
_cell_length_b   11.41615102
_cell_length_c   11.41544869
_cell_angle_alpha   89.98899540
_cell_angle_beta   90.00098381
_cell_angle_gamma   90.00058660
_symmetry_Int_Tables_number   1
_chemical_formula_structural   Fe45Co19
_chemical_formula_sum   'Fe90 Co38'
_cell_volume   1487.78057533
_cell_formula_units_Z   2
loop_
 _symmetry_equiv_pos_site_id
 _symmetry_equiv_pos_as_xyz
  1  'x, y, z'
loop_
 _atom_site_type_symbol
 _atom_site_label
 _atom_site_symmetry_multiplicity
 _atom_site_fract_x
 _atom_site_fract_y
 _atom_site_fract_z
 _atom_site_occupancy
  Fe  Fe0  1  0.25157601  0.74967375  0.75025609  1
  Fe  Fe1  1  0.24987982  0.74718529  0.50352535  1
  Fe  Fe2  1  0.50218432  0.24894702  -0.00150320  1
  Fe  Fe3  1  0.75847639  0.24469193  0.75236843  1
  Fe  Fe4  1  0.37656091  0.87431694  0.37555968  1
  Fe  Fe5  1  0.24987362  0.74876175  0.24893792  1
  Fe  Fe6  1  0.74932895  0.50256491  -0.00114640  1
  Fe  Fe7  1  0.00271019  -0.00055646  0.24915049  1
  Fe  Fe8  1  0.37480655  0.87554850  0.12510031  1
  Fe  Fe9  1  0.37386150  0.12368475  0.62467701  1
  Fe  Fe10  1  0.49884420  0.24942636  0.74994742  1
  Fe  Fe11  1  0.37354106  0.37580757  0.87380961  1
  Fe  Fe12  1  0.12459708  0.87363905  0.37389172  1
  Fe  Fe13  1  0.24648183  -0.00117772  0.75152493  1
  Fe  Fe14  1  0.87313286  0.88191574  0.62099027  1
  Fe  Fe15  1  0.50265441  0.50008640  -0.00245355  1
  Fe  Fe16  1  0.87724113  0.87513096  0.12692636  1
  Fe  Fe17  1  0.87391386  0.62293595  0.62273991  1
  Fe  Fe18  1  0.49749503  0.24988073  0.24828520  1
  Fe  Fe19  1  0.75069242  0.50000633  0.24952134  1
  Fe  Fe20  1  0.37498374  0.62570398  0.87374815  1
  Fe  Fe21  1  -0.00283371  0.75070283  0.49787116  1
  Fe  Fe22  1  0.87605880  0.37759716  0.37639319  1
  Fe  Fe23  1  0.87566320  0.62681561  0.12676358  1
  Fe  Fe24  1  0.62773008  0.87541405  0.62430925  1
  Fe  Fe25  1  0.37646392  0.37578867  0.37994319  1
  Fe  Fe26  1  0.75376901  0.24951274  0.25070276  1
  Fe  Fe27  1  0.87492923  0.37571695  0.62370693  1
  Fe  Fe28  1  0.62937410  0.62621183  0.62570186  1
  Fe  Fe29  1  0.75101221  0.24437387  -0.00301107  1
  Fe  Fe30  1  0.75229840  0.24852607  0.49995288  1
  Fe  Fe31  1  0.37504342  0.37610347  0.12261442  1
  Fe  Fe32  1  0.25101940  0.00022384  0.25110043  1
  Fe  Fe33  1  0.24925596  0.49810713  0.25058615  1
  Fe  Fe34  1  0.75214932  0.75247103  0.75105505  1
  Fe  Fe35  1  0.50036936  0.50070938  0.25001949  1
  Fe  Fe36  1  0.24670918  -0.00043966  0.50148098  1
  Fe  Fe37  1  0.37446904  0.12338997  0.87460983  1
  Fe  Fe38  1  0.12301860  0.37510825  0.37672679  1
  Fe  Fe39  1  0.62590856  0.87601472  0.87395242  1
  Fe  Fe40  1  0.62785716  0.37442828  0.62560362  1
  Fe  Fe41  1  0.50055157  -0.00089705  0.74980531  1
  Fe  Fe42  1  0.12363164  0.62421033  0.37677439  1
  Fe  Fe43  1  0.75324599  0.75348278  0.49481152  1
  Fe  Fe44  1  0.62226148  0.87311895  0.13032103  1
  Fe  Fe45  1  0.37473948  0.87507047  0.62535067  1
  Fe  Fe46  1  0.87622210  0.88050747  0.87827947  1
  Fe  Fe47  1  0.74843749  -0.00271997  0.25127081  1
  Fe  Fe48  1  0.11957414  0.12829043  0.62649151  1
  Fe  Fe49  1  0.24503230  -0.00304444  -0.00357896  1
  Fe  Fe50  1  -0.00141036  0.24935036  0.24861887  1
  Fe  Fe51  1  0.87587465  0.37496332  0.12072936  1
  Fe  Fe52  1  0.62840286  0.62717815  0.37360875  1
  Fe  Fe53  1  0.87749351  0.12064046  0.37877884  1
  Fe  Fe54  1  0.62718147  0.37254911  0.12476424  1
  Fe  Fe55  1  0.24714977  0.25013290  -0.00190248  1
  Fe  Fe56  1  0.12384430  0.87167068  0.62676086  1
  Fe  Fe57  1  0.37369381  0.62261719  0.37783948  1
  Fe  Fe58  1  0.24663362  0.75167881  -0.00211628  1
  Fe  Fe59  1  0.87364420  0.62551944  0.87631499  1
  Fe  Fe60  1  0.12152300  0.37572084  0.12188833  1
  Fe  Fe61  1  0.12489000  0.12566225  0.12385697  1
  Fe  Fe62  1  0.74955969  0.75229185  0.00117514  1
  Fe  Fe63  1  0.25009885  0.25211927  0.24936206  1
  Fe  Fe64  1  0.00409310  0.75021636  0.00226694  1
  Fe  Fe65  1  0.37713448  0.37770584  0.62238405  1
  Fe  Fe66  1  0.24720069  0.50271730  0.74684182  1
  Fe  Fe67  1  -0.00201870  0.49886058  0.75306220  1
  Fe  Fe68  1  0.49971400  0.74813969  0.50083726  1
  Fe  Fe69  1  0.49998540  0.74945322  -0.00083367  1
  Fe  Fe70  1  0.50356687  0.50202810  0.75018509  1
  Fe  Fe71  1  -0.00466646  0.75231267  0.74902356  1
  Fe  Fe72  1  0.12397791  0.12684137  0.37578228  1
  Fe  Fe73  1  0.62595675  0.62704732  0.12615362  1
  Fe  Fe74  1  0.50210602  0.00040214  0.49996471  1
  Fe  Fe75  1  0.37451395  0.12667776  0.37710229  1
  Fe  Fe76  1  0.24572641  0.50174598  -0.00246883  1
  Fe  Fe77  1  0.50370667  0.00165797  0.00059806  1
  Fe  Fe78  1  0.62839294  0.12458917  0.62703849  1
  Fe  Fe79  1  0.50033557  0.74998630  0.75069787  1
  Fe  Fe80  1  0.62407657  0.12618276  0.37297885  1
  Fe  Fe81  1  0.12062416  0.37382954  0.62561194  1
  Fe  Fe82  1  0.62956775  0.37398135  0.87288426  1
  Fe  Fe83  1  -0.00049423  0.50189398  0.24876741  1
  Fe  Fe84  1  0.87560926  0.12184588  0.12130130  1
  Fe  Fe85  1  0.37311891  0.62365317  0.12338580  1
  Fe  Fe86  1  0.24835612  0.25018681  0.75108376  1
  Fe  Fe87  1  0.24889584  0.25116178  0.50118166  1
  Fe  Fe88  1  0.62436029  0.37354492  0.37649284  1
  Fe  Fe89  1  0.37408269  0.12440025  0.12317977  1
  Co  Co90  1  0.49787757  0.00236127  0.25022351  1
  Co  Co91  1  0.62699678  0.12735297  0.12931408  1
  Co  Co92  1  0.87950662  0.11580785  0.88017429  1
  Co  Co93  1  0.12680298  0.87400176  0.12939247  1
  Co  Co94  1  0.87865024  0.87890743  0.37344236  1
  Co  Co95  1  0.75327054  0.75285307  0.25181857  1
  Co  Co96  1  0.12063465  0.12451315  0.87396691  1
  Co  Co97  1  0.37707126  0.62464129  0.62672455  1
  Co  Co98  1  0.00627122  -0.00430755  0.00268757  1
  Co  Co99  1  0.12507628  0.37547141  0.87497432  1
  Co  Co100  1  0.87457277  0.62313188  0.37389994  1
  Co  Co101  1  0.24700850  0.50078207  0.50425252  1
  Co  Co102  1  0.62783177  0.62766150  0.87403516  1
  Co  Co103  1  0.87278636  0.37738315  0.87991258  1
  Co  Co104  1  0.37656882  0.87609143  0.87496965  1
  Co  Co105  1  0.74941505  0.49935255  0.49921113  1
  Co  Co106  1  0.75307447  0.00101373  0.75138902  1
  Co  Co107  1  -0.00211490  0.25101845  0.49905890  1
  Co  Co108  1  -0.00635299  0.25065244  0.75472731  1
  Co  Co109  1  0.87740326  0.12077764  0.62030418  1
  Co  Co110  1  0.00022354  -0.00065493  0.74721826  1
  Co  Co111  1  0.74519604  -0.00148209  0.00255130  1
  Co  Co112  1  0.00558767  -0.00261244  0.50104345  1
  Co  Co113  1  0.11917551  0.62790151  0.62683624  1
  Co  Co114  1  0.62041241  0.87212493  0.37232858  1
  Co  Co115  1  -0.00018750  0.50092707  0.50070835  1
  Co  Co116  1  0.00106688  0.74848656  0.25121451  1
  Co  Co117  1  0.62534874  0.12399119  0.87123635  1
  Co  Co118  1  0.74558903  -0.00060270  0.49596104  1
  Co  Co119  1  0.75198986  0.50143503  0.75058017  1
  Co  Co120  1  0.12111952  0.87218843  0.87051463  1
  Co  Co121  1  0.00029967  0.50381400  -0.00199710  1
  Co  Co122  1  0.50400046  0.50302063  0.50096432  1
  Co  Co123  1  0.12308884  0.62788270  0.87089055  1
  Co  Co124  1  -0.00120586  0.25012609  -0.00371017  1
  Co  Co125  1  0.49572558  0.74602816  0.24934907  1
  Co  Co126  1  0.12583722  0.62412431  0.12618327  1
  Co  Co127  1  0.50108148  0.24770837  0.50300000  1
