# generated using pymatgen
data_Fe45Co19
_symmetry_space_group_name_H-M   'P 1'
_cell_length_a   11.41562817
_cell_length_b   11.41602750
_cell_length_c   11.41477896
_cell_angle_alpha   89.99568767
_cell_angle_beta   90.00007110
_cell_angle_gamma   90.00704197
_symmetry_Int_Tables_number   1
_chemical_formula_structural   Fe45Co19
_chemical_formula_sum   'Fe90 Co38'
_cell_volume   1487.58682209
_cell_formula_units_Z   2
loop_
 _symmetry_equiv_pos_site_id
 _symmetry_equiv_pos_as_xyz
  1  'x, y, z'
loop_
 _atom_site_type_symbol
 _atom_site_label
 _atom_site_symmetry_multiplicity
 _atom_site_fract_x
 _atom_site_fract_y
 _atom_site_fract_z
 _atom_site_occupancy
  Fe  Fe0  1  0.74742274  0.74831989  0.75321003  1
  Fe  Fe1  1  0.37483382  0.87464580  0.62792134  1
  Fe  Fe2  1  0.87717617  0.87519367  0.87495284  1
  Fe  Fe3  1  0.74885121  0.24679550  0.24981037  1
  Fe  Fe4  1  0.50281537  0.24743060  0.49992875  1
  Fe  Fe5  1  0.24856509  0.75148717  0.50054647  1
  Fe  Fe6  1  0.62154930  0.62258593  0.62836595  1
  Fe  Fe7  1  0.62402063  0.62502846  0.12407807  1
  Fe  Fe8  1  0.87638768  0.87608690  0.12538443  1
  Fe  Fe9  1  0.24975837  0.50003811  0.50197392  1
  Fe  Fe10  1  0.74750583  0.24969698  0.50328346  1
  Fe  Fe11  1  0.62374163  0.62466933  0.37408021  1
  Fe  Fe12  1  0.75328676  0.00206956  -0.00045779  1
  Fe  Fe13  1  0.12127058  0.12430038  0.87527975  1
  Fe  Fe14  1  -0.00168022  0.25014719  0.74699598  1
  Fe  Fe15  1  0.74826405  0.74887428  0.50216403  1
  Fe  Fe16  1  0.87695552  0.62500171  0.12365195  1
  Fe  Fe17  1  0.37495000  0.62896434  0.62780200  1
  Fe  Fe18  1  0.50036273  0.24909794  0.74875034  1
  Fe  Fe19  1  0.37636547  0.12610382  0.12391988  1
  Fe  Fe20  1  0.37279221  0.87500850  0.37166372  1
  Fe  Fe21  1  0.37393837  0.87364871  0.87364574  1
  Fe  Fe22  1  0.00023399  0.75168618  0.25094065  1
  Fe  Fe23  1  0.74961272  0.50036339  0.50110577  1
  Fe  Fe24  1  0.12766314  0.37568402  0.37378733  1
  Fe  Fe25  1  0.62743873  0.37573503  0.12581104  1
  Fe  Fe26  1  0.25005538  0.24662018  0.25121801  1
  Fe  Fe27  1  0.62423044  0.87994671  0.62980976  1
  Fe  Fe28  1  0.62402779  0.37657843  0.87223993  1
  Fe  Fe29  1  0.12310743  0.62441345  0.12405317  1
  Fe  Fe30  1  0.12352613  0.62421334  0.37610966  1
  Fe  Fe31  1  0.12288564  0.87777979  0.87446794  1
  Fe  Fe32  1  0.25262677  0.50325969  0.24891751  1
  Fe  Fe33  1  -0.00163957  0.49512917  0.24653106  1
  Fe  Fe34  1  0.87487410  0.12349316  0.37567371  1
  Fe  Fe35  1  0.24923931  0.00126649  0.00108221  1
  Fe  Fe36  1  0.00117623  0.49721377  0.50439820  1
  Fe  Fe37  1  0.37739720  0.62645830  0.87336966  1
  Fe  Fe38  1  0.62793374  0.87645291  0.37315176  1
  Fe  Fe39  1  0.50361245  0.75120072  -0.00404444  1
  Fe  Fe40  1  0.62579391  0.37624281  0.37421912  1
  Fe  Fe41  1  0.12614941  0.12232291  0.37603476  1
  Fe  Fe42  1  0.37336874  0.37286834  0.62387864  1
  Fe  Fe43  1  0.37169280  0.37265158  0.12373792  1
  Fe  Fe44  1  0.87241750  0.37553990  0.37414350  1
  Fe  Fe45  1  0.12446707  0.87605366  0.12555260  1
  Fe  Fe46  1  0.75662720  0.00499427  0.75057237  1
  Fe  Fe47  1  0.74994624  0.00083582  0.50222059  1
  Fe  Fe48  1  0.24794583  0.74925129  -0.00052120  1
  Fe  Fe49  1  0.50119111  0.00212460  0.25212251  1
  Fe  Fe50  1  0.25009606  0.50135321  0.00020912  1
  Fe  Fe51  1  0.00105295  0.25424347  0.00346731  1
  Fe  Fe52  1  0.75020681  0.74820886  0.24962600  1
  Fe  Fe53  1  0.24946295  0.00126286  0.74957944  1
  Fe  Fe54  1  0.50174602  0.25090946  -0.00121772  1
  Fe  Fe55  1  0.50189134  0.75359696  0.50079348  1
  Fe  Fe56  1  0.75071971  0.24824148  0.74739609  1
  Fe  Fe57  1  0.11939910  0.62376864  0.87542744  1
  Fe  Fe58  1  0.12739373  0.87670093  0.37324075  1
  Fe  Fe59  1  0.49795983  0.49874573  0.00008776  1
  Fe  Fe60  1  0.74989156  0.74873185  -0.00411728  1
  Fe  Fe61  1  0.37441432  0.37230510  0.37551203  1
  Fe  Fe62  1  0.37582364  0.62893809  0.37403188  1
  Fe  Fe63  1  0.12380355  0.12360588  0.62285095  1
  Fe  Fe64  1  0.87229877  0.87524450  0.37514285  1
  Fe  Fe65  1  0.12244960  0.12495866  0.12613697  1
  Fe  Fe66  1  0.12569337  0.37459272  0.87455089  1
  Fe  Fe67  1  0.37472205  0.87173000  0.12694335  1
  Fe  Fe68  1  0.87645490  0.62414340  0.37561212  1
  Fe  Fe69  1  0.37229832  0.37320452  0.87526157  1
  Fe  Fe70  1  0.49846071  0.50112507  0.24870317  1
  Fe  Fe71  1  0.75299794  0.50140843  -0.00186676  1
  Fe  Fe72  1  0.24801773  0.50135102  0.74821163  1
  Fe  Fe73  1  0.00016577  0.75266340  0.50179200  1
  Fe  Fe74  1  0.37449048  0.12606347  0.87717821  1
  Fe  Fe75  1  0.37602171  0.12262792  0.62071793  1
  Fe  Fe76  1  0.87780050  0.12579375  0.12583448  1
  Fe  Fe77  1  0.00128746  0.75188857  0.74806277  1
  Fe  Fe78  1  0.87682018  0.37521917  0.87428007  1
  Fe  Fe79  1  0.74919870  0.24870528  -0.00096198  1
  Fe  Fe80  1  0.50190302  0.24778899  0.25084057  1
  Fe  Fe81  1  0.49950150  -0.00037393  -0.00196177  1
  Fe  Fe82  1  0.62603527  0.87684640  0.12457441  1
  Fe  Fe83  1  -0.00082688  -0.00395505  0.50266086  1
  Fe  Fe84  1  0.75170999  0.49996926  0.75016303  1
  Fe  Fe85  1  0.87678592  0.62509350  0.62634455  1
  Fe  Fe86  1  0.24998481  0.24732249  0.74863788  1
  Fe  Fe87  1  0.00099116  0.25309192  0.49890639  1
  Fe  Fe88  1  0.62477971  0.12274165  0.87421264  1
  Fe  Fe89  1  0.49859671  0.49931357  0.50115672  1
  Co  Co90  1  0.12680244  0.37227068  0.62577209  1
  Co  Co91  1  0.00014376  0.25164170  0.25172318  1
  Co  Co92  1  0.62352483  0.12085320  0.62685829  1
  Co  Co93  1  0.50333832  0.75051398  0.25101053  1
  Co  Co94  1  0.62248073  0.62023052  0.87457317  1
  Co  Co95  1  0.87898632  0.12805150  0.87772755  1
  Co  Co96  1  0.24853806  0.24992644  0.49962100  1
  Co  Co97  1  0.25100712  -0.00252241  0.50116491  1
  Co  Co98  1  -0.00239499  0.00050725  0.74759139  1
  Co  Co99  1  0.24694222  0.74942769  0.75294954  1
  Co  Co100  1  0.12435640  0.62751429  0.62372719  1
  Co  Co101  1  -0.00066525  -0.00079090  0.25181840  1
  Co  Co102  1  0.86994936  0.37267884  0.12623758  1
  Co  Co103  1  0.37670828  0.62961806  0.12364652  1
  Co  Co104  1  0.62791734  0.88169308  0.87356781  1
  Co  Co105  1  0.62770233  0.12388651  0.37646731  1
  Co  Co106  1  0.24653690  0.74777203  0.24942737  1
  Co  Co107  1  0.37350785  0.12467170  0.37712148  1
  Co  Co108  1  0.87409354  0.37492648  0.62464761  1
  Co  Co109  1  0.49553203  0.49734543  0.74923429  1
  Co  Co110  1  0.12693332  0.87562570  0.62708767  1
  Co  Co111  1  -0.00060562  0.00064650  0.00062752  1
  Co  Co112  1  0.75041568  0.50321928  0.25012149  1
  Co  Co113  1  0.50410426  0.75191428  0.75251044  1
  Co  Co114  1  0.75135797  0.00180893  0.24775002  1
  Co  Co115  1  0.87205650  0.87296996  0.62656686  1
  Co  Co116  1  -0.00130665  0.49452170  0.00297906  1
  Co  Co117  1  0.62448611  0.37644385  0.62561453  1
  Co  Co118  1  0.49570584  0.00149994  0.75279047  1
  Co  Co119  1  -0.00034625  0.75212408  0.00015187  1
  Co  Co120  1  0.88030984  0.62466985  0.87364572  1
  Co  Co121  1  0.62435212  0.12330516  0.12239803  1
  Co  Co122  1  0.50018158  -0.00202191  0.49618922  1
  Co  Co123  1  0.24755992  0.24700471  -0.00036396  1
  Co  Co124  1  0.13082760  0.37437428  0.12636204  1
  Co  Co125  1  0.87743370  0.12662598  0.62085679  1
  Co  Co126  1  0.25073322  0.00246870  0.24719620  1
  Co  Co127  1  0.00155760  0.49783709  0.74707176  1
