# generated using pymatgen
data_Fe45Co19
_symmetry_space_group_name_H-M   'P 1'
_cell_length_a   11.41523517
_cell_length_b   11.41421421
_cell_length_c   11.41552658
_cell_angle_alpha   89.99416708
_cell_angle_beta   90.00150395
_cell_angle_gamma   89.99147528
_symmetry_Int_Tables_number   1
_chemical_formula_structural   Fe45Co19
_chemical_formula_sum   'Fe90 Co38'
_cell_volume   1487.39673623
_cell_formula_units_Z   2
loop_
 _symmetry_equiv_pos_site_id
 _symmetry_equiv_pos_as_xyz
  1  'x, y, z'
loop_
 _atom_site_type_symbol
 _atom_site_label
 _atom_site_symmetry_multiplicity
 _atom_site_fract_x
 _atom_site_fract_y
 _atom_site_fract_z
 _atom_site_occupancy
  Fe  Fe0  1  0.25213624  0.50155327  -0.00091966  1
  Fe  Fe1  1  0.87582686  0.62628407  0.12546412  1
  Fe  Fe2  1  0.12685925  0.12238803  0.87156847  1
  Fe  Fe3  1  0.12657296  0.12085072  0.62799308  1
  Fe  Fe4  1  0.87648822  0.87408924  0.62531763  1
  Fe  Fe5  1  0.87623509  0.37569763  0.12484596  1
  Fe  Fe6  1  0.87538117  0.12474694  0.62646025  1
  Fe  Fe7  1  0.87497294  0.87511944  0.37581211  1
  Fe  Fe8  1  0.75118961  0.74907870  0.50028874  1
  Fe  Fe9  1  0.37822816  0.37153629  0.62702378  1
  Fe  Fe10  1  0.12403677  0.12849126  0.37425897  1
  Fe  Fe11  1  0.49844297  0.75013788  -0.00006516  1
  Fe  Fe12  1  0.49860232  0.50058297  0.50021694  1
  Fe  Fe13  1  0.12884248  0.86929611  0.37714319  1
  Fe  Fe14  1  0.62284494  0.12849410  0.62207722  1
  Fe  Fe15  1  0.37395387  0.87234756  0.87246028  1
  Fe  Fe16  1  0.00191645  -0.00036955  0.25002375  1
  Fe  Fe17  1  0.75179079  0.25020619  -0.00066446  1
  Fe  Fe18  1  0.00282204  0.25019392  0.74952823  1
  Fe  Fe19  1  -0.00037142  0.50391460  0.49775883  1
  Fe  Fe20  1  0.49779727  0.24870537  -0.00150647  1
  Fe  Fe21  1  0.49846937  0.24957368  0.25137155  1
  Fe  Fe22  1  0.37296054  0.87346625  0.62711242  1
  Fe  Fe23  1  0.87708862  0.87252792  0.12275318  1
  Fe  Fe24  1  0.37341138  0.37280791  0.87271843  1
  Fe  Fe25  1  0.25101261  0.50163850  0.50121080  1
  Fe  Fe26  1  0.49688025  0.00050341  0.00097625  1
  Fe  Fe27  1  -0.00089197  0.24923717  0.50087422  1
  Fe  Fe28  1  0.37363417  0.37400627  0.12535068  1
  Fe  Fe29  1  0.24817405  0.74928399  -0.00142524  1
  Fe  Fe30  1  0.12456263  0.62735564  0.62240858  1
  Fe  Fe31  1  0.50126464  -0.00177672  0.74847983  1
  Fe  Fe32  1  0.49798600  0.75128625  0.25034913  1
  Fe  Fe33  1  0.75165420  -0.00143328  0.00097607  1
  Fe  Fe34  1  0.24954554  0.00053095  0.00072098  1
  Fe  Fe35  1  0.37220552  0.87635344  0.12863385  1
  Fe  Fe36  1  0.62395155  0.87585541  0.37674267  1
  Fe  Fe37  1  0.75099819  0.00075200  0.24871973  1
  Fe  Fe38  1  0.25213669  0.24849469  0.50087108  1
  Fe  Fe39  1  0.87441144  0.12478533  0.87322387  1
  Fe  Fe40  1  0.00090571  0.74823722  0.25235249  1
  Fe  Fe41  1  0.62491067  0.37391797  0.12328019  1
  Fe  Fe42  1  0.87588202  0.37716402  0.87226974  1
  Fe  Fe43  1  0.00080663  0.24944678  -0.00118141  1
  Fe  Fe44  1  0.75080238  0.50308092  -0.00158769  1
  Fe  Fe45  1  0.87557805  0.37651079  0.62704696  1
  Fe  Fe46  1  0.62325771  0.62534893  0.12451467  1
  Fe  Fe47  1  0.87740476  0.62505024  0.87203982  1
  Fe  Fe48  1  0.49721629  -0.00065821  0.50091916  1
  Fe  Fe49  1  0.00093805  -0.00009599  -0.00043817  1
  Fe  Fe50  1  0.74808908  -0.00220765  0.74863699  1
  Fe  Fe51  1  0.00336781  0.50112853  0.25391369  1
  Fe  Fe52  1  0.12458753  0.37618298  0.62259552  1
  Fe  Fe53  1  0.62560811  0.37275985  0.37777194  1
  Fe  Fe54  1  0.75508752  0.24723738  0.25037809  1
  Fe  Fe55  1  0.37708540  0.62765696  0.63162155  1
  Fe  Fe56  1  0.49754232  0.75102986  0.50004215  1
  Fe  Fe57  1  0.62476453  0.62560791  0.37585691  1
  Fe  Fe58  1  0.12546392  0.12761227  0.12671442  1
  Fe  Fe59  1  0.37215961  0.12455172  0.12853464  1
  Fe  Fe60  1  0.00097459  -0.00180759  0.50085130  1
  Fe  Fe61  1  0.37231419  0.62713871  0.37383126  1
  Fe  Fe62  1  0.62292207  0.62411920  0.62642265  1
  Fe  Fe63  1  0.87648608  0.37542299  0.37572696  1
  Fe  Fe64  1  0.37460856  0.12108868  0.37192172  1
  Fe  Fe65  1  0.37259890  0.12693494  0.86971820  1
  Fe  Fe66  1  0.87556520  0.87383831  0.87596207  1
  Fe  Fe67  1  0.74524955  0.25393108  0.74925338  1
  Fe  Fe68  1  0.62479927  0.12245675  0.87632432  1
  Fe  Fe69  1  0.24819718  0.50118114  0.25063657  1
  Fe  Fe70  1  0.37260552  0.37622084  0.37497833  1
  Fe  Fe71  1  0.25138749  -0.00083060  0.50020119  1
  Fe  Fe72  1  0.74527877  0.75281155  0.75149591  1
  Fe  Fe73  1  0.62168855  0.62464798  0.87347116  1
  Fe  Fe74  1  0.12554771  0.37653913  0.87483286  1
  Fe  Fe75  1  0.49972393  0.50026163  0.25019530  1
  Fe  Fe76  1  0.75086590  0.50082490  0.50229985  1
  Fe  Fe77  1  0.49672474  0.50085399  -0.00149024  1
  Fe  Fe78  1  0.24904064  0.50112843  0.74946271  1
  Fe  Fe79  1  0.62541936  0.12525583  0.12405705  1
  Fe  Fe80  1  0.12597422  0.37200565  0.12632786  1
  Fe  Fe81  1  0.75119296  0.00063449  0.50088210  1
  Fe  Fe82  1  0.87617289  0.62646263  0.62796452  1
  Fe  Fe83  1  0.62545233  0.12516729  0.37645845  1
  Fe  Fe84  1  0.00632226  0.75309764  0.75175906  1
  Fe  Fe85  1  0.74880942  0.50063035  0.25027650  1
  Fe  Fe86  1  0.74980401  0.74998882  0.25020928  1
  Fe  Fe87  1  0.12534290  0.62643591  0.12387529  1
  Fe  Fe88  1  -0.00017519  0.50109260  -0.00049919  1
  Fe  Fe89  1  0.62512236  0.87440097  0.12248919  1
  Co  Co90  1  0.00262397  0.74929773  -0.00300175  1
  Co  Co91  1  0.12606810  0.87650634  0.62348952  1
  Co  Co92  1  0.24621592  0.25196212  0.74745339  1
  Co  Co93  1  0.75387321  0.25030593  0.50033449  1
  Co  Co94  1  0.50422000  0.25058763  0.75240232  1
  Co  Co95  1  0.24342838  0.74948778  0.75143909  1
  Co  Co96  1  0.87303137  0.62456400  0.37418200  1
  Co  Co97  1  0.00330324  0.50039675  0.74850883  1
  Co  Co98  1  0.25102345  0.74907865  0.24747889  1
  Co  Co99  1  -0.00191120  0.74962510  0.49956309  1
  Co  Co100  1  0.62496541  0.87563621  0.62059664  1
  Co  Co101  1  0.50082488  0.49576006  0.75097065  1
  Co  Co102  1  0.24483012  -0.00090934  0.25120236  1
  Co  Co103  1  0.37534127  0.12613286  0.62860348  1
  Co  Co104  1  0.12441917  0.87333493  0.12423678  1
  Co  Co105  1  0.74709999  0.49859808  0.74901653  1
  Co  Co106  1  0.37547683  0.62819066  0.87052417  1
  Co  Co107  1  0.25209759  -0.00304512  0.74916980  1
  Co  Co108  1  0.25166152  0.25063465  0.25224976  1
  Co  Co109  1  -0.00302020  0.24973029  0.25027992  1
  Co  Co110  1  0.62145194  0.37362158  0.61947588  1
  Co  Co111  1  0.37490407  0.62450608  0.12483861  1
  Co  Co112  1  0.12531110  0.37333786  0.37744960  1
  Co  Co113  1  0.62361404  0.87795926  0.87915997  1
  Co  Co114  1  0.49447692  0.24891573  0.49654902  1
  Co  Co115  1  0.62460114  0.37669165  0.87939289  1
  Co  Co116  1  0.50451526  0.75464906  0.74975545  1
  Co  Co117  1  0.87732331  0.12237085  0.37721222  1
  Co  Co118  1  0.25407932  0.75016186  0.50350430  1
  Co  Co119  1  0.74986355  0.74713207  -0.00205483  1
  Co  Co120  1  0.87738057  0.12322549  0.12285432  1
  Co  Co121  1  0.37374396  0.87598708  0.37302326  1
  Co  Co122  1  0.12642705  0.87981555  0.87575206  1
  Co  Co123  1  -0.00194985  -0.00201049  0.75035736  1
  Co  Co124  1  0.50260276  -0.00061062  0.24867975  1
  Co  Co125  1  0.12923610  0.62817733  0.37802707  1
  Co  Co126  1  0.12570967  0.62147444  0.87635934  1
  Co  Co127  1  0.24963718  0.24862966  -0.00136736  1
