# generated using pymatgen
data_Fe45Co19
_symmetry_space_group_name_H-M   'P 1'
_cell_length_a   11.41679290
_cell_length_b   11.41712214
_cell_length_c   11.41503502
_cell_angle_alpha   89.99330309
_cell_angle_beta   89.99007851
_cell_angle_gamma   89.99515701
_symmetry_Int_Tables_number   1
_chemical_formula_structural   Fe45Co19
_chemical_formula_sum   'Fe90 Co38'
_cell_volume   1487.91460762
_cell_formula_units_Z   2
loop_
 _symmetry_equiv_pos_site_id
 _symmetry_equiv_pos_as_xyz
  1  'x, y, z'
loop_
 _atom_site_type_symbol
 _atom_site_label
 _atom_site_symmetry_multiplicity
 _atom_site_fract_x
 _atom_site_fract_y
 _atom_site_fract_z
 _atom_site_occupancy
  Fe  Fe0  1  0.00221230  0.75084336  0.75178782  1
  Fe  Fe1  1  0.24946146  0.49902769  0.25012084  1
  Fe  Fe2  1  0.62481820  0.37670379  0.62429411  1
  Fe  Fe3  1  0.37445776  0.62478653  0.12679549  1
  Fe  Fe4  1  0.62217160  0.87195076  0.11765597  1
  Fe  Fe5  1  0.25196955  0.00229161  0.00247199  1
  Fe  Fe6  1  0.37634568  0.87380505  0.12291918  1
  Fe  Fe7  1  0.12710053  0.62577084  0.62496480  1
  Fe  Fe8  1  0.25318088  0.24473762  0.50048166  1
  Fe  Fe9  1  -0.00211836  0.24687810  0.49856420  1
  Fe  Fe10  1  -0.00084634  0.24850771  0.25160286  1
  Fe  Fe11  1  0.75193741  0.50124413  0.49950472  1
  Fe  Fe12  1  0.62669478  0.12460175  0.12385864  1
  Fe  Fe13  1  0.12456605  0.62585026  0.37499487  1
  Fe  Fe14  1  0.62550179  0.62531942  0.37404958  1
  Fe  Fe15  1  0.00331341  0.49697530  0.74829255  1
  Fe  Fe16  1  0.12498510  0.62120719  0.87578809  1
  Fe  Fe17  1  0.12369913  0.12374941  0.12597549  1
  Fe  Fe18  1  0.62364901  0.62636915  0.62548665  1
  Fe  Fe19  1  0.25264634  0.50213576  0.50042719  1
  Fe  Fe20  1  0.12648265  0.87852299  0.87636681  1
  Fe  Fe21  1  0.50018912  0.49868778  0.24909099  1
  Fe  Fe22  1  0.12757155  0.12166212  0.37583909  1
  Fe  Fe23  1  0.00009879  -0.00144107  0.00023821  1
  Fe  Fe24  1  0.87714219  0.63011898  0.12381290  1
  Fe  Fe25  1  0.49736835  0.75112761  0.75496765  1
  Fe  Fe26  1  0.87603280  0.37716278  0.87481516  1
  Fe  Fe27  1  0.12416945  0.87341732  0.12399116  1
  Fe  Fe28  1  0.12404172  0.37557308  0.12477470  1
  Fe  Fe29  1  -0.00239668  0.50185175  0.49934908  1
  Fe  Fe30  1  0.50110334  -0.00039209  0.24788786  1
  Fe  Fe31  1  0.12385198  0.62620955  0.12342858  1
  Fe  Fe32  1  0.12622621  0.87596422  0.61984767  1
  Fe  Fe33  1  0.86961702  0.11930950  0.37350608  1
  Fe  Fe34  1  0.37392178  0.62764350  0.62726529  1
  Fe  Fe35  1  0.62546878  0.87602366  0.37743430  1
  Fe  Fe36  1  0.74819866  0.25166854  0.75180606  1
  Fe  Fe37  1  0.62477693  0.62649730  0.87668792  1
  Fe  Fe38  1  0.62615373  0.12222145  0.37355843  1
  Fe  Fe39  1  0.25117486  0.74995379  -0.00282525  1
  Fe  Fe40  1  0.49645745  0.49924385  -0.00125931  1
  Fe  Fe41  1  0.49807783  0.50131995  0.49921355  1
  Fe  Fe42  1  0.75291527  0.50302264  0.00007111  1
  Fe  Fe43  1  0.12434771  0.37491758  0.37781486  1
  Fe  Fe44  1  -0.00240336  0.49996524  0.25039163  1
  Fe  Fe45  1  0.49724298  0.00229148  0.50162352  1
  Fe  Fe46  1  0.62506566  0.62779959  0.12288035  1
  Fe  Fe47  1  0.87469045  0.12450088  0.62662422  1
  Fe  Fe48  1  0.37431462  0.37205816  0.37091192  1
  Fe  Fe49  1  0.74711219  -0.00218149  0.75098220  1
  Fe  Fe50  1  0.74948439  0.50002109  0.75064923  1
  Fe  Fe51  1  0.00270892  0.00155048  0.74855025  1
  Fe  Fe52  1  0.87378355  0.37420484  0.12764218  1
  Fe  Fe53  1  0.49917562  0.49955016  0.75190140  1
  Fe  Fe54  1  0.87579187  0.37416519  0.62397799  1
  Fe  Fe55  1  -0.00132744  0.75338683  0.25317618  1
  Fe  Fe56  1  0.25271153  0.49717515  -0.00044057  1
  Fe  Fe57  1  0.87553568  0.12293266  0.87413752  1
  Fe  Fe58  1  0.37492295  0.87422551  0.37707223  1
  Fe  Fe59  1  0.87399188  0.12197632  0.12561021  1
  Fe  Fe60  1  0.62418026  0.12577359  0.62631804  1
  Fe  Fe61  1  -0.00147436  -0.00307220  0.25089893  1
  Fe  Fe62  1  0.50450471  0.25171423  0.75365445  1
  Fe  Fe63  1  0.24421390  0.25090369  0.74978829  1
  Fe  Fe64  1  0.12585613  0.87602294  0.38003737  1
  Fe  Fe65  1  0.74980067  0.24935321  0.49986230  1
  Fe  Fe66  1  0.62888186  0.37631295  0.37309985  1
  Fe  Fe67  1  0.50157369  -0.00083269  0.75273527  1
  Fe  Fe68  1  0.75080846  0.75019033  0.50086879  1
  Fe  Fe69  1  0.24903891  0.00129265  0.74721871  1
  Fe  Fe70  1  0.37379316  0.87250204  0.62450272  1
  Fe  Fe71  1  0.25065508  -0.00118555  0.25005460  1
  Fe  Fe72  1  0.49920390  0.24867395  0.49825654  1
  Fe  Fe73  1  0.00402115  0.25086574  0.75083769  1
  Fe  Fe74  1  0.75142960  0.75381935  0.24949060  1
  Fe  Fe75  1  0.62741557  0.37595230  0.12494384  1
  Fe  Fe76  1  0.37419416  0.12543026  0.87314189  1
  Fe  Fe77  1  0.62284843  0.87266352  0.62501585  1
  Fe  Fe78  1  0.25028685  0.75013676  0.25140714  1
  Fe  Fe79  1  0.50041902  0.25084269  -0.00099437  1
  Fe  Fe80  1  0.37442306  0.37302852  0.62748943  1
  Fe  Fe81  1  0.75050427  -0.00372099  -0.00121899  1
  Fe  Fe82  1  0.00023480  0.25015114  -0.00089361  1
  Fe  Fe83  1  0.75170313  0.75144617  0.75488743  1
  Fe  Fe84  1  0.24860394  0.25063202  0.00082128  1
  Fe  Fe85  1  0.49953502  0.75019347  0.25043793  1
  Fe  Fe86  1  0.37506231  0.12917241  0.13020752  1
  Fe  Fe87  1  0.87686166  0.87575802  0.62351950  1
  Fe  Fe88  1  0.87526831  0.62586894  0.62678729  1
  Fe  Fe89  1  0.75065682  0.25022711  -0.00197158  1
  Co  Co90  1  0.37610084  0.62543163  0.37184289  1
  Co  Co91  1  0.75228929  0.50301692  0.24781451  1
  Co  Co92  1  0.75006795  0.24835669  0.24959023  1
  Co  Co93  1  0.87298811  0.87749532  0.37865429  1
  Co  Co94  1  0.49341195  0.74643786  -0.00320352  1
  Co  Co95  1  0.12400307  0.12458412  0.62245638  1
  Co  Co96  1  0.37413806  0.87916453  0.87628568  1
  Co  Co97  1  0.25571341  0.00375930  0.50163268  1
  Co  Co98  1  0.49943838  0.74824719  0.49921422  1
  Co  Co99  1  0.00137317  0.75146730  -0.00510010  1
  Co  Co100  1  0.87386128  0.37515764  0.37435599  1
  Co  Co101  1  -0.00103473  0.74852269  0.50036508  1
  Co  Co102  1  0.37385279  0.37211292  0.87197469  1
  Co  Co103  1  0.87793034  0.87829024  0.87313909  1
  Co  Co104  1  0.12450679  0.37763426  0.87809785  1
  Co  Co105  1  0.62633094  0.37851404  0.87697537  1
  Co  Co106  1  0.24835259  0.49740143  0.74823327  1
  Co  Co107  1  0.12483736  0.12293606  0.87734636  1
  Co  Co108  1  0.24408911  0.25049081  0.24961900  1
  Co  Co109  1  -0.00198199  0.49906988  0.00297146  1
  Co  Co110  1  0.49739275  0.00463698  0.00090665  1
  Co  Co111  1  0.37595533  0.12622241  0.36837442  1
  Co  Co112  1  0.87760208  0.87326547  0.12293504  1
  Co  Co113  1  0.87901054  0.62210850  0.87354328  1
  Co  Co114  1  0.75462066  0.75062128  -0.00439046  1
  Co  Co115  1  0.87382910  0.62731479  0.37379387  1
  Co  Co116  1  0.37144275  0.62304528  0.87197432  1
  Co  Co117  1  -0.00157697  0.00261923  0.50004213  1
  Co  Co118  1  0.74789381  -0.00495578  0.24518289  1
  Co  Co119  1  0.37776508  0.12743802  0.63131504  1
  Co  Co120  1  0.50606749  0.25116328  0.24936138  1
  Co  Co121  1  0.74747888  -0.00016613  0.50554661  1
  Co  Co122  1  0.25059126  0.74738895  0.49899058  1
  Co  Co123  1  0.37455294  0.37230836  0.12813048  1
  Co  Co124  1  0.62650257  0.12300136  0.87605077  1
  Co  Co125  1  0.62139755  0.87344768  0.87988834  1
  Co  Co126  1  0.24763300  0.75222608  0.75255416  1
  Co  Co127  1  0.12552879  0.37344262  0.61892040  1
