# generated using pymatgen
data_Fe45Co19
_symmetry_space_group_name_H-M   'P 1'
_cell_length_a   11.41506290
_cell_length_b   11.41523677
_cell_length_c   11.41578583
_cell_angle_alpha   89.99722625
_cell_angle_beta   90.00006262
_cell_angle_gamma   89.99707760
_symmetry_Int_Tables_number   1
_chemical_formula_structural   Fe45Co19
_chemical_formula_sum   'Fe90 Co38'
_cell_volume   1487.54134113
_cell_formula_units_Z   2
loop_
 _symmetry_equiv_pos_site_id
 _symmetry_equiv_pos_as_xyz
  1  'x, y, z'
loop_
 _atom_site_type_symbol
 _atom_site_label
 _atom_site_symmetry_multiplicity
 _atom_site_fract_x
 _atom_site_fract_y
 _atom_site_fract_z
 _atom_site_occupancy
  Fe  Fe0  1  0.74975619  0.50094679  -0.00066426  1
  Fe  Fe1  1  0.25039779  0.75201414  0.00064302  1
  Fe  Fe2  1  0.37692152  0.87598169  0.12667534  1
  Fe  Fe3  1  0.37468950  0.12145279  0.87267199  1
  Fe  Fe4  1  -0.00367217  -0.00107483  0.24991026  1
  Fe  Fe5  1  0.00019903  0.50139879  0.25096429  1
  Fe  Fe6  1  0.62480840  0.62556015  0.87434592  1
  Fe  Fe7  1  0.12683102  0.87607309  0.62569950  1
  Fe  Fe8  1  0.12615194  0.37251754  0.37338555  1
  Fe  Fe9  1  0.87244777  0.87513896  0.87294635  1
  Fe  Fe10  1  0.12494216  0.37407606  0.87361581  1
  Fe  Fe11  1  0.74898211  0.24694547  0.74857546  1
  Fe  Fe12  1  0.37369284  0.37513834  0.37210422  1
  Fe  Fe13  1  0.75074685  0.50105976  0.74835158  1
  Fe  Fe14  1  0.25303347  0.25097490  0.00086902  1
  Fe  Fe15  1  0.87646530  0.12398180  0.62472987  1
  Fe  Fe16  1  0.24941708  0.75144306  0.49789900  1
  Fe  Fe17  1  0.00174220  0.49936977  0.00201817  1
  Fe  Fe18  1  0.87631973  0.12587151  0.87641432  1
  Fe  Fe19  1  0.00024033  -0.00087531  0.75112706  1
  Fe  Fe20  1  0.87330218  0.12702178  0.12778270  1
  Fe  Fe21  1  0.50414317  0.75082206  0.25217996  1
  Fe  Fe22  1  0.62804341  0.87550949  0.87331293  1
  Fe  Fe23  1  0.37786149  0.12088185  0.37823933  1
  Fe  Fe24  1  -0.00205395  0.24956615  0.49840990  1
  Fe  Fe25  1  0.12972015  0.37352883  0.12990331  1
  Fe  Fe26  1  0.62999321  0.87704514  0.62813081  1
  Fe  Fe27  1  0.37463868  0.62161373  0.87651700  1
  Fe  Fe28  1  0.87590370  0.62523677  0.87573287  1
  Fe  Fe29  1  0.37614344  0.62744803  0.62311503  1
  Fe  Fe30  1  0.12567626  0.87438060  0.37182918  1
  Fe  Fe31  1  0.00099754  0.25065701  0.00219470  1
  Fe  Fe32  1  -0.00217288  0.75178210  0.00229433  1
  Fe  Fe33  1  0.87692887  0.62765683  0.62100170  1
  Fe  Fe34  1  0.49932106  0.75308382  0.74927222  1
  Fe  Fe35  1  0.25178274  0.24684008  0.49826751  1
  Fe  Fe36  1  0.50511486  0.75405683  0.49945669  1
  Fe  Fe37  1  0.62451461  0.37326984  0.12528471  1
  Fe  Fe38  1  0.62381880  0.62385885  0.62373724  1
  Fe  Fe39  1  0.12304032  0.62491219  0.62208699  1
  Fe  Fe40  1  0.50043547  0.75109636  -0.00142174  1
  Fe  Fe41  1  0.49790326  0.49725195  0.50056740  1
  Fe  Fe42  1  0.49936272  0.49897102  0.74974470  1
  Fe  Fe43  1  0.49715232  0.25328472  -0.00158485  1
  Fe  Fe44  1  0.74976990  0.50305370  0.25087099  1
  Fe  Fe45  1  0.50124062  -0.00227684  0.00001414  1
  Fe  Fe46  1  0.87710678  0.37374917  0.62618179  1
  Fe  Fe47  1  0.37222637  0.87772346  0.87373416  1
  Fe  Fe48  1  0.25127808  0.24855940  0.75000127  1
  Fe  Fe49  1  0.50667835  -0.00016119  0.24896942  1
  Fe  Fe50  1  0.62614855  0.37509942  0.37640348  1
  Fe  Fe51  1  0.25163834  0.00042516  0.25015275  1
  Fe  Fe52  1  0.12395407  0.62726262  0.87536125  1
  Fe  Fe53  1  0.25066245  0.75100061  0.74992383  1
  Fe  Fe54  1  0.37573440  0.37133202  0.62586993  1
  Fe  Fe55  1  -0.00125481  -0.00220005  0.00227006  1
  Fe  Fe56  1  0.87640163  0.62935028  0.37744478  1
  Fe  Fe57  1  0.62365217  0.37154520  0.62367929  1
  Fe  Fe58  1  0.86965751  0.87324140  0.37458034  1
  Fe  Fe59  1  0.75011932  0.00250353  0.50129486  1
  Fe  Fe60  1  0.12272494  0.62838623  0.37470235  1
  Fe  Fe61  1  0.25019829  0.50026259  0.49857023  1
  Fe  Fe62  1  0.50087295  0.24903286  0.25139972  1
  Fe  Fe63  1  0.12493281  0.12399323  0.62425866  1
  Fe  Fe64  1  0.87414808  0.37140947  0.37316244  1
  Fe  Fe65  1  0.74914404  0.24959414  0.00059701  1
  Fe  Fe66  1  0.24989064  0.50066749  0.74893741  1
  Fe  Fe67  1  -0.00173700  0.75281755  0.74793275  1
  Fe  Fe68  1  0.37368746  0.62294342  0.12408916  1
  Fe  Fe69  1  0.74840584  0.00072523  0.00198950  1
  Fe  Fe70  1  0.87597622  0.37371497  0.87397641  1
  Fe  Fe71  1  0.37735715  0.12422819  0.12506830  1
  Fe  Fe72  1  0.86727049  0.87160174  0.12861298  1
  Fe  Fe73  1  0.12602243  0.12208021  0.87683374  1
  Fe  Fe74  1  0.62739857  0.12553680  0.37889207  1
  Fe  Fe75  1  -0.00113115  -0.00293634  0.49828702  1
  Fe  Fe76  1  0.62643916  0.62750592  0.12299691  1
  Fe  Fe77  1  0.49994438  0.50089211  0.24853639  1
  Fe  Fe78  1  -0.00018601  0.50038926  0.74930993  1
  Fe  Fe79  1  0.75171640  0.49938985  0.50020318  1
  Fe  Fe80  1  0.62287563  0.12365037  0.87415166  1
  Fe  Fe81  1  0.12538183  0.12409611  0.12631175  1
  Fe  Fe82  1  0.37718009  0.87762588  0.37750282  1
  Fe  Fe83  1  0.12333212  0.37481529  0.62389443  1
  Fe  Fe84  1  0.12611965  0.62749590  0.12761947  1
  Fe  Fe85  1  0.12668669  0.87470991  0.12651861  1
  Fe  Fe86  1  0.12230784  0.12437259  0.37293102  1
  Fe  Fe87  1  0.62409039  0.37556172  0.87398579  1
  Fe  Fe88  1  0.87378505  0.37502017  0.12644355  1
  Fe  Fe89  1  0.37755720  0.62625658  0.37630029  1
  Co  Co90  1  0.75105977  0.74686328  0.74879285  1
  Co  Co91  1  0.74705218  0.24805772  0.24974246  1
  Co  Co92  1  0.37688241  0.12518996  0.62395387  1
  Co  Co93  1  0.25333414  0.24466086  0.25151599  1
  Co  Co94  1  0.87141170  0.87580696  0.62427307  1
  Co  Co95  1  0.25430293  0.75102628  0.25122210  1
  Co  Co96  1  0.75266525  0.24994681  0.50201511  1
  Co  Co97  1  0.37336715  0.37662274  0.12753723  1
  Co  Co98  1  0.24649172  0.49902747  0.00008619  1
  Co  Co99  1  0.75061064  0.00510441  0.75020372  1
  Co  Co100  1  0.62247694  0.12747436  0.62374206  1
  Co  Co101  1  0.24799430  0.00072314  0.49907495  1
  Co  Co102  1  0.62822043  0.87950269  0.37460984  1
  Co  Co103  1  0.37236560  0.87505406  0.62092120  1
  Co  Co104  1  0.75075755  0.74915993  -0.00248774  1
  Co  Co105  1  0.62281846  0.62023209  0.37876241  1
  Co  Co106  1  0.12491217  0.87588079  0.87591278  1
  Co  Co107  1  0.24963998  0.50379653  0.25317511  1
  Co  Co108  1  0.25051369  -0.00065476  0.00256716  1
  Co  Co109  1  -0.00098692  0.24950306  0.24906174  1
  Co  Co110  1  0.49882330  0.25001607  0.49706811  1
  Co  Co111  1  0.50177688  0.49923929  0.00127166  1
  Co  Co112  1  0.62279401  0.12718127  0.12171279  1
  Co  Co113  1  -0.00010694  0.49760024  0.49698752  1
  Co  Co114  1  0.74505921  0.74924776  0.49974945  1
  Co  Co115  1  -0.00274424  0.75136267  0.24855400  1
  Co  Co116  1  0.87382513  0.12488693  0.37310848  1
  Co  Co117  1  0.49961871  0.24883552  0.75233489  1
  Co  Co118  1  0.50341119  -0.00224680  0.50483847  1
  Co  Co119  1  0.37505755  0.37940418  0.87454606  1
  Co  Co120  1  0.49889537  -0.00206627  0.74662932  1
  Co  Co121  1  0.00057923  0.24733570  0.75003225  1
  Co  Co122  1  0.25089028  -0.00018741  0.74751872  1
  Co  Co123  1  0.62706548  0.87206571  0.12401467  1
  Co  Co124  1  0.74461081  0.74569733  0.25459748  1
  Co  Co125  1  0.00131272  0.75626302  0.50044060  1
  Co  Co126  1  0.74666743  0.00363489  0.24742656  1
  Co  Co127  1  0.87348340  0.62493366  0.12538188  1
