# generated using pymatgen
data_Fe45Co19
_symmetry_space_group_name_H-M   'P 1'
_cell_length_a   11.41545711
_cell_length_b   11.41528416
_cell_length_c   11.41473937
_cell_angle_alpha   90.00027359
_cell_angle_beta   90.00646969
_cell_angle_gamma   89.99773797
_symmetry_Int_Tables_number   1
_chemical_formula_structural   Fe45Co19
_chemical_formula_sum   'Fe90 Co38'
_cell_volume   1487.46251561
_cell_formula_units_Z   2
loop_
 _symmetry_equiv_pos_site_id
 _symmetry_equiv_pos_as_xyz
  1  'x, y, z'
loop_
 _atom_site_type_symbol
 _atom_site_label
 _atom_site_symmetry_multiplicity
 _atom_site_fract_x
 _atom_site_fract_y
 _atom_site_fract_z
 _atom_site_occupancy
  Fe  Fe0  1  0.37641618  0.88103713  0.62233897  1
  Fe  Fe1  1  0.62404083  0.12927146  0.37621866  1
  Fe  Fe2  1  -0.00369977  0.49838859  0.49701983  1
  Fe  Fe3  1  0.87743136  0.37426154  0.87291467  1
  Fe  Fe4  1  0.62426519  0.37510072  0.62501060  1
  Fe  Fe5  1  0.37262138  0.12281788  0.12397421  1
  Fe  Fe6  1  0.12605034  0.62680381  0.87639848  1
  Fe  Fe7  1  0.25314018  0.25093548  0.50313664  1
  Fe  Fe8  1  0.37499639  0.62348509  0.62377298  1
  Fe  Fe9  1  0.62240178  0.87258384  0.37474159  1
  Fe  Fe10  1  0.00291233  0.49868694  0.74981243  1
  Fe  Fe11  1  0.00017567  0.50002542  0.00017085  1
  Fe  Fe12  1  0.12526536  0.37645508  0.12609369  1
  Fe  Fe13  1  0.24960960  0.25162292  0.74663811  1
  Fe  Fe14  1  0.49975735  0.00370209  -0.00408775  1
  Fe  Fe15  1  0.37479756  0.37689894  0.12542687  1
  Fe  Fe16  1  0.12806386  0.62391772  0.12442580  1
  Fe  Fe17  1  0.62460062  0.37264183  0.87502777  1
  Fe  Fe18  1  0.12360219  0.87273876  0.37245967  1
  Fe  Fe19  1  0.37712138  0.87440451  0.37594089  1
  Fe  Fe20  1  0.62241401  0.37093008  0.37516141  1
  Fe  Fe21  1  0.49930598  0.24355392  0.74654436  1
  Fe  Fe22  1  0.12570087  0.62695475  0.37579335  1
  Fe  Fe23  1  0.87611776  0.87176408  0.37236304  1
  Fe  Fe24  1  0.74910562  -0.00096925  0.49689122  1
  Fe  Fe25  1  0.25068995  0.50052381  0.25190942  1
  Fe  Fe26  1  -0.00046017  0.25055979  0.00176990  1
  Fe  Fe27  1  0.12463578  0.12657876  0.87441413  1
  Fe  Fe28  1  0.75247894  0.49905532  0.49620074  1
  Fe  Fe29  1  0.12616146  0.12329649  0.62422207  1
  Fe  Fe30  1  0.24860248  0.25087266  0.00035859  1
  Fe  Fe31  1  0.24781656  0.49787608  0.75139682  1
  Fe  Fe32  1  -0.00099688  0.74946055  0.00202126  1
  Fe  Fe33  1  0.12330904  0.12802179  0.37404784  1
  Fe  Fe34  1  0.25146533  0.75218942  0.50173907  1
  Fe  Fe35  1  0.12309035  0.37182867  0.37419874  1
  Fe  Fe36  1  0.87401492  0.37901692  0.12987463  1
  Fe  Fe37  1  0.37299970  0.62586097  0.87741567  1
  Fe  Fe38  1  0.37592077  0.87658902  0.87700138  1
  Fe  Fe39  1  0.75174408  0.75210009  0.75072828  1
  Fe  Fe40  1  0.50013465  0.50165947  0.25095783  1
  Fe  Fe41  1  0.37597712  0.12756017  0.37611668  1
  Fe  Fe42  1  0.62298772  0.87838690  0.62433611  1
  Fe  Fe43  1  0.62440880  0.87477091  0.87700943  1
  Fe  Fe44  1  0.37777570  0.37197933  0.37339607  1
  Fe  Fe45  1  0.74993434  0.75033445  0.50029330  1
  Fe  Fe46  1  0.12514930  0.62465113  0.62421294  1
  Fe  Fe47  1  0.25296471  0.75394245  0.00421328  1
  Fe  Fe48  1  0.25190408  0.49753869  0.49959612  1
  Fe  Fe49  1  0.87499269  0.62486214  0.62550103  1
  Fe  Fe50  1  0.49902630  0.50082047  0.49947511  1
  Fe  Fe51  1  0.74866285  0.50013489  0.75227561  1
  Fe  Fe52  1  0.49919195  0.75051763  0.74994341  1
  Fe  Fe53  1  0.87440921  0.12221872  0.12560470  1
  Fe  Fe54  1  0.75188176  0.25140469  0.00029904  1
  Fe  Fe55  1  0.62113304  0.87610878  0.12390060  1
  Fe  Fe56  1  0.37501696  0.37295738  0.87405132  1
  Fe  Fe57  1  0.62488835  0.62551840  0.62533414  1
  Fe  Fe58  1  0.50052502  0.50195426  -0.00315460  1
  Fe  Fe59  1  0.62387738  0.62790330  0.37583535  1
  Fe  Fe60  1  0.49731562  0.74748361  0.24723719  1
  Fe  Fe61  1  0.12405640  0.87211966  0.87506951  1
  Fe  Fe62  1  0.00141691  -0.00171071  0.00043723  1
  Fe  Fe63  1  0.74973496  0.25072176  0.24866193  1
  Fe  Fe64  1  0.62635582  0.62336034  0.12262801  1
  Fe  Fe65  1  0.24929524  -0.00087498  0.25137452  1
  Fe  Fe66  1  0.25039485  -0.00028306  0.75185879  1
  Fe  Fe67  1  -0.00051890  -0.00369869  0.74897436  1
  Fe  Fe68  1  0.87469394  0.12329943  0.87622685  1
  Fe  Fe69  1  0.74942987  -0.00123349  0.75251702  1
  Fe  Fe70  1  0.00120413  -0.00240271  0.49993093  1
  Fe  Fe71  1  0.25065287  0.75074113  0.74781351  1
  Fe  Fe72  1  -0.00327478  0.25169536  0.50362337  1
  Fe  Fe73  1  0.50075176  0.00324638  0.25220879  1
  Fe  Fe74  1  0.49970892  0.24807371  0.00085053  1
  Fe  Fe75  1  0.50073497  0.50273624  0.75248880  1
  Fe  Fe76  1  0.75038455  0.24860832  0.74947932  1
  Fe  Fe77  1  0.12604585  0.12253321  0.12647985  1
  Fe  Fe78  1  0.75101936  0.75060236  0.00090070  1
  Fe  Fe79  1  0.87676605  0.87543366  0.12765771  1
  Fe  Fe80  1  0.87535375  0.62572351  0.87358473  1
  Fe  Fe81  1  0.74932864  -0.00122329  0.25085944  1
  Fe  Fe82  1  0.87624098  0.12684507  0.37276110  1
  Fe  Fe83  1  0.62687086  0.12399781  0.12316122  1
  Fe  Fe84  1  0.62631969  0.37740278  0.12458471  1
  Fe  Fe85  1  0.87357490  0.12244532  0.62535075  1
  Fe  Fe86  1  0.25329871  0.75083398  0.24667174  1
  Fe  Fe87  1  0.75151543  0.25177188  0.50214327  1
  Fe  Fe88  1  0.87212420  0.62193683  0.13043859  1
  Fe  Fe89  1  -0.00021532  0.75150291  0.50354763  1
  Co  Co90  1  0.24707486  -0.00034799  0.49481373  1
  Co  Co91  1  0.50022114  0.24869850  0.24545399  1
  Co  Co92  1  0.12320393  0.37265066  0.87503825  1
  Co  Co93  1  0.37389955  0.62655613  0.37608937  1
  Co  Co94  1  0.74710480  0.50016186  0.25632228  1
  Co  Co95  1  0.50021248  0.00325779  0.75377890  1
  Co  Co96  1  0.87491200  0.62983142  0.37310232  1
  Co  Co97  1  0.24786361  -0.00160111  -0.00108433  1
  Co  Co98  1  0.37123456  0.12738447  0.87561025  1
  Co  Co99  1  0.87400221  0.37684173  0.62790440  1
  Co  Co100  1  0.37410712  0.62129309  0.12262384  1
  Co  Co101  1  0.87285746  0.87609746  0.62365979  1
  Co  Co102  1  0.75114489  0.49949521  -0.00361980  1
  Co  Co103  1  -0.00011891  0.24836458  0.74735907  1
  Co  Co104  1  0.12359645  0.37561951  0.62285368  1
  Co  Co105  1  0.75006586  -0.00306337  0.00147397  1
  Co  Co106  1  0.00019759  0.00054465  0.25158510  1
  Co  Co107  1  0.37884079  0.88053212  0.12478438  1
  Co  Co108  1  -0.00004980  0.75149924  0.74786186  1
  Co  Co109  1  0.62693849  0.62825015  0.87597103  1
  Co  Co110  1  0.37737709  0.37804389  0.62728504  1
  Co  Co111  1  0.87630538  0.37193771  0.37046264  1
  Co  Co112  1  0.00219909  0.74693438  0.24748834  1
  Co  Co113  1  0.25015153  0.24983360  0.24870447  1
  Co  Co114  1  0.12770384  0.87620926  0.62596585  1
  Co  Co115  1  0.24956912  0.49674222  -0.00266360  1
  Co  Co116  1  0.49825445  0.74824382  0.00012326  1
  Co  Co117  1  0.50240477  0.00307059  0.49744516  1
  Co  Co118  1  0.62886242  0.12603071  0.87691804  1
  Co  Co119  1  0.37259492  0.11852041  0.62290957  1
  Co  Co120  1  0.87632429  0.87512833  0.87687188  1
  Co  Co121  1  0.49887891  0.74980499  0.50278245  1
  Co  Co122  1  0.00009097  0.24933534  0.24605418  1
  Co  Co123  1  0.00299933  0.50169647  0.25304620  1
  Co  Co124  1  0.12390605  0.87615437  0.12653684  1
  Co  Co125  1  0.74668299  0.75116810  0.24834820  1
  Co  Co126  1  0.62755611  0.12211007  0.62415885  1
  Co  Co127  1  0.49772112  0.24821346  0.50577416  1
