# generated using pymatgen
data_Fe45Co19
_symmetry_space_group_name_H-M   'P 1'
_cell_length_a   11.41656683
_cell_length_b   11.41570864
_cell_length_c   11.41572304
_cell_angle_alpha   90.00395502
_cell_angle_beta   89.99697294
_cell_angle_gamma   89.99453906
_symmetry_Int_Tables_number   1
_chemical_formula_structural   Fe45Co19
_chemical_formula_sum   'Fe90 Co38'
_cell_volume   1487.79062945
_cell_formula_units_Z   2
loop_
 _symmetry_equiv_pos_site_id
 _symmetry_equiv_pos_as_xyz
  1  'x, y, z'
loop_
 _atom_site_type_symbol
 _atom_site_label
 _atom_site_symmetry_multiplicity
 _atom_site_fract_x
 _atom_site_fract_y
 _atom_site_fract_z
 _atom_site_occupancy
  Fe  Fe0  1  0.50337791  0.24898025  0.00254924  1
  Fe  Fe1  1  0.37449524  0.12905355  0.87353889  1
  Fe  Fe2  1  0.75078146  0.75247511  -0.00200017  1
  Fe  Fe3  1  0.37184223  0.62340141  0.87450831  1
  Fe  Fe4  1  0.50253034  0.75061934  0.24772289  1
  Fe  Fe5  1  0.62612844  0.62278770  0.12424668  1
  Fe  Fe6  1  0.37655879  0.87497562  0.12274243  1
  Fe  Fe7  1  0.12493933  0.62128594  0.87898752  1
  Fe  Fe8  1  -0.00084581  0.74725222  0.75232083  1
  Fe  Fe9  1  0.12537395  0.62180608  0.62575018  1
  Fe  Fe10  1  0.49800310  0.50137953  -0.00037766  1
  Fe  Fe11  1  0.87282400  0.63041906  0.37132652  1
  Fe  Fe12  1  -0.00321968  0.49817717  0.00208303  1
  Fe  Fe13  1  0.62562278  0.37764787  0.62478350  1
  Fe  Fe14  1  0.12513168  0.12222570  0.12528715  1
  Fe  Fe15  1  0.12562049  0.37587498  0.37149610  1
  Fe  Fe16  1  0.12306616  0.87465798  0.87816739  1
  Fe  Fe17  1  0.12584635  0.62520529  0.37213332  1
  Fe  Fe18  1  0.75262103  0.50201821  0.49884851  1
  Fe  Fe19  1  0.74435349  0.25010242  0.24731217  1
  Fe  Fe20  1  -0.00008530  0.25324504  0.00256045  1
  Fe  Fe21  1  0.25159795  -0.00038259  0.25056531  1
  Fe  Fe22  1  0.75362831  0.49693947  0.00179820  1
  Fe  Fe23  1  0.37630578  0.37473848  0.12641106  1
  Fe  Fe24  1  0.87424617  0.62702193  0.12608526  1
  Fe  Fe25  1  0.87610672  0.12608193  0.62507563  1
  Fe  Fe26  1  0.12405786  0.12450966  0.37282241  1
  Fe  Fe27  1  0.62277659  0.87767508  0.12068998  1
  Fe  Fe28  1  0.75249479  0.00151270  0.49853559  1
  Fe  Fe29  1  0.25158361  0.50084154  0.50104632  1
  Fe  Fe30  1  0.12587025  0.37928392  0.12916343  1
  Fe  Fe31  1  0.62589132  0.87407136  0.37604259  1
  Fe  Fe32  1  0.00282930  0.75332728  0.24531940  1
  Fe  Fe33  1  0.37892569  0.12526780  0.12795241  1
  Fe  Fe34  1  -0.00180836  -0.00085321  0.49694744  1
  Fe  Fe35  1  0.25100001  -0.00028174  0.75192652  1
  Fe  Fe36  1  0.87671188  0.12750401  0.87506515  1
  Fe  Fe37  1  0.50202122  0.74873700  0.50291929  1
  Fe  Fe38  1  0.87594144  0.37545590  0.62501799  1
  Fe  Fe39  1  0.87581602  0.87425423  0.62613079  1
  Fe  Fe40  1  -0.00026753  0.25045005  0.49749366  1
  Fe  Fe41  1  0.24720847  0.74997396  0.24757945  1
  Fe  Fe42  1  0.12596048  0.12641627  0.62535932  1
  Fe  Fe43  1  0.74799500  0.25096199  0.00196603  1
  Fe  Fe44  1  0.49861961  0.50175945  0.50217635  1
  Fe  Fe45  1  0.37549456  0.37269770  0.37339559  1
  Fe  Fe46  1  0.37787110  0.87297201  0.87774862  1
  Fe  Fe47  1  0.37496037  0.62822243  0.37647226  1
  Fe  Fe48  1  0.49672739  0.49979114  0.74905160  1
  Fe  Fe49  1  0.37853434  0.12706758  0.37195731  1
  Fe  Fe50  1  0.75345978  0.50197093  0.75004697  1
  Fe  Fe51  1  -0.00006549  0.00076800  0.75075587  1
  Fe  Fe52  1  0.37311773  0.12748128  0.62645982  1
  Fe  Fe53  1  0.50028874  0.25148111  0.74906863  1
  Fe  Fe54  1  -0.00248193  -0.00241914  0.25131387  1
  Fe  Fe55  1  0.24824205  0.25071184  0.49924872  1
  Fe  Fe56  1  -0.00224150  -0.00207736  0.00014571  1
  Fe  Fe57  1  0.00277025  0.25277992  0.75087697  1
  Fe  Fe58  1  0.62599415  0.87725274  0.62942106  1
  Fe  Fe59  1  -0.00268382  0.50018895  0.49577315  1
  Fe  Fe60  1  0.24877649  0.25254408  0.00162238  1
  Fe  Fe61  1  0.00217735  0.75094727  0.49919041  1
  Fe  Fe62  1  -0.00120249  0.49898107  0.75202775  1
  Fe  Fe63  1  0.62629449  0.62420039  0.87579131  1
  Fe  Fe64  1  0.87427706  0.37203517  0.36915386  1
  Fe  Fe65  1  0.12557791  0.12666254  0.87614091  1
  Fe  Fe66  1  0.75006551  -0.00236739  0.25265455  1
  Fe  Fe67  1  0.87339783  0.12525457  0.12637787  1
  Fe  Fe68  1  0.75215316  0.74866027  0.75172111  1
  Fe  Fe69  1  0.62571720  0.62504364  0.37440324  1
  Fe  Fe70  1  0.62514162  0.37703071  0.37407177  1
  Fe  Fe71  1  0.49995601  0.50063206  0.25040823  1
  Fe  Fe72  1  0.12561912  0.87536886  0.62452877  1
  Fe  Fe73  1  0.50240483  0.24988304  0.49966623  1
  Fe  Fe74  1  0.25258732  0.00104830  -0.00125141  1
  Fe  Fe75  1  0.37313645  0.87185953  0.37621747  1
  Fe  Fe76  1  0.24792113  0.74912411  0.75054405  1
  Fe  Fe77  1  0.75032157  -0.00095417  -0.00510154  1
  Fe  Fe78  1  0.62503294  0.37663972  0.87587683  1
  Fe  Fe79  1  0.37248863  0.87214603  0.62377978  1
  Fe  Fe80  1  0.49928852  -0.00039136  0.49982256  1
  Fe  Fe81  1  0.50075505  0.74868474  0.75036954  1
  Fe  Fe82  1  0.24966112  0.00002704  0.49862375  1
  Fe  Fe83  1  0.62483948  0.12228315  0.62562826  1
  Fe  Fe84  1  0.74997727  0.24979765  0.74995148  1
  Fe  Fe85  1  0.37385807  0.62472872  0.12537117  1
  Fe  Fe86  1  0.74956011  0.24894991  0.49924631  1
  Fe  Fe87  1  0.74921541  0.74814589  0.50328750  1
  Fe  Fe88  1  0.24746750  0.74825198  0.00218823  1
  Fe  Fe89  1  0.62340797  0.12201028  0.87267675  1
  Co  Co90  1  0.25238834  0.49817795  0.00139898  1
  Co  Co91  1  0.12529268  0.37793785  0.87792537  1
  Co  Co92  1  0.62367859  0.37987802  0.12348242  1
  Co  Co93  1  0.62515943  0.62273380  0.62657442  1
  Co  Co94  1  0.00296019  0.24886506  0.24755650  1
  Co  Co95  1  0.24880852  0.24943285  0.24839292  1
  Co  Co96  1  0.87385792  0.87023264  0.37491525  1
  Co  Co97  1  0.50070894  0.74582835  0.00034057  1
  Co  Co98  1  0.37657278  0.37322743  0.87714769  1
  Co  Co99  1  0.75289283  0.00049457  0.75224773  1
  Co  Co100  1  0.25275012  0.50127829  0.25182656  1
  Co  Co101  1  0.25092067  0.49567212  0.74831593  1
  Co  Co102  1  0.00085708  0.75082767  0.00367755  1
  Co  Co103  1  0.87842165  0.87375631  0.87408785  1
  Co  Co104  1  0.87473231  0.37283579  0.12970091  1
  Co  Co105  1  0.74553009  0.75150522  0.24644178  1
  Co  Co106  1  0.87267947  0.87607106  0.12524865  1
  Co  Co107  1  0.49874989  0.00295046  -0.00233557  1
  Co  Co108  1  -0.00293864  0.50235533  0.25100427  1
  Co  Co109  1  0.24584925  0.74774282  0.50061467  1
  Co  Co110  1  0.49554752  -0.00069721  0.74994664  1
  Co  Co111  1  0.62331510  0.12413711  0.37418879  1
  Co  Co112  1  0.49989253  -0.00435219  0.25200908  1
  Co  Co113  1  0.75057588  0.50098762  0.25012496  1
  Co  Co114  1  0.62212200  0.87500847  0.87444095  1
  Co  Co115  1  0.37517085  0.37266141  0.62351735  1
  Co  Co116  1  0.12691921  0.87937248  0.12295239  1
  Co  Co117  1  0.87424679  0.12791044  0.37178761  1
  Co  Co118  1  0.12462442  0.62059300  0.12384341  1
  Co  Co119  1  0.37304218  0.62689180  0.62545178  1
  Co  Co120  1  0.24703373  0.25462812  0.75079758  1
  Co  Co121  1  0.12275089  0.37674944  0.62204455  1
  Co  Co122  1  0.62520338  0.11881819  0.12651423  1
  Co  Co123  1  0.12660968  0.87561399  0.37393420  1
  Co  Co124  1  0.87585279  0.62482754  0.87930980  1
  Co  Co125  1  0.50537150  0.25201657  0.24775497  1
  Co  Co126  1  0.87745400  0.62483459  0.62349770  1
  Co  Co127  1  0.87405450  0.37322120  0.87451736  1
