# generated using pymatgen
data_Fe45Co19
_symmetry_space_group_name_H-M   'P 1'
_cell_length_a   11.41524834
_cell_length_b   11.41517743
_cell_length_c   11.41582143
_cell_angle_alpha   89.99912009
_cell_angle_beta   90.00015141
_cell_angle_gamma   90.00055894
_symmetry_Int_Tables_number   1
_chemical_formula_structural   Fe45Co19
_chemical_formula_sum   'Fe90 Co38'
_cell_volume   1487.56241538
_cell_formula_units_Z   2
loop_
 _symmetry_equiv_pos_site_id
 _symmetry_equiv_pos_as_xyz
  1  'x, y, z'
loop_
 _atom_site_type_symbol
 _atom_site_label
 _atom_site_symmetry_multiplicity
 _atom_site_fract_x
 _atom_site_fract_y
 _atom_site_fract_z
 _atom_site_occupancy
  Fe  Fe0  1  -0.00399313  0.74856089  0.75184574  1
  Fe  Fe1  1  0.86925293  0.62255936  0.62844524  1
  Fe  Fe2  1  0.37755262  0.87624104  0.37568816  1
  Fe  Fe3  1  0.74859363  0.50105701  0.24746116  1
  Fe  Fe4  1  0.75033341  0.25235196  0.75286018  1
  Fe  Fe5  1  0.87252348  0.87526909  0.62437637  1
  Fe  Fe6  1  0.12528047  0.37668635  0.37275654  1
  Fe  Fe7  1  0.24980288  -0.00028472  0.75096972  1
  Fe  Fe8  1  0.12600097  0.12588466  0.62485717  1
  Fe  Fe9  1  0.00297471  -0.00038731  -0.00014627  1
  Fe  Fe10  1  0.12482529  0.37456399  0.62318520  1
  Fe  Fe11  1  0.74854117  0.50047214  0.00097623  1
  Fe  Fe12  1  0.62523567  0.12824472  0.12466725  1
  Fe  Fe13  1  0.75202610  0.25086334  0.24690949  1
  Fe  Fe14  1  0.62773389  0.62625525  0.62935157  1
  Fe  Fe15  1  0.12853713  0.87426560  0.12390154  1
  Fe  Fe16  1  0.25207957  0.75103818  0.25146807  1
  Fe  Fe17  1  0.50193565  0.49979994  0.50070136  1
  Fe  Fe18  1  0.25197235  0.75086003  -0.00318918  1
  Fe  Fe19  1  0.50117035  0.74765832  0.75526233  1
  Fe  Fe20  1  0.37755174  0.12788328  0.62352562  1
  Fe  Fe21  1  0.37701203  0.87605230  0.87536288  1
  Fe  Fe22  1  0.87485413  0.37910292  0.37469093  1
  Fe  Fe23  1  0.75001252  0.75051721  0.25125039  1
  Fe  Fe24  1  0.12312098  0.62329216  0.87388556  1
  Fe  Fe25  1  0.37477462  0.62420761  0.62539347  1
  Fe  Fe26  1  0.62387807  0.12596155  0.87630705  1
  Fe  Fe27  1  0.87516566  0.87479681  0.12333154  1
  Fe  Fe28  1  0.37495182  0.12532970  0.87649225  1
  Fe  Fe29  1  0.74858019  0.75060140  -0.00635594  1
  Fe  Fe30  1  0.87355998  0.62527838  0.12300212  1
  Fe  Fe31  1  0.62320920  0.37173043  0.62574814  1
  Fe  Fe32  1  0.50419297  0.00006619  0.50223854  1
  Fe  Fe33  1  0.87265176  0.12210805  0.37439716  1
  Fe  Fe34  1  0.74905345  -0.00198955  0.24729026  1
  Fe  Fe35  1  0.24499670  0.49971585  0.00309810  1
  Fe  Fe36  1  0.25055455  -0.00064676  0.50050149  1
  Fe  Fe37  1  0.00152750  0.50450127  0.24689502  1
  Fe  Fe38  1  -0.00269254  0.24911755  0.24843868  1
  Fe  Fe39  1  0.37429203  0.37856045  0.87717892  1
  Fe  Fe40  1  0.50318012  0.50273448  0.24580847  1
  Fe  Fe41  1  0.62654887  0.62456075  0.37381840  1
  Fe  Fe42  1  0.87483236  0.12242798  0.87581656  1
  Fe  Fe43  1  0.12786124  0.12514446  0.37324541  1
  Fe  Fe44  1  -0.00093338  0.24882130  0.49874740  1
  Fe  Fe45  1  0.25089472  0.74931035  0.75179022  1
  Fe  Fe46  1  0.87485340  0.37727936  0.62273983  1
  Fe  Fe47  1  0.50074236  0.49973126  0.75156003  1
  Fe  Fe48  1  0.74807064  -0.00181438  0.00178757  1
  Fe  Fe49  1  0.25158124  0.25169047  0.75089085  1
  Fe  Fe50  1  0.24750548  0.49911340  0.74829441  1
  Fe  Fe51  1  0.25032458  0.74888979  0.49972914  1
  Fe  Fe52  1  -0.00103633  0.25119608  0.00299092  1
  Fe  Fe53  1  0.74844951  0.75064037  0.49779126  1
  Fe  Fe54  1  0.24758956  0.50086711  0.24679281  1
  Fe  Fe55  1  0.37735855  0.37400927  0.62501740  1
  Fe  Fe56  1  0.74922691  0.25018595  0.49911721  1
  Fe  Fe57  1  -0.00011850  0.00078496  0.50008413  1
  Fe  Fe58  1  0.62276538  0.37450825  0.87777252  1
  Fe  Fe59  1  0.25244889  0.25175557  0.49698307  1
  Fe  Fe60  1  0.87287732  0.12439365  0.62547365  1
  Fe  Fe61  1  -0.00045768  0.25176349  0.74976183  1
  Fe  Fe62  1  0.62426157  0.12538264  0.37396299  1
  Fe  Fe63  1  0.49748981  -0.00046415  0.00332534  1
  Fe  Fe64  1  0.75327007  0.25126265  0.00136562  1
  Fe  Fe65  1  0.25126213  0.25346829  0.00285600  1
  Fe  Fe66  1  0.12450645  0.87253025  0.62599521  1
  Fe  Fe67  1  0.12634279  0.12748403  0.87589956  1
  Fe  Fe68  1  0.62390396  0.37414945  0.37161237  1
  Fe  Fe69  1  -0.00217749  0.74931265  -0.00322786  1
  Fe  Fe70  1  0.49664620  0.00077951  0.24739892  1
  Fe  Fe71  1  0.49653907  0.25110676  0.00401350  1
  Fe  Fe72  1  0.00111927  -0.00110181  0.24861625  1
  Fe  Fe73  1  -0.00095859  0.74589265  0.49917784  1
  Fe  Fe74  1  0.37280918  0.62156108  0.37606727  1
  Fe  Fe75  1  0.00178780  -0.00081810  0.75122691  1
  Fe  Fe76  1  0.50166440  0.74828524  0.49757635  1
  Fe  Fe77  1  0.00174413  0.50459463  0.50030599  1
  Fe  Fe78  1  0.37737924  0.37603612  0.37162060  1
  Fe  Fe79  1  0.37715463  0.87277019  0.62582412  1
  Fe  Fe80  1  0.37600632  0.62759730  0.12340375  1
  Fe  Fe81  1  0.12450542  0.87365801  0.37610981  1
  Fe  Fe82  1  0.50184382  0.00167036  0.74810105  1
  Fe  Fe83  1  0.87403828  0.87632511  0.37575517  1
  Fe  Fe84  1  0.87983278  0.38016904  0.87707352  1
  Fe  Fe85  1  -0.00051897  0.74825278  0.25105218  1
  Fe  Fe86  1  0.12954192  0.12466791  0.12634771  1
  Fe  Fe87  1  0.50268203  0.50433009  0.00156818  1
  Fe  Fe88  1  0.61902954  0.86830713  0.12513738  1
  Fe  Fe89  1  0.74644950  -0.00179876  0.74892027  1
  Co  Co90  1  0.74813211  0.49358615  0.75077579  1
  Co  Co91  1  0.62897587  0.62270594  0.87164669  1
  Co  Co92  1  0.87492494  0.61876369  0.87394047  1
  Co  Co93  1  0.74635791  -0.00041508  0.50147470  1
  Co  Co94  1  0.00242547  0.50008868  0.74681567  1
  Co  Co95  1  0.87528465  0.12242351  0.12439217  1
  Co  Co96  1  0.00416178  0.50094474  0.00467100  1
  Co  Co97  1  0.25455124  0.25081244  0.24984803  1
  Co  Co98  1  0.49770326  0.24787725  0.24582368  1
  Co  Co99  1  0.62135499  0.87824036  0.87594768  1
  Co  Co100  1  0.62390812  0.87595808  0.37244264  1
  Co  Co101  1  0.49732773  0.74672693  0.25397342  1
  Co  Co102  1  0.12736922  0.62686063  0.62556316  1
  Co  Co103  1  0.87244530  0.62309151  0.37430726  1
  Co  Co104  1  0.50044841  0.25151450  0.49729358  1
  Co  Co105  1  0.12455476  0.87268530  0.87372688  1
  Co  Co106  1  0.37621056  0.87027739  0.12323797  1
  Co  Co107  1  0.87509562  0.88013486  0.87629250  1
  Co  Co108  1  0.62446214  0.86976305  0.62625331  1
  Co  Co109  1  0.36987356  0.12338637  0.12463489  1
  Co  Co110  1  0.62513002  0.37371993  0.12445666  1
  Co  Co111  1  0.37136382  0.62043120  0.87514179  1
  Co  Co112  1  0.49872141  0.25086309  0.75453566  1
  Co  Co113  1  0.12389999  0.37148598  0.12859430  1
  Co  Co114  1  0.49974996  0.74581510  -0.00631169  1
  Co  Co115  1  0.62571439  0.63063887  0.12454696  1
  Co  Co116  1  0.12825281  0.62485098  0.37519044  1
  Co  Co117  1  0.25265309  -0.00261486  0.25147807  1
  Co  Co118  1  0.12419681  0.37513803  0.87568544  1
  Co  Co119  1  0.37667688  0.37975815  0.12581264  1
  Co  Co120  1  0.25066995  -0.00264121  -0.00235650  1
  Co  Co121  1  0.37666754  0.12447894  0.37668342  1
  Co  Co122  1  0.12619719  0.63086875  0.12422624  1
  Co  Co123  1  0.87519044  0.37857527  0.12590691  1
  Co  Co124  1  0.25091383  0.49794671  0.50153795  1
  Co  Co125  1  0.74592070  0.49948343  0.50071359  1
  Co  Co126  1  0.62476801  0.13017883  0.62651111  1
  Co  Co127  1  0.75139853  0.75404492  0.75646634  1
