# generated using pymatgen
data_Fe45Co19
_symmetry_space_group_name_H-M   'P 1'
_cell_length_a   11.41651957
_cell_length_b   11.41523195
_cell_length_c   11.41567438
_cell_angle_alpha   89.99831078
_cell_angle_beta   90.00287942
_cell_angle_gamma   89.99532273
_symmetry_Int_Tables_number   1
_chemical_formula_structural   Fe45Co19
_chemical_formula_sum   'Fe90 Co38'
_cell_volume   1487.71600780
_cell_formula_units_Z   2
loop_
 _symmetry_equiv_pos_site_id
 _symmetry_equiv_pos_as_xyz
  1  'x, y, z'
loop_
 _atom_site_type_symbol
 _atom_site_label
 _atom_site_symmetry_multiplicity
 _atom_site_fract_x
 _atom_site_fract_y
 _atom_site_fract_z
 _atom_site_occupancy
  Fe  Fe0  1  0.12473438  0.87380570  0.37740770  1
  Fe  Fe1  1  0.12290084  0.37832336  0.62592972  1
  Fe  Fe2  1  -0.00164519  0.49905739  0.00264489  1
  Fe  Fe3  1  0.62609219  0.37565826  0.87474358  1
  Fe  Fe4  1  0.00015868  -0.00254807  0.75171814  1
  Fe  Fe5  1  -0.00387487  0.50451374  0.75001542  1
  Fe  Fe6  1  0.87587622  0.12248902  0.12362877  1
  Fe  Fe7  1  0.75226497  0.25197566  0.74783317  1
  Fe  Fe8  1  0.75148258  0.74518419  0.75191722  1
  Fe  Fe9  1  0.75149967  0.24874937  -0.00007370  1
  Fe  Fe10  1  0.49807762  0.25218977  0.50278319  1
  Fe  Fe11  1  0.24719035  0.74835810  0.24902674  1
  Fe  Fe12  1  0.62841683  0.88011834  0.12368363  1
  Fe  Fe13  1  0.87658222  0.37518690  0.87381272  1
  Fe  Fe14  1  0.24854461  0.24654223  0.24945841  1
  Fe  Fe15  1  0.62612462  0.87605981  0.37507872  1
  Fe  Fe16  1  0.62367603  0.12533812  0.37698143  1
  Fe  Fe17  1  0.24595125  0.24880515  0.75088679  1
  Fe  Fe18  1  0.87513345  0.87181697  0.37111442  1
  Fe  Fe19  1  0.25037655  0.50438078  0.75075125  1
  Fe  Fe20  1  0.50026897  0.25296950  0.74703940  1
  Fe  Fe21  1  0.74819680  0.24857730  0.25033530  1
  Fe  Fe22  1  0.12225286  0.37632830  0.87443414  1
  Fe  Fe23  1  0.75230734  -0.00084442  0.49914122  1
  Fe  Fe24  1  0.25185657  0.74850021  0.00009113  1
  Fe  Fe25  1  0.12585029  0.37603766  0.37582626  1
  Fe  Fe26  1  0.37461519  0.87306683  0.37505402  1
  Fe  Fe27  1  0.24925269  0.50361318  0.24721864  1
  Fe  Fe28  1  0.12148127  0.62639919  0.87842519  1
  Fe  Fe29  1  0.12758707  0.87706090  0.12260246  1
  Fe  Fe30  1  0.50012448  -0.00267158  -0.00666308  1
  Fe  Fe31  1  0.25407366  0.50224881  -0.00009099  1
  Fe  Fe32  1  0.62545448  0.12273780  0.12345782  1
  Fe  Fe33  1  0.75134974  0.25214364  0.50156576  1
  Fe  Fe34  1  0.37302100  0.87606505  0.12446028  1
  Fe  Fe35  1  0.87710889  0.62415328  0.13164386  1
  Fe  Fe36  1  0.37476629  0.62765465  0.37438406  1
  Fe  Fe37  1  0.62124079  0.62267517  0.12374812  1
  Fe  Fe38  1  0.12297946  0.12202704  0.62470940  1
  Fe  Fe39  1  0.87457391  0.37620618  0.12793037  1
  Fe  Fe40  1  0.74936764  0.00177766  0.75375882  1
  Fe  Fe41  1  0.62663843  0.62377450  0.62472355  1
  Fe  Fe42  1  0.12322120  0.87162153  0.62409772  1
  Fe  Fe43  1  0.24908171  0.24955842  0.50228494  1
  Fe  Fe44  1  0.50041861  0.49936477  0.74933379  1
  Fe  Fe45  1  0.87992679  0.12674710  0.87662518  1
  Fe  Fe46  1  0.49687179  0.49729029  0.24669379  1
  Fe  Fe47  1  0.49979773  -0.00277999  0.50177577  1
  Fe  Fe48  1  0.37479892  0.12494605  0.37473409  1
  Fe  Fe49  1  0.37393032  0.87136402  0.62672447  1
  Fe  Fe50  1  0.37377928  0.37391087  0.87380611  1
  Fe  Fe51  1  0.62516382  0.12464618  0.62572296  1
  Fe  Fe52  1  0.50187697  -0.00400746  0.75402438  1
  Fe  Fe53  1  0.87588472  0.87171909  0.62554825  1
  Fe  Fe54  1  0.25106570  0.50203711  0.50153656  1
  Fe  Fe55  1  0.24977908  -0.00050875  0.49915624  1
  Fe  Fe56  1  0.00228007  -0.00062274  0.25108078  1
  Fe  Fe57  1  0.37465213  0.12290815  0.12423599  1
  Fe  Fe58  1  0.75026755  0.74839249  0.00403113  1
  Fe  Fe59  1  0.62481817  0.62340829  0.37348051  1
  Fe  Fe60  1  0.87222835  0.87696627  0.12803335  1
  Fe  Fe61  1  0.49752117  0.49888651  0.50166623  1
  Fe  Fe62  1  0.49841667  0.25148035  0.00104737  1
  Fe  Fe63  1  0.12475076  0.12080340  0.12101016  1
  Fe  Fe64  1  0.24822358  0.24738019  -0.00342382  1
  Fe  Fe65  1  0.50234880  0.75137734  0.24877744  1
  Fe  Fe66  1  0.87769299  0.12493913  0.37530921  1
  Fe  Fe67  1  0.12654416  0.87413688  0.87670997  1
  Fe  Fe68  1  0.75362400  0.50066418  0.49951039  1
  Fe  Fe69  1  0.37981974  0.62968162  0.87663387  1
  Fe  Fe70  1  -0.00217682  0.75173756  0.00227887  1
  Fe  Fe71  1  0.00038188  0.25057550  0.50211371  1
  Fe  Fe72  1  0.12786414  0.37677614  0.12296269  1
  Fe  Fe73  1  0.87636787  0.37731746  0.37164962  1
  Fe  Fe74  1  0.37500732  0.12393605  0.62729761  1
  Fe  Fe75  1  -0.00337234  0.50536901  0.49690901  1
  Fe  Fe76  1  0.37582461  0.62876487  0.62491149  1
  Fe  Fe77  1  0.75080806  0.50043564  0.00044672  1
  Fe  Fe78  1  0.12184385  0.62928449  0.62363135  1
  Fe  Fe79  1  0.25030744  0.00021955  0.75484259  1
  Fe  Fe80  1  0.49994697  0.00062008  0.25104476  1
  Fe  Fe81  1  0.37314459  0.37349969  0.37308307  1
  Fe  Fe82  1  0.62339123  0.37455929  0.37503493  1
  Fe  Fe83  1  0.62425315  0.37447684  0.12438174  1
  Fe  Fe84  1  0.62830592  0.87318886  0.62589745  1
  Fe  Fe85  1  0.87203020  0.87296569  0.87637802  1
  Fe  Fe86  1  0.62342480  0.62563351  0.87793343  1
  Fe  Fe87  1  0.87685993  0.12357452  0.62467404  1
  Fe  Fe88  1  0.75162276  0.74752913  0.49628888  1
  Fe  Fe89  1  0.00273713  0.25073378  0.24801425  1
  Co  Co90  1  0.12358735  0.12524045  0.37692734  1
  Co  Co91  1  0.87697367  0.37796645  0.62563876  1
  Co  Co92  1  0.50214196  0.75568564  0.00287369  1
  Co  Co93  1  0.50245790  0.75112351  0.74795801  1
  Co  Co94  1  0.74453011  0.74984488  0.24778642  1
  Co  Co95  1  0.24844748  0.00028375  0.25252275  1
  Co  Co96  1  -0.00379916  0.74731016  0.49644218  1
  Co  Co97  1  0.12392756  0.62501604  0.12067054  1
  Co  Co98  1  0.37097641  0.37237503  0.12531017  1
  Co  Co99  1  0.00590047  0.50022492  0.24926739  1
  Co  Co100  1  0.87308958  0.62494842  0.36549480  1
  Co  Co101  1  0.62358584  0.12912352  0.87360860  1
  Co  Co102  1  0.87496996  0.62823525  0.62577783  1
  Co  Co103  1  0.49684758  0.49619219  0.00074352  1
  Co  Co104  1  0.37418121  0.86927775  0.87383646  1
  Co  Co105  1  0.00540348  0.75035974  0.24918462  1
  Co  Co106  1  0.50053967  0.24933020  0.24829740  1
  Co  Co107  1  0.12678136  0.62530016  0.37671367  1
  Co  Co108  1  0.75131531  0.50128690  0.75189784  1
  Co  Co109  1  0.00102904  0.24955917  0.74789924  1
  Co  Co110  1  -0.00107541  -0.00232261  0.49928754  1
  Co  Co111  1  0.74578949  0.49778118  0.24839670  1
  Co  Co112  1  0.87580102  0.62539685  0.87885625  1
  Co  Co113  1  0.62957426  0.86972317  0.87533253  1
  Co  Co114  1  0.24767796  0.74715480  0.75092768  1
  Co  Co115  1  0.74999180  0.00343239  0.25346363  1
  Co  Co116  1  0.37141320  0.37566587  0.62685983  1
  Co  Co117  1  0.74982832  0.00273695  -0.00507615  1
  Co  Co118  1  0.62753993  0.37742292  0.62458908  1
  Co  Co119  1  -0.00207643  -0.00410205  -0.00061608  1
  Co  Co120  1  0.50231586  0.75024767  0.50013185  1
  Co  Co121  1  -0.00000529  0.75044050  0.75374244  1
  Co  Co122  1  0.00085079  0.25281238  0.00273481  1
  Co  Co123  1  0.11974096  0.12351642  0.87725604  1
  Co  Co124  1  0.24985548  0.75011123  0.50033605  1
  Co  Co125  1  0.37669767  0.62817656  0.12448175  1
  Co  Co126  1  0.25385066  0.00165119  -0.00567390  1
  Co  Co127  1  0.37805474  0.12745588  0.87303972  1
