# generated using pymatgen
data_Fe45Co19
_symmetry_space_group_name_H-M   'P 1'
_cell_length_a   11.41474205
_cell_length_b   11.41523630
_cell_length_c   11.41551121
_cell_angle_alpha   90.00733119
_cell_angle_beta   90.00633032
_cell_angle_gamma   89.99886310
_symmetry_Int_Tables_number   1
_chemical_formula_structural   Fe45Co19
_chemical_formula_sum   'Fe90 Co38'
_cell_volume   1487.46366665
_cell_formula_units_Z   2
loop_
 _symmetry_equiv_pos_site_id
 _symmetry_equiv_pos_as_xyz
  1  'x, y, z'
loop_
 _atom_site_type_symbol
 _atom_site_label
 _atom_site_symmetry_multiplicity
 _atom_site_fract_x
 _atom_site_fract_y
 _atom_site_fract_z
 _atom_site_occupancy
  Fe  Fe0  1  0.37570978  0.87537429  0.37596428  1
  Fe  Fe1  1  0.37631453  0.37345853  0.87252972  1
  Fe  Fe2  1  0.87760711  0.37569640  0.62664563  1
  Fe  Fe3  1  0.12820320  0.86968420  0.87182566  1
  Fe  Fe4  1  0.12674055  0.62519560  0.37469097  1
  Fe  Fe5  1  0.12630712  0.37328518  0.37573216  1
  Fe  Fe6  1  0.50225558  0.00078466  0.25454545  1
  Fe  Fe7  1  0.87334008  0.87475559  0.87457358  1
  Fe  Fe8  1  0.24954629  0.49928784  -0.00077227  1
  Fe  Fe9  1  -0.00016400  0.24880267  -0.00059020  1
  Fe  Fe10  1  0.25235759  0.75156175  0.00340431  1
  Fe  Fe11  1  0.87356519  0.87623328  0.37496252  1
  Fe  Fe12  1  0.74331037  0.49783513  0.74779924  1
  Fe  Fe13  1  0.12474590  0.87443762  0.62554871  1
  Fe  Fe14  1  0.12362852  0.62518170  0.62691064  1
  Fe  Fe15  1  0.87316971  0.62465796  0.62625649  1
  Fe  Fe16  1  0.12675165  0.12584964  0.87350323  1
  Fe  Fe17  1  0.12305067  0.62242076  0.12560342  1
  Fe  Fe18  1  0.37584830  0.12348863  0.12532999  1
  Fe  Fe19  1  0.25141792  0.25239398  0.24654216  1
  Fe  Fe20  1  -0.00034626  0.74666894  -0.00316133  1
  Fe  Fe21  1  0.00046140  0.50009081  0.49798776  1
  Fe  Fe22  1  0.49742078  0.00013255  -0.00341143  1
  Fe  Fe23  1  0.74880340  0.75040200  0.24997816  1
  Fe  Fe24  1  0.00105251  -0.00040762  0.75165970  1
  Fe  Fe25  1  0.25292924  0.74897579  0.50184870  1
  Fe  Fe26  1  0.25077669  0.49837096  0.24794993  1
  Fe  Fe27  1  0.87350845  0.11990520  0.12617375  1
  Fe  Fe28  1  0.12509834  0.87695182  0.12856839  1
  Fe  Fe29  1  0.87182659  0.37304459  0.37587054  1
  Fe  Fe30  1  0.62534691  0.12529124  0.87609346  1
  Fe  Fe31  1  0.62295383  0.62349264  0.37719766  1
  Fe  Fe32  1  0.37723252  0.62009692  0.37571727  1
  Fe  Fe33  1  0.74651254  -0.00014368  0.74869329  1
  Fe  Fe34  1  0.49898836  0.24931498  -0.00128073  1
  Fe  Fe35  1  0.24968909  0.25010445  0.74652347  1
  Fe  Fe36  1  0.00086726  -0.00051804  -0.00194573  1
  Fe  Fe37  1  -0.00028190  0.50353607  0.75523779  1
  Fe  Fe38  1  0.49827022  0.25508174  0.25185593  1
  Fe  Fe39  1  0.62852380  0.13344168  0.37461007  1
  Fe  Fe40  1  0.87272963  0.12742455  0.37397945  1
  Fe  Fe41  1  0.37735604  0.62221419  0.12595105  1
  Fe  Fe42  1  -0.00176295  0.25032599  0.24860116  1
  Fe  Fe43  1  0.37209460  0.12832487  0.37513039  1
  Fe  Fe44  1  0.00211939  0.24889914  0.50366792  1
  Fe  Fe45  1  0.37900621  0.12600646  0.62533036  1
  Fe  Fe46  1  0.49927741  0.74978086  0.74825849  1
  Fe  Fe47  1  0.49847572  0.75134623  0.00136787  1
  Fe  Fe48  1  0.37386924  0.62714883  0.87448983  1
  Fe  Fe49  1  0.49980529  0.49958163  -0.00292467  1
  Fe  Fe50  1  0.87723882  0.37966162  0.12195515  1
  Fe  Fe51  1  0.49994264  0.75053640  0.25128584  1
  Fe  Fe52  1  0.25089585  0.25042919  0.00130478  1
  Fe  Fe53  1  0.62380663  0.87524794  0.87537948  1
  Fe  Fe54  1  0.87345893  0.12516940  0.87405465  1
  Fe  Fe55  1  0.25292837  0.75018841  0.24926294  1
  Fe  Fe56  1  0.74669887  0.00224781  0.49782605  1
  Fe  Fe57  1  0.00039569  0.74947232  0.50018078  1
  Fe  Fe58  1  0.87699944  0.62143806  0.12372841  1
  Fe  Fe59  1  0.87671239  0.12312750  0.62591821  1
  Fe  Fe60  1  0.87164589  0.37573986  0.87683861  1
  Fe  Fe61  1  0.87369157  0.87830543  0.12562712  1
  Fe  Fe62  1  0.37964758  0.87901053  0.62263580  1
  Fe  Fe63  1  0.25151658  0.50018545  0.74878454  1
  Fe  Fe64  1  0.75086012  0.74979567  0.00156044  1
  Fe  Fe65  1  0.24983219  0.25251510  0.50584847  1
  Fe  Fe66  1  0.74868541  0.74978793  0.50054656  1
  Fe  Fe67  1  0.24781497  0.00211406  0.49713173  1
  Fe  Fe68  1  0.87305681  0.62378631  0.37563524  1
  Fe  Fe69  1  0.74886685  0.49878266  0.24876595  1
  Fe  Fe70  1  0.74547255  0.49703103  0.50358709  1
  Fe  Fe71  1  0.00439299  0.00219897  0.49554599  1
  Fe  Fe72  1  0.74907120  0.24807087  0.00366976  1
  Fe  Fe73  1  0.38188047  0.61946026  0.62385298  1
  Fe  Fe74  1  0.12206385  0.37740653  0.12414179  1
  Fe  Fe75  1  0.62077528  0.12876597  0.62278278  1
  Fe  Fe76  1  -0.00089438  0.74973906  0.25105361  1
  Fe  Fe77  1  0.25079654  0.49693124  0.50382605  1
  Fe  Fe78  1  0.12480056  0.37328620  0.87308869  1
  Fe  Fe79  1  0.25369587  -0.00048654  0.75097199  1
  Fe  Fe80  1  0.74893101  0.75114157  0.74760884  1
  Fe  Fe81  1  0.74905055  0.25054275  0.74811648  1
  Fe  Fe82  1  0.12591780  0.12212905  0.12729095  1
  Fe  Fe83  1  0.62695681  0.62552221  0.87550606  1
  Fe  Fe84  1  0.87585510  0.87676103  0.62342820  1
  Fe  Fe85  1  0.62272123  0.37511475  0.12391362  1
  Fe  Fe86  1  0.62257985  0.62355242  0.12572861  1
  Fe  Fe87  1  0.25343243  -0.00196301  -0.00101518  1
  Fe  Fe88  1  0.62509450  0.87860324  0.12500327  1
  Fe  Fe89  1  0.62112925  0.87580715  0.62084170  1
  Co  Co90  1  0.50116912  0.49528704  0.25292373  1
  Co  Co91  1  0.63163028  0.37128104  0.37511914  1
  Co  Co92  1  0.37689028  0.37599495  0.12232992  1
  Co  Co93  1  0.86769144  0.62327221  0.87429968  1
  Co  Co94  1  0.12109515  0.37770470  0.62744929  1
  Co  Co95  1  0.12689223  0.87139992  0.37414256  1
  Co  Co96  1  -0.00317835  0.74793206  0.75051304  1
  Co  Co97  1  0.36926034  0.37742612  0.37569010  1
  Co  Co98  1  0.00302341  0.50312032  -0.00674787  1
  Co  Co99  1  0.25610292  0.74958605  0.74242135  1
  Co  Co100  1  0.50027379  0.00151386  0.75218670  1
  Co  Co101  1  0.61860536  0.36962588  0.62521805  1
  Co  Co102  1  0.75181780  0.25138539  0.24248347  1
  Co  Co103  1  0.13185012  0.62987384  0.87226644  1
  Co  Co104  1  0.74882771  0.00118996  -0.00161192  1
  Co  Co105  1  0.38147739  0.37472358  0.62961463  1
  Co  Co106  1  0.12462649  0.12291198  0.62801345  1
  Co  Co107  1  0.62116427  0.12399406  0.12544425  1
  Co  Co108  1  0.25116981  -0.00015939  0.25326845  1
  Co  Co109  1  -0.00138966  0.24953796  0.75066021  1
  Co  Co110  1  0.62623009  0.37283712  0.87788025  1
  Co  Co111  1  0.74634100  0.00012407  0.25329379  1
  Co  Co112  1  0.37508035  0.87134019  0.87359762  1
  Co  Co113  1  0.62433870  0.87174040  0.37761235  1
  Co  Co114  1  0.00052451  0.00087565  0.25387164  1
  Co  Co115  1  0.62207221  0.62658224  0.62214174  1
  Co  Co116  1  0.37776769  0.87832449  0.12793017  1
  Co  Co117  1  0.37308050  0.12781559  0.87460993  1
  Co  Co118  1  -0.00043271  0.49874828  0.25436905  1
  Co  Co119  1  0.49585861  0.25413096  0.49500577  1
  Co  Co120  1  0.49685882  0.74875646  0.49913902  1
  Co  Co121  1  0.12749886  0.13140049  0.37239768  1
  Co  Co122  1  0.50489023  0.50047988  0.75309336  1
  Co  Co123  1  0.50297458  0.49241140  0.49672246  1
  Co  Co124  1  0.74681169  0.50072746  0.00309041  1
  Co  Co125  1  0.75264265  0.25088054  0.50645054  1
  Co  Co126  1  0.50173265  0.24788279  0.75410118  1
  Co  Co127  1  0.50200019  0.00491287  0.49477021  1
