# generated using pymatgen
data_Fe45Co19
_symmetry_space_group_name_H-M   'P 1'
_cell_length_a   11.41432787
_cell_length_b   11.41598014
_cell_length_c   11.41520211
_cell_angle_alpha   89.99500099
_cell_angle_beta   90.00254348
_cell_angle_gamma   89.99454666
_symmetry_Int_Tables_number   1
_chemical_formula_structural   Fe45Co19
_chemical_formula_sum   'Fe90 Co38'
_cell_volume   1487.46634738
_cell_formula_units_Z   2
loop_
 _symmetry_equiv_pos_site_id
 _symmetry_equiv_pos_as_xyz
  1  'x, y, z'
loop_
 _atom_site_type_symbol
 _atom_site_label
 _atom_site_symmetry_multiplicity
 _atom_site_fract_x
 _atom_site_fract_y
 _atom_site_fract_z
 _atom_site_occupancy
  Fe  Fe0  1  0.75137675  -0.00011063  0.50115245  1
  Fe  Fe1  1  0.37250812  0.62399239  0.12666924  1
  Fe  Fe2  1  0.62327253  0.12765356  0.62303365  1
  Fe  Fe3  1  0.62210185  0.62123728  0.87680826  1
  Fe  Fe4  1  0.00202909  0.25171028  0.25155492  1
  Fe  Fe5  1  0.87244832  0.37290726  0.62517124  1
  Fe  Fe6  1  0.87514194  0.87277521  0.37171476  1
  Fe  Fe7  1  0.50010783  -0.00176371  0.74956577  1
  Fe  Fe8  1  0.37279226  0.87762304  0.87716824  1
  Fe  Fe9  1  0.75046849  0.00143976  0.00063911  1
  Fe  Fe10  1  0.37364248  0.37359171  0.62663544  1
  Fe  Fe11  1  0.75549511  0.49901765  0.00317859  1
  Fe  Fe12  1  0.62115237  0.62373277  0.37452108  1
  Fe  Fe13  1  0.37485585  0.37755751  0.37290453  1
  Fe  Fe14  1  -0.00063367  0.25099703  0.74995645  1
  Fe  Fe15  1  0.00072831  0.49865311  0.74967365  1
  Fe  Fe16  1  0.75065755  0.00152016  0.74869300  1
  Fe  Fe17  1  0.62777348  0.37403801  0.12464768  1
  Fe  Fe18  1  0.87374686  0.87065223  0.12711640  1
  Fe  Fe19  1  0.87548501  0.62630969  0.62587706  1
  Fe  Fe20  1  0.12360304  0.12512302  0.87611999  1
  Fe  Fe21  1  0.37430202  0.37777134  0.87260115  1
  Fe  Fe22  1  0.12570947  0.12744194  0.62490133  1
  Fe  Fe23  1  0.49903971  0.75001523  0.24870397  1
  Fe  Fe24  1  0.74838240  0.50192416  0.50168015  1
  Fe  Fe25  1  0.24937941  0.00139029  0.75011918  1
  Fe  Fe26  1  0.50452340  0.25073353  0.25384374  1
  Fe  Fe27  1  0.50240371  0.25254820  0.75261719  1
  Fe  Fe28  1  0.37598928  0.12828022  0.62590387  1
  Fe  Fe29  1  0.37425591  0.12501857  0.37251710  1
  Fe  Fe30  1  0.49649818  -0.00007940  0.50229002  1
  Fe  Fe31  1  0.36856139  0.87529717  0.37743479  1
  Fe  Fe32  1  -0.00064245  -0.00000321  0.50102148  1
  Fe  Fe33  1  0.87656746  0.87426154  0.87428057  1
  Fe  Fe34  1  0.75012533  0.74757748  0.00059301  1
  Fe  Fe35  1  0.00057957  -0.00167953  0.00129045  1
  Fe  Fe36  1  -0.00126813  0.25079267  0.49859118  1
  Fe  Fe37  1  0.13051926  0.87363818  0.12301413  1
  Fe  Fe38  1  0.62356867  0.87685935  0.37417921  1
  Fe  Fe39  1  -0.00329734  0.25454172  -0.00017534  1
  Fe  Fe40  1  0.12666596  0.12668026  0.12540590  1
  Fe  Fe41  1  0.37631447  0.62136876  0.87262692  1
  Fe  Fe42  1  0.62508219  0.87644967  0.87617164  1
  Fe  Fe43  1  0.24983966  0.50116889  0.50062395  1
  Fe  Fe44  1  0.12693859  0.12313206  0.37451949  1
  Fe  Fe45  1  0.50150743  0.25022852  -0.00156671  1
  Fe  Fe46  1  0.12682943  0.37654737  0.87524197  1
  Fe  Fe47  1  0.87330285  0.37619752  0.37107259  1
  Fe  Fe48  1  0.62455357  0.12582239  0.12337785  1
  Fe  Fe49  1  0.87595239  0.12527442  0.87565220  1
  Fe  Fe50  1  0.62340452  0.87214182  0.62539756  1
  Fe  Fe51  1  0.25161700  0.24933833  -0.00070097  1
  Fe  Fe52  1  0.12728054  0.62428258  0.12325501  1
  Fe  Fe53  1  0.62524142  0.87327625  0.12443792  1
  Fe  Fe54  1  0.37330874  0.37249789  0.12873665  1
  Fe  Fe55  1  0.74821640  0.74775195  0.75134873  1
  Fe  Fe56  1  0.50215013  0.49716660  0.50418099  1
  Fe  Fe57  1  0.37118935  0.87574514  0.12090662  1
  Fe  Fe58  1  0.74542123  0.49980396  0.74733903  1
  Fe  Fe59  1  0.87570748  0.87207469  0.62600742  1
  Fe  Fe60  1  -0.00122179  0.49911273  0.49907986  1
  Fe  Fe61  1  0.25005223  0.74969487  0.75078546  1
  Fe  Fe62  1  0.49717432  0.49825682  0.00344700  1
  Fe  Fe63  1  0.74953348  0.00073204  0.24955907  1
  Fe  Fe64  1  0.12532665  0.62269244  0.87686629  1
  Fe  Fe65  1  0.49809116  0.75114207  0.50025012  1
  Fe  Fe66  1  0.12771559  0.87394207  0.62305157  1
  Fe  Fe67  1  0.00050896  0.75084790  0.49804090  1
  Fe  Fe68  1  0.87591619  0.12371635  0.37339829  1
  Fe  Fe69  1  0.74706521  0.25007398  0.75491319  1
  Fe  Fe70  1  0.25085031  0.25031206  0.49739565  1
  Fe  Fe71  1  0.37711345  0.12308864  0.87740048  1
  Fe  Fe72  1  0.87764124  0.62326892  0.87473198  1
  Fe  Fe73  1  0.74829514  0.50473355  0.24679702  1
  Fe  Fe74  1  0.00151947  0.50039098  0.24831945  1
  Fe  Fe75  1  0.87596893  0.62788484  0.37080213  1
  Fe  Fe76  1  0.12341130  0.62542890  0.62486456  1
  Fe  Fe77  1  0.12682576  0.37397404  0.62428280  1
  Fe  Fe78  1  0.12709297  0.62657815  0.37364548  1
  Fe  Fe79  1  0.12687445  0.37599082  0.12471326  1
  Fe  Fe80  1  0.49664819  -0.00081791  0.24729094  1
  Fe  Fe81  1  0.37894760  0.62543237  0.62863085  1
  Fe  Fe82  1  0.74845088  0.74941918  0.49782315  1
  Fe  Fe83  1  -0.00062614  -0.00014902  0.74807750  1
  Fe  Fe84  1  0.49856781  0.74988984  -0.00106809  1
  Fe  Fe85  1  0.87470930  0.12821358  0.12599361  1
  Fe  Fe86  1  0.00334157  -0.00366230  0.24985197  1
  Fe  Fe87  1  0.00133779  0.75009860  -0.00049788  1
  Fe  Fe88  1  0.37599021  0.62234246  0.37302349  1
  Fe  Fe89  1  0.74736580  0.24875484  0.49401993  1
  Co  Co90  1  0.25094328  0.24883379  0.75273374  1
  Co  Co91  1  0.25160842  0.00484959  0.50240967  1
  Co  Co92  1  0.75152103  0.25021561  -0.00247415  1
  Co  Co93  1  0.62485315  0.37995090  0.87947015  1
  Co  Co94  1  0.25284290  0.49809548  0.00065056  1
  Co  Co95  1  0.74498334  0.74742405  0.25044737  1
  Co  Co96  1  0.62149674  0.62961470  0.62486446  1
  Co  Co97  1  0.62586624  0.38120527  0.37436865  1
  Co  Co98  1  0.37250429  0.87348539  0.62503363  1
  Co  Co99  1  0.87345286  0.37201685  0.13024066  1
  Co  Co100  1  0.00584523  0.75253732  0.24948668  1
  Co  Co101  1  0.49917194  0.75253611  0.75386418  1
  Co  Co102  1  0.62396564  0.12225142  0.87611841  1
  Co  Co103  1  0.62233513  0.62516420  0.12157077  1
  Co  Co104  1  0.24843784  0.50107107  0.74833531  1
  Co  Co105  1  0.25172860  0.74437630  0.50185869  1
  Co  Co106  1  0.25160183  0.75010663  0.25000622  1
  Co  Co107  1  0.24899057  0.00507264  0.00093103  1
  Co  Co108  1  0.50435644  0.49584035  0.74641174  1
  Co  Co109  1  0.12525924  0.37625777  0.37674346  1
  Co  Co110  1  -0.00221278  0.49764655  0.00163998  1
  Co  Co111  1  0.25088876  0.00036236  0.24717002  1
  Co  Co112  1  0.87285225  0.12898533  0.62501499  1
  Co  Co113  1  0.87837024  0.62908256  0.12662697  1
  Co  Co114  1  0.24858397  0.49956563  0.25069312  1
  Co  Co115  1  0.12602409  0.87622590  0.87523860  1
  Co  Co116  1  0.24820774  0.25061093  0.25156290  1
  Co  Co117  1  0.37653333  0.12874424  0.12568161  1
  Co  Co118  1  0.74542763  0.24678128  0.25371459  1
  Co  Co119  1  0.50140504  0.49942819  0.24573282  1
  Co  Co120  1  0.13056463  0.87540873  0.37923562  1
  Co  Co121  1  0.50103965  -0.00025105  0.00232247  1
  Co  Co122  1  0.00204062  0.74975857  0.75096756  1
  Co  Co123  1  0.87440193  0.37676124  0.87191005  1
  Co  Co124  1  0.25140781  0.74722021  -0.00278360  1
  Co  Co125  1  0.62638324  0.36929714  0.62244515  1
  Co  Co126  1  0.62216217  0.11845438  0.37684241  1
  Co  Co127  1  0.49919277  0.25169273  0.49518000  1
