# generated using pymatgen
data_Fe45Co19
_symmetry_space_group_name_H-M   'P 1'
_cell_length_a   11.41522231
_cell_length_b   11.41475925
_cell_length_c   11.41527501
_cell_angle_alpha   89.99947747
_cell_angle_beta   89.99449538
_cell_angle_gamma   90.00546420
_symmetry_Int_Tables_number   1
_chemical_formula_structural   Fe45Co19
_chemical_formula_sum   'Fe90 Co38'
_cell_volume   1487.43331609
_cell_formula_units_Z   2
loop_
 _symmetry_equiv_pos_site_id
 _symmetry_equiv_pos_as_xyz
  1  'x, y, z'
loop_
 _atom_site_type_symbol
 _atom_site_label
 _atom_site_symmetry_multiplicity
 _atom_site_fract_x
 _atom_site_fract_y
 _atom_site_fract_z
 _atom_site_occupancy
  Fe  Fe0  1  0.62667759  0.12599771  0.37623487  1
  Fe  Fe1  1  0.37283673  0.87335463  0.62759025  1
  Fe  Fe2  1  0.75033734  0.00093000  0.24986875  1
  Fe  Fe3  1  0.12240476  0.12948612  0.12461151  1
  Fe  Fe4  1  0.50078375  0.25161693  -0.00216250  1
  Fe  Fe5  1  0.49841473  0.24995149  0.50312625  1
  Fe  Fe6  1  -0.00146183  0.24809573  0.75147126  1
  Fe  Fe7  1  0.00012012  0.00142546  -0.00225977  1
  Fe  Fe8  1  0.75559762  0.25106373  0.24497432  1
  Fe  Fe9  1  0.87471811  0.37470025  0.87576986  1
  Fe  Fe10  1  0.24890008  -0.00056419  0.50020606  1
  Fe  Fe11  1  0.25054596  0.00011749  -0.00144490  1
  Fe  Fe12  1  0.75241094  0.75087109  0.75153066  1
  Fe  Fe13  1  0.49900341  0.74849313  0.24950624  1
  Fe  Fe14  1  0.12106779  0.62708251  0.62507013  1
  Fe  Fe15  1  0.75025873  0.50018210  0.50040670  1
  Fe  Fe16  1  0.62654928  0.62549502  0.62546627  1
  Fe  Fe17  1  0.49902299  0.74962660  0.50129430  1
  Fe  Fe18  1  -0.00201544  0.75101552  0.00075924  1
  Fe  Fe19  1  0.37358062  0.87492932  0.12525334  1
  Fe  Fe20  1  0.12323685  0.62437342  0.12418872  1
  Fe  Fe21  1  0.62614914  0.62551758  0.37503802  1
  Fe  Fe22  1  0.62684767  0.87498669  0.37522057  1
  Fe  Fe23  1  0.25053561  0.49768938  0.24652114  1
  Fe  Fe24  1  0.37253738  0.37478104  0.37419519  1
  Fe  Fe25  1  0.24641873  0.50000311  0.50069920  1
  Fe  Fe26  1  0.24955037  0.00036248  0.75220739  1
  Fe  Fe27  1  0.62478959  0.87460237  0.87461000  1
  Fe  Fe28  1  0.75335283  0.75112984  0.00000248  1
  Fe  Fe29  1  0.62446663  0.37413646  0.62631653  1
  Fe  Fe30  1  0.49932212  0.00214616  0.74989394  1
  Fe  Fe31  1  0.12300781  0.87270079  0.87363716  1
  Fe  Fe32  1  0.24837565  0.74994973  0.25001201  1
  Fe  Fe33  1  0.75158984  0.24691333  0.50432217  1
  Fe  Fe34  1  0.49998507  -0.00066361  -0.00008107  1
  Fe  Fe35  1  0.87770481  0.62366455  0.87498244  1
  Fe  Fe36  1  0.37420441  0.12662812  0.12243579  1
  Fe  Fe37  1  0.62512181  0.37583362  0.12443829  1
  Fe  Fe38  1  0.25245098  0.24821134  0.74930149  1
  Fe  Fe39  1  0.12610682  0.13101864  0.37547660  1
  Fe  Fe40  1  0.12404644  0.87320085  0.62584922  1
  Fe  Fe41  1  0.37249881  0.12628519  0.37767458  1
  Fe  Fe42  1  0.62462988  0.62394348  0.12543428  1
  Fe  Fe43  1  0.87209257  0.12173298  0.87494418  1
  Fe  Fe44  1  0.50128175  0.49964571  0.49921618  1
  Fe  Fe45  1  0.12759333  0.12863509  0.87675032  1
  Fe  Fe46  1  0.37374347  0.37348399  0.87380863  1
  Fe  Fe47  1  0.12229724  0.37364710  0.62540987  1
  Fe  Fe48  1  0.75258542  0.49886625  0.24886406  1
  Fe  Fe49  1  0.49868976  0.74957693  -0.00051166  1
  Fe  Fe50  1  0.00107097  0.00216337  0.25089857  1
  Fe  Fe51  1  0.37425347  0.37626224  0.62647318  1
  Fe  Fe52  1  0.12465216  0.12659994  0.62342753  1
  Fe  Fe53  1  0.24425256  0.50169311  0.75247181  1
  Fe  Fe54  1  0.12198720  0.36912002  0.12466604  1
  Fe  Fe55  1  0.50073504  0.00108609  0.50054208  1
  Fe  Fe56  1  0.74956223  0.49929919  -0.00039740  1
  Fe  Fe57  1  0.74895015  0.24983480  0.74947296  1
  Fe  Fe58  1  0.49942703  0.00172692  0.24998919  1
  Fe  Fe59  1  0.00313206  0.49638044  -0.00427439  1
  Fe  Fe60  1  0.75440990  0.74896792  0.24788899  1
  Fe  Fe61  1  0.25020379  0.75037651  -0.00148888  1
  Fe  Fe62  1  0.87816435  0.62201655  0.62603656  1
  Fe  Fe63  1  0.62522212  0.87479839  0.12609673  1
  Fe  Fe64  1  -0.00161333  0.49485423  0.25253199  1
  Fe  Fe65  1  0.50160159  0.49987291  0.75070109  1
  Fe  Fe66  1  0.24867094  0.49732653  -0.00010975  1
  Fe  Fe67  1  0.87831913  0.37562422  0.62396862  1
  Fe  Fe68  1  0.75063976  0.49831548  0.75024918  1
  Fe  Fe69  1  0.24898065  0.00238211  0.24983330  1
  Fe  Fe70  1  0.12199990  0.62666386  0.37545098  1
  Fe  Fe71  1  0.49852051  0.50007141  0.00048709  1
  Fe  Fe72  1  0.62562898  0.62451594  0.87370182  1
  Fe  Fe73  1  -0.00126634  0.00126748  0.50009359  1
  Fe  Fe74  1  0.62726334  0.12541896  0.12378612  1
  Fe  Fe75  1  0.87587015  0.87886358  0.12534170  1
  Fe  Fe76  1  0.12222784  0.87216147  0.37604030  1
  Fe  Fe77  1  0.37428450  0.62340163  0.37390911  1
  Fe  Fe78  1  0.37422851  0.62656710  0.62711144  1
  Fe  Fe79  1  0.12473401  0.87604404  0.12501408  1
  Fe  Fe80  1  0.62697268  0.87690918  0.62439124  1
  Fe  Fe81  1  0.87801984  0.62549676  0.37536804  1
  Fe  Fe82  1  0.37358902  0.62677968  0.87317843  1
  Fe  Fe83  1  0.49881575  0.25020660  0.24991610  1
  Fe  Fe84  1  0.87509326  0.12569983  0.37610415  1
  Fe  Fe85  1  0.62728373  0.37374375  0.37483575  1
  Fe  Fe86  1  0.75529563  0.75341315  0.50075704  1
  Fe  Fe87  1  0.62532851  0.12696284  0.87487537  1
  Fe  Fe88  1  0.87662903  0.88165400  0.63055103  1
  Fe  Fe89  1  0.37395779  0.87505307  0.37476078  1
  Co  Co90  1  0.37569502  0.87464710  0.87299279  1
  Co  Co91  1  0.87645909  0.87843022  0.87318670  1
  Co  Co92  1  0.87655946  0.12162921  0.12312951  1
  Co  Co93  1  0.62518600  0.37523838  0.87469315  1
  Co  Co94  1  0.49910165  0.24936599  0.74900228  1
  Co  Co95  1  0.62495444  0.12414579  0.62538173  1
  Co  Co96  1  0.00218382  0.49864520  0.75275529  1
  Co  Co97  1  0.25021084  0.25176386  0.00122435  1
  Co  Co98  1  0.37740732  0.37312014  0.12413161  1
  Co  Co99  1  0.87722810  0.87619136  0.37201680  1
  Co  Co100  1  -0.00045826  0.25082793  0.49872087  1
  Co  Co101  1  -0.00047837  0.75039444  0.24627873  1
  Co  Co102  1  -0.00358840  0.24793447  -0.00304352  1
  Co  Co103  1  0.24662550  0.74933772  0.75154735  1
  Co  Co104  1  0.75201038  0.00073872  0.49897068  1
  Co  Co105  1  -0.00502676  0.25244491  0.25185743  1
  Co  Co106  1  0.37477677  0.12578666  0.87617433  1
  Co  Co107  1  0.12264806  0.62731131  0.87676007  1
  Co  Co108  1  0.25150814  0.24899157  0.24727115  1
  Co  Co109  1  0.00529238  0.00332058  0.75287998  1
  Co  Co110  1  0.37350039  0.62606301  0.12442640  1
  Co  Co111  1  0.75098564  0.24967816  0.00088728  1
  Co  Co112  1  0.87835630  0.62098948  0.12308078  1
  Co  Co113  1  0.87767504  0.37671938  0.12034657  1
  Co  Co114  1  0.50020563  0.49910389  0.25037386  1
  Co  Co115  1  0.74847382  -0.00164124  -0.00005772  1
  Co  Co116  1  0.25003039  0.25237409  0.50279193  1
  Co  Co117  1  0.74613993  0.00127521  0.75187011  1
  Co  Co118  1  0.24996378  0.74884361  0.49970002  1
  Co  Co119  1  -0.00207637  0.74958754  0.75024311  1
  Co  Co120  1  0.87120390  0.37419039  0.37942047  1
  Co  Co121  1  -0.00395990  0.75244655  0.50296736  1
  Co  Co122  1  0.50262080  0.74958203  0.74891644  1
  Co  Co123  1  0.00220702  0.49728621  0.49763179  1
  Co  Co124  1  0.37321006  0.12308283  0.62411295  1
  Co  Co125  1  0.87625366  0.12237716  0.62748353  1
  Co  Co126  1  0.12881865  0.37195375  0.37338270  1
  Co  Co127  1  0.12603157  0.36935378  0.87370900  1
