# generated using pymatgen
data_Fe45Co19
_symmetry_space_group_name_H-M   'P 1'
_cell_length_a   11.41667397
_cell_length_b   11.41577679
_cell_length_c   11.41621570
_cell_angle_alpha   90.00006230
_cell_angle_beta   89.99889505
_cell_angle_gamma   90.00276707
_symmetry_Int_Tables_number   1
_chemical_formula_structural   Fe45Co19
_chemical_formula_sum   'Fe90 Co38'
_cell_volume   1487.87769304
_cell_formula_units_Z   2
loop_
 _symmetry_equiv_pos_site_id
 _symmetry_equiv_pos_as_xyz
  1  'x, y, z'
loop_
 _atom_site_type_symbol
 _atom_site_label
 _atom_site_symmetry_multiplicity
 _atom_site_fract_x
 _atom_site_fract_y
 _atom_site_fract_z
 _atom_site_occupancy
  Fe  Fe0  1  -0.00216443  0.00065096  -0.00045630  1
  Fe  Fe1  1  0.00066605  0.00025406  0.49927006  1
  Fe  Fe2  1  0.87414744  0.37640571  0.87400512  1
  Fe  Fe3  1  0.87462333  0.87606115  0.62483324  1
  Fe  Fe4  1  0.75250625  0.25123269  0.50287915  1
  Fe  Fe5  1  0.24871984  0.50112134  -0.00059364  1
  Fe  Fe6  1  0.62631330  0.87313474  0.37748447  1
  Fe  Fe7  1  0.25065213  0.00019574  0.00051722  1
  Fe  Fe8  1  0.75156340  0.24875286  0.00292999  1
  Fe  Fe9  1  -0.00137664  0.75014312  0.49947387  1
  Fe  Fe10  1  -0.00121299  0.49990050  -0.00080760  1
  Fe  Fe11  1  0.25138639  0.50034129  0.25178738  1
  Fe  Fe12  1  0.74767116  0.00019610  0.24969766  1
  Fe  Fe13  1  0.62578367  0.87468105  0.62398516  1
  Fe  Fe14  1  0.37382623  0.37745190  0.87499770  1
  Fe  Fe15  1  -0.00188941  0.24901178  0.74766233  1
  Fe  Fe16  1  0.25332063  0.74760782  0.00187505  1
  Fe  Fe17  1  0.50085738  0.24982554  0.74925251  1
  Fe  Fe18  1  0.12437622  0.87417425  0.12334039  1
  Fe  Fe19  1  0.62529613  0.62715201  0.87846413  1
  Fe  Fe20  1  0.62381675  0.37666409  0.62309873  1
  Fe  Fe21  1  -0.00159306  0.25108505  0.00138740  1
  Fe  Fe22  1  0.50237865  -0.00096819  0.25063592  1
  Fe  Fe23  1  0.12298742  0.37557725  0.62266814  1
  Fe  Fe24  1  0.50243729  0.25196934  0.24933970  1
  Fe  Fe25  1  0.12831405  0.37366956  0.37507621  1
  Fe  Fe26  1  0.37326290  0.87416349  0.87384785  1
  Fe  Fe27  1  0.49997209  0.25043449  0.00103679  1
  Fe  Fe28  1  0.12609035  0.12593161  0.37430012  1
  Fe  Fe29  1  0.50089873  0.50081602  0.00064978  1
  Fe  Fe30  1  -0.00312438  0.49635934  0.49532455  1
  Fe  Fe31  1  0.75128395  0.00236804  0.74960395  1
  Fe  Fe32  1  0.24999180  0.25042531  0.00111765  1
  Fe  Fe33  1  0.25189066  0.74666601  0.50239588  1
  Fe  Fe34  1  0.12548585  0.37569668  0.12596840  1
  Fe  Fe35  1  0.62684584  0.37474870  0.87814477  1
  Fe  Fe36  1  0.74777916  0.49977095  0.74909771  1
  Fe  Fe37  1  0.50122137  0.00075821  0.50010310  1
  Fe  Fe38  1  0.12843674  0.87327062  0.37492114  1
  Fe  Fe39  1  0.75162774  0.50486590  0.00351406  1
  Fe  Fe40  1  0.50201599  0.50074937  0.75154777  1
  Fe  Fe41  1  0.49967881  0.74868835  0.75105138  1
  Fe  Fe42  1  0.37352022  0.87134998  0.37332416  1
  Fe  Fe43  1  0.24608358  0.50237447  0.75031005  1
  Fe  Fe44  1  0.62513905  0.87074772  0.12040976  1
  Fe  Fe45  1  -0.00014835  0.25273720  0.25219310  1
  Fe  Fe46  1  0.37985604  0.62569225  0.13003917  1
  Fe  Fe47  1  0.37455686  0.12611150  0.37328098  1
  Fe  Fe48  1  0.24826599  0.74491345  0.74767366  1
  Fe  Fe49  1  0.12431655  0.87364085  0.62516208  1
  Fe  Fe50  1  -0.00085764  0.00045834  0.74997602  1
  Fe  Fe51  1  0.74397958  0.50526608  0.24698256  1
  Fe  Fe52  1  0.87359252  0.87299275  0.12722853  1
  Fe  Fe53  1  0.62688688  0.37536335  0.37538097  1
  Fe  Fe54  1  0.75075822  0.24961815  0.74745311  1
  Fe  Fe55  1  0.37588879  0.87445390  0.62520581  1
  Fe  Fe56  1  0.75232665  0.50065510  0.50034554  1
  Fe  Fe57  1  0.87543943  0.62561016  0.36905144  1
  Fe  Fe58  1  0.12456542  0.62635893  0.37391028  1
  Fe  Fe59  1  0.87293962  0.87441084  0.37388217  1
  Fe  Fe60  1  0.87770065  0.62376003  0.62684760  1
  Fe  Fe61  1  0.87396931  0.37739322  0.12867873  1
  Fe  Fe62  1  0.25066180  0.00146728  0.50071412  1
  Fe  Fe63  1  0.50107926  0.24838214  0.50091840  1
  Fe  Fe64  1  0.12074593  0.62523500  0.12662221  1
  Fe  Fe65  1  0.37577403  0.37733689  0.62477347  1
  Fe  Fe66  1  0.50104694  0.00109585  0.75057364  1
  Fe  Fe67  1  0.00372083  0.50167109  0.75218368  1
  Fe  Fe68  1  0.37607604  0.37665995  0.12724324  1
  Fe  Fe69  1  0.00147214  -0.00227633  0.25114697  1
  Fe  Fe70  1  0.75241314  0.74932692  0.75179025  1
  Fe  Fe71  1  0.75139126  0.74878780  0.49951277  1
  Fe  Fe72  1  -0.00653531  0.74821917  -0.00217792  1
  Fe  Fe73  1  0.62324170  0.62618152  0.62216729  1
  Fe  Fe74  1  0.12464780  0.12444489  0.12725863  1
  Fe  Fe75  1  0.25033260  0.25031039  0.74806447  1
  Fe  Fe76  1  0.74731629  0.24758928  0.24685054  1
  Fe  Fe77  1  0.75230695  0.00199358  0.00112621  1
  Fe  Fe78  1  0.49713358  0.50259663  0.49515995  1
  Fe  Fe79  1  0.12401876  0.12653884  0.87511470  1
  Fe  Fe80  1  0.87321033  0.12466471  0.37589318  1
  Fe  Fe81  1  0.37576702  0.12332846  0.12640885  1
  Fe  Fe82  1  0.25031805  0.24867726  0.50226273  1
  Fe  Fe83  1  0.37671564  0.87351082  0.12752449  1
  Fe  Fe84  1  0.62512021  0.12481884  0.87755860  1
  Fe  Fe85  1  0.62703721  0.87340300  0.87870528  1
  Fe  Fe86  1  0.12417383  0.87143065  0.87557052  1
  Fe  Fe87  1  0.37515606  0.12466129  0.87521319  1
  Fe  Fe88  1  0.25336424  0.50235366  0.49813293  1
  Fe  Fe89  1  0.24878594  0.00145366  0.74910497  1
  Co  Co90  1  0.62611895  0.12357045  0.62438672  1
  Co  Co91  1  0.37742917  0.62322962  0.62608637  1
  Co  Co92  1  0.87937309  0.62569142  0.13187445  1
  Co  Co93  1  0.37385527  0.62226801  0.87350801  1
  Co  Co94  1  0.24936132  -0.00129514  0.24913650  1
  Co  Co95  1  0.74823613  -0.00116226  0.49950067  1
  Co  Co96  1  -0.00254322  0.25331314  0.49730105  1
  Co  Co97  1  0.49796066  -0.00179356  -0.00085279  1
  Co  Co98  1  0.87422746  0.87699572  0.87411867  1
  Co  Co99  1  0.24685088  0.74968698  0.24715664  1
  Co  Co100  1  0.50548667  0.75134986  0.25305704  1
  Co  Co101  1  0.12480629  0.37297035  0.87531110  1
  Co  Co102  1  0.74640266  0.74879735  0.25000524  1
  Co  Co103  1  0.24999002  0.25075046  0.24783020  1
  Co  Co104  1  0.00212670  0.75381853  0.25149583  1
  Co  Co105  1  0.86796393  0.37529238  0.36946289  1
  Co  Co106  1  0.62282092  0.12264727  0.12328337  1
  Co  Co107  1  0.49543399  0.75038290  -0.00334581  1
  Co  Co108  1  0.87501346  0.62126943  0.87071887  1
  Co  Co109  1  0.87511288  0.12280528  0.62075836  1
  Co  Co110  1  0.50255233  0.49847735  0.25289781  1
  Co  Co111  1  0.62672287  0.12629538  0.37545666  1
  Co  Co112  1  0.62506554  0.62543841  0.37835793  1
  Co  Co113  1  0.62545974  0.37589069  0.12415063  1
  Co  Co114  1  0.00235954  0.49584841  0.25297823  1
  Co  Co115  1  0.12476249  0.62875780  0.87872915  1
  Co  Co116  1  0.12126942  0.62351392  0.62068203  1
  Co  Co117  1  0.87687935  0.12391588  0.12825940  1
  Co  Co118  1  0.12342052  0.12494885  0.62388886  1
  Co  Co119  1  0.62050760  0.63053333  0.12101065  1
  Co  Co120  1  0.75644985  0.74586824  -0.00040054  1
  Co  Co121  1  -0.00068729  0.74991337  0.74994623  1
  Co  Co122  1  0.87679253  0.37812372  0.62794395  1
  Co  Co123  1  0.37498974  0.63010147  0.37084596  1
  Co  Co124  1  0.87518220  0.12593029  0.87627324  1
  Co  Co125  1  0.49932019  0.75074709  0.50034311  1
  Co  Co126  1  0.37502132  0.37154833  0.37475649  1
  Co  Co127  1  0.37586841  0.12378297  0.62490485  1
