# generated using pymatgen
data_Fe45Co19
_symmetry_space_group_name_H-M   'P 1'
_cell_length_a   11.41409267
_cell_length_b   11.41545013
_cell_length_c   11.41392685
_cell_angle_alpha   90.00580215
_cell_angle_beta   89.99533413
_cell_angle_gamma   89.98815475
_symmetry_Int_Tables_number   1
_chemical_formula_structural   Fe45Co19
_chemical_formula_sum   'Fe90 Co38'
_cell_volume   1487.20044739
_cell_formula_units_Z   2
loop_
 _symmetry_equiv_pos_site_id
 _symmetry_equiv_pos_as_xyz
  1  'x, y, z'
loop_
 _atom_site_type_symbol
 _atom_site_label
 _atom_site_symmetry_multiplicity
 _atom_site_fract_x
 _atom_site_fract_y
 _atom_site_fract_z
 _atom_site_occupancy
  Fe  Fe0  1  0.50222957  0.24683756  0.25267813  1
  Fe  Fe1  1  0.62275469  0.12570641  0.62256677  1
  Fe  Fe2  1  0.87670166  0.87566804  0.37204133  1
  Fe  Fe3  1  0.37370001  0.12411343  0.87478983  1
  Fe  Fe4  1  0.50000619  0.50155007  0.74795939  1
  Fe  Fe5  1  0.62292292  0.12186899  0.12220058  1
  Fe  Fe6  1  0.50022506  0.50055699  0.50056848  1
  Fe  Fe7  1  0.00311757  0.24992916  0.25253685  1
  Fe  Fe8  1  -0.00004813  0.49925322  0.00065027  1
  Fe  Fe9  1  0.00027018  0.24904336  0.50114146  1
  Fe  Fe10  1  0.25026788  0.49946654  -0.00039941  1
  Fe  Fe11  1  0.62387458  0.62557465  0.87592347  1
  Fe  Fe12  1  0.62455369  0.87388100  0.62435933  1
  Fe  Fe13  1  0.87558876  0.12755302  0.87209073  1
  Fe  Fe14  1  0.75003533  0.49919523  0.24948629  1
  Fe  Fe15  1  0.87428110  0.37399846  0.37304828  1
  Fe  Fe16  1  0.12752054  0.87329143  0.87530664  1
  Fe  Fe17  1  0.25138302  0.25136505  0.49946711  1
  Fe  Fe18  1  0.87834048  0.62310578  0.37268316  1
  Fe  Fe19  1  0.00397861  0.74966518  0.49897359  1
  Fe  Fe20  1  0.37288776  0.12599800  0.12805712  1
  Fe  Fe21  1  0.62534743  0.37367143  0.37613164  1
  Fe  Fe22  1  0.62300933  0.37542717  0.12488356  1
  Fe  Fe23  1  0.74968833  0.25021828  0.50222198  1
  Fe  Fe24  1  0.50071271  0.50339819  0.25167154  1
  Fe  Fe25  1  0.87832257  0.87454852  0.62496201  1
  Fe  Fe26  1  0.74899538  -0.00006184  0.24802147  1
  Fe  Fe27  1  0.62248643  0.87470857  0.37181398  1
  Fe  Fe28  1  0.49929597  0.24960732  0.74950392  1
  Fe  Fe29  1  0.25243820  -0.00326083  0.00273532  1
  Fe  Fe30  1  0.12542073  0.37536825  0.87416428  1
  Fe  Fe31  1  0.12717584  0.12392316  0.87684353  1
  Fe  Fe32  1  0.62339713  0.37598541  0.87478552  1
  Fe  Fe33  1  0.00085660  0.00067193  0.75043354  1
  Fe  Fe34  1  0.75108448  -0.00142734  0.50140025  1
  Fe  Fe35  1  0.24994233  -0.00311678  0.49757462  1
  Fe  Fe36  1  0.37641262  0.37564547  0.12651094  1
  Fe  Fe37  1  0.75014222  0.24912924  -0.00074377  1
  Fe  Fe38  1  0.00098542  0.24980074  -0.00059931  1
  Fe  Fe39  1  0.87415449  0.87426170  0.87657009  1
  Fe  Fe40  1  0.12591490  0.12265748  0.62357545  1
  Fe  Fe41  1  0.12577386  0.37395261  0.12502015  1
  Fe  Fe42  1  0.12361301  0.37887418  0.37917791  1
  Fe  Fe43  1  0.75113287  0.75091218  0.49927020  1
  Fe  Fe44  1  0.87285039  0.12587686  0.37398412  1
  Fe  Fe45  1  0.37262485  0.62663789  0.87702481  1
  Fe  Fe46  1  -0.00207894  0.74921123  0.00228908  1
  Fe  Fe47  1  0.49788424  -0.00057229  0.74967703  1
  Fe  Fe48  1  0.87514782  0.37413606  0.12625394  1
  Fe  Fe49  1  0.00624099  0.74801524  0.74799814  1
  Fe  Fe50  1  0.49986932  0.75191079  0.00102602  1
  Fe  Fe51  1  0.24894272  0.50003216  0.25158456  1
  Fe  Fe52  1  0.12417750  0.62563724  0.12666654  1
  Fe  Fe53  1  0.74887176  0.75051895  0.75056886  1
  Fe  Fe54  1  -0.00080898  0.00085136  0.00025737  1
  Fe  Fe55  1  0.37111802  0.62867449  0.37638966  1
  Fe  Fe56  1  0.12464836  0.87513853  0.37017939  1
  Fe  Fe57  1  0.37069953  0.87502648  0.62592105  1
  Fe  Fe58  1  0.37454395  0.62495696  0.12435297  1
  Fe  Fe59  1  0.24808324  0.50313310  0.74956748  1
  Fe  Fe60  1  0.37737611  0.37448197  0.37338671  1
  Fe  Fe61  1  0.00035848  0.00112199  0.49731691  1
  Fe  Fe62  1  0.37099984  0.87261962  0.87283597  1
  Fe  Fe63  1  0.87576584  0.37279056  0.87166713  1
  Fe  Fe64  1  0.62301565  0.12223182  0.87720429  1
  Fe  Fe65  1  0.75119270  0.75156783  0.24593631  1
  Fe  Fe66  1  0.62656666  0.87745923  0.87957627  1
  Fe  Fe67  1  0.62518931  0.62535873  0.12327129  1
  Fe  Fe68  1  0.25180243  0.25183621  -0.00049795  1
  Fe  Fe69  1  0.37184522  0.12400647  0.37309091  1
  Fe  Fe70  1  0.87719512  0.12553232  0.12725922  1
  Fe  Fe71  1  0.37561615  0.37371042  0.62554373  1
  Fe  Fe72  1  0.62677997  0.62606596  0.37704609  1
  Fe  Fe73  1  0.75110471  0.50065716  -0.00038532  1
  Fe  Fe74  1  0.37206994  0.62796883  0.62241484  1
  Fe  Fe75  1  0.87640100  0.62495724  0.87489439  1
  Fe  Fe76  1  0.87536702  0.62786896  0.62520498  1
  Fe  Fe77  1  0.49711063  0.25156403  -0.00121368  1
  Fe  Fe78  1  0.24872063  0.24897477  0.74900742  1
  Fe  Fe79  1  0.75117191  0.00115056  0.74821747  1
  Fe  Fe80  1  0.75141923  0.50004411  0.50291948  1
  Fe  Fe81  1  0.37901750  0.87462828  0.13252345  1
  Fe  Fe82  1  0.49896286  0.75148865  0.49942908  1
  Fe  Fe83  1  0.12187117  0.87560694  0.12839813  1
  Fe  Fe84  1  0.74738912  0.50084379  0.74705149  1
  Fe  Fe85  1  0.00402396  0.50142420  0.74689384  1
  Fe  Fe86  1  0.49987573  0.75052044  0.74941378  1
  Fe  Fe87  1  0.87503544  0.37069461  0.62960025  1
  Fe  Fe88  1  0.49851232  0.00053603  0.49715727  1
  Fe  Fe89  1  0.12752904  0.12504358  0.12814685  1
  Co  Co90  1  0.24584340  0.75518220  0.49802891  1
  Co  Co91  1  0.00147102  0.49754765  0.24923330  1
  Co  Co92  1  0.74760618  0.24915169  0.24759783  1
  Co  Co93  1  0.49904193  0.49999991  -0.00034658  1
  Co  Co94  1  0.50126228  0.74586292  0.25028890  1
  Co  Co95  1  0.62238249  0.37355056  0.62244378  1
  Co  Co96  1  0.49751823  0.24819601  0.49704047  1
  Co  Co97  1  0.49312352  -0.00183606  -0.00066258  1
  Co  Co98  1  0.75136958  0.74877683  0.00177378  1
  Co  Co99  1  0.37738801  0.87415505  0.37212360  1
  Co  Co100  1  0.12538026  0.87875448  0.62659347  1
  Co  Co101  1  -0.00029287  0.74826559  0.25086313  1
  Co  Co102  1  0.12849564  0.12572755  0.37466496  1
  Co  Co103  1  0.62332699  0.87762054  0.12351716  1
  Co  Co104  1  0.24946898  0.00090580  0.75160965  1
  Co  Co105  1  0.37395505  0.37711661  0.87328977  1
  Co  Co106  1  0.24966083  -0.00246659  0.25032110  1
  Co  Co107  1  0.00556010  0.24858475  0.74916656  1
  Co  Co108  1  0.37357200  0.12360227  0.62379299  1
  Co  Co109  1  0.50163405  0.00493034  0.25346450  1
  Co  Co110  1  0.24857135  0.74887170  0.25141238  1
  Co  Co111  1  0.25501517  0.49691741  0.49857838  1
  Co  Co112  1  0.62924831  0.12531914  0.37795228  1
  Co  Co113  1  -0.00608352  0.49793611  0.50391404  1
  Co  Co114  1  0.24520698  0.74641665  0.74698306  1
  Co  Co115  1  0.25068369  0.75308319  0.00483150  1
  Co  Co116  1  0.12714607  0.37574020  0.62284034  1
  Co  Co117  1  -0.00025566  0.00312323  0.25213142  1
  Co  Co118  1  0.12553267  0.62621979  0.87978629  1
  Co  Co119  1  0.87605297  0.62268075  0.12644894  1
  Co  Co120  1  0.12736142  0.62140101  0.61641719  1
  Co  Co121  1  0.62493254  0.62775741  0.62290210  1
  Co  Co122  1  0.24857585  0.25442525  0.25237010  1
  Co  Co123  1  0.75427406  0.00248700  0.00080200  1
  Co  Co124  1  0.87648087  0.12494167  0.62512099  1
  Co  Co125  1  0.74519918  0.24740582  0.75050909  1
  Co  Co126  1  0.87698831  0.87703156  0.12519738  1
  Co  Co127  1  0.12430730  0.62015704  0.37788793  1
