# generated using pymatgen
data_Fe45Co19
_symmetry_space_group_name_H-M   'P 1'
_cell_length_a   11.41594363
_cell_length_b   11.41619631
_cell_length_c   11.41686492
_cell_angle_alpha   90.00007616
_cell_angle_beta   90.00001394
_cell_angle_gamma   89.99438954
_symmetry_Int_Tables_number   1
_chemical_formula_structural   Fe45Co19
_chemical_formula_sum   'Fe90 Co38'
_cell_volume   1487.92179098
_cell_formula_units_Z   2
loop_
 _symmetry_equiv_pos_site_id
 _symmetry_equiv_pos_as_xyz
  1  'x, y, z'
loop_
 _atom_site_type_symbol
 _atom_site_label
 _atom_site_symmetry_multiplicity
 _atom_site_fract_x
 _atom_site_fract_y
 _atom_site_fract_z
 _atom_site_occupancy
  Fe  Fe0  1  0.62592293  0.12469403  0.62022742  1
  Fe  Fe1  1  0.24845365  0.24839926  0.75030146  1
  Fe  Fe2  1  -0.00179176  0.24700222  0.25079737  1
  Fe  Fe3  1  0.75069133  0.49955316  0.74915852  1
  Fe  Fe4  1  0.00050840  0.75161316  0.74891343  1
  Fe  Fe5  1  -0.00265398  0.75185745  0.49802321  1
  Fe  Fe6  1  0.63159372  0.88141555  0.37112972  1
  Fe  Fe7  1  0.62010464  0.12428162  0.12787968  1
  Fe  Fe8  1  0.50092300  0.24877093  0.75037742  1
  Fe  Fe9  1  0.12596305  0.62463542  0.12767671  1
  Fe  Fe10  1  0.74944456  0.50119821  0.24814555  1
  Fe  Fe11  1  0.74771782  0.25132925  0.00392825  1
  Fe  Fe12  1  0.49972487  0.00030470  0.74856333  1
  Fe  Fe13  1  0.25136044  0.24973914  0.25163668  1
  Fe  Fe14  1  0.37581476  0.87605175  0.87498729  1
  Fe  Fe15  1  0.37624779  0.62647382  0.62320218  1
  Fe  Fe16  1  0.37622281  0.12524947  0.62245899  1
  Fe  Fe17  1  0.74902838  0.74912308  0.75283676  1
  Fe  Fe18  1  0.37610117  0.37420384  0.62353377  1
  Fe  Fe19  1  0.37779519  0.37903067  0.37334654  1
  Fe  Fe20  1  0.87256009  0.12401572  0.37767167  1
  Fe  Fe21  1  -0.00034297  0.74694248  0.25213721  1
  Fe  Fe22  1  0.37585553  0.37504890  0.87540434  1
  Fe  Fe23  1  0.37499303  0.62945597  0.12553712  1
  Fe  Fe24  1  0.24974354  0.25017178  0.00151603  1
  Fe  Fe25  1  0.37862487  0.12381607  0.12429116  1
  Fe  Fe26  1  0.75146970  0.24892559  0.74961133  1
  Fe  Fe27  1  0.87422720  0.62460395  0.87699964  1
  Fe  Fe28  1  0.12240481  0.87687524  0.87415732  1
  Fe  Fe29  1  0.12199379  0.37542705  0.12958216  1
  Fe  Fe30  1  0.62503812  0.37497441  0.62363800  1
  Fe  Fe31  1  0.50241507  0.24879430  0.49635446  1
  Fe  Fe32  1  0.25329777  -0.00252832  0.24853310  1
  Fe  Fe33  1  0.11983427  0.12349005  0.87717835  1
  Fe  Fe34  1  0.12488207  0.62579314  0.62221266  1
  Fe  Fe35  1  -0.00170123  0.49981132  0.74723747  1
  Fe  Fe36  1  0.87468980  0.37384797  0.87737747  1
  Fe  Fe37  1  -0.00203013  0.49856620  0.00275153  1
  Fe  Fe38  1  0.50324506  0.49911744  0.00326858  1
  Fe  Fe39  1  0.12504330  0.12113122  0.37448598  1
  Fe  Fe40  1  -0.00402018  0.00072798  0.24808436  1
  Fe  Fe41  1  0.24871710  -0.00025092  0.74799424  1
  Fe  Fe42  1  0.50005243  0.75428594  0.25079528  1
  Fe  Fe43  1  0.24778086  0.75068863  -0.00050574  1
  Fe  Fe44  1  0.37354633  0.62435122  0.37403950  1
  Fe  Fe45  1  0.50215522  0.75436753  0.49801718  1
  Fe  Fe46  1  0.24918357  -0.00036662  0.00072828  1
  Fe  Fe47  1  0.74920062  0.24673489  0.25069622  1
  Fe  Fe48  1  -0.00440902  -0.00409819  0.50128263  1
  Fe  Fe49  1  0.75327779  0.00286789  0.74764429  1
  Fe  Fe50  1  0.87625176  0.37173204  0.62098855  1
  Fe  Fe51  1  0.50531578  0.75703535  -0.00013169  1
  Fe  Fe52  1  0.62330499  0.37709976  0.37214589  1
  Fe  Fe53  1  0.24904983  0.25061765  0.49632017  1
  Fe  Fe54  1  0.12348353  0.62303197  0.87564754  1
  Fe  Fe55  1  0.87844960  0.12443605  0.88005771  1
  Fe  Fe56  1  0.87301832  0.62400289  0.37765065  1
  Fe  Fe57  1  0.62828362  0.62908384  0.12332636  1
  Fe  Fe58  1  0.87648222  0.12919002  0.62157998  1
  Fe  Fe59  1  0.74826372  -0.00269167  0.00359516  1
  Fe  Fe60  1  0.12420573  0.87519973  0.37394177  1
  Fe  Fe61  1  0.25037908  0.50072838  0.74782802  1
  Fe  Fe62  1  0.37714864  0.12404762  0.87709133  1
  Fe  Fe63  1  0.25145423  -0.00263334  0.50187290  1
  Fe  Fe64  1  0.25082186  0.49941543  0.00348609  1
  Fe  Fe65  1  0.62775079  0.87569539  0.62585773  1
  Fe  Fe66  1  0.87179112  0.62739522  0.62242508  1
  Fe  Fe67  1  -0.00139744  0.75206509  0.00146660  1
  Fe  Fe68  1  0.50079189  0.50097352  0.74915520  1
  Fe  Fe69  1  0.37750804  0.12104045  0.37548865  1
  Fe  Fe70  1  0.37628455  0.62505474  0.87707332  1
  Fe  Fe71  1  0.12320040  0.12497310  0.12505447  1
  Fe  Fe72  1  0.62516492  0.62303774  0.37699021  1
  Fe  Fe73  1  0.24954840  0.75065436  0.75034390  1
  Fe  Fe74  1  0.12250692  0.38050834  0.37379709  1
  Fe  Fe75  1  0.62515932  0.37471208  0.87544711  1
  Fe  Fe76  1  0.12239608  0.37338070  0.62214747  1
  Fe  Fe77  1  0.12550241  0.87416236  0.12752165  1
  Fe  Fe78  1  0.24963351  0.75161086  0.49864397  1
  Fe  Fe79  1  0.62724936  0.62529439  0.62220287  1
  Fe  Fe80  1  0.87566588  0.37620359  0.37446012  1
  Fe  Fe81  1  0.87489524  0.87672635  0.87343231  1
  Fe  Fe82  1  0.87004785  0.87205629  0.12968753  1
  Fe  Fe83  1  0.37996284  0.37324471  0.12794655  1
  Fe  Fe84  1  0.62673647  0.62395687  0.87718889  1
  Fe  Fe85  1  0.12198403  0.12520921  0.62330860  1
  Fe  Fe86  1  0.62439255  0.12367763  0.87651719  1
  Fe  Fe87  1  0.12447144  0.37573509  0.87463153  1
  Fe  Fe88  1  0.87135259  0.62597940  0.12247738  1
  Fe  Fe89  1  0.50147614  0.75062569  0.75098929  1
  Co  Co90  1  0.87463644  0.37410382  0.12835390  1
  Co  Co91  1  0.37595556  0.87365477  0.62615445  1
  Co  Co92  1  0.63088044  0.87422162  0.13183609  1
  Co  Co93  1  0.74865373  0.49756471  0.00205024  1
  Co  Co94  1  0.74953710  0.49787599  0.49955385  1
  Co  Co95  1  0.00181682  0.25324539  0.00165316  1
  Co  Co96  1  -0.00184104  0.00084099  0.74649445  1
  Co  Co97  1  0.50090841  0.25012827  -0.00121188  1
  Co  Co98  1  0.74977485  0.74499715  0.25450927  1
  Co  Co99  1  0.74706329  0.25118158  0.49652629  1
  Co  Co100  1  0.62364609  0.37250511  0.12942309  1
  Co  Co101  1  0.87249760  0.87605658  0.36943149  1
  Co  Co102  1  0.25189911  0.50012998  0.24873634  1
  Co  Co103  1  0.50014181  0.24656228  0.25489317  1
  Co  Co104  1  0.62517097  0.11851139  0.37583420  1
  Co  Co105  1  0.50118668  0.50548836  0.24710907  1
  Co  Co106  1  -0.00059948  0.24909887  0.75214512  1
  Co  Co107  1  0.25044615  0.49933211  0.50022394  1
  Co  Co108  1  0.12475027  0.87451794  0.62351815  1
  Co  Co109  1  0.50028686  0.50104555  0.50076248  1
  Co  Co110  1  -0.00315890  0.50503997  0.25021341  1
  Co  Co111  1  0.24960905  0.75106031  0.25139808  1
  Co  Co112  1  0.49688786  -0.00490678  0.24940183  1
  Co  Co113  1  0.75422735  -0.00221156  0.50204610  1
  Co  Co114  1  0.12728115  0.62404453  0.37539788  1
  Co  Co115  1  -0.00160101  -0.00517116  0.00485309  1
  Co  Co116  1  0.00198118  0.24859166  0.49455153  1
  Co  Co117  1  0.50087823  -0.00367864  0.49940728  1
  Co  Co118  1  0.87161342  0.87090362  0.62784154  1
  Co  Co119  1  0.74933327  0.75473285  -0.00376956  1
  Co  Co120  1  0.37261632  0.87543658  0.37613170  1
  Co  Co121  1  0.75367981  0.00752565  0.24654934  1
  Co  Co122  1  0.62724260  0.87849605  0.86974185  1
  Co  Co123  1  0.87700917  0.12752052  0.12082201  1
  Co  Co124  1  0.50367836  -0.00481693  0.00186723  1
  Co  Co125  1  0.37319563  0.87318170  0.12234528  1
  Co  Co126  1  0.74940863  0.75360858  0.49686621  1
  Co  Co127  1  -0.00158317  0.50279616  0.50083708  1
