# generated using pymatgen
data_Fe45Co19
_symmetry_space_group_name_H-M   'P 1'
_cell_length_a   11.41712507
_cell_length_b   11.41716211
_cell_length_c   11.41642540
_cell_angle_alpha   89.98430347
_cell_angle_beta   89.99826371
_cell_angle_gamma   90.00648394
_symmetry_Int_Tables_number   1
_chemical_formula_structural   Fe45Co19
_chemical_formula_sum   'Fe90 Co38'
_cell_volume   1488.14431624
_cell_formula_units_Z   2
loop_
 _symmetry_equiv_pos_site_id
 _symmetry_equiv_pos_as_xyz
  1  'x, y, z'
loop_
 _atom_site_type_symbol
 _atom_site_label
 _atom_site_symmetry_multiplicity
 _atom_site_fract_x
 _atom_site_fract_y
 _atom_site_fract_z
 _atom_site_occupancy
  Fe  Fe0  1  0.62274895  0.37667021  0.62526224  1
  Fe  Fe1  1  0.75213971  0.50098032  0.25285234  1
  Fe  Fe2  1  0.37575806  0.12387106  0.12591068  1
  Fe  Fe3  1  -0.00069495  0.75129461  0.75201902  1
  Fe  Fe4  1  0.87203828  0.87676669  0.87574577  1
  Fe  Fe5  1  0.62373988  0.87626339  0.62453749  1
  Fe  Fe6  1  0.50196988  0.25092343  0.25140030  1
  Fe  Fe7  1  0.37571009  0.37521474  0.62565345  1
  Fe  Fe8  1  0.62448634  0.12229995  0.12657987  1
  Fe  Fe9  1  0.12641377  0.12258836  0.62445112  1
  Fe  Fe10  1  0.87753133  0.37373332  0.62746852  1
  Fe  Fe11  1  0.74750702  0.25038825  -0.00018862  1
  Fe  Fe12  1  0.37240478  0.62648815  0.37581422  1
  Fe  Fe13  1  0.62396245  0.62554319  0.37680094  1
  Fe  Fe14  1  0.75228333  0.49905592  0.49756141  1
  Fe  Fe15  1  0.49831668  0.00069409  0.49701707  1
  Fe  Fe16  1  0.74813597  -0.00194132  0.25172474  1
  Fe  Fe17  1  0.24793857  0.00124591  0.25154707  1
  Fe  Fe18  1  0.00262767  0.00119314  0.24991905  1
  Fe  Fe19  1  0.25120894  0.49876731  0.75444008  1
  Fe  Fe20  1  -0.00089346  0.49990379  0.49663964  1
  Fe  Fe21  1  0.62502030  0.37737122  0.12545577  1
  Fe  Fe22  1  -0.00093465  0.50244678  -0.00483794  1
  Fe  Fe23  1  0.87630231  0.12541704  0.62527911  1
  Fe  Fe24  1  -0.00191690  0.49978009  0.75572083  1
  Fe  Fe25  1  0.62298323  0.62180988  0.62443962  1
  Fe  Fe26  1  0.25012031  0.50038265  -0.00338265  1
  Fe  Fe27  1  0.74932057  0.25111328  0.25068154  1
  Fe  Fe28  1  0.49812729  0.75016724  0.74812948  1
  Fe  Fe29  1  0.87224059  0.12407611  0.87459311  1
  Fe  Fe30  1  0.12464927  0.62582656  0.12160895  1
  Fe  Fe31  1  0.12468098  0.62330417  0.62867669  1
  Fe  Fe32  1  0.50025938  0.24960438  0.49864172  1
  Fe  Fe33  1  0.36994505  0.87237328  0.37716099  1
  Fe  Fe34  1  0.37386004  0.37377138  0.37424400  1
  Fe  Fe35  1  0.75253325  0.49890518  0.75243138  1
  Fe  Fe36  1  0.75017768  -0.00099823  0.49965363  1
  Fe  Fe37  1  0.12218476  0.37587120  0.12549322  1
  Fe  Fe38  1  0.49930412  0.75049349  0.24958444  1
  Fe  Fe39  1  0.50342660  -0.00195588  -0.00107022  1
  Fe  Fe40  1  0.74900818  0.75080755  0.25079776  1
  Fe  Fe41  1  0.62461085  0.12380702  0.62501629  1
  Fe  Fe42  1  0.24964935  0.50125806  0.24825934  1
  Fe  Fe43  1  0.00219390  -0.00185356  0.49905138  1
  Fe  Fe44  1  0.24962614  0.24926131  0.00122697  1
  Fe  Fe45  1  0.74902374  0.25210030  0.49856844  1
  Fe  Fe46  1  0.00048866  0.00091080  0.75134189  1
  Fe  Fe47  1  0.87572153  0.87561543  0.62558315  1
  Fe  Fe48  1  0.00160658  0.74985660  0.24795591  1
  Fe  Fe49  1  0.37516671  0.87344483  0.87595901  1
  Fe  Fe50  1  0.50274497  0.25062506  -0.00064311  1
  Fe  Fe51  1  0.87857243  0.37558712  0.12657621  1
  Fe  Fe52  1  0.25010160  0.50074719  0.50032524  1
  Fe  Fe53  1  0.49582784  0.74898908  0.50352570  1
  Fe  Fe54  1  0.49864363  0.49941984  -0.00204915  1
  Fe  Fe55  1  0.87529323  0.87661037  0.12285709  1
  Fe  Fe56  1  0.00037086  0.24750396  0.00008748  1
  Fe  Fe57  1  0.24951574  0.24970156  0.75000983  1
  Fe  Fe58  1  0.74998658  0.75000701  0.74741580  1
  Fe  Fe59  1  0.37454036  0.37405582  0.12424464  1
  Fe  Fe60  1  0.37440701  0.87497515  0.12355385  1
  Fe  Fe61  1  0.87527519  0.62587403  0.12370769  1
  Fe  Fe62  1  0.12668693  0.62743243  0.37428715  1
  Fe  Fe63  1  0.87485701  0.12339546  0.12483098  1
  Fe  Fe64  1  0.49710303  0.49840198  0.75330905  1
  Fe  Fe65  1  0.62403781  0.62538854  0.12476030  1
  Fe  Fe66  1  0.00262339  0.75012407  0.50119481  1
  Fe  Fe67  1  0.87674308  0.87289580  0.37508212  1
  Fe  Fe68  1  0.75144230  0.49876093  -0.00280702  1
  Fe  Fe69  1  0.87592515  0.12597239  0.37482643  1
  Fe  Fe70  1  0.12645021  0.12420351  0.87695259  1
  Fe  Fe71  1  0.12375640  0.37570186  0.62730481  1
  Fe  Fe72  1  0.00141970  0.25200301  0.49820371  1
  Fe  Fe73  1  0.24624230  0.24829111  0.24976244  1
  Fe  Fe74  1  0.74712358  0.75268554  0.00097551  1
  Fe  Fe75  1  0.62450285  0.62611414  0.87530708  1
  Fe  Fe76  1  0.24908150  0.24914409  0.49876513  1
  Fe  Fe77  1  0.75049074  0.74961174  0.50160019  1
  Fe  Fe78  1  0.25283158  0.74985704  0.74807709  1
  Fe  Fe79  1  0.50086316  -0.00175428  0.25390839  1
  Fe  Fe80  1  0.49866132  0.49992213  0.25130062  1
  Fe  Fe81  1  0.37569620  0.62727494  0.12176144  1
  Fe  Fe82  1  0.50058875  0.00039211  0.75097532  1
  Fe  Fe83  1  0.74786740  0.25018336  0.75028548  1
  Fe  Fe84  1  0.37621686  0.12680672  0.87510690  1
  Fe  Fe85  1  0.12659742  0.87451700  0.87798857  1
  Fe  Fe86  1  0.37297759  0.12215584  0.62552884  1
  Fe  Fe87  1  0.12951991  0.87768265  0.62443147  1
  Fe  Fe88  1  0.87715232  0.62464204  0.62532941  1
  Fe  Fe89  1  0.12607524  0.87692956  0.12118324  1
  Co  Co90  1  0.62404496  0.37528747  0.87439695  1
  Co  Co91  1  0.87300987  0.62920643  0.87536014  1
  Co  Co92  1  0.50247094  0.75243575  0.00042157  1
  Co  Co93  1  0.25282122  0.00105107  -0.00031808  1
  Co  Co94  1  -0.00034707  0.50406428  0.25132221  1
  Co  Co95  1  0.62670105  0.87453198  0.87144628  1
  Co  Co96  1  0.87752754  0.37303272  0.37128244  1
  Co  Co97  1  -0.00091829  0.75057524  -0.00051448  1
  Co  Co98  1  0.62462250  0.37595131  0.37419215  1
  Co  Co99  1  0.37457413  0.12658267  0.37270863  1
  Co  Co100  1  0.12414782  0.37268755  0.87570708  1
  Co  Co101  1  0.37252596  0.88041931  0.62445470  1
  Co  Co102  1  0.12330731  0.12508766  0.37663500  1
  Co  Co103  1  0.75063477  0.00088856  0.74700820  1
  Co  Co104  1  0.62444640  0.87281997  0.37756900  1
  Co  Co105  1  0.49752414  0.49933128  0.49751262  1
  Co  Co106  1  0.87605307  0.37060717  0.87502346  1
  Co  Co107  1  0.25078642  0.74973933  0.00074564  1
  Co  Co108  1  0.25004162  0.00039699  0.75401100  1
  Co  Co109  1  0.87597966  0.62919768  0.37568300  1
  Co  Co110  1  0.00277862  0.24724948  0.24923326  1
  Co  Co111  1  0.62623877  0.12500055  0.37461948  1
  Co  Co112  1  0.24954350  0.00168567  0.49579978  1
  Co  Co113  1  0.00221771  0.24622046  0.75063224  1
  Co  Co114  1  0.12711511  0.87191214  0.37515177  1
  Co  Co115  1  0.62402180  0.87549685  0.12796709  1
  Co  Co116  1  0.37491722  0.62065551  0.62719919  1
  Co  Co117  1  0.50015016  0.24930885  0.74856412  1
  Co  Co118  1  0.12592423  0.12343945  0.12289890  1
  Co  Co119  1  0.74650935  -0.00087962  0.00104599  1
  Co  Co120  1  0.25039880  0.74743242  0.50607712  1
  Co  Co121  1  0.37526540  0.62745750  0.87629225  1
  Co  Co122  1  0.12575577  0.37656995  0.37270553  1
  Co  Co123  1  0.12624633  0.62825188  0.87369468  1
  Co  Co124  1  -0.00056137  0.00136515  -0.00141815  1
  Co  Co125  1  0.24956014  0.74970612  0.24539926  1
  Co  Co126  1  0.62584625  0.12431028  0.87393444  1
  Co  Co127  1  0.37459190  0.37117840  0.87629207  1
