# generated using pymatgen
data_Fe45Co19
_symmetry_space_group_name_H-M   'P 1'
_cell_length_a   11.41578369
_cell_length_b   11.41567443
_cell_length_c   11.41554626
_cell_angle_alpha   89.99534760
_cell_angle_beta   90.00801364
_cell_angle_gamma   90.00279763
_symmetry_Int_Tables_number   1
_chemical_formula_structural   Fe45Co19
_chemical_formula_sum   'Fe90 Co38'
_cell_volume   1487.66106776
_cell_formula_units_Z   2
loop_
 _symmetry_equiv_pos_site_id
 _symmetry_equiv_pos_as_xyz
  1  'x, y, z'
loop_
 _atom_site_type_symbol
 _atom_site_label
 _atom_site_symmetry_multiplicity
 _atom_site_fract_x
 _atom_site_fract_y
 _atom_site_fract_z
 _atom_site_occupancy
  Fe  Fe0  1  0.25207565  0.50195609  0.25191192  1
  Fe  Fe1  1  0.62630607  0.87354064  0.87523059  1
  Fe  Fe2  1  0.87418436  0.62310360  0.62502913  1
  Fe  Fe3  1  0.37651160  0.37848411  0.12375023  1
  Fe  Fe4  1  0.50097888  0.49979783  0.75550152  1
  Fe  Fe5  1  0.37253654  0.37353395  0.87479895  1
  Fe  Fe6  1  0.37522437  0.12235923  0.62481937  1
  Fe  Fe7  1  0.74897641  0.00129325  0.49904904  1
  Fe  Fe8  1  0.24890075  0.24915500  0.00213295  1
  Fe  Fe9  1  0.62425169  0.37412421  0.37282612  1
  Fe  Fe10  1  0.25021793  0.74930340  0.24699994  1
  Fe  Fe11  1  0.62761122  0.12424233  0.62879863  1
  Fe  Fe12  1  0.74738254  0.25119674  0.00361390  1
  Fe  Fe13  1  0.25275150  0.00086765  0.25030291  1
  Fe  Fe14  1  0.37704173  0.12504606  0.37393096  1
  Fe  Fe15  1  0.12317627  0.62696009  0.37298577  1
  Fe  Fe16  1  0.74736356  0.49986381  -0.00244555  1
  Fe  Fe17  1  0.50167638  0.24942579  0.50234416  1
  Fe  Fe18  1  0.87665862  0.62347562  0.12560975  1
  Fe  Fe19  1  0.24972423  0.00192931  0.00002588  1
  Fe  Fe20  1  0.00117296  0.00097535  0.50052570  1
  Fe  Fe21  1  0.37698688  0.62340870  0.11952934  1
  Fe  Fe22  1  0.25032595  0.24825330  0.50200014  1
  Fe  Fe23  1  0.12439569  0.37720095  0.12641104  1
  Fe  Fe24  1  0.25296453  0.74886457  0.75382821  1
  Fe  Fe25  1  0.37560870  0.12565395  0.87590617  1
  Fe  Fe26  1  0.12485435  0.87729178  0.12359617  1
  Fe  Fe27  1  0.74937517  0.74960960  0.50123264  1
  Fe  Fe28  1  0.74767197  0.49712418  0.75306867  1
  Fe  Fe29  1  0.00145640  0.74877741  0.00295880  1
  Fe  Fe30  1  0.12414149  0.87363407  0.37552850  1
  Fe  Fe31  1  0.87420612  0.87593156  0.62351437  1
  Fe  Fe32  1  0.12717265  0.87598347  0.62416854  1
  Fe  Fe33  1  0.37785740  0.87473626  0.37779789  1
  Fe  Fe34  1  0.50021430  0.25092314  0.74920040  1
  Fe  Fe35  1  0.37616044  0.87820470  0.62342870  1
  Fe  Fe36  1  0.62674920  0.12619063  0.87378441  1
  Fe  Fe37  1  0.37267351  0.37821863  0.62585557  1
  Fe  Fe38  1  0.87506140  0.12462237  0.12640113  1
  Fe  Fe39  1  0.87641602  0.87593408  0.12335789  1
  Fe  Fe40  1  0.00019602  0.24884345  0.50014692  1
  Fe  Fe41  1  0.37483329  0.87603315  0.12218842  1
  Fe  Fe42  1  0.12484605  0.12677973  0.87484488  1
  Fe  Fe43  1  0.74890927  0.49887645  0.49850590  1
  Fe  Fe44  1  0.87491563  0.37311321  0.87655929  1
  Fe  Fe45  1  0.25015138  0.00236761  0.75009895  1
  Fe  Fe46  1  0.49923187  -0.00058804  -0.00106798  1
  Fe  Fe47  1  0.62121629  0.62280864  0.12121779  1
  Fe  Fe48  1  0.75087735  0.75166458  0.75050091  1
  Fe  Fe49  1  -0.00126701  -0.00101146  0.75153860  1
  Fe  Fe50  1  -0.00047203  0.00112357  0.24983152  1
  Fe  Fe51  1  0.62300836  0.87602108  0.62525528  1
  Fe  Fe52  1  -0.00116515  0.75097314  0.74729869  1
  Fe  Fe53  1  0.00172353  0.24905457  0.00321798  1
  Fe  Fe54  1  0.87470079  0.37521910  0.12724265  1
  Fe  Fe55  1  0.87297065  0.37490510  0.62401429  1
  Fe  Fe56  1  0.12472813  0.87376877  0.87633034  1
  Fe  Fe57  1  0.00035880  0.25057637  0.74934234  1
  Fe  Fe58  1  0.24572611  0.50244974  -0.00500098  1
  Fe  Fe59  1  0.12658164  0.62318301  0.62628835  1
  Fe  Fe60  1  0.49852077  0.74929923  0.24751570  1
  Fe  Fe61  1  0.87341403  0.37023701  0.37269618  1
  Fe  Fe62  1  0.62297495  0.62743563  0.37485292  1
  Fe  Fe63  1  0.74954388  0.50090844  0.25075669  1
  Fe  Fe64  1  0.62207917  0.87376889  0.37535093  1
  Fe  Fe65  1  0.37355160  0.62226203  0.62553530  1
  Fe  Fe66  1  0.62484583  0.12484574  0.37220692  1
  Fe  Fe67  1  0.50251390  0.25106403  0.00348939  1
  Fe  Fe68  1  0.50237058  0.24890948  0.24388463  1
  Fe  Fe69  1  0.87250454  0.12522496  0.62591786  1
  Fe  Fe70  1  0.87663672  0.87267549  0.37616296  1
  Fe  Fe71  1  0.87775586  0.62776458  0.37516696  1
  Fe  Fe72  1  0.00249861  0.50032830  -0.00219034  1
  Fe  Fe73  1  0.75081408  -0.00026591  0.25105244  1
  Fe  Fe74  1  0.75046723  0.74982335  0.24723936  1
  Fe  Fe75  1  0.00153520  0.49930474  0.49871221  1
  Fe  Fe76  1  0.62469419  0.87680961  0.12446213  1
  Fe  Fe77  1  0.49724738  0.75101247  0.75323397  1
  Fe  Fe78  1  0.75293377  -0.00147594  -0.00323570  1
  Fe  Fe79  1  0.87370869  0.12657116  0.87345333  1
  Fe  Fe80  1  0.12878705  0.37529342  0.62729902  1
  Fe  Fe81  1  0.12493136  0.12491884  0.37423693  1
  Fe  Fe82  1  0.49817204  0.50171848  0.49717918  1
  Fe  Fe83  1  0.37578206  0.37360304  0.37444923  1
  Fe  Fe84  1  0.12595920  0.37381785  0.37375840  1
  Fe  Fe85  1  0.24975582  0.24841296  0.24657331  1
  Fe  Fe86  1  0.00207367  0.49814828  0.75265396  1
  Fe  Fe87  1  0.87461618  0.62770723  0.87513015  1
  Fe  Fe88  1  0.62438926  0.62367028  0.62664443  1
  Fe  Fe89  1  0.25074737  0.74879273  0.50031084  1
  Co  Co90  1  0.37449310  0.62858846  0.37513060  1
  Co  Co91  1  0.87511853  0.12696487  0.37457563  1
  Co  Co92  1  0.87761113  0.87026959  0.87750920  1
  Co  Co93  1  -0.00104458  0.49828680  0.25250835  1
  Co  Co94  1  0.49912599  0.75429179  -0.00228569  1
  Co  Co95  1  0.24873702  0.50139529  0.75621941  1
  Co  Co96  1  0.50199435  0.00229689  0.50011705  1
  Co  Co97  1  0.12411241  0.12494504  0.62598762  1
  Co  Co98  1  -0.00097925  0.00214303  -0.00179005  1
  Co  Co99  1  0.25168327  0.24776423  0.74840235  1
  Co  Co100  1  0.37164241  0.87775147  0.87665879  1
  Co  Co101  1  0.00070604  0.74917890  0.50302750  1
  Co  Co102  1  0.49809273  -0.00052391  0.24924386  1
  Co  Co103  1  0.49995892  -0.00024082  0.75203977  1
  Co  Co104  1  0.74793814  0.24955697  0.50073201  1
  Co  Co105  1  0.00156474  0.24921244  0.24766848  1
  Co  Co106  1  0.12556121  0.37027361  0.87431243  1
  Co  Co107  1  0.37565002  0.12389564  0.12379671  1
  Co  Co108  1  0.62466645  0.38024106  0.12729764  1
  Co  Co109  1  0.12567760  0.12245000  0.12571059  1
  Co  Co110  1  0.50281011  0.49631858  -0.00606702  1
  Co  Co111  1  0.24833802  0.74816977  0.00046414  1
  Co  Co112  1  0.24956048  0.50060686  0.49630437  1
  Co  Co113  1  0.25033981  0.00153033  0.49897211  1
  Co  Co114  1  0.74699265  0.24867622  0.24628252  1
  Co  Co115  1  0.62361448  0.37770171  0.62417317  1
  Co  Co116  1  0.37674062  0.62506795  0.87945944  1
  Co  Co117  1  0.49766827  0.50180542  0.25262493  1
  Co  Co118  1  0.62605618  0.11920282  0.12347890  1
  Co  Co119  1  0.75032897  0.74987414  0.00314737  1
  Co  Co120  1  0.12185327  0.63006716  0.87299334  1
  Co  Co121  1  0.75193793  -0.00355159  0.75259783  1
  Co  Co122  1  0.49914937  0.74790930  0.50275974  1
  Co  Co123  1  0.62581833  0.62895304  0.87607769  1
  Co  Co124  1  -0.00037161  0.75143331  0.24638984  1
  Co  Co125  1  0.62564987  0.37086853  0.87498620  1
  Co  Co126  1  0.74993123  0.25432311  0.74887376  1
  Co  Co127  1  0.12436040  0.62235642  0.12745559  1
