# generated using pymatgen
data_Fe45Co19
_symmetry_space_group_name_H-M   'P 1'
_cell_length_a   11.41498930
_cell_length_b   11.41571473
_cell_length_c   11.41666634
_cell_angle_alpha   89.99780258
_cell_angle_beta   90.00320844
_cell_angle_gamma   89.99923754
_symmetry_Int_Tables_number   1
_chemical_formula_structural   Fe45Co19
_chemical_formula_sum   'Fe90 Co38'
_cell_volume   1487.70877369
_cell_formula_units_Z   2
loop_
 _symmetry_equiv_pos_site_id
 _symmetry_equiv_pos_as_xyz
  1  'x, y, z'
loop_
 _atom_site_type_symbol
 _atom_site_label
 _atom_site_symmetry_multiplicity
 _atom_site_fract_x
 _atom_site_fract_y
 _atom_site_fract_z
 _atom_site_occupancy
  Fe  Fe0  1  0.37736705  0.37685887  0.87737885  1
  Fe  Fe1  1  0.74810066  0.75136556  0.75180006  1
  Fe  Fe2  1  0.37881452  0.87289356  0.87672624  1
  Fe  Fe3  1  0.25062985  0.50276111  -0.00045886  1
  Fe  Fe4  1  0.37212194  0.12672003  0.62589838  1
  Fe  Fe5  1  0.12717493  0.12500615  0.87244914  1
  Fe  Fe6  1  -0.00073912  0.50169254  0.74881325  1
  Fe  Fe7  1  0.25009992  0.50060885  0.25251163  1
  Fe  Fe8  1  0.24925157  -0.00087573  0.49956768  1
  Fe  Fe9  1  0.87352799  0.62701889  0.62271531  1
  Fe  Fe10  1  0.62897178  0.12258315  0.12886601  1
  Fe  Fe11  1  0.62590517  0.38085473  0.37462191  1
  Fe  Fe12  1  0.12403520  0.62460756  0.12762892  1
  Fe  Fe13  1  0.37702541  0.87156287  0.62218263  1
  Fe  Fe14  1  0.49932446  0.25185888  0.74823675  1
  Fe  Fe15  1  0.50242170  0.25205512  0.25020540  1
  Fe  Fe16  1  0.37185852  0.37665223  0.62018952  1
  Fe  Fe17  1  0.24932640  0.50199461  0.75120470  1
  Fe  Fe18  1  0.24955895  0.74783494  -0.00082982  1
  Fe  Fe19  1  -0.00259130  -0.00108090  0.75030630  1
  Fe  Fe20  1  0.00109879  -0.00177599  0.50081239  1
  Fe  Fe21  1  0.37916233  0.87374219  0.37805234  1
  Fe  Fe22  1  0.74944261  0.25359107  -0.00032972  1
  Fe  Fe23  1  0.75117161  0.25293591  0.75073316  1
  Fe  Fe24  1  0.62589046  0.37830651  0.62321356  1
  Fe  Fe25  1  0.37524834  0.62598036  0.62100448  1
  Fe  Fe26  1  0.12349981  0.37626151  0.12625019  1
  Fe  Fe27  1  0.50248944  0.74597212  0.00004785  1
  Fe  Fe28  1  0.76020569  0.49780547  0.25197621  1
  Fe  Fe29  1  -0.00353355  -0.00258527  0.24967269  1
  Fe  Fe30  1  0.12561048  0.87627823  0.12567538  1
  Fe  Fe31  1  0.25334475  -0.00189281  0.25004565  1
  Fe  Fe32  1  0.74727107  0.74975037  -0.00103198  1
  Fe  Fe33  1  0.25154616  -0.00012329  -0.00081700  1
  Fe  Fe34  1  0.37446460  0.37691836  0.37864431  1
  Fe  Fe35  1  0.24878481  0.74768756  0.75064118  1
  Fe  Fe36  1  0.87541760  0.62647719  0.87617944  1
  Fe  Fe37  1  0.75161918  0.49930070  0.75003469  1
  Fe  Fe38  1  0.87376313  0.87279481  0.62369488  1
  Fe  Fe39  1  0.87271010  0.12463092  0.62533704  1
  Fe  Fe40  1  0.37663317  0.12485055  0.37584655  1
  Fe  Fe41  1  -0.00257983  0.24815755  -0.00041983  1
  Fe  Fe42  1  0.00070761  0.74873641  0.00197916  1
  Fe  Fe43  1  0.62301409  0.87759918  0.12614024  1
  Fe  Fe44  1  0.00150716  0.74882458  0.74738873  1
  Fe  Fe45  1  0.50235546  0.74697314  0.25447054  1
  Fe  Fe46  1  0.74995184  -0.00404537  0.75192943  1
  Fe  Fe47  1  0.12932136  0.12389707  0.62841997  1
  Fe  Fe48  1  0.62568813  0.61981694  0.12965162  1
  Fe  Fe49  1  0.37601446  0.12616253  0.12474503  1
  Fe  Fe50  1  0.00164416  0.24692914  0.50134418  1
  Fe  Fe51  1  0.12579538  0.12358726  0.37256813  1
  Fe  Fe52  1  0.37614918  0.62424963  0.12621770  1
  Fe  Fe53  1  0.12530019  0.12428798  0.12653923  1
  Fe  Fe54  1  0.12336601  0.37493004  0.37530657  1
  Fe  Fe55  1  -0.00295500  0.00194888  -0.00114651  1
  Fe  Fe56  1  0.62201834  0.87243228  0.62281464  1
  Fe  Fe57  1  -0.00334225  0.25099895  0.24907118  1
  Fe  Fe58  1  0.74938807  0.75103019  0.25139043  1
  Fe  Fe59  1  0.87303320  0.12569096  0.37362736  1
  Fe  Fe60  1  0.87468293  0.37423687  0.62261351  1
  Fe  Fe61  1  0.12006383  0.62870274  0.37289518  1
  Fe  Fe62  1  0.12742933  0.37587400  0.62232846  1
  Fe  Fe63  1  0.49824437  0.50073721  0.74827609  1
  Fe  Fe64  1  0.62528139  0.12053277  0.37266260  1
  Fe  Fe65  1  0.50501810  0.25209699  0.00206921  1
  Fe  Fe66  1  0.12353488  0.37749298  0.87569362  1
  Fe  Fe67  1  0.37691872  0.37701872  0.12384413  1
  Fe  Fe68  1  0.37551076  0.12648112  0.87473657  1
  Fe  Fe69  1  0.74861206  0.25100676  0.49801844  1
  Fe  Fe70  1  0.74350548  0.74548269  0.49703163  1
  Fe  Fe71  1  0.74906944  -0.00187052  0.49875213  1
  Fe  Fe72  1  0.24894471  0.25116772  -0.00058901  1
  Fe  Fe73  1  0.74859274  0.49781349  -0.00204223  1
  Fe  Fe74  1  0.37808014  0.87376898  0.12389557  1
  Fe  Fe75  1  -0.00023640  0.25042857  0.74968207  1
  Fe  Fe76  1  0.24493559  0.75012997  0.49977981  1
  Fe  Fe77  1  -0.00226651  0.50239406  0.49827912  1
  Fe  Fe78  1  0.75118661  -0.00149880  -0.00291715  1
  Fe  Fe79  1  0.50174019  0.25009890  0.50001832  1
  Fe  Fe80  1  0.25015787  0.75131833  0.25073479  1
  Fe  Fe81  1  0.62604100  0.12493333  0.87365465  1
  Fe  Fe82  1  0.62257126  0.62420384  0.87198368  1
  Fe  Fe83  1  0.49997599  -0.00144573  0.74900838  1
  Fe  Fe84  1  0.87375129  0.87384901  0.12275814  1
  Fe  Fe85  1  0.12420524  0.87374296  0.87393082  1
  Fe  Fe86  1  0.62656142  0.12467098  0.62540818  1
  Fe  Fe87  1  -0.00255202  0.50139655  0.00258239  1
  Fe  Fe88  1  0.87674897  0.86987257  0.37738250  1
  Fe  Fe89  1  0.25124628  0.25145919  0.25033613  1
  Co  Co90  1  0.37721957  0.62493696  0.87523646  1
  Co  Co91  1  0.50172329  0.50447383  0.49976468  1
  Co  Co92  1  0.12558094  0.62245569  0.62367516  1
  Co  Co93  1  0.24854403  0.24782994  0.49881113  1
  Co  Co94  1  0.50006244  0.00240750  0.50333023  1
  Co  Co95  1  0.62506625  0.62383078  0.62881042  1
  Co  Co96  1  0.12651916  0.87753844  0.62771304  1
  Co  Co97  1  0.50058692  0.00233362  0.00053752  1
  Co  Co98  1  0.87494547  0.37280855  0.12297333  1
  Co  Co99  1  0.62856830  0.61677487  0.37024405  1
  Co  Co100  1  0.25028331  0.25512052  0.75176305  1
  Co  Co101  1  0.00368735  0.75131328  0.50495790  1
  Co  Co102  1  0.12268077  0.62487019  0.87628241  1
  Co  Co103  1  0.62301871  0.37568846  0.87168840  1
  Co  Co104  1  0.50305009  0.50170867  0.00023188  1
  Co  Co105  1  0.87273714  0.62581855  0.12307419  1
  Co  Co106  1  0.75249195  0.50245423  0.50064367  1
  Co  Co107  1  0.49999441  0.74982483  0.74985863  1
  Co  Co108  1  0.87705697  0.87118597  0.87529276  1
  Co  Co109  1  0.62585309  0.38012560  0.12954493  1
  Co  Co110  1  -0.00263201  0.75099477  0.24471702  1
  Co  Co111  1  0.62094333  0.87487628  0.87606242  1
  Co  Co112  1  0.50680745  0.74297119  0.49542150  1
  Co  Co113  1  0.75357092  -0.00549739  0.25158888  1
  Co  Co114  1  0.49759896  -0.00011376  0.24846890  1
  Co  Co115  1  0.87110904  0.12613369  0.12668410  1
  Co  Co116  1  -0.00420900  0.50046141  0.25055796  1
  Co  Co117  1  0.49439003  0.50034854  0.25212111  1
  Co  Co118  1  0.62145697  0.87877944  0.37532086  1
  Co  Co119  1  0.37248761  0.62681364  0.37722077  1
  Co  Co120  1  0.87697273  0.37210683  0.37908897  1
  Co  Co121  1  0.74889466  0.25345514  0.25212730  1
  Co  Co122  1  0.87661255  0.37568071  0.87473882  1
  Co  Co123  1  0.12359151  0.87377080  0.37286922  1
  Co  Co124  1  0.25411059  -0.00326543  0.75205512  1
  Co  Co125  1  0.87779438  0.63110073  0.37670523  1
  Co  Co126  1  0.87200340  0.12630495  0.87306021  1
  Co  Co127  1  0.24686736  0.50339488  0.49621497  1
