# generated using pymatgen
data_Fe45Co19
_symmetry_space_group_name_H-M   'P 1'
_cell_length_a   11.41563971
_cell_length_b   11.41559013
_cell_length_c   11.41460968
_cell_angle_alpha   89.98522246
_cell_angle_beta   89.99994159
_cell_angle_gamma   90.00290680
_symmetry_Int_Tables_number   1
_chemical_formula_structural   Fe45Co19
_chemical_formula_sum   'Fe90 Co38'
_cell_volume   1487.50923723
_cell_formula_units_Z   2
loop_
 _symmetry_equiv_pos_site_id
 _symmetry_equiv_pos_as_xyz
  1  'x, y, z'
loop_
 _atom_site_type_symbol
 _atom_site_label
 _atom_site_symmetry_multiplicity
 _atom_site_fract_x
 _atom_site_fract_y
 _atom_site_fract_z
 _atom_site_occupancy
  Fe  Fe0  1  0.00225042  0.75184358  0.75034721  1
  Fe  Fe1  1  0.00038396  0.24778752  0.49862588  1
  Fe  Fe2  1  0.87619878  0.37707251  0.62244211  1
  Fe  Fe3  1  0.00026561  0.74773114  0.25009111  1
  Fe  Fe4  1  0.62203847  0.62502963  0.87138689  1
  Fe  Fe5  1  0.49879094  0.74895104  0.50035176  1
  Fe  Fe6  1  0.62671481  0.12317423  0.37451645  1
  Fe  Fe7  1  -0.00250516  0.00253281  0.24844673  1
  Fe  Fe8  1  0.87265919  0.37290773  0.12493776  1
  Fe  Fe9  1  0.87652512  0.87421072  0.87753002  1
  Fe  Fe10  1  0.25140233  0.24985259  0.25228686  1
  Fe  Fe11  1  0.37342696  0.37543947  0.12548097  1
  Fe  Fe12  1  0.12503770  0.87344386  0.37491214  1
  Fe  Fe13  1  0.49923797  0.50082745  -0.00040429  1
  Fe  Fe14  1  0.37518753  0.37678831  0.37619907  1
  Fe  Fe15  1  0.75080664  0.74877432  0.00104252  1
  Fe  Fe16  1  0.74917131  0.75104922  0.74998157  1
  Fe  Fe17  1  0.87559474  0.62538373  0.62307955  1
  Fe  Fe18  1  0.62740765  0.37465401  0.12581728  1
  Fe  Fe19  1  0.74880940  -0.00271139  0.49963503  1
  Fe  Fe20  1  0.24933634  0.74966801  0.24826087  1
  Fe  Fe21  1  0.00334466  -0.00195365  0.75081919  1
  Fe  Fe22  1  0.25004000  0.25027100  0.74867925  1
  Fe  Fe23  1  0.49845468  0.00377316  0.00158036  1
  Fe  Fe24  1  0.24937596  0.50062787  -0.00157778  1
  Fe  Fe25  1  0.49746536  0.00084301  0.25158675  1
  Fe  Fe26  1  0.62344679  0.12497636  0.87328625  1
  Fe  Fe27  1  0.25005945  0.74971818  0.49963876  1
  Fe  Fe28  1  0.49782635  0.74911352  0.24836813  1
  Fe  Fe29  1  0.24998008  0.75573953  0.75421271  1
  Fe  Fe30  1  0.12626081  0.37285318  0.12526417  1
  Fe  Fe31  1  0.74988178  0.50050447  -0.00098480  1
  Fe  Fe32  1  0.62339534  0.37812342  0.37551710  1
  Fe  Fe33  1  0.25133225  0.00106257  0.25303791  1
  Fe  Fe34  1  0.62258551  0.87394229  0.37356461  1
  Fe  Fe35  1  0.12494638  0.37566865  0.37550611  1
  Fe  Fe36  1  0.87523663  0.37451799  0.87456363  1
  Fe  Fe37  1  -0.00255566  0.24705073  0.25169937  1
  Fe  Fe38  1  0.12727412  0.12833622  0.12385510  1
  Fe  Fe39  1  0.74808248  0.74804862  0.50017887  1
  Fe  Fe40  1  0.25044672  0.00627918  -0.00507759  1
  Fe  Fe41  1  0.12629032  0.87549546  0.12152908  1
  Fe  Fe42  1  0.00071092  0.49924532  -0.00082581  1
  Fe  Fe43  1  0.62993448  0.12626074  0.12849329  1
  Fe  Fe44  1  0.50049211  0.50311043  0.50214499  1
  Fe  Fe45  1  0.25209400  -0.00211439  0.49744529  1
  Fe  Fe46  1  0.87445426  0.12368829  0.62336706  1
  Fe  Fe47  1  -0.00091260  0.00397897  0.00155070  1
  Fe  Fe48  1  0.49951416  0.25205493  0.74671347  1
  Fe  Fe49  1  0.87623376  0.12725784  0.87602022  1
  Fe  Fe50  1  0.87641995  0.87402441  0.37508726  1
  Fe  Fe51  1  0.75033216  0.24981759  0.74934673  1
  Fe  Fe52  1  0.00026358  0.50214793  0.25170208  1
  Fe  Fe53  1  0.12574307  0.62336424  0.12481290  1
  Fe  Fe54  1  0.37769207  0.62597010  0.63139770  1
  Fe  Fe55  1  0.49884816  0.24992084  0.24982673  1
  Fe  Fe56  1  0.00012167  0.25037957  0.74732318  1
  Fe  Fe57  1  0.87642001  0.87430761  0.62447836  1
  Fe  Fe58  1  0.75229163  0.75015136  0.24883093  1
  Fe  Fe59  1  0.75109081  -0.00098418  0.75067350  1
  Fe  Fe60  1  0.62482954  0.12310991  0.62464723  1
  Fe  Fe61  1  0.62457470  0.87518159  0.12453954  1
  Fe  Fe62  1  0.37421355  0.62327925  0.37199462  1
  Fe  Fe63  1  0.12346651  0.37292642  0.87414599  1
  Fe  Fe64  1  0.00156391  -0.00128793  0.49978089  1
  Fe  Fe65  1  0.50001030  0.24907098  0.50073770  1
  Fe  Fe66  1  0.74966699  0.50071816  0.74767288  1
  Fe  Fe67  1  0.87653167  0.62420833  0.87429070  1
  Fe  Fe68  1  0.37600007  0.37444666  0.87426750  1
  Fe  Fe69  1  0.37349852  0.62188116  0.12620760  1
  Fe  Fe70  1  0.00256734  0.50297638  0.49972446  1
  Fe  Fe71  1  0.24906397  0.50111930  0.50138384  1
  Fe  Fe72  1  0.12451516  0.62700653  0.62738959  1
  Fe  Fe73  1  0.75150722  0.25147813  0.49754208  1
  Fe  Fe74  1  0.75130055  0.50080381  0.25325912  1
  Fe  Fe75  1  0.62240832  0.87403792  0.62459239  1
  Fe  Fe76  1  0.12738392  0.12229402  0.62534827  1
  Fe  Fe77  1  0.49919325  0.24817890  0.00220723  1
  Fe  Fe78  1  0.62431054  0.37427992  0.87475518  1
  Fe  Fe79  1  0.62610960  0.37666567  0.62371034  1
  Fe  Fe80  1  0.75183806  0.00097294  0.00162845  1
  Fe  Fe81  1  0.49655613  -0.00419583  0.74959724  1
  Fe  Fe82  1  0.62530648  0.62375160  0.12669613  1
  Fe  Fe83  1  0.49652456  0.74751186  -0.00090492  1
  Fe  Fe84  1  0.37419474  0.12235832  0.62441343  1
  Fe  Fe85  1  0.37257726  0.87671289  0.12263445  1
  Fe  Fe86  1  0.00198488  0.74747857  0.00018135  1
  Fe  Fe87  1  0.24874275  0.49746040  0.74892853  1
  Fe  Fe88  1  0.24924009  0.25029105  0.49998830  1
  Fe  Fe89  1  0.62446262  0.87564533  0.87789926  1
  Co  Co90  1  0.75235812  -0.00442162  0.24893167  1
  Co  Co91  1  0.87021163  0.12917895  0.12552362  1
  Co  Co92  1  0.37231146  0.12529877  0.12691132  1
  Co  Co93  1  0.37366220  0.87539062  0.62327643  1
  Co  Co94  1  0.24949849  -0.00202029  0.75451803  1
  Co  Co95  1  0.24818280  0.49916866  0.25036883  1
  Co  Co96  1  0.37504899  0.87248166  0.37403511  1
  Co  Co97  1  0.12486262  0.87487280  0.88059876  1
  Co  Co98  1  0.37427082  0.87578807  0.88089516  1
  Co  Co99  1  0.37550789  0.12705268  0.37656216  1
  Co  Co100  1  0.87465980  0.62608905  0.37779074  1
  Co  Co101  1  0.00273991  0.75056959  0.50034292  1
  Co  Co102  1  0.25125514  0.74506622  -0.00026510  1
  Co  Co103  1  0.74848606  0.24926774  -0.00286251  1
  Co  Co104  1  0.37490001  0.37528150  0.62256209  1
  Co  Co105  1  0.12527309  0.62430513  0.87304974  1
  Co  Co106  1  0.12537109  0.12428508  0.37541210  1
  Co  Co107  1  0.12299055  0.37478323  0.62349828  1
  Co  Co108  1  0.49963349  0.49885055  0.24891967  1
  Co  Co109  1  0.49911959  -0.00102616  0.49837807  1
  Co  Co110  1  0.12671715  0.62551370  0.37505666  1
  Co  Co111  1  0.37818125  0.12722242  0.87114812  1
  Co  Co112  1  0.49913845  0.75609039  0.75319006  1
  Co  Co113  1  0.12733663  0.87588064  0.62404684  1
  Co  Co114  1  0.62198948  0.62664358  0.62879745  1
  Co  Co115  1  0.87738868  0.87304802  0.12325037  1
  Co  Co116  1  0.37543681  0.62316869  0.87013720  1
  Co  Co117  1  0.62441597  0.62548208  0.37243446  1
  Co  Co118  1  0.25188247  0.24989758  -0.00220696  1
  Co  Co119  1  0.00039396  0.49991959  0.74929463  1
  Co  Co120  1  0.50094877  0.49594851  0.74887617  1
  Co  Co121  1  0.87213862  0.12181577  0.37652335  1
  Co  Co122  1  0.75148835  0.25307128  0.25612382  1
  Co  Co123  1  -0.00034611  0.25127675  0.00206179  1
  Co  Co124  1  0.87873811  0.37809713  0.37672063  1
  Co  Co125  1  0.12279813  0.12908683  0.87389615  1
  Co  Co126  1  0.87526796  0.62365895  0.12437068  1
  Co  Co127  1  0.74794346  0.50156980  0.49996882  1
