# generated using pymatgen
data_Fe45Co19
_symmetry_space_group_name_H-M   'P 1'
_cell_length_a   11.41471171
_cell_length_b   11.41651370
_cell_length_c   11.41512177
_cell_angle_alpha   90.00035491
_cell_angle_beta   89.99833847
_cell_angle_gamma   90.00687939
_symmetry_Int_Tables_number   1
_chemical_formula_structural   Fe45Co19
_chemical_formula_sum   'Fe90 Co38'
_cell_volume   1487.57542398
_cell_formula_units_Z   2
loop_
 _symmetry_equiv_pos_site_id
 _symmetry_equiv_pos_as_xyz
  1  'x, y, z'
loop_
 _atom_site_type_symbol
 _atom_site_label
 _atom_site_symmetry_multiplicity
 _atom_site_fract_x
 _atom_site_fract_y
 _atom_site_fract_z
 _atom_site_occupancy
  Fe  Fe0  1  0.37093631  0.62816199  0.62637280  1
  Fe  Fe1  1  0.12491528  0.37118827  0.12437328  1
  Fe  Fe2  1  0.87366318  0.87461135  0.62265082  1
  Fe  Fe3  1  0.87690558  0.88021084  0.87816556  1
  Fe  Fe4  1  0.37482344  0.87532947  0.87610345  1
  Fe  Fe5  1  0.37286574  0.12527539  0.62503452  1
  Fe  Fe6  1  0.50461055  -0.00203673  0.00140037  1
  Fe  Fe7  1  -0.00204819  0.75048154  0.25018541  1
  Fe  Fe8  1  0.74931920  0.49924849  0.50279010  1
  Fe  Fe9  1  -0.00268637  0.24406643  0.00111109  1
  Fe  Fe10  1  0.75017853  0.50175113  0.25045699  1
  Fe  Fe11  1  0.37434945  0.12596204  0.12575848  1
  Fe  Fe12  1  0.49611791  0.50203803  0.75215335  1
  Fe  Fe13  1  0.49825588  0.00131233  0.75046037  1
  Fe  Fe14  1  0.12361375  0.62649177  0.12424486  1
  Fe  Fe15  1  0.25061428  0.24778339  -0.00306005  1
  Fe  Fe16  1  0.12537440  0.37544778  0.87528421  1
  Fe  Fe17  1  0.25233574  0.24988798  0.49548724  1
  Fe  Fe18  1  0.49683386  0.24812252  0.75289887  1
  Fe  Fe19  1  0.87703494  0.12421281  0.37289151  1
  Fe  Fe20  1  0.50068987  0.75024860  0.49906301  1
  Fe  Fe21  1  -0.00033847  -0.00186825  0.49849949  1
  Fe  Fe22  1  0.50033630  0.74852836  0.75321913  1
  Fe  Fe23  1  0.75083851  0.25209963  0.74876428  1
  Fe  Fe24  1  0.87390334  0.87750034  0.12419339  1
  Fe  Fe25  1  0.75001977  0.25288036  0.50161844  1
  Fe  Fe26  1  0.62396947  0.37521158  0.12556449  1
  Fe  Fe27  1  0.74942292  -0.00047861  0.49968960  1
  Fe  Fe28  1  0.00065068  0.25064518  0.49924248  1
  Fe  Fe29  1  0.49824879  0.50015266  0.50168599  1
  Fe  Fe30  1  0.12565686  0.62674223  0.62637117  1
  Fe  Fe31  1  0.87711742  0.37802353  0.37739224  1
  Fe  Fe32  1  -0.00026799  0.24802852  0.75022531  1
  Fe  Fe33  1  0.12571774  0.87370613  0.37175862  1
  Fe  Fe34  1  -0.00021344  0.49958199  0.24826843  1
  Fe  Fe35  1  0.62558026  0.62553608  0.62634301  1
  Fe  Fe36  1  0.87686870  0.62444713  0.62265244  1
  Fe  Fe37  1  0.87545672  0.12595729  0.62402369  1
  Fe  Fe38  1  0.00058970  0.75136872  -0.00121580  1
  Fe  Fe39  1  0.87380766  0.62407141  0.87702077  1
  Fe  Fe40  1  0.37620407  0.87172237  0.12614934  1
  Fe  Fe41  1  0.12399146  0.11865023  0.87221122  1
  Fe  Fe42  1  0.00078277  0.49962172  0.74991590  1
  Fe  Fe43  1  0.62795748  0.12625920  0.12501394  1
  Fe  Fe44  1  0.50073208  0.24958003  -0.00034282  1
  Fe  Fe45  1  0.37714810  0.62840601  0.12306247  1
  Fe  Fe46  1  0.75099741  0.75047668  0.75212609  1
  Fe  Fe47  1  0.24788104  -0.00085916  0.24680971  1
  Fe  Fe48  1  -0.00084000  0.75109117  0.49792018  1
  Fe  Fe49  1  0.74948919  0.74613413  0.25060939  1
  Fe  Fe50  1  0.75119224  0.00098232  0.74952455  1
  Fe  Fe51  1  0.37342317  0.87366456  0.37263678  1
  Fe  Fe52  1  0.62392679  0.12664759  0.62401419  1
  Fe  Fe53  1  0.24627915  -0.00114113  0.00281565  1
  Fe  Fe54  1  0.12685621  0.37376062  0.62695006  1
  Fe  Fe55  1  0.62639554  0.87185869  0.37482434  1
  Fe  Fe56  1  -0.00001555  0.75190481  0.75195642  1
  Fe  Fe57  1  0.24931374  0.50019318  0.50034888  1
  Fe  Fe58  1  0.62217202  0.37601586  0.37570510  1
  Fe  Fe59  1  0.87643807  0.37493857  0.12242468  1
  Fe  Fe60  1  0.12489054  0.37469334  0.37281503  1
  Fe  Fe61  1  0.37332027  0.87326060  0.62563900  1
  Fe  Fe62  1  0.12411587  0.12616493  0.36998808  1
  Fe  Fe63  1  0.50098836  0.50347655  0.24943959  1
  Fe  Fe64  1  0.50161904  -0.00022807  0.24925783  1
  Fe  Fe65  1  0.49628739  0.24990360  0.49676786  1
  Fe  Fe66  1  0.74963514  0.00040398  0.25155903  1
  Fe  Fe67  1  0.12641370  0.87519754  0.62757193  1
  Fe  Fe68  1  0.25063463  0.49991646  -0.00042238  1
  Fe  Fe69  1  0.62394632  0.37555528  0.87383920  1
  Fe  Fe70  1  0.75125090  0.49679320  0.74783739  1
  Fe  Fe71  1  0.12408022  0.62566953  0.37374329  1
  Fe  Fe72  1  0.74921543  0.49891671  -0.00039756  1
  Fe  Fe73  1  0.12617955  0.12394733  0.62625876  1
  Fe  Fe74  1  0.25000305  -0.00026281  0.49912518  1
  Fe  Fe75  1  0.24707597  0.75219938  -0.00118763  1
  Fe  Fe76  1  0.50817295  0.75105238  -0.00145624  1
  Fe  Fe77  1  0.87445172  0.62494098  0.12188141  1
  Fe  Fe78  1  0.49962293  -0.00075075  0.49925338  1
  Fe  Fe79  1  0.62418493  0.12688019  0.37553532  1
  Fe  Fe80  1  0.37244535  0.37329784  0.62837831  1
  Fe  Fe81  1  0.75128239  0.25237174  0.24957728  1
  Fe  Fe82  1  0.62711262  0.12454165  0.87575539  1
  Fe  Fe83  1  0.62552265  0.87435131  0.62626333  1
  Fe  Fe84  1  0.12586134  0.62437822  0.87507482  1
  Fe  Fe85  1  0.37380096  0.62655356  0.37458249  1
  Fe  Fe86  1  0.37579276  0.37321120  0.12554757  1
  Fe  Fe87  1  0.25015408  0.50057464  0.24694045  1
  Fe  Fe88  1  0.49999433  0.50146889  -0.00193931  1
  Fe  Fe89  1  0.87685610  0.37410065  0.87584092  1
  Co  Co90  1  0.49984820  0.24835349  0.25019942  1
  Co  Co91  1  0.00176545  -0.00062602  0.24716766  1
  Co  Co92  1  -0.00326332  -0.00068584  0.74631177  1
  Co  Co93  1  -0.00440930  0.25219858  0.24824363  1
  Co  Co94  1  0.87119707  0.12232866  0.12678609  1
  Co  Co95  1  0.12669491  0.13046817  0.12957042  1
  Co  Co96  1  0.74973974  0.74901254  0.50025133  1
  Co  Co97  1  0.25415571  0.25168922  0.25237611  1
  Co  Co98  1  0.87359119  0.12298704  0.87468407  1
  Co  Co99  1  0.62821985  0.62263398  0.87405604  1
  Co  Co100  1  0.61958498  0.37393531  0.62594247  1
  Co  Co101  1  0.37634328  0.37924710  0.37241473  1
  Co  Co102  1  0.37447758  0.37502083  0.87567537  1
  Co  Co103  1  0.74777430  -0.00073910  -0.00025166  1
  Co  Co104  1  0.25085703  0.50180374  0.75199941  1
  Co  Co105  1  0.37512840  0.12076666  0.87916152  1
  Co  Co106  1  0.50207207  0.74825833  0.25108820  1
  Co  Co107  1  0.87618358  0.62314676  0.37770051  1
  Co  Co108  1  0.62818921  0.87419964  0.12903897  1
  Co  Co109  1  0.12302556  0.87172571  0.12550256  1
  Co  Co110  1  0.25330700  -0.00134982  0.74950704  1
  Co  Co111  1  0.00107031  0.50028014  0.00025902  1
  Co  Co112  1  0.62514109  0.62382850  0.37767430  1
  Co  Co113  1  0.24836932  0.75137319  0.75375546  1
  Co  Co114  1  0.37397901  0.62853982  0.87901041  1
  Co  Co115  1  0.74780639  0.75277420  -0.00131731  1
  Co  Co116  1  0.00371605  0.50012764  0.50097880  1
  Co  Co117  1  0.12238936  0.88026439  0.87427468  1
  Co  Co118  1  0.75071960  0.25144563  0.00031777  1
  Co  Co119  1  0.37452540  0.12057942  0.37188164  1
  Co  Co120  1  0.87322284  0.87516834  0.37321974  1
  Co  Co121  1  0.62605907  0.62468471  0.12262155  1
  Co  Co122  1  0.24885681  0.75037772  0.49889478  1
  Co  Co123  1  0.00245877  0.00425327  0.00649651  1
  Co  Co124  1  0.25029827  0.24710405  0.75442982  1
  Co  Co125  1  0.62601931  0.87734693  0.87100432  1
  Co  Co126  1  0.87952490  0.37503461  0.62380696  1
  Co  Co127  1  0.25005624  0.74802524  0.24837670  1
