# generated using pymatgen
data_Fe45Co19
_symmetry_space_group_name_H-M   'P 1'
_cell_length_a   11.41429729
_cell_length_b   11.41513341
_cell_length_c   11.41607970
_cell_angle_alpha   89.99503821
_cell_angle_beta   89.99633712
_cell_angle_gamma   90.00480623
_symmetry_Int_Tables_number   1
_chemical_formula_structural   Fe45Co19
_chemical_formula_sum   'Fe90 Co38'
_cell_volume   1487.46638156
_cell_formula_units_Z   2
loop_
 _symmetry_equiv_pos_site_id
 _symmetry_equiv_pos_as_xyz
  1  'x, y, z'
loop_
 _atom_site_type_symbol
 _atom_site_label
 _atom_site_symmetry_multiplicity
 _atom_site_fract_x
 _atom_site_fract_y
 _atom_site_fract_z
 _atom_site_occupancy
  Fe  Fe0  1  0.75275923  0.50120270  0.24975595  1
  Fe  Fe1  1  0.12441704  0.87545580  0.62767150  1
  Fe  Fe2  1  0.00023846  0.75198175  0.25228724  1
  Fe  Fe3  1  0.37635903  0.12333541  0.12371394  1
  Fe  Fe4  1  0.38087612  0.12550986  0.62041411  1
  Fe  Fe5  1  0.12655685  0.37539844  0.37388621  1
  Fe  Fe6  1  0.12352657  0.12506803  0.87513644  1
  Fe  Fe7  1  0.62297212  0.12343771  0.37582144  1
  Fe  Fe8  1  -0.00411154  -0.00062886  0.75069373  1
  Fe  Fe9  1  0.49875846  0.49879235  0.49865631  1
  Fe  Fe10  1  0.50231258  0.75204469  -0.00054466  1
  Fe  Fe11  1  0.87408136  0.12460132  0.37899715  1
  Fe  Fe12  1  0.25028967  0.24465866  0.25313005  1
  Fe  Fe13  1  0.37727950  0.87646337  0.62522403  1
  Fe  Fe14  1  0.37522276  0.12505295  0.87578039  1
  Fe  Fe15  1  0.75238258  0.50373913  0.49928343  1
  Fe  Fe16  1  0.24846078  0.49878373  0.75197369  1
  Fe  Fe17  1  0.75194062  0.74857293  0.24865713  1
  Fe  Fe18  1  0.25209477  0.00249336  0.74893623  1
  Fe  Fe19  1  -0.00009409  -0.00139647  0.49954003  1
  Fe  Fe20  1  0.24830933  0.00080840  0.00146795  1
  Fe  Fe21  1  -0.00274006  0.75510830  -0.00315989  1
  Fe  Fe22  1  0.12275298  0.62560414  0.62985906  1
  Fe  Fe23  1  0.00026477  0.50058614  0.50023839  1
  Fe  Fe24  1  0.75161539  0.24904512  0.24740418  1
  Fe  Fe25  1  0.62574959  0.62649169  0.37479878  1
  Fe  Fe26  1  0.63079665  0.12599454  0.87354197  1
  Fe  Fe27  1  0.62629135  0.37616684  0.62522124  1
  Fe  Fe28  1  0.50241486  0.75483366  0.49741327  1
  Fe  Fe29  1  0.24962817  0.49919957  0.50019240  1
  Fe  Fe30  1  0.87733147  0.62876875  0.62521820  1
  Fe  Fe31  1  0.37164990  0.62678626  0.37405939  1
  Fe  Fe32  1  0.87506986  0.37379194  0.62359014  1
  Fe  Fe33  1  0.62491246  0.12326219  0.12616965  1
  Fe  Fe34  1  0.87719254  0.62599364  0.12293664  1
  Fe  Fe35  1  0.87264749  0.87375351  0.37681480  1
  Fe  Fe36  1  -0.00230305  0.24882356  0.74982651  1
  Fe  Fe37  1  0.25020716  0.00342357  0.49896455  1
  Fe  Fe38  1  0.12470175  0.37230627  0.12536383  1
  Fe  Fe39  1  0.62551560  0.87559437  0.12633546  1
  Fe  Fe40  1  0.62328055  0.62463495  0.12438507  1
  Fe  Fe41  1  0.75096967  0.49930939  0.00158113  1
  Fe  Fe42  1  0.74601489  -0.00261407  0.50405862  1
  Fe  Fe43  1  0.00191558  0.75065904  0.49859031  1
  Fe  Fe44  1  0.37341411  0.37197914  0.62444499  1
  Fe  Fe45  1  0.12242150  0.88162800  0.12798627  1
  Fe  Fe46  1  0.12899258  0.87815234  0.37199855  1
  Fe  Fe47  1  0.12595285  0.87654193  0.87220126  1
  Fe  Fe48  1  -0.00259573  0.24647033  0.00177247  1
  Fe  Fe49  1  0.24781547  0.49848395  -0.00115588  1
  Fe  Fe50  1  0.75349091  0.00075828  0.24949874  1
  Fe  Fe51  1  0.24736094  0.75198328  0.00122439  1
  Fe  Fe52  1  0.24886624  0.24862764  -0.00037771  1
  Fe  Fe53  1  0.50297005  0.24909867  0.00004656  1
  Fe  Fe54  1  0.75343257  0.00247193  0.74360759  1
  Fe  Fe55  1  0.37388540  0.62565036  0.87656520  1
  Fe  Fe56  1  0.37411363  0.37528583  0.12580402  1
  Fe  Fe57  1  0.87474808  0.37478328  0.37494142  1
  Fe  Fe58  1  0.00237680  0.24971316  0.49852260  1
  Fe  Fe59  1  0.62735712  0.37647422  0.37539671  1
  Fe  Fe60  1  0.75283014  0.50138853  0.75004729  1
  Fe  Fe61  1  0.49513766  -0.00336690  0.25339936  1
  Fe  Fe62  1  0.12714051  0.62478119  0.37314880  1
  Fe  Fe63  1  0.87358862  0.37222605  0.87552229  1
  Fe  Fe64  1  0.75396158  -0.00054380  0.00282101  1
  Fe  Fe65  1  0.37363411  0.87593479  0.87629085  1
  Fe  Fe66  1  0.49710375  0.75350765  0.25037709  1
  Fe  Fe67  1  -0.00154564  0.24563492  0.25006848  1
  Fe  Fe68  1  0.12357650  0.12563412  0.62493772  1
  Fe  Fe69  1  0.00040199  0.49827496  -0.00240862  1
  Fe  Fe70  1  0.50253099  -0.00016548  -0.00240535  1
  Fe  Fe71  1  -0.00031340  0.49996024  0.25033575  1
  Fe  Fe72  1  0.74669449  0.24768135  0.50299854  1
  Fe  Fe73  1  0.37538393  0.37357956  0.87461706  1
  Fe  Fe74  1  0.37446526  0.62506678  0.12377581  1
  Fe  Fe75  1  0.12321194  0.62609569  0.12508455  1
  Fe  Fe76  1  0.62956584  0.87617664  0.87173430  1
  Fe  Fe77  1  0.50228289  0.24842870  0.74984621  1
  Fe  Fe78  1  0.62443204  0.37617461  0.12475256  1
  Fe  Fe79  1  0.50035366  0.25090634  0.25193701  1
  Fe  Fe80  1  0.62670298  0.37366046  0.87534553  1
  Fe  Fe81  1  0.49791538  0.49921525  0.25172251  1
  Fe  Fe82  1  0.62460523  0.62795615  0.62485255  1
  Fe  Fe83  1  0.12616429  0.37319963  0.62731149  1
  Fe  Fe84  1  0.12293811  0.62651967  0.87169875  1
  Fe  Fe85  1  0.49947855  0.75121494  0.75272673  1
  Fe  Fe86  1  0.62691966  0.62489574  0.87633216  1
  Fe  Fe87  1  0.37551523  0.62633607  0.62585644  1
  Fe  Fe88  1  0.24783890  0.74969567  0.50281411  1
  Fe  Fe89  1  0.50025924  0.50042744  0.75029845  1
  Co  Co90  1  -0.00308524  -0.00099247  -0.00390916  1
  Co  Co91  1  0.87533878  0.62510931  0.87673746  1
  Co  Co92  1  0.87819518  0.12552422  0.62134665  1
  Co  Co93  1  0.87170920  0.12624493  0.87509513  1
  Co  Co94  1  0.74766928  0.75091540  0.50046642  1
  Co  Co95  1  0.50396476  0.25484861  0.49926650  1
  Co  Co96  1  0.62337909  0.87335460  0.63042513  1
  Co  Co97  1  0.87687966  0.37588378  0.12564427  1
  Co  Co98  1  0.49894686  0.00112168  0.75375859  1
  Co  Co99  1  0.74997538  0.75105111  0.00201311  1
  Co  Co100  1  0.12332191  0.12161256  0.12544838  1
  Co  Co101  1  0.24946065  0.75186669  0.24529061  1
  Co  Co102  1  -0.00200050  0.49765654  0.75065826  1
  Co  Co103  1  0.36848000  0.87321164  0.37747059  1
  Co  Co104  1  0.87598186  0.87171231  0.62250574  1
  Co  Co105  1  0.38043159  0.12594170  0.38024720  1
  Co  Co106  1  0.25469790  0.00345948  0.25080083  1
  Co  Co107  1  0.24732320  0.24728826  0.49799107  1
  Co  Co108  1  0.24863170  0.50064074  0.24806578  1
  Co  Co109  1  -0.00444580  0.00151831  0.25313242  1
  Co  Co110  1  0.62979324  0.87449691  0.37025398  1
  Co  Co111  1  0.61888818  0.12248024  0.62394059  1
  Co  Co112  1  0.75004996  0.25004189  0.00521810  1
  Co  Co113  1  0.37246038  0.37444174  0.37515936  1
  Co  Co114  1  0.75202324  0.74806103  0.74972333  1
  Co  Co115  1  0.37518795  0.87718703  0.12106272  1
  Co  Co116  1  0.25076615  0.24631897  0.74962208  1
  Co  Co117  1  0.75026141  0.24841558  0.74483877  1
  Co  Co118  1  0.87619910  0.62625648  0.37532768  1
  Co  Co119  1  -0.00249650  0.75367305  0.75253137  1
  Co  Co120  1  0.87644877  0.12225732  0.12422489  1
  Co  Co121  1  0.49930153  0.49901943  -0.00041670  1
  Co  Co122  1  0.25126214  0.75142537  0.74956186  1
  Co  Co123  1  0.12283845  0.12176723  0.37416573  1
  Co  Co124  1  0.50446979  -0.00735166  0.49579560  1
  Co  Co125  1  0.12321418  0.37086760  0.87454108  1
  Co  Co126  1  0.86981673  0.87643843  0.87318769  1
  Co  Co127  1  0.87677117  0.87473607  0.12660426  1
