# generated using pymatgen
data_Fe45Co19
_symmetry_space_group_name_H-M   'P 1'
_cell_length_a   11.41701320
_cell_length_b   11.41551730
_cell_length_c   11.41555729
_cell_angle_alpha   89.99591238
_cell_angle_beta   90.00321860
_cell_angle_gamma   90.00337786
_symmetry_Int_Tables_number   1
_chemical_formula_structural   Fe45Co19
_chemical_formula_sum   'Fe90 Co38'
_cell_volume   1487.80226375
_cell_formula_units_Z   2
loop_
 _symmetry_equiv_pos_site_id
 _symmetry_equiv_pos_as_xyz
  1  'x, y, z'
loop_
 _atom_site_type_symbol
 _atom_site_label
 _atom_site_symmetry_multiplicity
 _atom_site_fract_x
 _atom_site_fract_y
 _atom_site_fract_z
 _atom_site_occupancy
  Fe  Fe0  1  0.37547112  0.87257561  0.12831851  1
  Fe  Fe1  1  0.87337007  0.87546179  0.62692101  1
  Fe  Fe2  1  0.62371317  0.12567144  0.87657646  1
  Fe  Fe3  1  0.37497824  0.87652019  0.87507665  1
  Fe  Fe4  1  0.12161820  0.37677354  0.37375079  1
  Fe  Fe5  1  0.12589289  0.63036177  0.62693479  1
  Fe  Fe6  1  0.24920677  -0.00129548  0.00120750  1
  Fe  Fe7  1  0.25212430  0.74822327  0.00004314  1
  Fe  Fe8  1  0.24857215  -0.00245416  0.25013391  1
  Fe  Fe9  1  0.87095116  0.62261343  0.37902434  1
  Fe  Fe10  1  0.25106591  0.25013057  0.00150816  1
  Fe  Fe11  1  0.37921167  0.87790808  0.61974789  1
  Fe  Fe12  1  0.62542966  0.87365881  0.12690721  1
  Fe  Fe13  1  0.24952824  0.50368443  0.00144776  1
  Fe  Fe14  1  0.62378123  0.37753021  0.37701678  1
  Fe  Fe15  1  0.50245265  0.74819531  0.49247124  1
  Fe  Fe16  1  0.62403567  0.37205285  0.12537924  1
  Fe  Fe17  1  0.50152330  0.00134949  0.00333396  1
  Fe  Fe18  1  0.74623688  0.00151944  0.74974832  1
  Fe  Fe19  1  0.75051737  0.74876577  0.25128152  1
  Fe  Fe20  1  0.62439587  0.62595036  0.12591236  1
  Fe  Fe21  1  0.24881618  0.50462055  0.24587842  1
  Fe  Fe22  1  0.12099828  0.12497021  0.62309856  1
  Fe  Fe23  1  0.62455742  0.37407090  0.87439246  1
  Fe  Fe24  1  0.12197433  0.37543329  0.12696426  1
  Fe  Fe25  1  0.25257731  0.75195158  0.49784813  1
  Fe  Fe26  1  0.12297429  0.87232410  0.12407181  1
  Fe  Fe27  1  0.75026837  0.49942612  0.24812587  1
  Fe  Fe28  1  0.25062171  0.50142414  0.74809493  1
  Fe  Fe29  1  0.62459971  0.12741925  0.62394123  1
  Fe  Fe30  1  0.37573675  0.37509757  0.12532291  1
  Fe  Fe31  1  0.37599542  0.62598681  0.62253577  1
  Fe  Fe32  1  0.12447953  0.87193640  0.62794153  1
  Fe  Fe33  1  0.37674506  0.12248869  0.62253396  1
  Fe  Fe34  1  0.37560867  0.38006233  0.37597746  1
  Fe  Fe35  1  0.49921318  0.24857507  0.75161849  1
  Fe  Fe36  1  0.12594769  0.62564092  0.37458459  1
  Fe  Fe37  1  0.37473564  0.37622960  0.87466512  1
  Fe  Fe38  1  0.75533289  0.25348143  0.50487516  1
  Fe  Fe39  1  0.24809300  0.49962140  0.50235817  1
  Fe  Fe40  1  0.12756452  0.63004883  0.87133705  1
  Fe  Fe41  1  -0.00234532  0.75039582  0.50087250  1
  Fe  Fe42  1  0.12307614  0.12438324  0.12649892  1
  Fe  Fe43  1  0.49821070  0.24923415  0.49794602  1
  Fe  Fe44  1  0.87398935  0.12227232  0.87501121  1
  Fe  Fe45  1  0.49998995  0.50169633  0.00075559  1
  Fe  Fe46  1  0.75089576  0.74902912  -0.00251223  1
  Fe  Fe47  1  0.87454755  0.37581960  0.87111446  1
  Fe  Fe48  1  0.87224390  0.62456036  0.62314204  1
  Fe  Fe49  1  0.24985162  0.24969325  0.25143212  1
  Fe  Fe50  1  0.87683894  0.12315555  0.12326075  1
  Fe  Fe51  1  0.50231470  0.50266455  0.74653143  1
  Fe  Fe52  1  0.75080876  0.00018054  0.24781848  1
  Fe  Fe53  1  0.87749091  0.62524227  0.12300003  1
  Fe  Fe54  1  0.49977271  0.74809952  -0.00202819  1
  Fe  Fe55  1  0.62376234  0.87249727  0.62424903  1
  Fe  Fe56  1  0.87902153  0.37960331  0.37755037  1
  Fe  Fe57  1  0.49831806  0.24938079  0.25032593  1
  Fe  Fe58  1  0.37491935  0.12381566  0.87614028  1
  Fe  Fe59  1  0.12075515  0.12290599  0.37655656  1
  Fe  Fe60  1  -0.00316994  0.75191057  -0.00775195  1
  Fe  Fe61  1  0.25035970  0.24891488  0.74831885  1
  Fe  Fe62  1  0.00176133  0.50356773  0.74925711  1
  Fe  Fe63  1  0.74871404  -0.00195291  0.50119032  1
  Fe  Fe64  1  0.74888281  0.50067576  0.00066691  1
  Fe  Fe65  1  0.37296904  0.12069890  0.37685126  1
  Fe  Fe66  1  0.50134858  0.00136709  0.25075660  1
  Fe  Fe67  1  0.87424210  0.87608925  0.37509255  1
  Fe  Fe68  1  0.00062710  0.25004872  -0.00118124  1
  Fe  Fe69  1  -0.00123119  0.74922065  0.25115731  1
  Fe  Fe70  1  0.49874069  0.74893300  0.75183042  1
  Fe  Fe71  1  0.00107521  -0.00243923  0.75283244  1
  Fe  Fe72  1  0.49934570  0.74683219  0.25676751  1
  Fe  Fe73  1  0.12594877  0.37412611  0.87290920  1
  Fe  Fe74  1  0.12666263  0.12477632  0.87500285  1
  Fe  Fe75  1  0.12100710  0.37247643  0.62558921  1
  Fe  Fe76  1  0.62585460  0.87496379  0.87566710  1
  Fe  Fe77  1  0.62851441  0.12614891  0.37512734  1
  Fe  Fe78  1  0.75107516  0.74826504  0.75303959  1
  Fe  Fe79  1  0.87510052  0.87666392  0.12158727  1
  Fe  Fe80  1  0.12432631  0.87518521  0.37573941  1
  Fe  Fe81  1  0.74973615  0.24899216  -0.00041703  1
  Fe  Fe82  1  0.75410701  0.25143494  0.25097804  1
  Fe  Fe83  1  0.87782164  0.12226523  0.37793192  1
  Fe  Fe84  1  0.00138175  0.50139202  -0.00195742  1
  Fe  Fe85  1  0.87815558  0.37534418  0.12487360  1
  Fe  Fe86  1  0.74568559  0.49879151  0.74512056  1
  Fe  Fe87  1  0.24825038  0.24988714  0.49953154  1
  Fe  Fe88  1  0.25168675  -0.00174734  0.74739204  1
  Fe  Fe89  1  0.37657544  0.37423586  0.62419894  1
  Co  Co90  1  0.24644666  -0.00087051  0.50215544  1
  Co  Co91  1  0.50273496  0.50255775  0.50291820  1
  Co  Co92  1  0.49878396  0.24892808  0.00066439  1
  Co  Co93  1  0.87036458  0.87989158  0.87483845  1
  Co  Co94  1  0.00267225  0.50305658  0.50205422  1
  Co  Co95  1  -0.00216712  0.25130096  0.49976750  1
  Co  Co96  1  0.12073125  0.62926067  0.12298695  1
  Co  Co97  1  0.00306352  -0.00197366  -0.00323363  1
  Co  Co98  1  -0.00100498  -0.00482348  0.50180075  1
  Co  Co99  1  -0.00196512  0.24926985  0.25102427  1
  Co  Co100  1  0.25796121  0.75251416  0.74771543  1
  Co  Co101  1  0.62570596  0.62420726  0.87470327  1
  Co  Co102  1  0.37449944  0.87914407  0.37624214  1
  Co  Co103  1  0.87700657  0.12203058  0.62580378  1
  Co  Co104  1  0.74757118  0.49385472  0.50587847  1
  Co  Co105  1  0.50107838  -0.00032956  0.75037465  1
  Co  Co106  1  0.62703062  0.63106800  0.62183405  1
  Co  Co107  1  -0.00111064  0.50412514  0.25032262  1
  Co  Co108  1  -0.00632873  0.75049881  0.75176584  1
  Co  Co109  1  0.37435597  0.62291486  0.87382532  1
  Co  Co110  1  0.37735651  0.62760385  0.12632111  1
  Co  Co111  1  0.62079887  0.36942031  0.62462387  1
  Co  Co112  1  0.62731028  0.87684747  0.37205554  1
  Co  Co113  1  0.37345401  0.12472165  0.12663934  1
  Co  Co114  1  0.24996114  0.74998407  0.25138665  1
  Co  Co115  1  -0.00066670  -0.00224615  0.24928561  1
  Co  Co116  1  0.63085713  0.62001607  0.37695027  1
  Co  Co117  1  0.88074624  0.37683855  0.62928406  1
  Co  Co118  1  0.37212013  0.62005225  0.37537853  1
  Co  Co119  1  0.50610505  0.00043211  0.49778659  1
  Co  Co120  1  0.75056838  0.24938024  0.74882185  1
  Co  Co121  1  0.50180719  0.50138235  0.24910255  1
  Co  Co122  1  0.62600400  0.12801925  0.12790730  1
  Co  Co123  1  0.87249992  0.62012324  0.87346614  1
  Co  Co124  1  0.12892454  0.87091265  0.87158373  1
  Co  Co125  1  -0.00112980  0.24703264  0.75175716  1
  Co  Co126  1  0.74542001  0.00090588  0.00191795  1
  Co  Co127  1  0.74949967  0.75424415  0.49761466  1
