# generated using pymatgen
data_Fe45Co19
_symmetry_space_group_name_H-M   'P 1'
_cell_length_a   11.41547369
_cell_length_b   11.41613377
_cell_length_c   11.41514220
_cell_angle_alpha   90.00222332
_cell_angle_beta   90.00216115
_cell_angle_gamma   89.99310927
_symmetry_Int_Tables_number   1
_chemical_formula_structural   Fe45Co19
_chemical_formula_sum   'Fe90 Co38'
_cell_volume   1487.62787866
_cell_formula_units_Z   2
loop_
 _symmetry_equiv_pos_site_id
 _symmetry_equiv_pos_as_xyz
  1  'x, y, z'
loop_
 _atom_site_type_symbol
 _atom_site_label
 _atom_site_symmetry_multiplicity
 _atom_site_fract_x
 _atom_site_fract_y
 _atom_site_fract_z
 _atom_site_occupancy
  Fe  Fe0  1  0.24966573  0.00108539  0.24873118  1
  Fe  Fe1  1  0.50111740  0.50109614  0.50252659  1
  Fe  Fe2  1  0.24980550  0.75209492  0.74907625  1
  Fe  Fe3  1  0.49264456  0.24799661  0.74603864  1
  Fe  Fe4  1  0.24974335  0.49572248  0.74839753  1
  Fe  Fe5  1  0.49968962  0.00244375  0.74945887  1
  Fe  Fe6  1  -0.00134755  0.50073941  0.50415094  1
  Fe  Fe7  1  0.12395922  0.37333189  0.37494729  1
  Fe  Fe8  1  0.62449056  0.12678396  0.37626985  1
  Fe  Fe9  1  0.74977345  -0.00029118  0.75193233  1
  Fe  Fe10  1  0.37761285  0.87549636  0.37676301  1
  Fe  Fe11  1  0.62623947  0.62597139  0.62610017  1
  Fe  Fe12  1  0.49940738  0.49920392  -0.00016629  1
  Fe  Fe13  1  0.62478751  0.87234862  0.12123172  1
  Fe  Fe14  1  0.75086475  0.75162727  0.75216249  1
  Fe  Fe15  1  0.25213871  0.25213655  0.50276717  1
  Fe  Fe16  1  0.00235147  0.00313699  -0.00262860  1
  Fe  Fe17  1  0.37485528  0.88009040  0.87853573  1
  Fe  Fe18  1  0.12526382  0.62434623  0.12423199  1
  Fe  Fe19  1  0.74406969  0.25230868  0.50078623  1
  Fe  Fe20  1  0.74986543  0.49621997  0.50263277  1
  Fe  Fe21  1  0.24914840  -0.00156790  0.50159390  1
  Fe  Fe22  1  -0.00034912  0.74976311  0.25109185  1
  Fe  Fe23  1  0.49985355  0.50093075  0.74837771  1
  Fe  Fe24  1  0.00103224  0.74817855  0.50193026  1
  Fe  Fe25  1  0.62584803  0.62754258  0.12157074  1
  Fe  Fe26  1  0.87617026  0.37054532  0.12544320  1
  Fe  Fe27  1  0.00139444  0.00367321  0.75011871  1
  Fe  Fe28  1  0.37762960  0.87605604  0.62368461  1
  Fe  Fe29  1  0.74917457  0.00267489  0.24943903  1
  Fe  Fe30  1  0.87274883  0.12647608  0.62498119  1
  Fe  Fe31  1  0.37337744  0.62284719  0.12413303  1
  Fe  Fe32  1  0.12380525  0.87578719  0.87426368  1
  Fe  Fe33  1  0.50103306  0.50094633  0.24946989  1
  Fe  Fe34  1  0.87456829  0.62406238  0.12491011  1
  Fe  Fe35  1  0.37339393  0.62247832  0.87437490  1
  Fe  Fe36  1  0.25677030  0.25359529  -0.00279868  1
  Fe  Fe37  1  0.25003018  0.75072743  -0.00120734  1
  Fe  Fe38  1  0.50078637  0.00116212  0.24915370  1
  Fe  Fe39  1  0.62457814  0.62474913  0.37579492  1
  Fe  Fe40  1  0.49927746  0.24969269  0.24933403  1
  Fe  Fe41  1  0.00165667  0.00431953  0.49918348  1
  Fe  Fe42  1  0.74915657  0.75132439  0.49978690  1
  Fe  Fe43  1  -0.00053486  0.25163258  -0.00562536  1
  Fe  Fe44  1  -0.00147140  0.74846406  -0.00108253  1
  Fe  Fe45  1  0.00105460  0.74745016  0.74789742  1
  Fe  Fe46  1  0.62347517  0.37205973  0.12350200  1
  Fe  Fe47  1  0.49815469  0.74860593  0.24888456  1
  Fe  Fe48  1  0.87378194  0.12818734  0.12316642  1
  Fe  Fe49  1  0.62232372  0.87462208  0.37589190  1
  Fe  Fe50  1  0.13235944  0.12823537  0.87140427  1
  Fe  Fe51  1  0.87447900  0.62328933  0.37558186  1
  Fe  Fe52  1  0.62170396  0.37271762  0.87374572  1
  Fe  Fe53  1  0.75049656  0.49678037  -0.00061745  1
  Fe  Fe54  1  0.12367591  0.61991374  0.87348288  1
  Fe  Fe55  1  0.87679977  0.87564517  0.62626641  1
  Fe  Fe56  1  0.13020411  0.12662480  0.62871376  1
  Fe  Fe57  1  0.25133750  0.74996700  0.25026060  1
  Fe  Fe58  1  0.37577821  0.12549285  0.37822739  1
  Fe  Fe59  1  0.75409858  0.25217436  0.75251299  1
  Fe  Fe60  1  0.87587889  0.87720151  0.12384002  1
  Fe  Fe61  1  0.62248279  0.87482358  0.62500125  1
  Fe  Fe62  1  0.00171545  0.49653328  0.24818728  1
  Fe  Fe63  1  0.24781732  0.49773745  0.24972584  1
  Fe  Fe64  1  0.37575899  0.87858444  0.12123006  1
  Fe  Fe65  1  0.87555091  0.87806091  0.37546508  1
  Fe  Fe66  1  0.87469816  0.37113352  0.37496358  1
  Fe  Fe67  1  0.25014302  0.50056737  0.50108464  1
  Fe  Fe68  1  0.00187091  0.24584102  0.49803187  1
  Fe  Fe69  1  0.49839646  0.74916166  0.75179281  1
  Fe  Fe70  1  0.75062335  0.75027937  0.25035579  1
  Fe  Fe71  1  0.75341814  0.49672096  0.74701513  1
  Fe  Fe72  1  0.12505443  0.62436138  0.37531080  1
  Fe  Fe73  1  0.62291552  0.12905091  0.87501110  1
  Fe  Fe74  1  0.00037832  0.00694699  0.25305035  1
  Fe  Fe75  1  0.12176937  0.37249702  0.62894274  1
  Fe  Fe76  1  0.62386026  0.87303223  0.87843802  1
  Fe  Fe77  1  0.12322093  0.87592511  0.12529070  1
  Fe  Fe78  1  0.62618277  0.62555028  0.87643836  1
  Fe  Fe79  1  0.25131889  0.74813296  0.50184166  1
  Fe  Fe80  1  0.74947189  0.00040321  -0.00227008  1
  Fe  Fe81  1  0.25193641  0.25120653  0.24977091  1
  Fe  Fe82  1  0.74702608  0.00038935  0.50150177  1
  Fe  Fe83  1  0.62461659  0.12888792  0.12123799  1
  Fe  Fe84  1  0.12667825  0.12977647  0.12477571  1
  Fe  Fe85  1  0.87591820  0.62175592  0.87474984  1
  Fe  Fe86  1  0.12437667  0.87576696  0.37543026  1
  Fe  Fe87  1  0.24841880  0.49470594  0.00027499  1
  Fe  Fe88  1  0.74869763  0.49682170  0.25034124  1
  Fe  Fe89  1  0.37833764  0.37579080  0.37658367  1
  Co  Co90  1  0.50101386  0.24893839  0.50416266  1
  Co  Co91  1  0.49906918  0.74666161  0.50146559  1
  Co  Co92  1  0.37276340  0.12085510  0.87456930  1
  Co  Co93  1  0.37661297  0.37837843  0.62292874  1
  Co  Co94  1  0.25679691  0.25459164  0.74993305  1
  Co  Co95  1  0.37121376  0.12169398  0.62368672  1
  Co  Co96  1  0.62133472  0.37526649  0.37495273  1
  Co  Co97  1  0.25039928  -0.00377123  0.74873456  1
  Co  Co98  1  0.37635075  0.37690478  0.12749918  1
  Co  Co99  1  0.62716128  0.12705695  0.62899706  1
  Co  Co100  1  0.37492218  0.12287556  0.12381646  1
  Co  Co101  1  0.75067462  0.25275889  -0.00419205  1
  Co  Co102  1  0.12302069  0.87583437  0.62408998  1
  Co  Co103  1  0.12427628  0.36910819  0.12424351  1
  Co  Co104  1  0.00084347  0.49778099  0.00333689  1
  Co  Co105  1  0.87274989  0.12307602  0.87560533  1
  Co  Co106  1  0.50345454  0.00310070  -0.00113481  1
  Co  Co107  1  0.24604676  0.00115903  0.00113788  1
  Co  Co108  1  0.49406009  0.25062223  -0.00051651  1
  Co  Co109  1  0.74721116  0.25059840  0.25024010  1
  Co  Co110  1  -0.00219705  0.24682453  0.75334896  1
  Co  Co111  1  0.13168584  0.12530661  0.37531968  1
  Co  Co112  1  0.75416893  0.75032603  -0.00191887  1
  Co  Co113  1  0.12296447  0.37555219  0.87128667  1
  Co  Co114  1  0.86886205  0.12741883  0.37754683  1
  Co  Co115  1  0.37484703  0.62255786  0.37454335  1
  Co  Co116  1  0.62299698  0.37388469  0.62950397  1
  Co  Co117  1  0.87838871  0.87640189  0.87347487  1
  Co  Co118  1  0.87880658  0.37906986  0.87438159  1
  Co  Co119  1  -0.00385131  0.49997398  0.74455800  1
  Co  Co120  1  0.12786710  0.62296457  0.62674644  1
  Co  Co121  1  0.49591317  0.74806903  -0.00133117  1
  Co  Co122  1  0.87154433  0.62780947  0.62469160  1
  Co  Co123  1  0.00055785  0.24684472  0.25430192  1
  Co  Co124  1  0.37430366  0.62407581  0.62786910  1
  Co  Co125  1  0.50256839  0.00377444  0.50182308  1
  Co  Co126  1  0.37848279  0.37783016  0.87317077  1
  Co  Co127  1  0.87778213  0.36846124  0.62292491  1
