# generated using pymatgen
data_Fe45Co19
_symmetry_space_group_name_H-M   'P 1'
_cell_length_a   11.41616891
_cell_length_b   11.41436787
_cell_length_c   11.41552257
_cell_angle_alpha   89.99692857
_cell_angle_beta   89.99761771
_cell_angle_gamma   90.00071567
_symmetry_Int_Tables_number   1
_chemical_formula_structural   Fe45Co19
_chemical_formula_sum   'Fe90 Co38'
_cell_volume   1487.53792463
_cell_formula_units_Z   2
loop_
 _symmetry_equiv_pos_site_id
 _symmetry_equiv_pos_as_xyz
  1  'x, y, z'
loop_
 _atom_site_type_symbol
 _atom_site_label
 _atom_site_symmetry_multiplicity
 _atom_site_fract_x
 _atom_site_fract_y
 _atom_site_fract_z
 _atom_site_occupancy
  Fe  Fe0  1  0.87530558  0.12372695  0.37723530  1
  Fe  Fe1  1  0.62544994  0.37559246  0.37465450  1
  Fe  Fe2  1  0.00022908  -0.00019509  -0.00079308  1
  Fe  Fe3  1  0.62679686  0.12475513  0.12451537  1
  Fe  Fe4  1  -0.00132622  0.74891947  0.25148707  1
  Fe  Fe5  1  0.49573702  0.75368903  0.25144411  1
  Fe  Fe6  1  0.37706776  0.87428475  0.62296914  1
  Fe  Fe7  1  0.49620657  0.74527595  0.75287912  1
  Fe  Fe8  1  0.75186819  0.74821636  0.24717786  1
  Fe  Fe9  1  0.74899738  0.25008409  0.50020625  1
  Fe  Fe10  1  0.37523590  0.37466653  0.12269364  1
  Fe  Fe11  1  0.87362241  0.37634662  0.37611103  1
  Fe  Fe12  1  0.00308520  0.49895359  0.00102659  1
  Fe  Fe13  1  0.25272952  0.25136406  0.25134902  1
  Fe  Fe14  1  0.49877175  0.25029811  0.49959065  1
  Fe  Fe15  1  0.50287817  0.00022557  0.74652307  1
  Fe  Fe16  1  0.50165949  0.25094271  -0.00239846  1
  Fe  Fe17  1  0.00387306  0.50241334  0.49681990  1
  Fe  Fe18  1  0.62813113  0.37914800  0.87190852  1
  Fe  Fe19  1  0.12366980  0.62238749  0.12998320  1
  Fe  Fe20  1  0.87363687  0.62433543  0.87745986  1
  Fe  Fe21  1  0.62277031  0.62464111  0.62730472  1
  Fe  Fe22  1  0.87169332  0.87452250  0.87777900  1
  Fe  Fe23  1  0.12840535  0.37593202  0.37318009  1
  Fe  Fe24  1  0.50071134  0.50053293  0.49760441  1
  Fe  Fe25  1  -0.00011722  -0.00079394  0.25186290  1
  Fe  Fe26  1  0.25247649  0.74488939  0.74630632  1
  Fe  Fe27  1  0.12350534  0.87572712  0.12599475  1
  Fe  Fe28  1  0.62549716  0.62514363  0.37188340  1
  Fe  Fe29  1  0.87220007  0.12421693  0.87555337  1
  Fe  Fe30  1  0.12666351  0.37229144  0.62792599  1
  Fe  Fe31  1  -0.00109910  -0.00131199  0.75064597  1
  Fe  Fe32  1  0.00375138  -0.00132319  0.49842787  1
  Fe  Fe33  1  0.37476390  0.12414364  0.12443785  1
  Fe  Fe34  1  0.12664029  0.87275641  0.87402765  1
  Fe  Fe35  1  -0.00140354  0.25252979  0.25065744  1
  Fe  Fe36  1  0.87435622  0.37848434  0.12562356  1
  Fe  Fe37  1  0.62346441  0.12300072  0.37595496  1
  Fe  Fe38  1  0.62372927  0.37679437  0.62627904  1
  Fe  Fe39  1  0.37576441  0.12318054  0.87575395  1
  Fe  Fe40  1  0.37704240  0.62471683  0.12269457  1
  Fe  Fe41  1  0.50246330  -0.00114587  0.00022365  1
  Fe  Fe42  1  0.24659102  -0.00008920  0.50024699  1
  Fe  Fe43  1  0.62837171  0.12456332  0.87353775  1
  Fe  Fe44  1  0.00023949  0.50001124  0.75055247  1
  Fe  Fe45  1  0.87312864  0.37759806  0.87692345  1
  Fe  Fe46  1  0.37377814  0.87457399  0.87550231  1
  Fe  Fe47  1  0.24925922  -0.00008069  0.74875246  1
  Fe  Fe48  1  0.12189673  0.87017702  0.62606532  1
  Fe  Fe49  1  0.74885754  0.50223351  0.50109659  1
  Fe  Fe50  1  0.24892540  0.74976531  0.00279386  1
  Fe  Fe51  1  0.24746986  0.49909335  0.00177386  1
  Fe  Fe52  1  0.62522705  0.87646992  0.37513218  1
  Fe  Fe53  1  0.49614419  0.49903302  0.25246043  1
  Fe  Fe54  1  0.00459630  0.24893357  0.49945122  1
  Fe  Fe55  1  0.62791163  0.87389135  0.87248685  1
  Fe  Fe56  1  0.24711299  0.50458252  0.50269299  1
  Fe  Fe57  1  -0.00113350  0.74976501  0.00124434  1
  Fe  Fe58  1  0.24810084  0.00120480  -0.00001176  1
  Fe  Fe59  1  0.49959106  0.75096390  0.49785900  1
  Fe  Fe60  1  0.12621014  0.62615194  0.87313259  1
  Fe  Fe61  1  0.13064374  0.87035501  0.37308111  1
  Fe  Fe62  1  0.50263357  0.50243082  -0.00344084  1
  Fe  Fe63  1  0.87431088  0.62316370  0.37384343  1
  Fe  Fe64  1  0.37425668  0.87760166  0.12401508  1
  Fe  Fe65  1  0.12553594  0.12746888  0.12676697  1
  Fe  Fe66  1  0.87668061  0.87201094  0.62209267  1
  Fe  Fe67  1  0.62742553  0.87470351  0.12589892  1
  Fe  Fe68  1  0.74648836  0.50494448  0.00479361  1
  Fe  Fe69  1  0.62375442  0.37640700  0.12727125  1
  Fe  Fe70  1  0.75023166  0.25029443  0.25079534  1
  Fe  Fe71  1  0.87709424  0.12476859  0.62407988  1
  Fe  Fe72  1  0.87288762  0.12372527  0.12461434  1
  Fe  Fe73  1  0.88021710  0.62759594  0.62181653  1
  Fe  Fe74  1  0.37028617  0.62720050  0.37560689  1
  Fe  Fe75  1  0.87147499  0.87553210  0.37579091  1
  Fe  Fe76  1  0.75302353  0.25191787  0.74912929  1
  Fe  Fe77  1  0.49781471  0.25215194  0.75083705  1
  Fe  Fe78  1  0.12739001  0.37229497  0.87215929  1
  Fe  Fe79  1  0.87729884  0.37491252  0.62231305  1
  Fe  Fe80  1  0.50293012  0.74865231  -0.00291070  1
  Fe  Fe81  1  0.74545111  -0.00099693  0.50478711  1
  Fe  Fe82  1  0.75268972  0.74819989  0.74793981  1
  Fe  Fe83  1  0.37386880  0.12490573  0.62310051  1
  Fe  Fe84  1  0.37358322  0.37706344  0.62391053  1
  Fe  Fe85  1  0.37147327  0.37797981  0.87439951  1
  Fe  Fe86  1  0.49855367  0.25011601  0.25169729  1
  Fe  Fe87  1  0.12460301  0.12755085  0.87232478  1
  Fe  Fe88  1  -0.00044029  0.25168147  0.00026545  1
  Fe  Fe89  1  0.37556105  0.12029738  0.37590612  1
  Co  Co90  1  0.87903734  0.62253397  0.12589555  1
  Co  Co91  1  -0.00361700  0.25100474  0.75104829  1
  Co  Co92  1  0.25063391  0.24906124  -0.00118065  1
  Co  Co93  1  0.37993673  0.62255199  0.62147377  1
  Co  Co94  1  0.75005242  -0.00124825  0.74521973  1
  Co  Co95  1  0.62239341  0.86838656  0.62724593  1
  Co  Co96  1  0.49592226  0.50138591  0.75308766  1
  Co  Co97  1  0.12465286  0.12660102  0.37207997  1
  Co  Co98  1  0.00109035  0.74985187  0.49225728  1
  Co  Co99  1  0.87613502  0.87572789  0.12500646  1
  Co  Co100  1  0.74942980  -0.00230638  0.00131101  1
  Co  Co101  1  0.74935031  0.50033033  0.24962148  1
  Co  Co102  1  0.11734045  0.62965665  0.62624260  1
  Co  Co103  1  0.00071611  0.49824676  0.25328233  1
  Co  Co104  1  0.37274896  0.37606390  0.37946496  1
  Co  Co105  1  0.37095009  0.62427649  0.87977178  1
  Co  Co106  1  0.75012986  0.00109340  0.25032762  1
  Co  Co107  1  0.24890275  0.50488706  0.74649347  1
  Co  Co108  1  0.50339802  -0.00106757  0.50308387  1
  Co  Co109  1  0.25348708  0.75039364  0.24522389  1
  Co  Co110  1  0.25423464  0.49901712  0.24884190  1
  Co  Co111  1  0.12363402  0.12598317  0.62793319  1
  Co  Co112  1  0.24989827  0.74813132  0.50499537  1
  Co  Co113  1  0.75522067  0.50149906  0.74480495  1
  Co  Co114  1  -0.00315345  0.75064567  0.75468030  1
  Co  Co115  1  0.37277653  0.87716872  0.37773482  1
  Co  Co116  1  0.25365350  0.24824908  0.75021433  1
  Co  Co117  1  0.62880022  0.62427526  0.87073093  1
  Co  Co118  1  0.24932622  -0.00060623  0.24962053  1
  Co  Co119  1  0.74839710  0.74771328  0.49971735  1
  Co  Co120  1  0.13011925  0.62680408  0.37116855  1
  Co  Co121  1  0.61979906  0.62588958  0.12956954  1
  Co  Co122  1  0.74890518  0.74697832  0.00358110  1
  Co  Co123  1  0.62465891  0.13037867  0.62666691  1
  Co  Co124  1  0.12649314  0.37347236  0.12724672  1
  Co  Co125  1  0.24834953  0.24777546  0.49883664  1
  Co  Co126  1  0.50017280  -0.00145396  0.24862028  1
  Co  Co127  1  0.74911882  0.25251658  0.00053735  1
