# generated using pymatgen
data_Fe45Co19
_symmetry_space_group_name_H-M   'P 1'
_cell_length_a   11.41412835
_cell_length_b   11.41513910
_cell_length_c   11.41447069
_cell_angle_alpha   89.99543523
_cell_angle_beta   90.00011732
_cell_angle_gamma   89.99661962
_symmetry_Int_Tables_number   1
_chemical_formula_structural   Fe45Co19
_chemical_formula_sum   'Fe90 Co38'
_cell_volume   1487.23547096
_cell_formula_units_Z   2
loop_
 _symmetry_equiv_pos_site_id
 _symmetry_equiv_pos_as_xyz
  1  'x, y, z'
loop_
 _atom_site_type_symbol
 _atom_site_label
 _atom_site_symmetry_multiplicity
 _atom_site_fract_x
 _atom_site_fract_y
 _atom_site_fract_z
 _atom_site_occupancy
  Fe  Fe0  1  0.37368902  0.12508654  0.37347225  1
  Fe  Fe1  1  -0.00091051  0.25090488  0.00210751  1
  Fe  Fe2  1  0.24883708  0.49892022  0.25031594  1
  Fe  Fe3  1  0.37534329  0.87144212  0.37919722  1
  Fe  Fe4  1  0.50297219  0.49724666  0.75273828  1
  Fe  Fe5  1  0.62319164  0.87450498  0.62153904  1
  Fe  Fe6  1  0.12570300  0.62611541  0.62700925  1
  Fe  Fe7  1  0.00284600  0.50114597  0.00241409  1
  Fe  Fe8  1  0.00207287  0.50273931  0.49803490  1
  Fe  Fe9  1  0.49886626  0.75274938  0.74738164  1
  Fe  Fe10  1  0.74726827  0.49724528  0.25071108  1
  Fe  Fe11  1  0.75141950  0.00210311  0.49898303  1
  Fe  Fe12  1  0.37382016  0.62734625  0.12946571  1
  Fe  Fe13  1  0.87472242  0.62553240  0.37296670  1
  Fe  Fe14  1  -0.00007129  0.00098815  0.50092749  1
  Fe  Fe15  1  0.87368080  0.37679917  0.87608130  1
  Fe  Fe16  1  0.87533318  0.12641406  0.37297325  1
  Fe  Fe17  1  0.25068103  0.75191001  0.74933721  1
  Fe  Fe18  1  0.75041540  0.25409302  0.74663951  1
  Fe  Fe19  1  0.87603215  0.87461645  0.12157429  1
  Fe  Fe20  1  0.74822168  0.49708554  0.49915402  1
  Fe  Fe21  1  0.37340068  0.87526509  0.87816603  1
  Fe  Fe22  1  0.37516536  0.62572972  0.87167308  1
  Fe  Fe23  1  0.74602838  0.50352399  -0.00347960  1
  Fe  Fe24  1  0.74889677  0.74923346  0.49875476  1
  Fe  Fe25  1  0.00039105  0.75229766  0.75002262  1
  Fe  Fe26  1  0.50005654  0.00298307  -0.00167706  1
  Fe  Fe27  1  0.12556356  0.87613371  0.88179103  1
  Fe  Fe28  1  0.50134521  0.25174963  0.75027717  1
  Fe  Fe29  1  0.37477399  0.37651412  0.12305455  1
  Fe  Fe30  1  0.87441942  0.12510204  0.12728761  1
  Fe  Fe31  1  0.49997339  0.74672240  -0.00091141  1
  Fe  Fe32  1  0.12579032  0.12498684  0.37196338  1
  Fe  Fe33  1  0.87739017  0.12372377  0.86989553  1
  Fe  Fe34  1  0.12584234  0.37545666  0.87740404  1
  Fe  Fe35  1  0.87527101  0.62584841  0.87389408  1
  Fe  Fe36  1  0.74813271  0.74843516  0.00018544  1
  Fe  Fe37  1  0.62491686  0.87404860  0.87639992  1
  Fe  Fe38  1  0.62213792  0.37621358  0.12069149  1
  Fe  Fe39  1  0.12496020  0.37516945  0.62320049  1
  Fe  Fe40  1  0.37482439  0.37555137  0.37482168  1
  Fe  Fe41  1  -0.00063060  0.49813676  0.75006148  1
  Fe  Fe42  1  0.25127310  0.24953404  0.50082418  1
  Fe  Fe43  1  0.12627127  0.12380073  0.12586201  1
  Fe  Fe44  1  0.87515679  0.87523906  0.62396989  1
  Fe  Fe45  1  0.87677318  0.87369050  0.37613896  1
  Fe  Fe46  1  0.87473951  0.37368650  0.37556058  1
  Fe  Fe47  1  0.00236419  0.74551616  0.00119330  1
  Fe  Fe48  1  0.50188650  0.74999989  0.25457776  1
  Fe  Fe49  1  0.00103722  0.25373798  0.24667669  1
  Fe  Fe50  1  0.37497241  0.12265447  0.12763342  1
  Fe  Fe51  1  0.62546128  0.12616710  0.37419795  1
  Fe  Fe52  1  0.49901455  0.25144863  0.24851450  1
  Fe  Fe53  1  0.62650050  0.12499352  0.62489661  1
  Fe  Fe54  1  0.37703918  0.37436335  0.87865783  1
  Fe  Fe55  1  0.37528541  0.12527923  0.87305488  1
  Fe  Fe56  1  0.24907312  -0.00104783  0.75043139  1
  Fe  Fe57  1  0.75011967  0.74986559  0.75064724  1
  Fe  Fe58  1  0.12663601  0.87323064  0.62079465  1
  Fe  Fe59  1  0.12255222  0.12427035  0.87423450  1
  Fe  Fe60  1  0.12689293  0.63324217  0.37160065  1
  Fe  Fe61  1  0.74962770  0.75142151  0.25057512  1
  Fe  Fe62  1  0.74932840  -0.00244426  0.25176468  1
  Fe  Fe63  1  0.25080198  0.49760802  0.74925051  1
  Fe  Fe64  1  0.50015228  0.00031859  0.49872370  1
  Fe  Fe65  1  0.24976123  -0.00777188  0.24871097  1
  Fe  Fe66  1  0.75040486  -0.00301484  0.75114817  1
  Fe  Fe67  1  0.25140518  0.50364177  0.50050732  1
  Fe  Fe68  1  0.50014038  0.25105779  0.50086272  1
  Fe  Fe69  1  -0.00255868  0.24860331  0.50259009  1
  Fe  Fe70  1  0.50054056  -0.00062574  0.75066522  1
  Fe  Fe71  1  0.49821808  0.50359453  0.49695733  1
  Fe  Fe72  1  0.00122257  0.49770314  0.24896788  1
  Fe  Fe73  1  0.24951251  0.00041138  0.49959300  1
  Fe  Fe74  1  0.37502097  0.12446679  0.62604926  1
  Fe  Fe75  1  0.12620298  0.37283918  0.37531161  1
  Fe  Fe76  1  0.87519465  0.62301546  0.12689397  1
  Fe  Fe77  1  0.74815481  0.25310666  0.24966982  1
  Fe  Fe78  1  0.62406392  0.62391548  0.62568808  1
  Fe  Fe79  1  0.62218122  0.87689354  0.12602459  1
  Fe  Fe80  1  0.25029288  0.25208086  0.74915703  1
  Fe  Fe81  1  0.62421330  0.12233512  0.12676334  1
  Fe  Fe82  1  0.87402001  0.62249721  0.62560037  1
  Fe  Fe83  1  0.00245752  -0.00520053  0.24868893  1
  Fe  Fe84  1  0.24927794  0.50570322  0.00011737  1
  Fe  Fe85  1  0.75077233  0.00046637  -0.00200630  1
  Fe  Fe86  1  0.62379622  0.62434851  0.12739684  1
  Fe  Fe87  1  0.12298844  0.12568474  0.62819804  1
  Fe  Fe88  1  0.25081181  0.24753218  0.00107284  1
  Fe  Fe89  1  0.74984853  0.24762254  -0.00057961  1
  Co  Co90  1  0.25518067  0.74533987  0.50420775  1
  Co  Co91  1  0.49928443  0.24523498  0.00151206  1
  Co  Co92  1  0.62730884  0.62438357  0.37497433  1
  Co  Co93  1  0.49887041  0.50531142  -0.00055668  1
  Co  Co94  1  0.00192941  -0.00633362  0.75003264  1
  Co  Co95  1  0.87566780  0.87256280  0.87806504  1
  Co  Co96  1  -0.00282331  0.74708514  0.50170980  1
  Co  Co97  1  0.37533061  0.87782110  0.62321320  1
  Co  Co98  1  0.12451618  0.87038520  0.38069924  1
  Co  Co99  1  0.25166763  0.25081193  0.24931333  1
  Co  Co100  1  0.37089687  0.62689261  0.36994988  1
  Co  Co101  1  -0.00121980  0.75346548  0.24796854  1
  Co  Co102  1  0.49843308  0.74525774  0.49969362  1
  Co  Co103  1  0.87176102  0.37736938  0.12294545  1
  Co  Co104  1  0.75188830  0.24985857  0.50207594  1
  Co  Co105  1  0.37924618  0.87261296  0.12117436  1
  Co  Co106  1  -0.00325865  0.00383529  0.00052246  1
  Co  Co107  1  0.62686519  0.12552666  0.87260025  1
  Co  Co108  1  -0.00032127  0.25505148  0.74937318  1
  Co  Co109  1  0.37609037  0.37617528  0.62382362  1
  Co  Co110  1  0.62272677  0.37382063  0.37560726  1
  Co  Co111  1  0.87618030  0.12256887  0.62954144  1
  Co  Co112  1  0.24895901  0.75924084  0.24676015  1
  Co  Co113  1  0.24960873  0.74427970  -0.00038354  1
  Co  Co114  1  0.50026245  0.49991751  0.25078098  1
  Co  Co115  1  0.87552376  0.37930115  0.62306848  1
  Co  Co116  1  0.62400263  0.37308565  0.87884615  1
  Co  Co117  1  0.62323534  0.62822665  0.87215027  1
  Co  Co118  1  0.25327973  0.00280983  0.00175653  1
  Co  Co119  1  0.62453253  0.87474557  0.37708012  1
  Co  Co120  1  0.12524187  0.62402530  0.87065687  1
  Co  Co121  1  0.62410822  0.37708201  0.62387045  1
  Co  Co122  1  0.12559806  0.62608153  0.13096536  1
  Co  Co123  1  0.12455535  0.87440241  0.11693516  1
  Co  Co124  1  0.74798789  0.50000564  0.75312471  1
  Co  Co125  1  0.12894312  0.37538064  0.12318066  1
  Co  Co126  1  0.37664857  0.62265055  0.62971559  1
  Co  Co127  1  0.49760430  -0.00156939  0.25271548  1
