# generated using pymatgen
data_Fe45Co19
_symmetry_space_group_name_H-M   'P 1'
_cell_length_a   11.41462547
_cell_length_b   11.41379540
_cell_length_c   11.41521705
_cell_angle_alpha   89.99886384
_cell_angle_beta   90.00901494
_cell_angle_gamma   90.00012095
_symmetry_Int_Tables_number   1
_chemical_formula_structural   Fe45Co19
_chemical_formula_sum   'Fe90 Co38'
_cell_volume   1487.22239971
_cell_formula_units_Z   2
loop_
 _symmetry_equiv_pos_site_id
 _symmetry_equiv_pos_as_xyz
  1  'x, y, z'
loop_
 _atom_site_type_symbol
 _atom_site_label
 _atom_site_symmetry_multiplicity
 _atom_site_fract_x
 _atom_site_fract_y
 _atom_site_fract_z
 _atom_site_occupancy
  Fe  Fe0  1  0.62554793  0.37448744  0.87198330  1
  Fe  Fe1  1  0.87649295  0.87630356  0.12488263  1
  Fe  Fe2  1  0.87242166  0.12439788  0.37615038  1
  Fe  Fe3  1  0.62295080  0.87273403  0.87286051  1
  Fe  Fe4  1  0.49982222  0.00214760  0.25111791  1
  Fe  Fe5  1  0.24575369  0.49664236  0.49999525  1
  Fe  Fe6  1  0.88358518  0.37768089  0.12702943  1
  Fe  Fe7  1  0.62589421  0.12726075  0.12524098  1
  Fe  Fe8  1  0.12543151  0.87346096  0.37409403  1
  Fe  Fe9  1  0.87766235  0.87439590  0.87536380  1
  Fe  Fe10  1  0.49925872  0.24812581  0.50053106  1
  Fe  Fe11  1  0.75428442  0.25386024  0.00004306  1
  Fe  Fe12  1  0.24727666  0.74800443  0.00051764  1
  Fe  Fe13  1  0.74848994  -0.00230600  -0.00055183  1
  Fe  Fe14  1  0.37442741  0.62009592  0.87707160  1
  Fe  Fe15  1  0.37383445  0.12445923  0.62560616  1
  Fe  Fe16  1  0.49941757  0.00260409  0.49823089  1
  Fe  Fe17  1  0.25064064  0.74810544  0.24754623  1
  Fe  Fe18  1  0.75196721  0.74743685  -0.00164504  1
  Fe  Fe19  1  0.87877968  0.37663088  0.86987666  1
  Fe  Fe20  1  -0.00021275  0.00194268  0.25164908  1
  Fe  Fe21  1  0.24710888  -0.00079890  0.75203409  1
  Fe  Fe22  1  0.62394340  0.62595474  0.62667491  1
  Fe  Fe23  1  0.12372046  0.62486011  0.87400691  1
  Fe  Fe24  1  0.25043191  0.74951742  0.75011089  1
  Fe  Fe25  1  0.25135941  0.25221389  0.50200031  1
  Fe  Fe26  1  0.75364402  0.25097310  0.24881008  1
  Fe  Fe27  1  0.11948187  0.37235960  0.87360617  1
  Fe  Fe28  1  0.50035468  0.74966743  0.50111016  1
  Fe  Fe29  1  0.62685502  0.37405693  0.37484895  1
  Fe  Fe30  1  0.74915883  0.75096027  0.74768046  1
  Fe  Fe31  1  0.75138129  0.25215139  0.50372707  1
  Fe  Fe32  1  0.50049079  0.49950800  0.25027592  1
  Fe  Fe33  1  0.62202030  0.37299645  0.62776326  1
  Fe  Fe34  1  0.37318400  0.61783035  0.12210135  1
  Fe  Fe35  1  0.37615055  0.87672099  0.62547141  1
  Fe  Fe36  1  0.00203260  0.00080509  0.49911952  1
  Fe  Fe37  1  0.88042655  0.37582362  0.62678407  1
  Fe  Fe38  1  0.62842146  0.62323889  0.12410626  1
  Fe  Fe39  1  0.37465340  0.87399058  0.87666441  1
  Fe  Fe40  1  0.74924386  0.49841405  0.50391831  1
  Fe  Fe41  1  0.37349395  0.62162215  0.62462634  1
  Fe  Fe42  1  0.75402073  0.49908539  0.25133364  1
  Fe  Fe43  1  0.24970668  0.25498061  0.24639172  1
  Fe  Fe44  1  0.12279296  0.87452570  0.12376848  1
  Fe  Fe45  1  0.24562552  0.49727338  0.74801333  1
  Fe  Fe46  1  0.12541641  0.12722731  0.62545090  1
  Fe  Fe47  1  0.50034128  0.00154424  0.75146844  1
  Fe  Fe48  1  0.37533657  0.87496200  0.12253978  1
  Fe  Fe49  1  0.49910584  0.25345378  -0.00082199  1
  Fe  Fe50  1  0.37667103  0.12765298  0.12517200  1
  Fe  Fe51  1  0.50071437  0.74578751  -0.00013536  1
  Fe  Fe52  1  0.37632933  0.37405677  0.37537446  1
  Fe  Fe53  1  0.37230130  0.12864598  0.87561987  1
  Fe  Fe54  1  0.12433999  0.87543698  0.62667195  1
  Fe  Fe55  1  0.75384732  0.75029364  0.25146935  1
  Fe  Fe56  1  0.00392811  0.50044241  0.49605841  1
  Fe  Fe57  1  -0.00281401  0.74624625  0.25230793  1
  Fe  Fe58  1  0.62737019  0.12770935  0.37289007  1
  Fe  Fe59  1  0.37243629  0.62369899  0.37608715  1
  Fe  Fe60  1  0.24890301  0.25788512  0.00322896  1
  Fe  Fe61  1  0.12314107  0.61702396  0.12766853  1
  Fe  Fe62  1  0.87604770  0.62213369  0.62555469  1
  Fe  Fe63  1  0.49849904  0.74731310  0.24940952  1
  Fe  Fe64  1  0.62885844  0.62500347  0.37610332  1
  Fe  Fe65  1  0.12297338  0.12903904  0.12323358  1
  Fe  Fe66  1  0.00243594  0.00384360  -0.00426263  1
  Fe  Fe67  1  0.75436867  0.50159127  -0.00375265  1
  Fe  Fe68  1  0.25147980  0.25467155  0.74798884  1
  Fe  Fe69  1  0.00029008  0.00646624  0.75382766  1
  Fe  Fe70  1  0.37327858  0.87645118  0.37544703  1
  Fe  Fe71  1  0.87621496  0.87781201  0.62523810  1
  Fe  Fe72  1  -0.00103785  0.24919453  0.49824493  1
  Fe  Fe73  1  0.24932687  0.75136310  0.50216821  1
  Fe  Fe74  1  0.50106016  0.00194668  -0.00092562  1
  Fe  Fe75  1  -0.00117216  0.74904102  0.49878806  1
  Fe  Fe76  1  0.50054802  0.49972928  0.75105700  1
  Fe  Fe77  1  -0.00100769  0.74493979  0.00073902  1
  Fe  Fe78  1  0.62934379  0.12859994  0.87282430  1
  Fe  Fe79  1  0.62820991  0.12499807  0.62869493  1
  Fe  Fe80  1  0.62666358  0.87343285  0.37519280  1
  Fe  Fe81  1  0.24769682  -0.00002978  -0.00039545  1
  Fe  Fe82  1  0.62515063  0.37592440  0.12514455  1
  Fe  Fe83  1  0.00121327  0.74814520  0.74861476  1
  Fe  Fe84  1  0.74914157  -0.00277516  0.50079175  1
  Fe  Fe85  1  0.87522487  0.12396779  0.12282480  1
  Fe  Fe86  1  0.62471771  0.87422079  0.12660851  1
  Fe  Fe87  1  0.12851644  0.12692143  0.37532540  1
  Fe  Fe88  1  0.24955175  0.00058063  0.24855206  1
  Fe  Fe89  1  0.50155211  0.49972582  0.49951071  1
  Co  Co90  1  0.37756404  0.37777462  0.62407576  1
  Co  Co91  1  -0.00392276  0.24324774  0.75112512  1
  Co  Co92  1  0.12473240  0.37172925  0.37271442  1
  Co  Co93  1  0.24972423  0.49655483  0.25200183  1
  Co  Co94  1  0.49808191  0.24914117  0.74974569  1
  Co  Co95  1  0.87511285  0.62216176  0.12654887  1
  Co  Co96  1  -0.00255363  0.50341621  -0.00402482  1
  Co  Co97  1  0.87463586  0.62547148  0.86858017  1
  Co  Co98  1  0.75048327  0.00057164  0.24943638  1
  Co  Co99  1  0.12284144  0.87254094  0.87539599  1
  Co  Co100  1  -0.00136988  0.50220897  0.25937493  1
  Co  Co101  1  0.37673801  0.37769216  0.87417992  1
  Co  Co102  1  0.75134416  -0.00260961  0.75105873  1
  Co  Co103  1  0.74872135  0.49849385  0.74848256  1
  Co  Co104  1  0.86842530  0.12504150  0.87733154  1
  Co  Co105  1  0.24840024  -0.00046101  0.50085593  1
  Co  Co106  1  -0.00231715  0.24706739  0.25314915  1
  Co  Co107  1  0.12546311  0.62620948  0.62319535  1
  Co  Co108  1  0.87353100  0.12319295  0.62269923  1
  Co  Co109  1  0.62235355  0.87631438  0.62549670  1
  Co  Co110  1  0.13052876  0.13094626  0.87552572  1
  Co  Co111  1  0.75052566  0.75059799  0.50437670  1
  Co  Co112  1  0.87498190  0.87626370  0.37559221  1
  Co  Co113  1  0.50481129  0.49870579  -0.00061272  1
  Co  Co114  1  -0.00197976  0.24847412  -0.00261670  1
  Co  Co115  1  0.62577634  0.62463140  0.87322099  1
  Co  Co116  1  0.11950677  0.37143224  0.62516324  1
  Co  Co117  1  0.11518817  0.37834452  0.12728800  1
  Co  Co118  1  0.87315620  0.37481248  0.37753784  1
  Co  Co119  1  0.49716047  0.74783303  0.74972133  1
  Co  Co120  1  0.50042223  0.25231987  0.25011259  1
  Co  Co121  1  0.37748245  0.37966130  0.12419360  1
  Co  Co122  1  0.75520519  0.25206120  0.74709266  1
  Co  Co123  1  0.37149356  0.12739705  0.37362081  1
  Co  Co124  1  0.24400243  0.49398454  -0.00158388  1
  Co  Co125  1  0.00494577  0.50184122  0.74876277  1
  Co  Co126  1  0.12812130  0.62787210  0.37519885  1
  Co  Co127  1  0.87073788  0.62354052  0.37984217  1
