# generated using pymatgen
data_Fe45Co19
_symmetry_space_group_name_H-M   'P 1'
_cell_length_a   11.41585233
_cell_length_b   11.41413241
_cell_length_c   11.41657461
_cell_angle_alpha   89.99813112
_cell_angle_beta   90.00198910
_cell_angle_gamma   90.00658381
_symmetry_Int_Tables_number   1
_chemical_formula_structural   Fe45Co19
_chemical_formula_sum   'Fe90 Co38'
_cell_volume   1487.60306540
_cell_formula_units_Z   2
loop_
 _symmetry_equiv_pos_site_id
 _symmetry_equiv_pos_as_xyz
  1  'x, y, z'
loop_
 _atom_site_type_symbol
 _atom_site_label
 _atom_site_symmetry_multiplicity
 _atom_site_fract_x
 _atom_site_fract_y
 _atom_site_fract_z
 _atom_site_occupancy
  Fe  Fe0  1  0.12592141  0.12701863  0.12550024  1
  Fe  Fe1  1  0.49919042  0.00064065  0.25120475  1
  Fe  Fe2  1  0.75312628  0.75224267  0.00153483  1
  Fe  Fe3  1  0.62522086  0.12754126  0.87346774  1
  Fe  Fe4  1  0.12197751  0.12957626  0.87201259  1
  Fe  Fe5  1  0.74913294  0.25227377  -0.00169574  1
  Fe  Fe6  1  0.87455711  0.37493653  0.12306373  1
  Fe  Fe7  1  0.74958789  0.25115641  0.25065931  1
  Fe  Fe8  1  0.87500766  0.37615962  0.37848805  1
  Fe  Fe9  1  0.25083004  0.25066189  0.50343164  1
  Fe  Fe10  1  0.24884918  -0.00156543  0.25265565  1
  Fe  Fe11  1  0.37678104  0.37583094  0.12397184  1
  Fe  Fe12  1  0.62422316  0.12628424  0.12671471  1
  Fe  Fe13  1  0.00009934  0.00025843  0.25117529  1
  Fe  Fe14  1  0.00194938  0.74973548  0.25086099  1
  Fe  Fe15  1  0.25049777  0.75028854  0.74960482  1
  Fe  Fe16  1  0.50046281  0.00167772  0.74770816  1
  Fe  Fe17  1  0.25002245  0.25155828  -0.00167263  1
  Fe  Fe18  1  0.37859814  0.37744636  0.37910176  1
  Fe  Fe19  1  0.62494746  0.38239321  0.62911687  1
  Fe  Fe20  1  0.37449147  0.87469529  0.62348609  1
  Fe  Fe21  1  0.24831161  0.00029373  0.74927960  1
  Fe  Fe22  1  0.74943212  0.00016821  0.49830907  1
  Fe  Fe23  1  0.62149103  0.62481625  0.37243187  1
  Fe  Fe24  1  0.25161022  0.25349543  0.25105265  1
  Fe  Fe25  1  0.25215251  0.49804541  0.75015538  1
  Fe  Fe26  1  0.87219532  0.12730099  0.62416599  1
  Fe  Fe27  1  0.24567019  0.74452359  0.49748802  1
  Fe  Fe28  1  0.62477792  0.62647293  0.12583340  1
  Fe  Fe29  1  0.00301758  0.74432599  0.49991499  1
  Fe  Fe30  1  0.50104092  0.74638959  0.50018741  1
  Fe  Fe31  1  0.12316089  0.87551745  0.12347833  1
  Fe  Fe32  1  0.00009946  0.49659063  0.24924081  1
  Fe  Fe33  1  0.87728609  0.12865043  0.87500326  1
  Fe  Fe34  1  0.37420689  0.62567560  0.87676123  1
  Fe  Fe35  1  0.74900650  0.74768142  0.49759950  1
  Fe  Fe36  1  0.62277732  0.37373792  0.12524811  1
  Fe  Fe37  1  0.37373374  0.62366507  0.62368844  1
  Fe  Fe38  1  -0.00345440  0.74913753  0.74695305  1
  Fe  Fe39  1  0.24896378  0.00086017  -0.00316319  1
  Fe  Fe40  1  0.37924528  0.37646197  0.62527106  1
  Fe  Fe41  1  0.12693247  0.37898060  0.37584253  1
  Fe  Fe42  1  0.50255875  0.00457252  0.50242913  1
  Fe  Fe43  1  0.12113397  0.37329790  0.87418448  1
  Fe  Fe44  1  0.37590992  0.87494505  0.87347047  1
  Fe  Fe45  1  0.12382325  0.62382672  0.87115821  1
  Fe  Fe46  1  0.00143948  0.50082262  0.00208699  1
  Fe  Fe47  1  0.49926023  0.75062590  0.00070199  1
  Fe  Fe48  1  0.62433029  0.87463440  0.37339888  1
  Fe  Fe49  1  0.62503057  0.87287647  0.87384671  1
  Fe  Fe50  1  0.37465921  0.87314430  0.37638556  1
  Fe  Fe51  1  0.37350679  0.87430128  0.12558134  1
  Fe  Fe52  1  0.24903296  0.00123737  0.50078433  1
  Fe  Fe53  1  0.74817756  0.49932832  0.25175906  1
  Fe  Fe54  1  0.37737646  0.12766972  0.37745741  1
  Fe  Fe55  1  0.74439551  0.25181392  0.49956491  1
  Fe  Fe56  1  0.62642816  0.87427190  0.62480031  1
  Fe  Fe57  1  -0.00501260  0.49649686  0.74697784  1
  Fe  Fe58  1  0.12064086  0.87283248  0.87561297  1
  Fe  Fe59  1  0.75296555  0.25685882  0.75118340  1
  Fe  Fe60  1  0.00095858  0.25257519  0.24978448  1
  Fe  Fe61  1  0.87379233  0.12819713  0.37599521  1
  Fe  Fe62  1  0.75368422  -0.00403162  0.75132143  1
  Fe  Fe63  1  0.87311066  0.62436553  0.12704933  1
  Fe  Fe64  1  0.87003506  0.61889417  0.62171775  1
  Fe  Fe65  1  0.37587329  0.12790848  0.87141167  1
  Fe  Fe66  1  -0.00219461  -0.00041504  0.74800249  1
  Fe  Fe67  1  0.61925825  0.37426876  0.37283649  1
  Fe  Fe68  1  0.00030273  0.25169188  0.50268617  1
  Fe  Fe69  1  0.74784288  0.49776482  -0.00345706  1
  Fe  Fe70  1  0.12528080  0.12634916  0.37635271  1
  Fe  Fe71  1  0.38050640  0.37233638  0.87191602  1
  Fe  Fe72  1  0.87638938  0.87331377  0.37552490  1
  Fe  Fe73  1  0.75142677  0.74907785  0.74926799  1
  Fe  Fe74  1  0.62563693  0.87381883  0.12780341  1
  Fe  Fe75  1  0.87598420  0.12637863  0.12492282  1
  Fe  Fe76  1  0.50173768  0.50126745  -0.00157680  1
  Fe  Fe77  1  0.87495368  0.62453327  0.87662337  1
  Fe  Fe78  1  0.75312647  -0.00195965  -0.00030106  1
  Fe  Fe79  1  0.50085156  0.74638643  0.74863656  1
  Fe  Fe80  1  0.12418354  0.87412077  0.62304759  1
  Fe  Fe81  1  0.87657305  0.62136261  0.37503996  1
  Fe  Fe82  1  0.12927630  0.62258575  0.12862393  1
  Fe  Fe83  1  0.24827666  0.74983265  -0.00017069  1
  Fe  Fe84  1  0.50028273  0.00099242  -0.00090153  1
  Fe  Fe85  1  -0.00111896  0.00107639  0.50088306  1
  Fe  Fe86  1  0.24938352  0.49838217  -0.00126314  1
  Fe  Fe87  1  0.75227802  -0.00081278  0.25058011  1
  Fe  Fe88  1  0.37399568  0.12544598  0.12556733  1
  Fe  Fe89  1  0.12507070  0.37589928  0.62563815  1
  Co  Co90  1  0.50445873  0.24774530  0.50512607  1
  Co  Co91  1  0.12411454  0.87566036  0.37765581  1
  Co  Co92  1  0.62694716  0.62822490  0.87669769  1
  Co  Co93  1  0.62935747  0.62197352  0.62597720  1
  Co  Co94  1  0.37329941  0.62227118  0.37543148  1
  Co  Co95  1  0.87930559  0.37525727  0.88034483  1
  Co  Co96  1  0.50150630  0.50277519  0.50093555  1
  Co  Co97  1  0.00084212  0.74495758  0.00222742  1
  Co  Co98  1  0.24959564  0.25205059  0.74793629  1
  Co  Co99  1  0.61919008  0.37326646  0.87265019  1
  Co  Co100  1  0.24864298  0.50166484  0.50339551  1
  Co  Co101  1  0.75137934  0.49857091  0.75705883  1
  Co  Co102  1  0.87437819  0.87308813  0.62062967  1
  Co  Co103  1  0.62484521  0.12560789  0.37172895  1
  Co  Co104  1  0.37201620  0.12476163  0.62549405  1
  Co  Co105  1  0.50251034  0.24709418  0.74403817  1
  Co  Co106  1  0.25002178  0.75143731  0.25202769  1
  Co  Co107  1  -0.00418183  0.25403249  0.74455087  1
  Co  Co108  1  0.12550900  0.62290738  0.63109247  1
  Co  Co109  1  0.87777641  0.87394820  0.12606119  1
  Co  Co110  1  0.37323077  0.62471922  0.12294169  1
  Co  Co111  1  0.87866165  0.87209310  0.87774258  1
  Co  Co112  1  0.00093529  0.25013594  0.00332376  1
  Co  Co113  1  0.12436637  0.12510293  0.62527543  1
  Co  Co114  1  0.49969519  0.24812342  0.00138157  1
  Co  Co115  1  0.49918321  0.50190804  0.24820591  1
  Co  Co116  1  0.00413270  0.50109100  0.50193610  1
  Co  Co117  1  0.50007693  0.50713272  0.75223392  1
  Co  Co118  1  0.25503404  0.49793122  0.24968587  1
  Co  Co119  1  0.75100342  0.74894932  0.25208974  1
  Co  Co120  1  0.12659739  0.37537473  0.12497464  1
  Co  Co121  1  0.74449058  0.49975180  0.49340398  1
  Co  Co122  1  0.49734569  0.24960372  0.24961801  1
  Co  Co123  1  0.12627413  0.61806968  0.36977119  1
  Co  Co124  1  0.86985994  0.37938777  0.61830217  1
  Co  Co125  1  0.49710148  0.74872461  0.25024395  1
  Co  Co126  1  0.63193774  0.12303008  0.62889186  1
  Co  Co127  1  -0.00098832  0.00281048  -0.00116113  1
