# generated using pymatgen
data_Fe45Co19
_symmetry_space_group_name_H-M   'P 1'
_cell_length_a   11.41535237
_cell_length_b   11.41497205
_cell_length_c   11.41522842
_cell_angle_alpha   90.01588104
_cell_angle_beta   89.99312706
_cell_angle_gamma   90.00506318
_symmetry_Int_Tables_number   1
_chemical_formula_structural   Fe45Co19
_chemical_formula_sum   'Fe90 Co38'
_cell_volume   1487.47186185
_cell_formula_units_Z   2
loop_
 _symmetry_equiv_pos_site_id
 _symmetry_equiv_pos_as_xyz
  1  'x, y, z'
loop_
 _atom_site_type_symbol
 _atom_site_label
 _atom_site_symmetry_multiplicity
 _atom_site_fract_x
 _atom_site_fract_y
 _atom_site_fract_z
 _atom_site_occupancy
  Fe  Fe0  1  0.62668161  0.12522828  0.12577975  1
  Fe  Fe1  1  0.87457826  0.37462204  0.87463538  1
  Fe  Fe2  1  0.37725804  0.12755519  0.62271323  1
  Fe  Fe3  1  0.75166182  0.24883268  0.49740144  1
  Fe  Fe4  1  0.50130480  0.74938370  0.00015954  1
  Fe  Fe5  1  0.00072249  0.50261818  0.24961594  1
  Fe  Fe6  1  0.12401326  0.62552430  0.12433629  1
  Fe  Fe7  1  0.49809128  0.49604344  0.49676638  1
  Fe  Fe8  1  0.74981203  -0.00169299  0.24788265  1
  Fe  Fe9  1  0.75077026  0.25041730  0.00136957  1
  Fe  Fe10  1  0.37635400  0.87590780  0.87488118  1
  Fe  Fe11  1  0.87096214  0.62764144  0.87518743  1
  Fe  Fe12  1  0.50206183  -0.00062330  0.00202651  1
  Fe  Fe13  1  0.24863576  -0.00001877  0.00131144  1
  Fe  Fe14  1  0.62431696  0.37458257  0.62394061  1
  Fe  Fe15  1  0.12627066  0.37730988  0.37512988  1
  Fe  Fe16  1  0.62201246  0.87426205  0.37153755  1
  Fe  Fe17  1  0.12378261  0.12758412  0.62213293  1
  Fe  Fe18  1  0.87524587  0.12512392  0.12717641  1
  Fe  Fe19  1  0.62561792  0.37766398  0.87858370  1
  Fe  Fe20  1  0.24876029  0.25324066  0.75076061  1
  Fe  Fe21  1  0.12539447  0.87570721  0.87451741  1
  Fe  Fe22  1  0.87459329  0.62814267  0.62435367  1
  Fe  Fe23  1  0.37370644  0.62012522  0.37392589  1
  Fe  Fe24  1  0.24734882  0.25061673  0.24810437  1
  Fe  Fe25  1  0.74765219  -0.00239777  0.74646987  1
  Fe  Fe26  1  0.87150399  0.87510066  0.87494100  1
  Fe  Fe27  1  0.37569140  0.12714377  0.37705008  1
  Fe  Fe28  1  0.12706421  0.62628264  0.37808555  1
  Fe  Fe29  1  0.74931355  0.75319923  0.00480844  1
  Fe  Fe30  1  0.74894140  0.24985722  0.74930302  1
  Fe  Fe31  1  0.50148230  0.25053588  0.75107992  1
  Fe  Fe32  1  0.00091411  -0.00103169  0.74821907  1
  Fe  Fe33  1  -0.00083388  0.75036482  -0.00061270  1
  Fe  Fe34  1  -0.00236036  0.50021634  0.00072542  1
  Fe  Fe35  1  -0.00319953  0.74728732  0.25165620  1
  Fe  Fe36  1  0.50054989  0.25232626  0.00138049  1
  Fe  Fe37  1  0.37789951  0.87535005  0.12769199  1
  Fe  Fe38  1  0.25020892  0.49768818  0.00154163  1
  Fe  Fe39  1  0.00203170  0.00141501  0.25203681  1
  Fe  Fe40  1  0.00184390  0.24897037  0.00025371  1
  Fe  Fe41  1  0.87559687  0.12433960  0.62003102  1
  Fe  Fe42  1  0.50261774  -0.00102294  0.74873114  1
  Fe  Fe43  1  0.25102872  0.74869558  0.25027403  1
  Fe  Fe44  1  0.62417617  0.62582360  0.62222975  1
  Fe  Fe45  1  0.87342187  0.37727497  0.37379464  1
  Fe  Fe46  1  0.24961144  -0.00302604  0.49927124  1
  Fe  Fe47  1  0.87383072  0.37514555  0.12756872  1
  Fe  Fe48  1  0.62388141  0.12441005  0.62024625  1
  Fe  Fe49  1  0.37676765  0.87584714  0.37172161  1
  Fe  Fe50  1  0.50140087  0.50019104  0.75315293  1
  Fe  Fe51  1  0.37487636  0.62399978  0.87536155  1
  Fe  Fe52  1  0.24625367  0.25212332  0.00000502  1
  Fe  Fe53  1  0.00006016  0.00138604  0.00002787  1
  Fe  Fe54  1  0.87546113  0.87249889  0.62402545  1
  Fe  Fe55  1  0.87528579  0.37369923  0.62426381  1
  Fe  Fe56  1  0.50484195  0.75006471  0.75261882  1
  Fe  Fe57  1  0.37370852  0.12578042  0.12455468  1
  Fe  Fe58  1  0.62693185  0.37552771  0.37375245  1
  Fe  Fe59  1  0.74960096  0.50148697  0.75018603  1
  Fe  Fe60  1  0.00058757  0.24969870  0.75030318  1
  Fe  Fe61  1  0.25081137  0.75117767  0.00131348  1
  Fe  Fe62  1  0.62616209  0.12226579  0.37615356  1
  Fe  Fe63  1  0.24975987  0.49700416  0.74758537  1
  Fe  Fe64  1  0.24993781  0.74973230  0.75042073  1
  Fe  Fe65  1  0.12417244  0.87017122  0.62188733  1
  Fe  Fe66  1  -0.00038992  0.24965286  0.25246983  1
  Fe  Fe67  1  -0.00076237  0.50209037  0.74963946  1
  Fe  Fe68  1  0.37707652  0.87392285  0.62525864  1
  Fe  Fe69  1  0.00012101  0.50033094  0.50079125  1
  Fe  Fe70  1  0.37403310  0.12525013  0.87528345  1
  Fe  Fe71  1  0.25170130  0.25667681  0.50141191  1
  Fe  Fe72  1  0.75063265  0.75006257  0.49656461  1
  Fe  Fe73  1  0.12487753  0.12547790  0.37749233  1
  Fe  Fe74  1  0.75020312  0.50064513  0.50057800  1
  Fe  Fe75  1  0.24928154  0.00020445  0.74813460  1
  Fe  Fe76  1  0.74850622  0.50313566  0.24878552  1
  Fe  Fe77  1  0.37609166  0.37725953  0.12879112  1
  Fe  Fe78  1  0.62684879  0.12263990  0.87632278  1
  Fe  Fe79  1  0.37577046  0.62273983  0.12664649  1
  Fe  Fe80  1  0.49750922  0.74998405  0.49694760  1
  Fe  Fe81  1  0.12591087  0.62417863  0.87539446  1
  Fe  Fe82  1  0.12364666  0.87477579  0.12767113  1
  Fe  Fe83  1  0.50231882  0.25052614  0.25094248  1
  Fe  Fe84  1  0.62566001  0.62472886  0.12609509  1
  Fe  Fe85  1  0.87645317  0.87697718  0.37467380  1
  Fe  Fe86  1  0.12552952  0.62788008  0.62204983  1
  Fe  Fe87  1  0.37583227  0.62415245  0.62432238  1
  Fe  Fe88  1  0.87307589  0.12294050  0.87414586  1
  Fe  Fe89  1  0.24975592  0.00095272  0.25044768  1
  Co  Co90  1  0.74974253  -0.00051226  0.00489428  1
  Co  Co91  1  0.24703934  0.50205976  0.24877165  1
  Co  Co92  1  0.62333856  0.87179805  0.62029226  1
  Co  Co93  1  0.00280696  -0.00142448  0.50008003  1
  Co  Co94  1  0.75243824  0.49928215  0.00147111  1
  Co  Co95  1  0.50145118  0.25273530  0.49625693  1
  Co  Co96  1  0.12317035  0.37655042  0.87489706  1
  Co  Co97  1  0.25148535  0.49710157  0.50281023  1
  Co  Co98  1  0.49817417  -0.00104409  0.49922888  1
  Co  Co99  1  0.37951708  0.37412975  0.62715738  1
  Co  Co100  1  0.49869923  0.74490373  0.25081303  1
  Co  Co101  1  0.87385284  0.62523760  0.12540356  1
  Co  Co102  1  0.62141922  0.87337572  0.12998031  1
  Co  Co103  1  0.62556192  0.62557820  0.37650923  1
  Co  Co104  1  0.12591546  0.12473840  0.87403443  1
  Co  Co105  1  0.12486292  0.87188383  0.37306835  1
  Co  Co106  1  0.75264891  0.74960668  0.25150263  1
  Co  Co107  1  0.74609793  0.75031030  0.74867189  1
  Co  Co108  1  0.74930383  -0.00272991  0.49966058  1
  Co  Co109  1  0.37526407  0.37474740  0.87534770  1
  Co  Co110  1  0.12411177  0.12377165  0.12585061  1
  Co  Co111  1  0.87817375  0.87556832  0.12673059  1
  Co  Co112  1  -0.00296509  0.74930872  0.49669509  1
  Co  Co113  1  0.74948349  0.24892117  0.25152284  1
  Co  Co114  1  0.49873958  0.50083994  0.00105658  1
  Co  Co115  1  0.62653944  0.37647523  0.12449999  1
  Co  Co116  1  0.00007005  0.74952563  0.75236532  1
  Co  Co117  1  0.37339909  0.37596290  0.36966086  1
  Co  Co118  1  0.12257447  0.37617998  0.12574270  1
  Co  Co119  1  0.62810461  0.62437659  0.87827386  1
  Co  Co120  1  0.49861401  0.00515622  0.24946224  1
  Co  Co121  1  -0.00290694  0.25153055  0.49569238  1
  Co  Co122  1  0.25445865  0.75096393  0.49813811  1
  Co  Co123  1  0.87374919  0.62158669  0.37584058  1
  Co  Co124  1  0.62718969  0.87662678  0.87699736  1
  Co  Co125  1  0.12115484  0.37429129  0.62485447  1
  Co  Co126  1  0.50345210  0.49950014  0.25122393  1
  Co  Co127  1  0.87413755  0.12149880  0.37533976  1
