# generated using pymatgen
data_Fe45Co19
_symmetry_space_group_name_H-M   'P 1'
_cell_length_a   11.41411766
_cell_length_b   11.41555223
_cell_length_c   11.41607976
_cell_angle_alpha   89.99525362
_cell_angle_beta   90.01344618
_cell_angle_gamma   89.99842039
_symmetry_Int_Tables_number   1
_chemical_formula_structural   Fe45Co19
_chemical_formula_sum   'Fe90 Co38'
_cell_volume   1487.49752382
_cell_formula_units_Z   2
loop_
 _symmetry_equiv_pos_site_id
 _symmetry_equiv_pos_as_xyz
  1  'x, y, z'
loop_
 _atom_site_type_symbol
 _atom_site_label
 _atom_site_symmetry_multiplicity
 _atom_site_fract_x
 _atom_site_fract_y
 _atom_site_fract_z
 _atom_site_occupancy
  Fe  Fe0  1  0.62505810  0.37203178  0.12490903  1
  Fe  Fe1  1  0.50208530  0.00160485  0.50094550  1
  Fe  Fe2  1  0.75263671  0.75104600  0.49684548  1
  Fe  Fe3  1  0.62542488  0.62806130  0.12541794  1
  Fe  Fe4  1  0.25013844  -0.00093630  0.00256543  1
  Fe  Fe5  1  -0.00131748  0.75137538  0.75142544  1
  Fe  Fe6  1  0.50478684  0.49976986  0.74946324  1
  Fe  Fe7  1  0.00380235  0.49834424  0.24708315  1
  Fe  Fe8  1  0.49912648  0.74909683  0.25270566  1
  Fe  Fe9  1  -0.01181739  0.24711138  0.49682778  1
  Fe  Fe10  1  0.24961373  0.75423178  0.25482077  1
  Fe  Fe11  1  0.62712541  0.36982846  0.87565852  1
  Fe  Fe12  1  0.00124257  0.49953550  0.00217639  1
  Fe  Fe13  1  -0.00245588  0.25027160  0.74813045  1
  Fe  Fe14  1  0.24983820  0.75128699  0.75008192  1
  Fe  Fe15  1  0.74914200  0.50045145  -0.00044947  1
  Fe  Fe16  1  0.37500690  0.12222422  0.87218261  1
  Fe  Fe17  1  0.12021120  0.12555966  0.37257942  1
  Fe  Fe18  1  0.62619122  0.12913854  0.12425944  1
  Fe  Fe19  1  0.75191037  0.74801172  -0.00153730  1
  Fe  Fe20  1  0.12550890  0.12710170  0.87682868  1
  Fe  Fe21  1  0.49806266  0.74873686  0.49834357  1
  Fe  Fe22  1  0.37136783  0.12735714  0.12792942  1
  Fe  Fe23  1  0.50261045  0.00143385  0.74812447  1
  Fe  Fe24  1  0.24530897  0.49598051  0.74702521  1
  Fe  Fe25  1  0.87303454  0.62177798  0.87204371  1
  Fe  Fe26  1  0.50075421  0.49974762  0.25036399  1
  Fe  Fe27  1  0.87567793  0.87834235  0.62369136  1
  Fe  Fe28  1  0.24735128  -0.00106123  0.74828315  1
  Fe  Fe29  1  0.00073158  0.50186327  0.50177620  1
  Fe  Fe30  1  0.62431353  0.87446755  0.87732284  1
  Fe  Fe31  1  -0.00181037  0.24932639  0.00158455  1
  Fe  Fe32  1  0.49901183  0.25111746  0.25283330  1
  Fe  Fe33  1  0.00271849  0.00019508  0.74869983  1
  Fe  Fe34  1  0.25427204  0.75245780  -0.00119053  1
  Fe  Fe35  1  0.37493222  0.62534160  0.12588436  1
  Fe  Fe36  1  0.50144318  0.50101901  0.00002119  1
  Fe  Fe37  1  0.62440308  0.87157021  0.12464512  1
  Fe  Fe38  1  0.37682194  0.37692328  0.37784033  1
  Fe  Fe39  1  0.24633005  0.50162599  0.50282626  1
  Fe  Fe40  1  0.62943839  0.12945092  0.62164147  1
  Fe  Fe41  1  0.62849800  0.62763177  0.62570061  1
  Fe  Fe42  1  0.87405248  0.12614905  0.13153766  1
  Fe  Fe43  1  0.24750162  -0.00066637  0.49907637  1
  Fe  Fe44  1  0.87716781  0.88310487  0.37362842  1
  Fe  Fe45  1  0.49596476  0.24961596  -0.00036026  1
  Fe  Fe46  1  0.74924426  0.00352242  0.00154214  1
  Fe  Fe47  1  0.25367709  0.24926865  0.49917235  1
  Fe  Fe48  1  0.50209171  0.50122125  0.50164533  1
  Fe  Fe49  1  0.24475209  -0.00272790  0.24954954  1
  Fe  Fe50  1  0.12617039  0.62823056  0.12598996  1
  Fe  Fe51  1  0.62516918  0.87493510  0.37485930  1
  Fe  Fe52  1  0.87247177  0.37466424  0.12718040  1
  Fe  Fe53  1  0.50023426  0.74973990  0.75209982  1
  Fe  Fe54  1  0.12408484  0.12878573  0.62317774  1
  Fe  Fe55  1  0.49763300  -0.00080958  0.00139436  1
  Fe  Fe56  1  0.37343569  0.62325074  0.37593328  1
  Fe  Fe57  1  0.00381219  0.49783165  0.74819853  1
  Fe  Fe58  1  0.12369397  0.87234002  0.62129906  1
  Fe  Fe59  1  0.37524369  0.62322897  0.87421724  1
  Fe  Fe60  1  0.50253501  0.00084925  0.24918629  1
  Fe  Fe61  1  0.62658489  0.37310065  0.37829515  1
  Fe  Fe62  1  0.74690180  0.50103891  0.24942854  1
  Fe  Fe63  1  0.87489115  0.87860224  0.87603269  1
  Fe  Fe64  1  0.62857200  0.37021187  0.62169848  1
  Fe  Fe65  1  0.87421892  0.12418652  0.87358531  1
  Fe  Fe66  1  0.37463550  0.87620980  0.62267714  1
  Fe  Fe67  1  0.62624572  0.87287686  0.62382884  1
  Fe  Fe68  1  0.49839169  0.24863404  0.74651477  1
  Fe  Fe69  1  0.87360234  0.62444928  0.62817547  1
  Fe  Fe70  1  0.87387881  0.37504540  0.87347792  1
  Fe  Fe71  1  0.37585793  0.37674621  0.87333665  1
  Fe  Fe72  1  0.12518108  0.62449451  0.87515805  1
  Fe  Fe73  1  0.12367108  0.87564456  0.87825152  1
  Fe  Fe74  1  -0.00087998  0.75146795  0.25036995  1
  Fe  Fe75  1  0.12237198  0.37376133  0.37809709  1
  Fe  Fe76  1  0.74693401  0.00059256  0.75061666  1
  Fe  Fe77  1  0.00034766  0.74720801  0.49778800  1
  Fe  Fe78  1  0.00229504  0.00306919  0.00524084  1
  Fe  Fe79  1  0.12867382  0.36741925  0.12441007  1
  Fe  Fe80  1  0.37598807  0.12155062  0.37492223  1
  Fe  Fe81  1  0.24966817  0.49694972  0.00078952  1
  Fe  Fe82  1  -0.00247786  0.74738102  -0.00060557  1
  Fe  Fe83  1  0.24954199  0.49607602  0.24982712  1
  Fe  Fe84  1  0.37379575  0.62408384  0.62571807  1
  Fe  Fe85  1  0.25055299  0.25258181  0.74843866  1
  Fe  Fe86  1  0.75098981  0.50009300  0.50044945  1
  Fe  Fe87  1  0.87506259  0.62165694  0.37119361  1
  Fe  Fe88  1  0.62953332  0.12801948  0.37747275  1
  Fe  Fe89  1  0.87378127  0.87476644  0.12589387  1
  Co  Co90  1  0.37621065  0.87554384  0.12942057  1
  Co  Co91  1  0.12110922  0.36939691  0.61944010  1
  Co  Co92  1  0.49697885  0.75019804  -0.00114673  1
  Co  Co93  1  0.49626805  0.24846882  0.49979329  1
  Co  Co94  1  0.87425565  0.62399400  0.12775726  1
  Co  Co95  1  0.87502513  0.38218672  0.37154414  1
  Co  Co96  1  0.12008986  0.87601034  0.37839311  1
  Co  Co97  1  0.37625912  0.87776171  0.87216968  1
  Co  Co98  1  0.74485628  -0.00126241  0.24683379  1
  Co  Co99  1  0.00640259  -0.00183115  0.24303995  1
  Co  Co100  1  0.12498247  0.62406775  0.37165954  1
  Co  Co101  1  0.75291679  0.24844963  0.00009272  1
  Co  Co102  1  0.37737823  0.87861980  0.37611613  1
  Co  Co103  1  0.75206456  0.75121129  0.25394809  1
  Co  Co104  1  0.87424149  0.37792671  0.62740221  1
  Co  Co105  1  0.87263389  0.11967684  0.62773089  1
  Co  Co106  1  0.62621566  0.62481922  0.37566635  1
  Co  Co107  1  0.87477221  0.11474090  0.36758181  1
  Co  Co108  1  0.12444014  0.87006563  0.12142452  1
  Co  Co109  1  0.00119985  0.00452693  0.50271086  1
  Co  Co110  1  0.62343821  0.12657235  0.87700262  1
  Co  Co111  1  -0.00261899  0.25175289  0.25232706  1
  Co  Co112  1  0.74860208  0.00008021  0.50044455  1
  Co  Co113  1  0.62670835  0.62816313  0.87534055  1
  Co  Co114  1  0.75201146  0.75339278  0.75069223  1
  Co  Co115  1  0.76103830  0.24938706  0.49630186  1
  Co  Co116  1  0.25393413  0.25075019  -0.00436522  1
  Co  Co117  1  0.37603968  0.37696619  0.62372133  1
  Co  Co118  1  0.75152513  0.25147635  0.25372823  1
  Co  Co119  1  0.12282906  0.37267305  0.87668838  1
  Co  Co120  1  0.24992896  0.74944967  0.49765566  1
  Co  Co121  1  0.12904291  0.13209600  0.12612772  1
  Co  Co122  1  0.75178515  0.24825002  0.74981351  1
  Co  Co123  1  0.37360519  0.12204017  0.62463128  1
  Co  Co124  1  0.25226476  0.25169564  0.25676120  1
  Co  Co125  1  0.12409922  0.62831641  0.62670559  1
  Co  Co126  1  0.37575270  0.37324700  0.12565617  1
  Co  Co127  1  0.74543498  0.49821457  0.75046805  1
