# generated using pymatgen
data_Fe45Co19
_symmetry_space_group_name_H-M   'P 1'
_cell_length_a   11.41384331
_cell_length_b   11.41452495
_cell_length_c   11.41521709
_cell_angle_alpha   89.99715804
_cell_angle_beta   89.99218580
_cell_angle_gamma   90.00340114
_symmetry_Int_Tables_number   1
_chemical_formula_structural   Fe45Co19
_chemical_formula_sum   'Fe90 Co38'
_cell_volume   1487.21555076
_cell_formula_units_Z   2
loop_
 _symmetry_equiv_pos_site_id
 _symmetry_equiv_pos_as_xyz
  1  'x, y, z'
loop_
 _atom_site_type_symbol
 _atom_site_label
 _atom_site_symmetry_multiplicity
 _atom_site_fract_x
 _atom_site_fract_y
 _atom_site_fract_z
 _atom_site_occupancy
  Fe  Fe0  1  0.00138264  0.50026284  -0.00166340  1
  Fe  Fe1  1  0.75122604  0.24790939  0.74993255  1
  Fe  Fe2  1  -0.00230705  0.74922411  0.50059265  1
  Fe  Fe3  1  0.12499243  0.37429502  0.62796798  1
  Fe  Fe4  1  0.12384794  0.37403448  0.12477226  1
  Fe  Fe5  1  0.74960498  0.50160646  0.25015058  1
  Fe  Fe6  1  0.74401244  -0.00139768  0.00233489  1
  Fe  Fe7  1  0.74969931  0.75121552  0.75106637  1
  Fe  Fe8  1  0.62345522  0.37429878  0.12630257  1
  Fe  Fe9  1  0.25368866  0.25114003  0.75043657  1
  Fe  Fe10  1  0.74741786  0.49980869  0.50335535  1
  Fe  Fe11  1  0.50279706  0.00160141  0.49772087  1
  Fe  Fe12  1  0.74919379  -0.00004730  0.24607924  1
  Fe  Fe13  1  0.62704354  0.62745899  0.37587630  1
  Fe  Fe14  1  -0.00212385  0.24906662  0.24948243  1
  Fe  Fe15  1  0.87515492  0.37646428  0.12236684  1
  Fe  Fe16  1  0.74785458  0.00104245  0.74703197  1
  Fe  Fe17  1  -0.00103990  0.75120409  0.75039243  1
  Fe  Fe18  1  0.87189280  0.62432240  0.62664683  1
  Fe  Fe19  1  0.87399145  0.37679852  0.87464904  1
  Fe  Fe20  1  0.25174949  0.75202310  0.50105549  1
  Fe  Fe21  1  0.37591544  0.12202840  0.62497503  1
  Fe  Fe22  1  0.24948076  -0.00218370  0.75079969  1
  Fe  Fe23  1  0.37607542  0.12291444  0.87668771  1
  Fe  Fe24  1  -0.00373587  0.24689977  0.75261931  1
  Fe  Fe25  1  0.62517965  0.37319273  0.37564199  1
  Fe  Fe26  1  0.12475493  0.37445086  0.37438477  1
  Fe  Fe27  1  0.24935641  0.24898775  0.49976375  1
  Fe  Fe28  1  0.87601980  0.87810362  0.62559442  1
  Fe  Fe29  1  0.87375585  0.37422695  0.62683624  1
  Fe  Fe30  1  0.25110864  0.49968262  0.25054767  1
  Fe  Fe31  1  0.74599208  0.50027631  -0.00136928  1
  Fe  Fe32  1  0.75116693  0.24881612  0.24892257  1
  Fe  Fe33  1  0.62168546  0.87307999  0.87536424  1
  Fe  Fe34  1  0.37672876  0.62149089  0.87392744  1
  Fe  Fe35  1  0.49847261  0.24978775  0.74837116  1
  Fe  Fe36  1  0.00024035  0.49953885  0.50264020  1
  Fe  Fe37  1  0.37758294  0.62284042  0.12498927  1
  Fe  Fe38  1  0.25043533  0.50012740  0.50186309  1
  Fe  Fe39  1  0.12356645  0.87571022  0.62621386  1
  Fe  Fe40  1  0.37542243  0.87762824  0.37513119  1
  Fe  Fe41  1  0.12402129  0.62667691  0.37423352  1
  Fe  Fe42  1  0.37892987  0.87902338  0.12381916  1
  Fe  Fe43  1  0.37870285  0.37651777  0.12486035  1
  Fe  Fe44  1  0.87467736  0.87886339  0.87483427  1
  Fe  Fe45  1  0.87406777  0.37459361  0.37688666  1
  Fe  Fe46  1  0.49967321  0.75066656  0.25152206  1
  Fe  Fe47  1  0.37573488  0.62461031  0.37638191  1
  Fe  Fe48  1  0.62735747  0.63057759  0.12423411  1
  Fe  Fe49  1  0.12447156  0.62640269  0.12491464  1
  Fe  Fe50  1  0.50023374  0.24624208  0.25279584  1
  Fe  Fe51  1  -0.00293547  0.50209675  0.25045715  1
  Fe  Fe52  1  -0.00307679  0.75079809  -0.00064450  1
  Fe  Fe53  1  -0.00189573  -0.00006674  0.24963890  1
  Fe  Fe54  1  0.87530739  0.12482433  0.12079547  1
  Fe  Fe55  1  0.62306114  0.37487660  0.87264129  1
  Fe  Fe56  1  0.25470357  0.75372077  0.74879079  1
  Fe  Fe57  1  0.75051972  0.75258749  0.49997771  1
  Fe  Fe58  1  0.50245985  0.50101107  0.50310104  1
  Fe  Fe59  1  0.37703011  0.37529389  0.37587849  1
  Fe  Fe60  1  0.25068064  0.49832267  -0.00110458  1
  Fe  Fe61  1  0.25170380  0.75111727  0.24939841  1
  Fe  Fe62  1  0.25063935  0.24988395  0.00142501  1
  Fe  Fe63  1  0.12261426  0.12509497  0.62659782  1
  Fe  Fe64  1  0.12563789  0.37490703  0.87332307  1
  Fe  Fe65  1  0.62518148  0.12549414  0.87332425  1
  Fe  Fe66  1  0.87371148  0.62283194  0.87391036  1
  Fe  Fe67  1  0.24851632  -0.00036754  0.49949400  1
  Fe  Fe68  1  0.37756518  0.87863801  0.87723526  1
  Fe  Fe69  1  0.12704547  0.62611237  0.87210202  1
  Fe  Fe70  1  0.00272002  0.00006845  -0.00170301  1
  Fe  Fe71  1  0.12771073  0.62484547  0.62850606  1
  Fe  Fe72  1  0.62842810  0.87665586  0.37251873  1
  Fe  Fe73  1  0.50110647  0.24621902  0.49929344  1
  Fe  Fe74  1  0.37684341  0.12161500  0.12406443  1
  Fe  Fe75  1  0.50120556  0.24900881  -0.00030672  1
  Fe  Fe76  1  0.50000893  0.49846033  0.74478278  1
  Fe  Fe77  1  -0.00792082  0.74885193  0.24981599  1
  Fe  Fe78  1  0.24878100  0.00078402  0.24949999  1
  Fe  Fe79  1  0.62012018  0.87320268  0.62602780  1
  Fe  Fe80  1  0.62308024  0.62630384  0.87274716  1
  Fe  Fe81  1  0.25147874  0.24877483  0.24905081  1
  Fe  Fe82  1  0.12587095  0.12513778  0.87628436  1
  Fe  Fe83  1  0.12445543  0.87388618  0.12436612  1
  Fe  Fe84  1  0.12218305  0.87307528  0.37423886  1
  Fe  Fe85  1  0.74946059  0.25027885  -0.00060357  1
  Fe  Fe86  1  -0.00198351  0.00258623  0.49925461  1
  Fe  Fe87  1  0.25293184  0.75142804  0.00025965  1
  Fe  Fe88  1  0.12392763  0.12644677  0.37360214  1
  Fe  Fe89  1  0.75054276  0.24444306  0.50214805  1
  Co  Co90  1  0.62270912  0.12510739  0.62693474  1
  Co  Co91  1  0.74641699  0.50035852  0.74902804  1
  Co  Co92  1  0.62604581  0.37077225  0.62504967  1
  Co  Co93  1  0.87355570  0.87648425  0.12212344  1
  Co  Co94  1  0.50017624  0.75188934  0.49701610  1
  Co  Co95  1  0.75549380  0.74981015  0.25156921  1
  Co  Co96  1  0.87632631  0.12320076  0.62608680  1
  Co  Co97  1  0.37550390  0.37264823  0.62191195  1
  Co  Co98  1  0.37323719  0.12326329  0.37547919  1
  Co  Co99  1  0.74799055  0.00068708  0.50488978  1
  Co  Co100  1  0.24785822  -0.00046001  -0.00045627  1
  Co  Co101  1  0.75139365  0.75121788  -0.00438127  1
  Co  Co102  1  0.12385129  0.12476444  0.12480627  1
  Co  Co103  1  0.49644581  0.75113452  0.75121007  1
  Co  Co104  1  0.87158191  0.12030024  0.87754179  1
  Co  Co105  1  0.87255127  0.12369984  0.37469301  1
  Co  Co106  1  0.49798181  0.74985586  -0.00053920  1
  Co  Co107  1  0.37835368  0.87850352  0.62321967  1
  Co  Co108  1  0.50346373  0.50191812  0.25079385  1
  Co  Co109  1  0.62442136  0.12781341  0.12578494  1
  Co  Co110  1  0.62444750  0.86863474  0.12631105  1
  Co  Co111  1  0.50583031  0.00082573  0.00060139  1
  Co  Co112  1  0.37807172  0.37543803  0.87678253  1
  Co  Co113  1  -0.00070174  0.50006437  0.74935828  1
  Co  Co114  1  -0.00082681  0.24941902  -0.00249304  1
  Co  Co115  1  0.87182039  0.62340219  0.12100967  1
  Co  Co116  1  0.25407337  0.49751221  0.74918013  1
  Co  Co117  1  0.37628143  0.62723414  0.62369337  1
  Co  Co118  1  0.00160811  0.00086003  0.75242221  1
  Co  Co119  1  0.12528208  0.87192338  0.87554015  1
  Co  Co120  1  -0.00014636  0.25020268  0.50017523  1
  Co  Co121  1  0.50368914  0.50081435  0.00134091  1
  Co  Co122  1  0.50322287  0.00094776  0.25041782  1
  Co  Co123  1  0.87299406  0.87841516  0.37669587  1
  Co  Co124  1  0.87324789  0.62343457  0.37913052  1
  Co  Co125  1  0.62976697  0.12374695  0.37391045  1
  Co  Co126  1  0.62493071  0.63026361  0.62607391  1
  Co  Co127  1  0.50102034  0.00053641  0.75196143  1
