# generated using pymatgen
data_Fe45Co19
_symmetry_space_group_name_H-M   'P 1'
_cell_length_a   11.41538373
_cell_length_b   11.41531769
_cell_length_c   11.41452632
_cell_angle_alpha   89.99641106
_cell_angle_beta   89.99856431
_cell_angle_gamma   90.00756188
_symmetry_Int_Tables_number   1
_chemical_formula_structural   Fe45Co19
_chemical_formula_sum   'Fe90 Co38'
_cell_volume   1487.42955466
_cell_formula_units_Z   2
loop_
 _symmetry_equiv_pos_site_id
 _symmetry_equiv_pos_as_xyz
  1  'x, y, z'
loop_
 _atom_site_type_symbol
 _atom_site_label
 _atom_site_symmetry_multiplicity
 _atom_site_fract_x
 _atom_site_fract_y
 _atom_site_fract_z
 _atom_site_occupancy
  Fe  Fe0  1  0.00249431  0.50138324  0.75007951  1
  Fe  Fe1  1  0.62132908  0.87089152  0.88093129  1
  Fe  Fe2  1  0.12402539  0.12620550  0.37443597  1
  Fe  Fe3  1  0.37102155  0.62675133  0.87479973  1
  Fe  Fe4  1  0.87357264  0.37579600  0.12678823  1
  Fe  Fe5  1  0.62358499  0.37566747  0.37524779  1
  Fe  Fe6  1  0.62394311  0.87404738  0.62318035  1
  Fe  Fe7  1  0.87489637  0.12562535  0.87640298  1
  Fe  Fe8  1  0.24895102  -0.00019610  0.25080622  1
  Fe  Fe9  1  0.12588597  0.12364959  0.62474370  1
  Fe  Fe10  1  0.37683127  0.87626172  0.12276666  1
  Fe  Fe11  1  -0.00147799  0.25026013  0.49876980  1
  Fe  Fe12  1  0.37760905  0.87397299  0.37378048  1
  Fe  Fe13  1  0.74946295  0.50057110  0.49858725  1
  Fe  Fe14  1  0.62535686  0.62437102  0.62485132  1
  Fe  Fe15  1  0.62695947  0.12423932  0.62328006  1
  Fe  Fe16  1  0.12703175  0.37489927  0.62218641  1
  Fe  Fe17  1  0.50212538  0.25332503  0.24575493  1
  Fe  Fe18  1  0.12194010  0.87342562  0.37398526  1
  Fe  Fe19  1  0.87362439  0.62486291  0.12617970  1
  Fe  Fe20  1  0.62805321  0.12408660  0.12573621  1
  Fe  Fe21  1  0.62773465  0.62507999  0.12234123  1
  Fe  Fe22  1  -0.00010706  0.74774724  0.00051920  1
  Fe  Fe23  1  0.37496356  0.12410421  0.12601517  1
  Fe  Fe24  1  0.87711715  0.87611452  0.13001793  1
  Fe  Fe25  1  0.00172293  0.50064790  0.49992473  1
  Fe  Fe26  1  0.87250814  0.12229484  0.62557291  1
  Fe  Fe27  1  0.87177867  0.62261047  0.62681124  1
  Fe  Fe28  1  -0.00201376  0.25013054  0.00283343  1
  Fe  Fe29  1  0.25012467  -0.00398046  0.50001960  1
  Fe  Fe30  1  0.37803857  0.12755527  0.87513099  1
  Fe  Fe31  1  0.37916630  0.87298585  0.87681264  1
  Fe  Fe32  1  0.25060985  -0.00184773  -0.00174621  1
  Fe  Fe33  1  0.00021450  0.00189013  0.00091063  1
  Fe  Fe34  1  0.87658385  0.37643451  0.37303531  1
  Fe  Fe35  1  0.12368350  0.87489148  0.12477780  1
  Fe  Fe36  1  0.49470130  0.50293641  0.49981773  1
  Fe  Fe37  1  0.75046555  0.25211791  0.00072645  1
  Fe  Fe38  1  0.49831440  0.50170926  0.74892473  1
  Fe  Fe39  1  0.12818412  0.62799958  0.37887269  1
  Fe  Fe40  1  0.75272385  0.75186009  0.49918427  1
  Fe  Fe41  1  0.62413623  0.37695236  0.62445970  1
  Fe  Fe42  1  -0.00076602  0.24886393  0.74933342  1
  Fe  Fe43  1  0.00138224  0.49993008  -0.00051851  1
  Fe  Fe44  1  0.62288817  0.12782428  0.87780701  1
  Fe  Fe45  1  0.87791389  0.87421025  0.87194455  1
  Fe  Fe46  1  0.00260890  0.50180470  0.25082489  1
  Fe  Fe47  1  0.62064659  0.37406728  0.87576365  1
  Fe  Fe48  1  0.75047136  0.25030738  0.49752348  1
  Fe  Fe49  1  0.50540374  -0.00258133  0.24942673  1
  Fe  Fe50  1  0.25177931  0.25090516  0.74951089  1
  Fe  Fe51  1  0.75057735  -0.00327048  0.00157417  1
  Fe  Fe52  1  0.37774514  0.12419859  0.37315849  1
  Fe  Fe53  1  0.25484037  0.25308274  0.00059971  1
  Fe  Fe54  1  0.50018743  0.74772730  0.24623467  1
  Fe  Fe55  1  0.12877344  0.62411059  0.12127028  1
  Fe  Fe56  1  0.37045478  0.62209443  0.12577531  1
  Fe  Fe57  1  0.37431055  0.12363992  0.62518148  1
  Fe  Fe58  1  0.12814395  0.37390727  0.12754635  1
  Fe  Fe59  1  0.74898609  0.25222047  0.75056640  1
  Fe  Fe60  1  0.50211358  0.00058770  0.75108361  1
  Fe  Fe61  1  0.62508878  0.62625284  0.87811778  1
  Fe  Fe62  1  -0.00168258  -0.00137039  0.50067551  1
  Fe  Fe63  1  0.75189008  0.49891864  -0.00320000  1
  Fe  Fe64  1  0.74783916  -0.00160734  0.75264724  1
  Fe  Fe65  1  0.25055677  -0.00277148  0.75057291  1
  Fe  Fe66  1  0.87396325  0.37710518  0.62653216  1
  Fe  Fe67  1  0.25153097  0.25111743  0.49740054  1
  Fe  Fe68  1  0.12757828  0.12667493  0.12454730  1
  Fe  Fe69  1  0.12577485  0.12575690  0.87560644  1
  Fe  Fe70  1  0.49590685  0.49823131  0.00318331  1
  Fe  Fe71  1  0.49391335  0.74660120  0.50317234  1
  Fe  Fe72  1  0.74757026  0.75323227  0.25055405  1
  Fe  Fe73  1  0.87591480  0.62682721  0.37403871  1
  Fe  Fe74  1  0.49893325  0.24993668  0.50205276  1
  Fe  Fe75  1  0.50096868  0.00108430  0.49920210  1
  Fe  Fe76  1  0.74861596  0.74984290  0.75086590  1
  Fe  Fe77  1  0.12460663  0.37413967  0.87617127  1
  Fe  Fe78  1  0.25045787  0.49780129  0.75171204  1
  Fe  Fe79  1  0.24779905  0.50020877  0.25417932  1
  Fe  Fe80  1  0.62253271  0.62695096  0.37573860  1
  Fe  Fe81  1  0.87595192  0.62349782  0.87320525  1
  Fe  Fe82  1  0.74803545  0.50076664  0.25253031  1
  Fe  Fe83  1  -0.00190486  0.75117622  0.50367676  1
  Fe  Fe84  1  0.37530348  0.37635811  0.37225748  1
  Fe  Fe85  1  0.74919769  -0.00309513  0.49299154  1
  Fe  Fe86  1  0.24939410  0.75169146  0.24925202  1
  Fe  Fe87  1  0.13129294  0.62759404  0.62447769  1
  Fe  Fe88  1  0.12152047  0.87215156  0.87197492  1
  Fe  Fe89  1  0.87316051  0.12292831  0.36822326  1
  Co  Co90  1  0.25064844  0.24761607  0.25292096  1
  Co  Co91  1  0.49574774  0.74416983  0.00288873  1
  Co  Co92  1  0.87723652  0.37549276  0.87389877  1
  Co  Co93  1  0.49867923  0.25231261  0.00635258  1
  Co  Co94  1  0.87033881  0.12231742  0.12743221  1
  Co  Co95  1  0.62258114  0.87191154  0.11894600  1
  Co  Co96  1  0.74296924  -0.00721424  0.25270696  1
  Co  Co97  1  0.37295885  0.62664219  0.37196572  1
  Co  Co98  1  0.00367760  0.00429715  0.24782674  1
  Co  Co99  1  0.25288519  0.75574988  0.50133289  1
  Co  Co100  1  0.74866819  0.25243143  0.25024092  1
  Co  Co101  1  0.75542325  0.75099426  -0.00072487  1
  Co  Co102  1  0.12436546  0.37409564  0.37479559  1
  Co  Co103  1  0.37866295  0.87704779  0.62637602  1
  Co  Co104  1  0.36960280  0.62480951  0.62802733  1
  Co  Co105  1  0.50212571  0.50181049  0.24864086  1
  Co  Co106  1  0.37436257  0.37516032  0.62542476  1
  Co  Co107  1  0.50025193  0.00332693  0.00036462  1
  Co  Co108  1  0.88012097  0.87386671  0.36976160  1
  Co  Co109  1  0.50142911  0.24821683  0.74585887  1
  Co  Co110  1  0.00008909  0.00427509  0.75027104  1
  Co  Co111  1  0.25199118  0.75520533  0.74977790  1
  Co  Co112  1  0.12757363  0.62705097  0.87562972  1
  Co  Co113  1  0.37063839  0.37798359  0.12967716  1
  Co  Co114  1  0.61931619  0.86912955  0.37890365  1
  Co  Co115  1  0.37876072  0.37255026  0.87323217  1
  Co  Co116  1  0.62322758  0.12832701  0.37344794  1
  Co  Co117  1  0.50136732  0.74815848  0.74975052  1
  Co  Co118  1  -0.00182368  0.74561603  0.74673188  1
  Co  Co119  1  0.00329644  0.74474212  0.24804292  1
  Co  Co120  1  0.87321183  0.87812144  0.62711518  1
  Co  Co121  1  0.25320398  0.49912478  0.49799313  1
  Co  Co122  1  0.74730815  0.49910329  0.75245440  1
  Co  Co123  1  -0.00075026  0.24934672  0.24830143  1
  Co  Co124  1  0.25139432  0.49617773  -0.00302991  1
  Co  Co125  1  0.12198697  0.87548123  0.62777417  1
  Co  Co126  1  0.62855922  0.37940202  0.12335228  1
  Co  Co127  1  0.24986981  0.75318532  0.00031504  1
