# generated using pymatgen
data_Fe45Co19
_symmetry_space_group_name_H-M   'P 1'
_cell_length_a   11.41487564
_cell_length_b   11.41571883
_cell_length_c   11.41374221
_cell_angle_alpha   89.99398502
_cell_angle_beta   90.01195560
_cell_angle_gamma   89.99323515
_symmetry_Int_Tables_number   1
_chemical_formula_structural   Fe45Co19
_chemical_formula_sum   'Fe90 Co38'
_cell_volume   1487.31340544
_cell_formula_units_Z   2
loop_
 _symmetry_equiv_pos_site_id
 _symmetry_equiv_pos_as_xyz
  1  'x, y, z'
loop_
 _atom_site_type_symbol
 _atom_site_label
 _atom_site_symmetry_multiplicity
 _atom_site_fract_x
 _atom_site_fract_y
 _atom_site_fract_z
 _atom_site_occupancy
  Fe  Fe0  1  0.12793325  0.62407324  0.37773020  1
  Fe  Fe1  1  0.87364384  0.12644018  0.37679751  1
  Fe  Fe2  1  0.24948373  0.25301379  0.50443693  1
  Fe  Fe3  1  0.62437224  0.37474326  0.37397118  1
  Fe  Fe4  1  0.74978727  0.74933359  0.24894540  1
  Fe  Fe5  1  0.12151468  0.87372551  0.12282748  1
  Fe  Fe6  1  0.62658699  0.87648692  0.62496309  1
  Fe  Fe7  1  0.61961581  0.37194132  0.87726768  1
  Fe  Fe8  1  0.24970342  0.49607897  0.75325398  1
  Fe  Fe9  1  0.12344097  0.37239512  0.12272083  1
  Fe  Fe10  1  0.24909918  0.00037679  -0.00112897  1
  Fe  Fe11  1  0.37652068  0.87680693  0.62467834  1
  Fe  Fe12  1  0.87306177  0.62416913  0.87493492  1
  Fe  Fe13  1  0.50247837  0.50341022  0.24655753  1
  Fe  Fe14  1  0.12566167  0.62573762  0.12275869  1
  Fe  Fe15  1  0.87298101  0.62427051  0.37654300  1
  Fe  Fe16  1  0.12359825  0.12785370  0.12388230  1
  Fe  Fe17  1  0.25080185  0.75056390  0.24961599  1
  Fe  Fe18  1  0.37786903  0.37453757  0.62903188  1
  Fe  Fe19  1  0.24975715  -0.00024741  0.25001152  1
  Fe  Fe20  1  0.12597008  0.62861142  0.87519506  1
  Fe  Fe21  1  0.87606289  0.87667631  0.87472091  1
  Fe  Fe22  1  -0.00047898  0.00113125  -0.00092868  1
  Fe  Fe23  1  0.37539917  0.12250588  0.12387773  1
  Fe  Fe24  1  0.62736763  0.62793824  0.87656431  1
  Fe  Fe25  1  0.87526369  0.37807954  0.62852090  1
  Fe  Fe26  1  0.62857723  0.12658045  0.87885309  1
  Fe  Fe27  1  0.37197838  0.62382825  0.37642591  1
  Fe  Fe28  1  0.49804600  0.74552136  0.00080113  1
  Fe  Fe29  1  0.37549504  0.12463689  0.62659634  1
  Fe  Fe30  1  0.62702436  0.62277737  0.62502954  1
  Fe  Fe31  1  0.74836674  0.49599169  -0.00114878  1
  Fe  Fe32  1  0.12428879  0.87488026  0.37636369  1
  Fe  Fe33  1  -0.00011748  0.00207006  0.25032698  1
  Fe  Fe34  1  0.49943520  0.49990160  0.49992114  1
  Fe  Fe35  1  0.12588563  0.12854745  0.87346635  1
  Fe  Fe36  1  0.87022025  0.12508829  0.87731233  1
  Fe  Fe37  1  0.00101049  0.49915110  0.50079202  1
  Fe  Fe38  1  0.37657299  0.37434520  0.37392297  1
  Fe  Fe39  1  -0.00108173  0.25043255  0.50340311  1
  Fe  Fe40  1  0.62794343  0.12556150  0.62452232  1
  Fe  Fe41  1  0.87203954  0.12536644  0.12246881  1
  Fe  Fe42  1  0.12319826  0.36859621  0.87267516  1
  Fe  Fe43  1  0.25017683  0.00025729  0.49935788  1
  Fe  Fe44  1  0.50532865  0.00195540  0.00112996  1
  Fe  Fe45  1  0.12363046  0.87770811  0.62446310  1
  Fe  Fe46  1  0.00003563  0.50028957  0.25036996  1
  Fe  Fe47  1  0.37199082  0.62347270  0.62544927  1
  Fe  Fe48  1  0.87435095  0.87480847  0.37590929  1
  Fe  Fe49  1  0.87280519  0.62201996  0.62752333  1
  Fe  Fe50  1  0.74878155  0.49749638  0.49966278  1
  Fe  Fe51  1  0.87788949  0.37484870  0.87167666  1
  Fe  Fe52  1  0.50150136  0.50130889  0.75369654  1
  Fe  Fe53  1  0.87298296  0.87825221  0.62395540  1
  Fe  Fe54  1  0.24970907  0.00049703  0.75162726  1
  Fe  Fe55  1  0.50376043  0.00236891  0.75188274  1
  Fe  Fe56  1  0.37679189  0.37970970  0.11763526  1
  Fe  Fe57  1  0.87770653  0.37464728  0.12526598  1
  Fe  Fe58  1  0.00164921  0.50026267  -0.00246995  1
  Fe  Fe59  1  0.75017950  0.75192530  0.74933386  1
  Fe  Fe60  1  0.37812387  0.87653718  0.12573846  1
  Fe  Fe61  1  -0.00046924  0.74777193  0.24990456  1
  Fe  Fe62  1  0.74960175  0.49875386  0.24925501  1
  Fe  Fe63  1  0.50200964  0.00190574  0.49762261  1
  Fe  Fe64  1  0.12331116  0.37307534  0.37479291  1
  Fe  Fe65  1  0.74784101  -0.00187579  0.24679905  1
  Fe  Fe66  1  0.37411608  0.12715945  0.37474395  1
  Fe  Fe67  1  0.75183158  0.25360057  0.24875389  1
  Fe  Fe68  1  0.25127969  0.25090730  0.24610307  1
  Fe  Fe69  1  -0.00031778  0.00260375  0.75060533  1
  Fe  Fe70  1  0.87117722  0.12205923  0.62319587  1
  Fe  Fe71  1  0.62409962  0.87314955  0.37376997  1
  Fe  Fe72  1  0.49975799  0.74874807  0.74967365  1
  Fe  Fe73  1  0.24897933  0.49821295  0.24948295  1
  Fe  Fe74  1  0.25083877  0.75326764  0.75014699  1
  Fe  Fe75  1  0.74870558  0.25213900  0.74899578  1
  Fe  Fe76  1  0.25234259  0.75042111  -0.00058489  1
  Fe  Fe77  1  0.12809963  0.62320359  0.62398651  1
  Fe  Fe78  1  0.75119304  0.75621800  0.00159911  1
  Fe  Fe79  1  0.50212419  0.25059233  0.50202860  1
  Fe  Fe80  1  0.12520598  0.12772818  0.37597621  1
  Fe  Fe81  1  0.37767357  0.87678730  0.87500472  1
  Fe  Fe82  1  0.62607787  0.12854128  0.37319890  1
  Fe  Fe83  1  -0.00106162  0.74980496  0.50144543  1
  Fe  Fe84  1  0.37688150  0.87475147  0.37466774  1
  Fe  Fe85  1  -0.00030258  0.74934081  0.75014062  1
  Fe  Fe86  1  0.49904588  0.24904231  0.24461712  1
  Fe  Fe87  1  0.87424596  0.62472158  0.12241668  1
  Fe  Fe88  1  0.50086893  0.74789904  0.50105290  1
  Fe  Fe89  1  0.50012735  0.74383939  0.24828528  1
  Co  Co90  1  0.50279376  0.50594294  -0.00114483  1
  Co  Co91  1  0.50125985  0.00385766  0.25105545  1
  Co  Co92  1  0.12581322  0.12421243  0.62599321  1
  Co  Co93  1  -0.00274927  0.24930738  -0.00087516  1
  Co  Co94  1  -0.00208271  0.74884208  -0.00238216  1
  Co  Co95  1  0.37577731  0.12364365  0.87472762  1
  Co  Co96  1  0.74582798  0.49799872  0.75382052  1
  Co  Co97  1  0.62264107  0.37474045  0.12408629  1
  Co  Co98  1  -0.00173729  0.24892768  0.24966358  1
  Co  Co99  1  0.74800564  -0.00082255  0.75247979  1
  Co  Co100  1  0.49802651  0.24558709  0.00234304  1
  Co  Co101  1  0.24581513  0.49824192  -0.00478314  1
  Co  Co102  1  0.37049126  0.62116352  0.12411279  1
  Co  Co103  1  0.62003668  0.87237842  0.12741907  1
  Co  Co104  1  -0.00053633  0.00073415  0.49846314  1
  Co  Co105  1  0.75149703  0.25589289  0.00010370  1
  Co  Co106  1  0.37947153  0.37465313  0.87787582  1
  Co  Co107  1  0.74997877  0.25362953  0.50180264  1
  Co  Co108  1  -0.00440359  0.24570638  0.74686976  1
  Co  Co109  1  0.62666809  0.62300176  0.37649088  1
  Co  Co110  1  0.25079134  0.75224488  0.50081659  1
  Co  Co111  1  0.87956221  0.87506008  0.12581836  1
  Co  Co112  1  0.00297073  0.50346467  0.75288222  1
  Co  Co113  1  0.74712953  -0.00067163  0.49621905  1
  Co  Co114  1  0.74966087  0.75003640  0.50187458  1
  Co  Co115  1  0.50120591  0.24688826  0.75094490  1
  Co  Co116  1  0.12251541  0.37479052  0.62927914  1
  Co  Co117  1  0.62311348  0.37607296  0.62585093  1
  Co  Co118  1  0.25379570  0.25004650  0.75032996  1
  Co  Co119  1  0.37279477  0.62395205  0.87345344  1
  Co  Co120  1  0.12406553  0.87513716  0.87613973  1
  Co  Co121  1  0.25308447  0.24927856  -0.00032889  1
  Co  Co122  1  0.62955039  0.12804480  0.12380958  1
  Co  Co123  1  0.25105429  0.49438192  0.50046072  1
  Co  Co124  1  0.87636843  0.37504015  0.37532749  1
  Co  Co125  1  0.74791114  -0.00620842  0.00290646  1
  Co  Co126  1  0.62255548  0.87264402  0.87478844  1
  Co  Co127  1  0.63021786  0.62549206  0.12193519  1
