# generated using pymatgen
data_Fe45Co19
_symmetry_space_group_name_H-M   'P 1'
_cell_length_a   11.41539474
_cell_length_b   11.41735293
_cell_length_c   11.41487300
_cell_angle_alpha   89.99703807
_cell_angle_beta   89.99557073
_cell_angle_gamma   89.99004715
_symmetry_Int_Tables_number   1
_chemical_formula_structural   Fe45Co19
_chemical_formula_sum   'Fe90 Co38'
_cell_volume   1487.74135559
_cell_formula_units_Z   2
loop_
 _symmetry_equiv_pos_site_id
 _symmetry_equiv_pos_as_xyz
  1  'x, y, z'
loop_
 _atom_site_type_symbol
 _atom_site_label
 _atom_site_symmetry_multiplicity
 _atom_site_fract_x
 _atom_site_fract_y
 _atom_site_fract_z
 _atom_site_occupancy
  Fe  Fe0  1  0.00099997  -0.00059710  0.00108245  1
  Fe  Fe1  1  0.50009117  0.75270481  0.49836443  1
  Fe  Fe2  1  0.74983856  0.24902481  -0.00028627  1
  Fe  Fe3  1  0.25298624  0.24703378  0.75219090  1
  Fe  Fe4  1  0.74848914  0.25162956  0.49871505  1
  Fe  Fe5  1  0.50003102  0.49790815  0.24836004  1
  Fe  Fe6  1  -0.00059967  0.00024823  0.74858742  1
  Fe  Fe7  1  0.00058525  0.24968002  0.75076669  1
  Fe  Fe8  1  0.12556014  0.87237844  0.87170517  1
  Fe  Fe9  1  0.12636544  0.12775547  0.12545738  1
  Fe  Fe10  1  0.37561194  0.87714651  0.62373957  1
  Fe  Fe11  1  0.49420095  0.25077046  0.25160098  1
  Fe  Fe12  1  -0.00074081  0.74982844  -0.00033790  1
  Fe  Fe13  1  0.62639705  0.62812383  0.12622144  1
  Fe  Fe14  1  0.74776865  0.50029242  0.00041722  1
  Fe  Fe15  1  0.37350710  0.87538144  0.12557067  1
  Fe  Fe16  1  0.50117698  0.24931148  -0.00179340  1
  Fe  Fe17  1  0.87373006  0.62533386  0.87515239  1
  Fe  Fe18  1  0.62442562  0.12436035  0.12731944  1
  Fe  Fe19  1  0.87462998  0.62155144  0.37451928  1
  Fe  Fe20  1  0.25072092  0.74999036  -0.00084021  1
  Fe  Fe21  1  0.62455574  0.87534219  0.62610327  1
  Fe  Fe22  1  0.75158558  0.24871733  0.25014750  1
  Fe  Fe23  1  0.37218194  0.87896570  0.37469379  1
  Fe  Fe24  1  0.37360855  0.11923578  0.37854774  1
  Fe  Fe25  1  0.37780892  0.37491955  0.87428270  1
  Fe  Fe26  1  0.00464728  -0.00003494  0.50049712  1
  Fe  Fe27  1  0.12737058  0.37411308  0.62618950  1
  Fe  Fe28  1  0.50227168  0.75206985  -0.00171654  1
  Fe  Fe29  1  0.75227519  0.75005941  0.74797079  1
  Fe  Fe30  1  0.00305442  0.00197452  0.25068927  1
  Fe  Fe31  1  0.62113256  0.12569400  0.37477506  1
  Fe  Fe32  1  0.75068533  0.00109135  0.00236423  1
  Fe  Fe33  1  0.24777302  0.49967791  0.50040876  1
  Fe  Fe34  1  0.00094938  0.24986237  0.25164418  1
  Fe  Fe35  1  0.24923704  0.49946369  -0.00168861  1
  Fe  Fe36  1  0.24949013  0.49836636  0.25037459  1
  Fe  Fe37  1  0.00267597  0.50079670  0.00037506  1
  Fe  Fe38  1  0.87606974  0.37536828  0.12571232  1
  Fe  Fe39  1  0.37692158  0.62610446  0.87540024  1
  Fe  Fe40  1  0.50216818  0.50110698  -0.00108319  1
  Fe  Fe41  1  0.00102332  0.50178671  0.74786085  1
  Fe  Fe42  1  0.62561129  0.87722133  0.37176111  1
  Fe  Fe43  1  0.12638019  0.12623322  0.62460070  1
  Fe  Fe44  1  0.37249393  0.12521004  0.12342548  1
  Fe  Fe45  1  0.87306933  0.62493457  0.12651314  1
  Fe  Fe46  1  -0.00065369  0.74676254  0.50340450  1
  Fe  Fe47  1  0.74732249  0.00173209  0.49990929  1
  Fe  Fe48  1  0.87566139  0.37738455  0.37316493  1
  Fe  Fe49  1  0.87651758  0.12370099  0.37615283  1
  Fe  Fe50  1  0.25166157  0.50185088  0.74981096  1
  Fe  Fe51  1  0.00204268  0.25067828  -0.00267074  1
  Fe  Fe52  1  0.24965033  0.75044987  0.49911714  1
  Fe  Fe53  1  0.87553956  0.87659860  0.37671247  1
  Fe  Fe54  1  0.74998158  0.74988564  0.50004895  1
  Fe  Fe55  1  0.87303206  0.87462097  0.12835466  1
  Fe  Fe56  1  0.62362288  0.62321103  0.37417567  1
  Fe  Fe57  1  0.12737326  0.62644804  0.12754144  1
  Fe  Fe58  1  0.61974025  0.12897566  0.62260282  1
  Fe  Fe59  1  -0.00061366  0.74754455  0.25138877  1
  Fe  Fe60  1  0.87526532  0.12540177  0.62322585  1
  Fe  Fe61  1  0.37479791  0.62461495  0.12512003  1
  Fe  Fe62  1  0.37516683  0.62266777  0.37544290  1
  Fe  Fe63  1  0.87575342  0.37582015  0.87541141  1
  Fe  Fe64  1  0.24839482  -0.00077083  -0.00075886  1
  Fe  Fe65  1  0.87592809  0.12443220  0.87631578  1
  Fe  Fe66  1  0.74578482  0.49859968  0.75103423  1
  Fe  Fe67  1  0.24817577  0.25198227  -0.00358645  1
  Fe  Fe68  1  0.50168786  -0.00124865  -0.00083408  1
  Fe  Fe69  1  0.12661380  0.87213905  0.12836972  1
  Fe  Fe70  1  0.62380736  0.37368844  0.12627607  1
  Fe  Fe71  1  0.74974172  0.00265365  0.74793177  1
  Fe  Fe72  1  0.12690182  0.37362075  0.12718050  1
  Fe  Fe73  1  0.49796560  0.00315314  0.75202094  1
  Fe  Fe74  1  0.87376917  0.87507941  0.87414212  1
  Fe  Fe75  1  0.74664435  0.49642281  0.49926929  1
  Fe  Fe76  1  0.12495205  0.62851243  0.87126170  1
  Fe  Fe77  1  0.25273725  0.25094969  0.49798145  1
  Fe  Fe78  1  0.50114916  0.49336128  0.50231458  1
  Fe  Fe79  1  0.12466347  0.87038460  0.62789356  1
  Fe  Fe80  1  0.00043074  0.25139495  0.50049108  1
  Fe  Fe81  1  0.87341768  0.37546165  0.62550395  1
  Fe  Fe82  1  0.00327387  0.50065068  0.50162690  1
  Fe  Fe83  1  0.25266816  0.00163224  0.74987533  1
  Fe  Fe84  1  0.62791290  0.87447921  0.12848190  1
  Fe  Fe85  1  0.62383845  0.62449409  0.62464800  1
  Fe  Fe86  1  0.49783395  0.75120988  0.25100149  1
  Fe  Fe87  1  0.74812445  0.24967263  0.75154828  1
  Fe  Fe88  1  0.37637991  0.62408887  0.62318509  1
  Fe  Fe89  1  0.49858410  0.75035567  0.75146525  1
  Co  Co90  1  0.62267029  0.37416234  0.87562376  1
  Co  Co91  1  0.62547923  0.12371976  0.87613144  1
  Co  Co92  1  0.37515415  0.12483016  0.87925865  1
  Co  Co93  1  0.37399536  0.37930717  0.37477355  1
  Co  Co94  1  0.24756759  0.00097509  0.24913856  1
  Co  Co95  1  0.62416366  0.37316797  0.37172484  1
  Co  Co96  1  0.25410732  0.74944415  0.25181914  1
  Co  Co97  1  0.25442690  0.24982782  0.25307782  1
  Co  Co98  1  0.62339203  0.37166737  0.62688722  1
  Co  Co99  1  0.12415149  0.87135341  0.37373852  1
  Co  Co100  1  0.75150511  0.00350406  0.25102285  1
  Co  Co101  1  0.75024969  0.75067092  -0.00005969  1
  Co  Co102  1  0.12576586  0.62604772  0.37418588  1
  Co  Co103  1  0.12473355  0.37432514  0.37490827  1
  Co  Co104  1  0.62532624  0.62773057  0.87351618  1
  Co  Co105  1  0.49592989  0.25461672  0.49763608  1
  Co  Co106  1  0.12682085  0.12711063  0.37581451  1
  Co  Co107  1  0.75067916  0.74868329  0.25355805  1
  Co  Co108  1  0.62707320  0.87614212  0.87306625  1
  Co  Co109  1  0.50026119  0.50041860  0.74912647  1
  Co  Co110  1  0.74825784  0.49935487  0.24820388  1
  Co  Co111  1  0.50212304  -0.00256216  0.50009120  1
  Co  Co112  1  0.87080311  0.62028853  0.62367901  1
  Co  Co113  1  0.49822968  0.24723492  0.75098704  1
  Co  Co114  1  0.12430056  0.12232252  0.87510207  1
  Co  Co115  1  0.87800898  0.12626079  0.12434284  1
  Co  Co116  1  0.00256383  0.50002848  0.24839654  1
  Co  Co117  1  0.87426237  0.87807716  0.62153931  1
  Co  Co118  1  0.37352179  0.37406072  0.62811475  1
  Co  Co119  1  0.37463987  0.87583762  0.87681493  1
  Co  Co120  1  0.37461276  0.37502160  0.12194946  1
  Co  Co121  1  0.37652442  0.12415520  0.61989969  1
  Co  Co122  1  0.25592739  0.74974906  0.74916896  1
  Co  Co123  1  0.24458798  -0.00318058  0.50236569  1
  Co  Co124  1  0.12507936  0.37678426  0.87165879  1
  Co  Co125  1  0.12761968  0.62755876  0.62712178  1
  Co  Co126  1  -0.00612426  0.74842139  0.74719081  1
  Co  Co127  1  0.49754920  -0.00000346  0.24850957  1
