# generated using pymatgen
data_Fe45Co19
_symmetry_space_group_name_H-M   'P 1'
_cell_length_a   11.41538578
_cell_length_b   11.41536763
_cell_length_c   11.41749935
_cell_angle_alpha   90.00106617
_cell_angle_beta   90.00128233
_cell_angle_gamma   89.99116087
_symmetry_Int_Tables_number   1
_chemical_formula_structural   Fe45Co19
_chemical_formula_sum   'Fe90 Co38'
_cell_volume   1487.82374418
_cell_formula_units_Z   2
loop_
 _symmetry_equiv_pos_site_id
 _symmetry_equiv_pos_as_xyz
  1  'x, y, z'
loop_
 _atom_site_type_symbol
 _atom_site_label
 _atom_site_symmetry_multiplicity
 _atom_site_fract_x
 _atom_site_fract_y
 _atom_site_fract_z
 _atom_site_occupancy
  Fe  Fe0  1  0.00054419  0.75182223  0.25060553  1
  Fe  Fe1  1  0.12377741  0.62381194  0.37600283  1
  Fe  Fe2  1  0.50283654  0.74737961  0.49949260  1
  Fe  Fe3  1  0.37314218  0.37594907  0.87271005  1
  Fe  Fe4  1  0.12795707  0.12244368  0.37372699  1
  Fe  Fe5  1  0.62439923  0.87656479  0.62372757  1
  Fe  Fe6  1  0.87791972  0.87410276  0.62421380  1
  Fe  Fe7  1  0.74675747  0.75187511  0.25217836  1
  Fe  Fe8  1  0.87229720  0.13041983  0.87741987  1
  Fe  Fe9  1  0.37867311  0.87413278  0.12508354  1
  Fe  Fe10  1  0.74949760  0.00028874  0.25001947  1
  Fe  Fe11  1  0.12444801  0.37620445  0.12419044  1
  Fe  Fe12  1  0.12722216  0.12569004  0.87492458  1
  Fe  Fe13  1  0.87268707  0.12686696  0.37452686  1
  Fe  Fe14  1  0.37333313  0.87409088  0.87347127  1
  Fe  Fe15  1  0.87647461  0.87022889  0.87547066  1
  Fe  Fe16  1  0.00064622  0.50285803  0.75365705  1
  Fe  Fe17  1  0.62438551  0.37564831  0.62600417  1
  Fe  Fe18  1  0.62760477  0.62574972  0.87360022  1
  Fe  Fe19  1  0.74983908  0.00181209  -0.00130611  1
  Fe  Fe20  1  0.49955178  0.00175576  0.25419122  1
  Fe  Fe21  1  0.75060180  0.24984380  0.24580429  1
  Fe  Fe22  1  0.24959354  0.74974021  0.50100450  1
  Fe  Fe23  1  0.62627350  0.37473859  0.37542866  1
  Fe  Fe24  1  0.87904662  0.62527798  0.62321175  1
  Fe  Fe25  1  0.49940645  0.00473094  0.49750821  1
  Fe  Fe26  1  0.62618554  0.87468883  0.87451139  1
  Fe  Fe27  1  0.12445578  0.62350644  0.12481775  1
  Fe  Fe28  1  0.74749858  0.74856943  0.49913757  1
  Fe  Fe29  1  0.74992795  0.75058891  0.74681962  1
  Fe  Fe30  1  0.12264155  0.37781221  0.62462304  1
  Fe  Fe31  1  0.37466004  0.37264885  0.37702182  1
  Fe  Fe32  1  0.37866547  0.62661014  0.12726772  1
  Fe  Fe33  1  0.12515539  0.87892515  0.37518044  1
  Fe  Fe34  1  0.62278534  0.12347146  0.12489547  1
  Fe  Fe35  1  0.62454095  0.12534616  0.62585490  1
  Fe  Fe36  1  0.87562816  0.62391074  0.37462038  1
  Fe  Fe37  1  0.87478612  0.87629542  0.37655756  1
  Fe  Fe38  1  0.87687613  0.87743814  0.12392225  1
  Fe  Fe39  1  0.87512913  0.37337959  0.12037605  1
  Fe  Fe40  1  0.12507932  0.12264899  0.62612206  1
  Fe  Fe41  1  0.50121124  0.50111157  -0.00218393  1
  Fe  Fe42  1  0.37290915  0.62395533  0.87227042  1
  Fe  Fe43  1  0.75152265  0.00108843  0.75073717  1
  Fe  Fe44  1  0.12569146  0.37534646  0.87627761  1
  Fe  Fe45  1  0.50074320  0.24767277  -0.00380813  1
  Fe  Fe46  1  0.74857812  0.74925947  0.00206508  1
  Fe  Fe47  1  0.25224553  0.24919479  0.50431609  1
  Fe  Fe48  1  0.12175811  0.87610650  0.62314821  1
  Fe  Fe49  1  0.25225243  0.25155160  0.74674494  1
  Fe  Fe50  1  0.24526045  0.74852327  0.74766890  1
  Fe  Fe51  1  0.37643991  0.62454192  0.37316219  1
  Fe  Fe52  1  0.63047962  0.37358029  0.87496293  1
  Fe  Fe53  1  0.62070926  0.62611445  0.12807177  1
  Fe  Fe54  1  0.62315576  0.37533922  0.12382185  1
  Fe  Fe55  1  0.75089609  0.00134863  0.50133702  1
  Fe  Fe56  1  0.25055820  0.74971476  0.00276661  1
  Fe  Fe57  1  -0.00098119  0.25091154  0.49912331  1
  Fe  Fe58  1  -0.00299770  0.50116182  -0.00324401  1
  Fe  Fe59  1  0.62160885  0.87431559  0.12435807  1
  Fe  Fe60  1  0.50178129  0.74897847  0.74974861  1
  Fe  Fe61  1  0.87522125  0.62587891  0.12540429  1
  Fe  Fe62  1  0.12549300  0.37376099  0.37405404  1
  Fe  Fe63  1  0.37424266  0.87618508  0.37611406  1
  Fe  Fe64  1  0.25162363  0.00195279  0.00059305  1
  Fe  Fe65  1  0.37529950  0.62119137  0.62829445  1
  Fe  Fe66  1  0.25181720  0.50035581  0.00052298  1
  Fe  Fe67  1  0.75304565  0.49824304  0.50030338  1
  Fe  Fe68  1  -0.00093872  0.49762334  0.25137147  1
  Fe  Fe69  1  0.50115611  0.49963937  0.50009654  1
  Fe  Fe70  1  0.49961319  0.00176702  0.75235022  1
  Fe  Fe71  1  0.25239752  0.49859187  0.24943645  1
  Fe  Fe72  1  0.25025153  0.24754452  0.24605551  1
  Fe  Fe73  1  0.49971356  0.24870754  0.25367726  1
  Fe  Fe74  1  0.37560984  0.87710570  0.62573605  1
  Fe  Fe75  1  0.87607873  0.12635074  0.62583507  1
  Fe  Fe76  1  0.37679295  0.37315667  0.12394897  1
  Fe  Fe77  1  -0.00023682  0.24769612  0.24702723  1
  Fe  Fe78  1  0.12147865  0.87998815  0.12470995  1
  Fe  Fe79  1  0.24964366  0.49888673  0.50104084  1
  Fe  Fe80  1  0.24919468  0.24798173  0.00265297  1
  Fe  Fe81  1  0.75157348  0.25261879  0.50301417  1
  Fe  Fe82  1  0.12281559  0.87248636  0.87726854  1
  Fe  Fe83  1  0.74990741  0.49809837  0.24810645  1
  Fe  Fe84  1  -0.00088717  0.00038354  0.75247240  1
  Fe  Fe85  1  -0.00150712  0.25190345  0.75181570  1
  Fe  Fe86  1  0.24930748  0.75164387  0.24969618  1
  Fe  Fe87  1  0.75337429  0.49985606  0.75048870  1
  Fe  Fe88  1  0.49895232  0.00172792  -0.00425390  1
  Fe  Fe89  1  0.49901005  0.24986971  0.74918859  1
  Co  Co90  1  0.25357847  -0.00039896  0.24715299  1
  Co  Co91  1  -0.00146176  0.49562298  0.49697882  1
  Co  Co92  1  0.74737619  0.24760360  0.00345713  1
  Co  Co93  1  -0.00190750  0.00255397  -0.00520570  1
  Co  Co94  1  0.87337562  0.62923938  0.87525227  1
  Co  Co95  1  0.50031190  0.74824567  -0.00437822  1
  Co  Co96  1  0.50339083  0.49855129  0.75309061  1
  Co  Co97  1  0.37128426  0.12579225  0.87293488  1
  Co  Co98  1  0.12204948  0.62291087  0.61978039  1
  Co  Co99  1  0.74982100  0.25003824  0.74678122  1
  Co  Co100  1  0.50167832  0.75272818  0.25535578  1
  Co  Co101  1  0.37647571  0.37867157  0.62630273  1
  Co  Co102  1  0.87843876  0.37603219  0.62828937  1
  Co  Co103  1  0.62701920  0.12573252  0.87273532  1
  Co  Co104  1  0.62952163  0.12752656  0.37559232  1
  Co  Co105  1  -0.00076655  0.74862767  0.00332912  1
  Co  Co106  1  0.49805623  0.49611713  0.25052469  1
  Co  Co107  1  0.24693594  -0.00258751  0.75003148  1
  Co  Co108  1  0.87612898  0.12351010  0.12270867  1
  Co  Co109  1  0.37062517  0.12640295  0.37580310  1
  Co  Co110  1  0.12644751  0.62716737  0.87936062  1
  Co  Co111  1  0.24467937  0.50059952  0.74933050  1
  Co  Co112  1  0.62579468  0.87753638  0.37834744  1
  Co  Co113  1  0.87443319  0.37245196  0.37215497  1
  Co  Co114  1  0.00057633  0.75184400  0.49706265  1
  Co  Co115  1  0.62603422  0.62316698  0.62575754  1
  Co  Co116  1  0.25003923  -0.00020024  0.50228469  1
  Co  Co117  1  0.37826976  0.12559763  0.12431193  1
  Co  Co118  1  0.49933777  0.24877196  0.50103811  1
  Co  Co119  1  0.74882725  0.50271446  0.00152121  1
  Co  Co120  1  -0.00323650  0.00180636  0.25321377  1
  Co  Co121  1  0.00310341  0.74739073  0.74921853  1
  Co  Co122  1  0.87197275  0.37208640  0.87737622  1
  Co  Co123  1  0.62543426  0.62093426  0.37306893  1
  Co  Co124  1  -0.00110605  0.00242530  0.49930658  1
  Co  Co125  1  0.00276008  0.24978152  0.00072532  1
  Co  Co126  1  0.37465719  0.12192994  0.62711906  1
  Co  Co127  1  0.12324571  0.12019475  0.12532220  1
