# generated using pymatgen
data_Fe45Co19
_symmetry_space_group_name_H-M   'P 1'
_cell_length_a   11.41765604
_cell_length_b   11.41546318
_cell_length_c   11.41431735
_cell_angle_alpha   90.00667492
_cell_angle_beta   90.00621854
_cell_angle_gamma   89.99893073
_symmetry_Int_Tables_number   1
_chemical_formula_structural   Fe45Co19
_chemical_formula_sum   'Fe90 Co38'
_cell_volume   1487.71735987
_cell_formula_units_Z   2
loop_
 _symmetry_equiv_pos_site_id
 _symmetry_equiv_pos_as_xyz
  1  'x, y, z'
loop_
 _atom_site_type_symbol
 _atom_site_label
 _atom_site_symmetry_multiplicity
 _atom_site_fract_x
 _atom_site_fract_y
 _atom_site_fract_z
 _atom_site_occupancy
  Fe  Fe0  1  0.49928480  -0.00188419  0.74964830  1
  Fe  Fe1  1  0.12706342  0.87159215  0.37210143  1
  Fe  Fe2  1  0.24595395  0.74766780  0.00094526  1
  Fe  Fe3  1  0.25318732  0.25019298  0.75100136  1
  Fe  Fe4  1  0.12485467  0.62706236  0.62732990  1
  Fe  Fe5  1  0.12559091  0.12424483  0.37347524  1
  Fe  Fe6  1  0.25425831  0.50079307  0.25016993  1
  Fe  Fe7  1  0.87359702  0.62504526  0.87923545  1
  Fe  Fe8  1  0.74770444  -0.00108236  0.00192289  1
  Fe  Fe9  1  0.75256460  -0.00229167  0.74888927  1
  Fe  Fe10  1  0.37722099  0.12335682  0.87738076  1
  Fe  Fe11  1  0.12807173  0.62942052  0.36894488  1
  Fe  Fe12  1  0.49410974  0.74849304  0.25261498  1
  Fe  Fe13  1  0.37659115  0.87549193  0.12150403  1
  Fe  Fe14  1  0.62511391  0.87418950  0.87548586  1
  Fe  Fe15  1  0.00033047  0.24818605  0.50024510  1
  Fe  Fe16  1  0.62481351  0.87255067  0.12688821  1
  Fe  Fe17  1  0.37617206  0.87403478  0.87739334  1
  Fe  Fe18  1  0.87463736  0.12363551  0.87487548  1
  Fe  Fe19  1  0.75249777  0.75061248  0.75139199  1
  Fe  Fe20  1  0.74833636  -0.00113791  0.50015024  1
  Fe  Fe21  1  -0.00114796  0.50125212  0.25033980  1
  Fe  Fe22  1  0.37382458  0.62599845  0.62265794  1
  Fe  Fe23  1  0.62668979  0.62172450  0.62878629  1
  Fe  Fe24  1  0.00052417  0.24873569  0.00137400  1
  Fe  Fe25  1  -0.00295719  0.25015890  0.74911942  1
  Fe  Fe26  1  0.37844518  0.12593023  0.12273212  1
  Fe  Fe27  1  0.50030378  0.00200563  0.25353565  1
  Fe  Fe28  1  0.87406379  0.37720973  0.87886824  1
  Fe  Fe29  1  0.37523483  0.62321901  0.12134477  1
  Fe  Fe30  1  0.12307236  0.12344512  0.87284288  1
  Fe  Fe31  1  0.37572420  0.37566970  0.62248404  1
  Fe  Fe32  1  -0.00049593  -0.00351217  0.24744763  1
  Fe  Fe33  1  0.62517612  0.12452352  0.87460544  1
  Fe  Fe34  1  0.12527520  0.12423016  0.12557805  1
  Fe  Fe35  1  0.00177332  -0.00039533  0.50455372  1
  Fe  Fe36  1  -0.00245422  0.50015688  0.75053895  1
  Fe  Fe37  1  0.24902640  -0.00292417  0.74718846  1
  Fe  Fe38  1  0.00570720  0.50307443  0.00107804  1
  Fe  Fe39  1  0.50107409  0.74872786  0.50035905  1
  Fe  Fe40  1  0.62084743  0.37555424  0.12954450  1
  Fe  Fe41  1  0.75513056  0.74990988  0.24746614  1
  Fe  Fe42  1  0.00068417  0.74957834  0.49861742  1
  Fe  Fe43  1  0.87308095  0.12425932  0.37260854  1
  Fe  Fe44  1  0.87596803  0.37409790  0.37372974  1
  Fe  Fe45  1  0.37331034  0.87710336  0.38161675  1
  Fe  Fe46  1  0.25110129  0.50168930  0.75253454  1
  Fe  Fe47  1  0.87643913  0.87610514  0.88001176  1
  Fe  Fe48  1  0.00261265  0.50213498  0.49839517  1
  Fe  Fe49  1  0.74925364  0.49778187  0.50039563  1
  Fe  Fe50  1  0.74440044  0.50496943  0.00382484  1
  Fe  Fe51  1  0.50512586  0.74564052  -0.00259487  1
  Fe  Fe52  1  0.62341771  0.38053525  0.87087063  1
  Fe  Fe53  1  0.62319692  0.12613650  0.12691535  1
  Fe  Fe54  1  -0.00363973  0.75164854  0.74945134  1
  Fe  Fe55  1  0.12490365  0.37401347  0.37268283  1
  Fe  Fe56  1  0.87565742  0.37690851  0.12474813  1
  Fe  Fe57  1  0.87418600  0.87555584  0.37561472  1
  Fe  Fe58  1  0.62560996  0.87324309  0.37297714  1
  Fe  Fe59  1  0.37591835  0.37488553  0.37531426  1
  Fe  Fe60  1  0.74842240  0.74866893  0.49985219  1
  Fe  Fe61  1  0.25226895  0.24928109  0.24970271  1
  Fe  Fe62  1  0.00205231  0.74933382  0.00689407  1
  Fe  Fe63  1  0.24973910  0.24987079  -0.00063970  1
  Fe  Fe64  1  0.24872116  0.24860848  0.49898804  1
  Fe  Fe65  1  0.74676228  0.25156292  0.00123287  1
  Fe  Fe66  1  0.87383122  0.12383091  0.12623385  1
  Fe  Fe67  1  0.49906676  0.25062281  0.75077376  1
  Fe  Fe68  1  0.24722325  0.50178721  0.49891741  1
  Fe  Fe69  1  0.37757432  0.37596686  0.12162753  1
  Fe  Fe70  1  0.12517830  0.37439489  0.87406688  1
  Fe  Fe71  1  0.12608795  0.37565441  0.12645202  1
  Fe  Fe72  1  0.75042595  0.25282730  0.50102809  1
  Fe  Fe73  1  0.87430514  0.62463555  0.62311456  1
  Fe  Fe74  1  0.25178055  0.75102873  0.75004346  1
  Fe  Fe75  1  0.12469727  0.37453483  0.62611400  1
  Fe  Fe76  1  0.49835141  0.74837458  0.75056877  1
  Fe  Fe77  1  0.87388988  0.62475659  0.37381817  1
  Fe  Fe78  1  0.37460437  0.12105503  0.62164167  1
  Fe  Fe79  1  0.37699286  0.37945154  0.87957052  1
  Fe  Fe80  1  0.62456451  0.87445904  0.62534909  1
  Fe  Fe81  1  0.62579803  0.12576583  0.62454671  1
  Fe  Fe82  1  0.62374196  0.37440418  0.37148646  1
  Fe  Fe83  1  0.50037628  0.24655703  0.49691903  1
  Fe  Fe84  1  0.25235689  -0.00139161  0.24930618  1
  Fe  Fe85  1  0.50127685  0.50130430  0.49897043  1
  Fe  Fe86  1  0.62519045  0.62413576  0.37017027  1
  Fe  Fe87  1  0.75086182  0.25465846  0.74787824  1
  Fe  Fe88  1  0.24892111  -0.00005519  -0.00044033  1
  Fe  Fe89  1  0.12182986  0.87597301  0.87585619  1
  Co  Co90  1  0.87317173  0.87325112  0.62187163  1
  Co  Co91  1  0.50306425  0.25155926  -0.00272493  1
  Co  Co92  1  0.24885066  0.74967447  0.50078817  1
  Co  Co93  1  0.12786508  0.87425035  0.12710586  1
  Co  Co94  1  0.24361933  -0.00172514  0.50385480  1
  Co  Co95  1  0.63042269  0.12716418  0.37395470  1
  Co  Co96  1  0.74790880  -0.00178054  0.24885949  1
  Co  Co97  1  0.37732086  0.87581019  0.62111524  1
  Co  Co98  1  0.12352054  0.87033565  0.62588267  1
  Co  Co99  1  0.12704537  0.62593077  0.13248008  1
  Co  Co100  1  -0.00046284  0.24971104  0.24836873  1
  Co  Co101  1  0.50294365  -0.00079081  -0.00039422  1
  Co  Co102  1  0.37083762  0.12140060  0.37783872  1
  Co  Co103  1  -0.00489709  0.75234533  0.24732031  1
  Co  Co104  1  0.49754909  0.24667506  0.25312367  1
  Co  Co105  1  0.62802706  0.62169908  0.86826045  1
  Co  Co106  1  0.50603960  0.50430411  0.00054812  1
  Co  Co107  1  0.74620889  0.74821643  0.00100881  1
  Co  Co108  1  0.37375458  0.62499392  0.37903572  1
  Co  Co109  1  0.49612246  0.50216179  0.25098654  1
  Co  Co110  1  0.25745258  0.75123567  0.24911830  1
  Co  Co111  1  0.87922410  0.37580284  0.62159425  1
  Co  Co112  1  0.75571346  0.49761525  0.74696254  1
  Co  Co113  1  0.75146093  0.49915869  0.25016772  1
  Co  Co114  1  0.24458190  0.50204143  -0.00119097  1
  Co  Co115  1  0.75119018  0.25199056  0.24800163  1
  Co  Co116  1  0.87231550  0.12521772  0.62506647  1
  Co  Co117  1  0.37415949  0.62504102  0.87955240  1
  Co  Co118  1  0.62074600  0.37557476  0.62590445  1
  Co  Co119  1  0.49404082  0.50243711  0.74934743  1
  Co  Co120  1  -0.00119857  -0.00127944  0.74591356  1
  Co  Co121  1  0.12576715  0.12860558  0.62754474  1
  Co  Co122  1  0.87254306  0.87642229  0.12222108  1
  Co  Co123  1  0.87510917  0.62303068  0.12372512  1
  Co  Co124  1  0.62373285  0.62850686  0.13308506  1
  Co  Co125  1  0.12299657  0.62784071  0.87263486  1
  Co  Co126  1  0.50539142  0.00087553  0.49676796  1
  Co  Co127  1  0.00094895  0.00148288  0.00250270  1
