# generated using pymatgen
data_Fe45Co19
_symmetry_space_group_name_H-M   'P 1'
_cell_length_a   11.41534665
_cell_length_b   11.41563241
_cell_length_c   11.41505810
_cell_angle_alpha   90.00701786
_cell_angle_beta   89.99272506
_cell_angle_gamma   89.99484589
_symmetry_Int_Tables_number   1
_chemical_formula_structural   Fe45Co19
_chemical_formula_sum   'Fe90 Co38'
_cell_volume   1487.53501723
_cell_formula_units_Z   2
loop_
 _symmetry_equiv_pos_site_id
 _symmetry_equiv_pos_as_xyz
  1  'x, y, z'
loop_
 _atom_site_type_symbol
 _atom_site_label
 _atom_site_symmetry_multiplicity
 _atom_site_fract_x
 _atom_site_fract_y
 _atom_site_fract_z
 _atom_site_occupancy
  Fe  Fe0  1  0.24698471  0.24861457  0.49768875  1
  Fe  Fe1  1  0.25116601  0.50227871  0.74892774  1
  Fe  Fe2  1  0.62277057  0.62645617  0.62668406  1
  Fe  Fe3  1  0.75304566  0.00301360  0.74912962  1
  Fe  Fe4  1  0.74769201  0.74840643  0.75428312  1
  Fe  Fe5  1  0.37787186  0.62710655  0.87630432  1
  Fe  Fe6  1  -0.00296967  0.75309693  0.24892359  1
  Fe  Fe7  1  0.62531762  0.62371540  0.12530312  1
  Fe  Fe8  1  0.62486804  0.87473731  0.12448596  1
  Fe  Fe9  1  0.49982967  0.24983967  0.50302390  1
  Fe  Fe10  1  0.49890547  0.49791589  0.00331558  1
  Fe  Fe11  1  0.25069987  0.50056104  0.25027505  1
  Fe  Fe12  1  0.87613474  0.12435162  0.12211596  1
  Fe  Fe13  1  0.12847783  0.87778867  0.87469867  1
  Fe  Fe14  1  0.87433277  0.37398059  0.12341180  1
  Fe  Fe15  1  0.24887466  0.24976478  0.25207841  1
  Fe  Fe16  1  0.62382828  0.87573897  0.62652246  1
  Fe  Fe17  1  0.62204573  0.12371441  0.87361072  1
  Fe  Fe18  1  0.12606718  0.37497584  0.12624361  1
  Fe  Fe19  1  0.37494189  0.12275969  0.37785222  1
  Fe  Fe20  1  0.74827083  0.00037862  -0.00090738  1
  Fe  Fe21  1  0.62570062  0.87560696  0.37589091  1
  Fe  Fe22  1  0.49872070  0.25338386  0.24801476  1
  Fe  Fe23  1  -0.00057471  0.75113549  0.49868444  1
  Fe  Fe24  1  0.87658103  0.37407826  0.37676026  1
  Fe  Fe25  1  0.37662867  0.62668905  0.62333869  1
  Fe  Fe26  1  0.37264393  0.62996576  0.12359454  1
  Fe  Fe27  1  0.12134241  0.62284982  0.87315236  1
  Fe  Fe28  1  0.62364133  0.12611247  0.37477855  1
  Fe  Fe29  1  0.37725189  0.62330039  0.37763859  1
  Fe  Fe30  1  0.62396763  0.12648044  0.12553528  1
  Fe  Fe31  1  0.75171638  -0.00053173  0.24905376  1
  Fe  Fe32  1  0.75228203  0.75110394  0.25195300  1
  Fe  Fe33  1  0.87565745  0.62728654  0.62534147  1
  Fe  Fe34  1  0.12881747  0.87588184  0.62780462  1
  Fe  Fe35  1  0.24988903  0.74991385  0.49813127  1
  Fe  Fe36  1  0.00176038  0.50058409  0.50148669  1
  Fe  Fe37  1  0.12360833  0.62535364  0.37272106  1
  Fe  Fe38  1  0.49521784  0.24889509  0.74754916  1
  Fe  Fe39  1  -0.00365621  -0.00356488  0.24646726  1
  Fe  Fe40  1  0.12732308  0.37585168  0.62652113  1
  Fe  Fe41  1  0.00276034  -0.00055742  0.50009663  1
  Fe  Fe42  1  0.49761546  0.49744779  0.74691165  1
  Fe  Fe43  1  0.50126892  0.25277088  0.00154445  1
  Fe  Fe44  1  0.12860012  0.12129513  0.62679879  1
  Fe  Fe45  1  0.24822384  0.24872753  -0.00052572  1
  Fe  Fe46  1  0.24795114  0.50232457  0.00080809  1
  Fe  Fe47  1  0.62735408  0.37311806  0.62618570  1
  Fe  Fe48  1  0.00019122  0.25063304  -0.00097646  1
  Fe  Fe49  1  0.12331639  0.37788036  0.87354369  1
  Fe  Fe50  1  0.87516136  0.62815176  0.12256336  1
  Fe  Fe51  1  0.87588489  0.37228591  0.62448216  1
  Fe  Fe52  1  0.74972463  0.74937006  0.49865219  1
  Fe  Fe53  1  0.37306257  0.87585026  0.62337500  1
  Fe  Fe54  1  0.12550084  0.62705808  0.62644230  1
  Fe  Fe55  1  0.74969940  0.25003642  -0.00243693  1
  Fe  Fe56  1  0.62291443  0.62469272  0.37496144  1
  Fe  Fe57  1  0.12336463  0.12315187  0.12659827  1
  Fe  Fe58  1  0.37441492  0.87273761  0.88136294  1
  Fe  Fe59  1  -0.00177634  0.00049601  0.75149061  1
  Fe  Fe60  1  0.12533403  0.12169870  0.87578968  1
  Fe  Fe61  1  0.49447181  0.00105523  0.75034994  1
  Fe  Fe62  1  0.37389007  0.37731309  0.37860587  1
  Fe  Fe63  1  0.37587131  0.12643071  0.12279746  1
  Fe  Fe64  1  0.12470459  0.87517606  0.37183214  1
  Fe  Fe65  1  0.49874959  0.49726899  0.24694927  1
  Fe  Fe66  1  0.75170678  0.24969150  0.25038700  1
  Fe  Fe67  1  0.00086890  0.75170745  0.75039942  1
  Fe  Fe68  1  0.25293497  -0.00158439  0.24775874  1
  Fe  Fe69  1  0.75456161  0.50220162  0.75285381  1
  Fe  Fe70  1  0.87456694  0.87467277  0.87719196  1
  Fe  Fe71  1  0.87689067  0.12430796  0.37635232  1
  Fe  Fe72  1  0.49908450  0.75119442  0.24960593  1
  Fe  Fe73  1  0.74392613  0.74851135  -0.00517505  1
  Fe  Fe74  1  0.25253715  0.24729024  0.75073356  1
  Fe  Fe75  1  0.49882843  -0.00134661  0.24776976  1
  Fe  Fe76  1  0.75317328  0.24638661  0.74991142  1
  Fe  Fe77  1  0.75123801  0.49963620  0.25081809  1
  Fe  Fe78  1  0.37361342  0.37474453  0.87595369  1
  Fe  Fe79  1  0.75288383  0.50137222  -0.00390287  1
  Fe  Fe80  1  0.74839945  0.00373606  0.50188818  1
  Fe  Fe81  1  -0.00117835  0.49935912  0.24770054  1
  Fe  Fe82  1  0.37615073  0.87624154  0.37685408  1
  Fe  Fe83  1  0.74948954  0.50033419  0.49945222  1
  Fe  Fe84  1  0.62495760  0.37615398  0.87403395  1
  Fe  Fe85  1  0.62456578  0.37391970  0.37482653  1
  Fe  Fe86  1  0.00460983  0.24845442  0.49730498  1
  Fe  Fe87  1  -0.00031181  0.24810250  0.75112003  1
  Fe  Fe88  1  0.87464112  0.87514225  0.62428149  1
  Fe  Fe89  1  0.00504295  0.75233317  0.00252330  1
  Co  Co90  1  0.87922981  0.12548464  0.62219720  1
  Co  Co91  1  0.50311374  0.49797031  0.50299013  1
  Co  Co92  1  0.62382052  0.88069483  0.87220022  1
  Co  Co93  1  0.50251027  0.00022353  0.50043253  1
  Co  Co94  1  0.12429532  0.12096994  0.37004426  1
  Co  Co95  1  0.87642826  0.62457065  0.37492108  1
  Co  Co96  1  0.00006821  0.49908769  0.00282424  1
  Co  Co97  1  0.87117150  0.87258654  0.11969476  1
  Co  Co98  1  0.25503490  0.00061528  0.75429721  1
  Co  Co99  1  0.87728942  0.37409368  0.87311878  1
  Co  Co100  1  0.24430453  0.74719972  -0.00162841  1
  Co  Co101  1  0.37644504  0.12762944  0.87956445  1
  Co  Co102  1  -0.00224309  0.50035275  0.74703365  1
  Co  Co103  1  0.87622622  0.12321007  0.87765417  1
  Co  Co104  1  0.49938657  0.75295616  0.75144896  1
  Co  Co105  1  0.37037002  0.37465946  0.62265234  1
  Co  Co106  1  0.87365710  0.87709905  0.37853615  1
  Co  Co107  1  0.37101814  0.12212222  0.62034657  1
  Co  Co108  1  0.62222850  0.12494473  0.62803125  1
  Co  Co109  1  0.50076089  0.75176463  0.49991573  1
  Co  Co110  1  0.25159233  0.74889713  0.75168761  1
  Co  Co111  1  0.50568993  0.75019203  -0.00064468  1
  Co  Co112  1  0.12518088  0.37767797  0.37259625  1
  Co  Co113  1  0.25050565  0.00176288  0.00203288  1
  Co  Co114  1  0.12574474  0.62565232  0.12972362  1
  Co  Co115  1  0.13030944  0.87530792  0.12748268  1
  Co  Co116  1  0.49968278  -0.00033211  0.00262714  1
  Co  Co117  1  0.24618063  -0.00223617  0.49728036  1
  Co  Co118  1  0.61917519  0.61963781  0.87272870  1
  Co  Co119  1  0.36954819  0.37358634  0.12430202  1
  Co  Co120  1  0.00186005  -0.00311949  0.00098947  1
  Co  Co121  1  0.74906696  0.24771275  0.50006973  1
  Co  Co122  1  0.62859281  0.37597768  0.12442891  1
  Co  Co123  1  0.88076089  0.62850252  0.87637799  1
  Co  Co124  1  0.37354315  0.87026263  0.12057607  1
  Co  Co125  1  0.24691967  0.50259349  0.50073707  1
  Co  Co126  1  -0.00102227  0.25024668  0.24980180  1
  Co  Co127  1  0.25244238  0.75089398  0.25369242  1
