# generated using pymatgen
data_Fe45Co19
_symmetry_space_group_name_H-M   'P 1'
_cell_length_a   11.41532903
_cell_length_b   11.41463241
_cell_length_c   11.41553174
_cell_angle_alpha   89.98818404
_cell_angle_beta   90.00245360
_cell_angle_gamma   90.00033568
_symmetry_Int_Tables_number   1
_chemical_formula_structural   Fe45Co19
_chemical_formula_sum   'Fe90 Co38'
_cell_volume   1487.46412703
_cell_formula_units_Z   2
loop_
 _symmetry_equiv_pos_site_id
 _symmetry_equiv_pos_as_xyz
  1  'x, y, z'
loop_
 _atom_site_type_symbol
 _atom_site_label
 _atom_site_symmetry_multiplicity
 _atom_site_fract_x
 _atom_site_fract_y
 _atom_site_fract_z
 _atom_site_occupancy
  Fe  Fe0  1  0.00007223  0.74970835  0.75087138  1
  Fe  Fe1  1  0.12113073  0.62356048  0.37178531  1
  Fe  Fe2  1  0.87713474  0.12810246  0.62388507  1
  Fe  Fe3  1  0.12331390  0.12435470  0.87282606  1
  Fe  Fe4  1  0.62835679  0.37835001  0.87431847  1
  Fe  Fe5  1  0.87613601  0.12770211  0.87338235  1
  Fe  Fe6  1  0.12154620  0.12518889  0.62711540  1
  Fe  Fe7  1  0.24915117  0.74712395  0.24936665  1
  Fe  Fe8  1  0.37402946  0.87230958  0.62302959  1
  Fe  Fe9  1  0.12579450  0.37800317  0.87447102  1
  Fe  Fe10  1  -0.00079168  0.25641303  0.75053192  1
  Fe  Fe11  1  0.37409738  0.37335081  0.12423552  1
  Fe  Fe12  1  0.24905827  0.24648084  0.24852464  1
  Fe  Fe13  1  0.50068411  -0.00164676  0.00037646  1
  Fe  Fe14  1  0.12557132  0.87384724  0.62467657  1
  Fe  Fe15  1  0.25169438  0.25145462  0.74825303  1
  Fe  Fe16  1  0.25209941  0.00147862  0.74754644  1
  Fe  Fe17  1  0.49919581  0.00027475  0.25102762  1
  Fe  Fe18  1  0.75357102  0.74512764  0.25647454  1
  Fe  Fe19  1  0.62446285  0.62506198  0.62312703  1
  Fe  Fe20  1  0.25320977  0.00257103  0.24779216  1
  Fe  Fe21  1  0.00259358  0.49518220  0.49971462  1
  Fe  Fe22  1  0.62294837  0.12420406  0.87072108  1
  Fe  Fe23  1  0.87541503  0.62206168  0.87618408  1
  Fe  Fe24  1  0.74838564  0.25266641  0.74671479  1
  Fe  Fe25  1  0.87428323  0.12494322  0.37655967  1
  Fe  Fe26  1  0.12670592  0.87571814  0.87398522  1
  Fe  Fe27  1  0.12441388  0.87483771  0.12682845  1
  Fe  Fe28  1  0.25207625  0.50205465  0.24935326  1
  Fe  Fe29  1  0.88004200  0.12962751  0.12612870  1
  Fe  Fe30  1  0.37403738  0.87322351  0.87581378  1
  Fe  Fe31  1  0.37243376  0.37586751  0.87657016  1
  Fe  Fe32  1  0.62640628  0.37522903  0.12718034  1
  Fe  Fe33  1  -0.00178144  -0.00311281  0.25262932  1
  Fe  Fe34  1  -0.00336694  0.49301300  0.24767140  1
  Fe  Fe35  1  0.62535486  0.12232026  0.37529156  1
  Fe  Fe36  1  0.37712441  0.62569504  0.87714996  1
  Fe  Fe37  1  0.75451954  0.50162861  0.24850866  1
  Fe  Fe38  1  0.63043326  0.87614604  0.37710127  1
  Fe  Fe39  1  0.36876833  0.37142516  0.38029389  1
  Fe  Fe40  1  0.00059192  0.75004310  0.00185190  1
  Fe  Fe41  1  0.24957359  0.50243623  0.00356670  1
  Fe  Fe42  1  0.37803101  0.12558398  0.87345892  1
  Fe  Fe43  1  0.62640943  0.87533308  0.87322640  1
  Fe  Fe44  1  -0.00032185  0.00045764  -0.00041375  1
  Fe  Fe45  1  0.62862551  0.37874590  0.37462797  1
  Fe  Fe46  1  0.24690240  0.74575614  0.49830896  1
  Fe  Fe47  1  0.49856407  0.25108925  0.25400389  1
  Fe  Fe48  1  0.87306497  0.87440150  0.87482072  1
  Fe  Fe49  1  0.12975930  0.37906647  0.62549022  1
  Fe  Fe50  1  0.00396173  0.25413111  0.49642568  1
  Fe  Fe51  1  0.12557383  0.12300006  0.37337351  1
  Fe  Fe52  1  0.62349594  0.62486363  0.12736856  1
  Fe  Fe53  1  0.50064382  0.75055104  0.74839322  1
  Fe  Fe54  1  0.12176658  0.62151965  0.87485709  1
  Fe  Fe55  1  0.75044719  0.00130391  0.74631152  1
  Fe  Fe56  1  0.75218276  0.50301277  0.49928840  1
  Fe  Fe57  1  0.24815841  0.74639832  0.00257322  1
  Fe  Fe58  1  0.87350026  0.87260302  0.12740138  1
  Fe  Fe59  1  0.37413175  0.62414713  0.62244991  1
  Fe  Fe60  1  0.74949315  0.25013699  -0.00066544  1
  Fe  Fe61  1  -0.00358449  0.49511350  0.00449984  1
  Fe  Fe62  1  0.87891730  0.62644833  0.62268086  1
  Fe  Fe63  1  -0.00041084  0.75426824  0.49352243  1
  Fe  Fe64  1  0.50140094  -0.00061844  0.50034449  1
  Fe  Fe65  1  0.38242705  0.13101570  0.62372184  1
  Fe  Fe66  1  0.24664685  0.24676866  0.00266433  1
  Fe  Fe67  1  0.62496226  0.62254777  0.87332981  1
  Fe  Fe68  1  0.62154373  0.12686296  0.12551297  1
  Fe  Fe69  1  0.62860618  0.87175882  0.62285066  1
  Fe  Fe70  1  0.37686049  0.87200108  0.12372067  1
  Fe  Fe71  1  0.24753281  0.74577254  0.74959040  1
  Fe  Fe72  1  0.50131175  0.50012767  0.00239673  1
  Fe  Fe73  1  0.75071620  0.00209561  0.00272983  1
  Fe  Fe74  1  0.37291968  0.87446893  0.37720716  1
  Fe  Fe75  1  0.74596912  0.24939712  0.50180486  1
  Fe  Fe76  1  -0.00180111  -0.00278506  0.74931725  1
  Fe  Fe77  1  0.49725203  0.49870679  0.49787673  1
  Fe  Fe78  1  0.50115114  0.25232632  -0.00168032  1
  Fe  Fe79  1  0.74845317  0.74681643  -0.00096141  1
  Fe  Fe80  1  0.24952975  0.00286344  0.00217677  1
  Fe  Fe81  1  -0.00023850  -0.00254547  0.49853774  1
  Fe  Fe82  1  0.75073854  0.24858072  0.25166740  1
  Fe  Fe83  1  0.49578800  0.49590322  0.74767718  1
  Fe  Fe84  1  0.62727561  0.87295193  0.12762589  1
  Fe  Fe85  1  0.87230308  0.87226484  0.62275433  1
  Fe  Fe86  1  0.49612572  0.49890098  0.25189780  1
  Fe  Fe87  1  0.25052736  0.00395221  0.50283415  1
  Fe  Fe88  1  0.75428034  0.49981881  0.74668158  1
  Fe  Fe89  1  0.49988708  0.74886468  0.25447861  1
  Co  Co90  1  0.24799650  0.50467854  0.49844748  1
  Co  Co91  1  0.37137710  0.37356266  0.61882586  1
  Co  Co92  1  0.00042188  0.25420032  0.25602074  1
  Co  Co93  1  0.13103101  0.87729761  0.37469853  1
  Co  Co94  1  0.75099698  0.74685888  0.75053415  1
  Co  Co95  1  -0.00194595  0.49782070  0.74796768  1
  Co  Co96  1  0.00263074  0.25271676  -0.00262562  1
  Co  Co97  1  0.50580777  0.25361913  0.49608091  1
  Co  Co98  1  0.87076878  0.37419373  0.37716025  1
  Co  Co99  1  0.12073343  0.62517851  0.62368477  1
  Co  Co100  1  0.24398940  0.24572310  0.50227451  1
  Co  Co101  1  0.61891190  0.12658265  0.62834579  1
  Co  Co102  1  -0.00123771  0.75471024  0.25421877  1
  Co  Co103  1  0.13042892  0.37650538  0.37265327  1
  Co  Co104  1  0.62498175  0.37918921  0.62301500  1
  Co  Co105  1  0.12644512  0.37388914  0.12648666  1
  Co  Co106  1  0.87404831  0.37365094  0.62109976  1
  Co  Co107  1  0.25161073  0.50270075  0.74985109  1
  Co  Co108  1  0.74926851  0.00405647  0.50539378  1
  Co  Co109  1  0.11932483  0.12490410  0.12771031  1
  Co  Co110  1  0.87667670  0.62791560  0.12566865  1
  Co  Co111  1  0.50414182  0.74967040  -0.00083851  1
  Co  Co112  1  0.75022457  0.50128785  0.00431828  1
  Co  Co113  1  0.75212009  0.74452451  0.49469504  1
  Co  Co114  1  0.88211809  0.62029186  0.37563128  1
  Co  Co115  1  0.49890097  -0.00479481  0.74856861  1
  Co  Co116  1  0.37494732  0.62683227  0.37602386  1
  Co  Co117  1  0.37957944  0.12650507  0.12409105  1
  Co  Co118  1  0.12070454  0.62349332  0.12814915  1
  Co  Co119  1  0.62285334  0.62122395  0.37514133  1
  Co  Co120  1  0.86736248  0.87997623  0.37531356  1
  Co  Co121  1  0.37873942  0.62633793  0.12481912  1
  Co  Co122  1  0.50016899  0.25851367  0.75117964  1
  Co  Co123  1  0.37537001  0.12682993  0.37827537  1
  Co  Co124  1  0.87227449  0.37628568  0.87604179  1
  Co  Co125  1  0.87226890  0.36859566  0.12458844  1
  Co  Co126  1  0.75030584  0.00422097  0.24576511  1
  Co  Co127  1  0.50169425  0.74947339  0.49852761  1
