# generated using pymatgen
data_Fe45Co19
_symmetry_space_group_name_H-M   'P 1'
_cell_length_a   11.41420896
_cell_length_b   11.41529593
_cell_length_c   11.41569593
_cell_angle_alpha   89.99732029
_cell_angle_beta   89.99669952
_cell_angle_gamma   90.00313020
_symmetry_Int_Tables_number   1
_chemical_formula_structural   Fe45Co19
_chemical_formula_sum   'Fe90 Co38'
_cell_volume   1487.42605215
_cell_formula_units_Z   2
loop_
 _symmetry_equiv_pos_site_id
 _symmetry_equiv_pos_as_xyz
  1  'x, y, z'
loop_
 _atom_site_type_symbol
 _atom_site_label
 _atom_site_symmetry_multiplicity
 _atom_site_fract_x
 _atom_site_fract_y
 _atom_site_fract_z
 _atom_site_occupancy
  Fe  Fe0  1  0.75168579  -0.00074716  0.00034653  1
  Fe  Fe1  1  0.62162360  0.87120988  0.62353026  1
  Fe  Fe2  1  0.50210217  0.50268248  0.49848125  1
  Fe  Fe3  1  0.12175768  0.37859503  0.87588865  1
  Fe  Fe4  1  0.37686358  0.37516378  0.37447430  1
  Fe  Fe5  1  0.12467834  0.87473032  0.37306395  1
  Fe  Fe6  1  0.62469113  0.87385950  0.12794280  1
  Fe  Fe7  1  0.62541468  0.37713033  0.87564665  1
  Fe  Fe8  1  0.75374093  0.25485063  0.49772700  1
  Fe  Fe9  1  -0.00000660  0.50653484  0.75067059  1
  Fe  Fe10  1  -0.00197297  0.00103580  -0.00104639  1
  Fe  Fe11  1  0.75183431  -0.00373128  0.49943263  1
  Fe  Fe12  1  0.37039766  0.12418818  0.37617749  1
  Fe  Fe13  1  0.87768822  0.87387657  0.12578773  1
  Fe  Fe14  1  0.12358706  0.87113575  0.62543307  1
  Fe  Fe15  1  0.62462728  0.87334577  0.87420053  1
  Fe  Fe16  1  0.11925268  0.37787362  0.36975427  1
  Fe  Fe17  1  0.37607339  0.87334875  0.62423830  1
  Fe  Fe18  1  0.13427149  0.62317103  0.12461989  1
  Fe  Fe19  1  0.49964985  0.74760942  0.00292133  1
  Fe  Fe20  1  -0.00014523  0.74369361  0.49765692  1
  Fe  Fe21  1  0.49995718  0.24969392  0.00229631  1
  Fe  Fe22  1  -0.00172887  0.25005728  -0.00070868  1
  Fe  Fe23  1  0.87678134  0.87163600  0.37309160  1
  Fe  Fe24  1  0.49852232  0.00297029  0.24994948  1
  Fe  Fe25  1  0.62469458  0.87159653  0.37502811  1
  Fe  Fe26  1  0.75411155  0.25292080  -0.00065594  1
  Fe  Fe27  1  0.24897346  0.74950989  0.75198874  1
  Fe  Fe28  1  0.50040457  0.74575836  0.74979306  1
  Fe  Fe29  1  0.24891725  0.49925414  0.74987879  1
  Fe  Fe30  1  0.62716759  0.12643201  0.62336752  1
  Fe  Fe31  1  0.87859466  0.87351320  0.62620333  1
  Fe  Fe32  1  0.75092728  0.50134773  0.24966143  1
  Fe  Fe33  1  0.37578200  0.87494687  0.87513870  1
  Fe  Fe34  1  -0.00097193  0.00316486  0.25064024  1
  Fe  Fe35  1  0.49793763  0.50303682  0.24804885  1
  Fe  Fe36  1  0.62737146  0.12672684  0.12653209  1
  Fe  Fe37  1  0.87586986  0.12432833  0.62393411  1
  Fe  Fe38  1  0.37556960  0.37406163  0.87716172  1
  Fe  Fe39  1  0.74893391  0.75089205  0.00258529  1
  Fe  Fe40  1  0.24859174  0.25243288  0.75076710  1
  Fe  Fe41  1  0.12582392  0.12563754  0.37644092  1
  Fe  Fe42  1  0.37006694  0.62401610  0.37423061  1
  Fe  Fe43  1  0.87959071  0.37592680  0.12835497  1
  Fe  Fe44  1  0.37518743  0.37506492  0.62360108  1
  Fe  Fe45  1  0.37165352  0.62510229  0.87826196  1
  Fe  Fe46  1  -0.00073329  0.25396172  0.49757819  1
  Fe  Fe47  1  0.37307997  0.87290347  0.12782862  1
  Fe  Fe48  1  0.12403943  0.87394831  0.12676800  1
  Fe  Fe49  1  0.12404046  0.12400295  0.87480407  1
  Fe  Fe50  1  0.37244974  0.62407952  0.62312452  1
  Fe  Fe51  1  0.75343808  -0.00053438  0.25076408  1
  Fe  Fe52  1  0.62413243  0.37754512  0.62484132  1
  Fe  Fe53  1  0.50017943  0.24990307  0.49897845  1
  Fe  Fe54  1  -0.00238891  0.24956839  0.75141470  1
  Fe  Fe55  1  0.62841725  0.62226739  0.87778519  1
  Fe  Fe56  1  0.87149205  0.62485076  0.12298243  1
  Fe  Fe57  1  0.75300521  0.25408537  0.75101665  1
  Fe  Fe58  1  0.37079653  0.12769514  0.62165028  1
  Fe  Fe59  1  0.37338353  0.12580667  0.87712510  1
  Fe  Fe60  1  0.24475475  0.49548248  0.50035511  1
  Fe  Fe61  1  0.62288086  0.37368796  0.12870600  1
  Fe  Fe62  1  0.25044747  0.75229353  0.49651890  1
  Fe  Fe63  1  0.87745075  0.38182319  0.62345831  1
  Fe  Fe64  1  0.62692756  0.12640365  0.87490929  1
  Fe  Fe65  1  0.12292329  0.87463421  0.87399262  1
  Fe  Fe66  1  0.49806432  0.74675622  0.25032525  1
  Fe  Fe67  1  0.12483177  0.12586599  0.12497432  1
  Fe  Fe68  1  0.62723251  0.12557798  0.37552877  1
  Fe  Fe69  1  0.87650285  0.87367687  0.87430160  1
  Fe  Fe70  1  0.75544170  0.24939607  0.25299032  1
  Fe  Fe71  1  0.12557784  0.12774975  0.62256560  1
  Fe  Fe72  1  0.00152768  -0.00070594  0.50027208  1
  Fe  Fe73  1  0.62964217  0.62867362  0.37596720  1
  Fe  Fe74  1  0.24805148  -0.00050772  0.74731296  1
  Fe  Fe75  1  0.75049990  -0.00105503  0.74950541  1
  Fe  Fe76  1  0.50044086  0.50142958  0.74980897  1
  Fe  Fe77  1  0.62416639  0.37415510  0.37268720  1
  Fe  Fe78  1  0.49975842  0.00214596  0.74929538  1
  Fe  Fe79  1  0.50037466  0.00046504  0.00145122  1
  Fe  Fe80  1  0.24980664  -0.00139449  0.00218280  1
  Fe  Fe81  1  0.75148300  0.74500705  0.74712936  1
  Fe  Fe82  1  0.49833618  0.50189452  0.00447335  1
  Fe  Fe83  1  0.00111743  0.74283370  0.25067570  1
  Fe  Fe84  1  0.49959753  0.25020748  0.74899824  1
  Fe  Fe85  1  0.00293085  0.74488951  -0.00086193  1
  Fe  Fe86  1  0.49828274  -0.00068500  0.49923242  1
  Fe  Fe87  1  -0.00122931  0.74288654  0.75193928  1
  Fe  Fe88  1  0.12333081  0.37723347  0.12580675  1
  Fe  Fe89  1  0.25084042  0.25203550  0.24887297  1
  Co  Co90  1  0.74695283  0.49715088  0.49741364  1
  Co  Co91  1  0.24772332  0.00044445  0.24844620  1
  Co  Co92  1  0.12127946  0.37578729  0.62856885  1
  Co  Co93  1  0.24698501  0.25735538  0.49732765  1
  Co  Co94  1  0.12918937  0.62271609  0.87678868  1
  Co  Co95  1  0.88006027  0.38136526  0.37208341  1
  Co  Co96  1  0.24863545  0.75411511  -0.00102706  1
  Co  Co97  1  0.00008265  0.50920583  0.24742030  1
  Co  Co98  1  0.24629989  0.25246829  -0.00009731  1
  Co  Co99  1  0.25143142  0.49577484  -0.00015183  1
  Co  Co100  1  0.36841482  0.62670887  0.12531497  1
  Co  Co101  1  0.62527311  0.62472760  0.62263306  1
  Co  Co102  1  0.37499965  0.87695761  0.37177052  1
  Co  Co103  1  0.87467885  0.12484649  0.12425035  1
  Co  Co104  1  0.25204878  0.49507058  0.25016078  1
  Co  Co105  1  0.12774498  0.62662335  0.62378547  1
  Co  Co106  1  0.00527933  0.50243516  0.49879690  1
  Co  Co107  1  0.49650019  0.74762163  0.49736109  1
  Co  Co108  1  0.49716535  0.24766532  0.25181527  1
  Co  Co109  1  0.12969654  0.62255577  0.37442508  1
  Co  Co110  1  0.87657060  0.12408431  0.37786021  1
  Co  Co111  1  0.24791947  -0.00453032  0.50091763  1
  Co  Co112  1  0.37615766  0.37386428  0.12489986  1
  Co  Co113  1  0.75024970  0.49497910  0.00476547  1
  Co  Co114  1  0.87835476  0.38094166  0.87559070  1
  Co  Co115  1  0.24810623  0.75231311  0.25281135  1
  Co  Co116  1  0.00187246  0.00038491  0.74838405  1
  Co  Co117  1  0.74987725  0.50057453  0.74958645  1
  Co  Co118  1  0.37306088  0.12721197  0.12379949  1
  Co  Co119  1  0.87046734  0.62267268  0.87985498  1
  Co  Co120  1  0.87200724  0.62215719  0.37774283  1
  Co  Co121  1  0.75290779  0.75251829  0.50282301  1
  Co  Co122  1  -0.00072286  0.24634354  0.25049294  1
  Co  Co123  1  0.87445999  0.12360503  0.87409260  1
  Co  Co124  1  0.62682768  0.62468076  0.12570223  1
  Co  Co125  1  0.75255955  0.75022273  0.24832150  1
  Co  Co126  1  0.00109044  0.50426316  0.00340859  1
  Co  Co127  1  0.87392234  0.61959204  0.61928389  1
