# generated using pymatgen
data_Fe45Co19
_symmetry_space_group_name_H-M   'P 1'
_cell_length_a   11.41538919
_cell_length_b   11.41470084
_cell_length_c   11.41430549
_cell_angle_alpha   89.99089588
_cell_angle_beta   89.99794656
_cell_angle_gamma   89.99781997
_symmetry_Int_Tables_number   1
_chemical_formula_structural   Fe45Co19
_chemical_formula_sum   'Fe90 Co38'
_cell_volume   1487.32111030
_cell_formula_units_Z   2
loop_
 _symmetry_equiv_pos_site_id
 _symmetry_equiv_pos_as_xyz
  1  'x, y, z'
loop_
 _atom_site_type_symbol
 _atom_site_label
 _atom_site_symmetry_multiplicity
 _atom_site_fract_x
 _atom_site_fract_y
 _atom_site_fract_z
 _atom_site_occupancy
  Fe  Fe0  1  0.38278786  0.62643235  0.12625704  1
  Fe  Fe1  1  -0.00015032  0.49990237  0.75138413  1
  Fe  Fe2  1  0.37750687  0.12578649  0.12468725  1
  Fe  Fe3  1  0.62594938  0.87867735  0.37109171  1
  Fe  Fe4  1  0.87800925  0.62642815  0.62202602  1
  Fe  Fe5  1  0.74715148  0.00298603  0.74906563  1
  Fe  Fe6  1  0.87416431  0.87451274  0.12705772  1
  Fe  Fe7  1  0.25183773  0.25051405  -0.00048441  1
  Fe  Fe8  1  0.74766957  0.24228744  0.25348772  1
  Fe  Fe9  1  -0.00007052  -0.00303280  0.75425947  1
  Fe  Fe10  1  0.12771510  0.37555731  0.87691023  1
  Fe  Fe11  1  0.37706789  0.62648238  0.62416810  1
  Fe  Fe12  1  0.74804923  0.74840853  0.00435281  1
  Fe  Fe13  1  0.50084428  0.75135209  0.49555905  1
  Fe  Fe14  1  0.87273784  0.37403054  0.37077864  1
  Fe  Fe15  1  0.12597860  0.62534056  0.87845358  1
  Fe  Fe16  1  0.50071959  0.00003351  0.00021712  1
  Fe  Fe17  1  0.62115610  0.12655476  0.61931827  1
  Fe  Fe18  1  0.87732551  0.12520228  0.62327960  1
  Fe  Fe19  1  0.00139518  0.25040891  0.75319947  1
  Fe  Fe20  1  0.87458824  0.37360135  0.62663800  1
  Fe  Fe21  1  0.00075196  0.74998393  0.25227738  1
  Fe  Fe22  1  0.74760452  0.24913078  0.74852247  1
  Fe  Fe23  1  0.74933379  0.74702561  0.74976008  1
  Fe  Fe24  1  0.49905344  0.50001077  0.75217164  1
  Fe  Fe25  1  -0.00053474  0.25245010  0.49766955  1
  Fe  Fe26  1  0.49821287  0.49665174  0.49747713  1
  Fe  Fe27  1  0.87562310  0.12638697  0.12528756  1
  Fe  Fe28  1  0.50054406  0.24943330  0.25284807  1
  Fe  Fe29  1  0.75001795  0.75015646  0.49772770  1
  Fe  Fe30  1  0.25197394  -0.00145757  0.24443334  1
  Fe  Fe31  1  0.37705110  0.12419216  0.62577204  1
  Fe  Fe32  1  0.12845363  0.37727268  0.37247740  1
  Fe  Fe33  1  0.62477383  0.87477585  0.62392929  1
  Fe  Fe34  1  0.62663015  0.37419955  0.37621150  1
  Fe  Fe35  1  0.00273959  0.25005127  0.24936670  1
  Fe  Fe36  1  0.37593629  0.62560671  0.87846294  1
  Fe  Fe37  1  0.37316623  0.87746914  0.87396151  1
  Fe  Fe38  1  0.75172671  0.49768950  0.50088217  1
  Fe  Fe39  1  0.25311612  0.49887850  0.00341594  1
  Fe  Fe40  1  -0.00129837  0.00186385  0.24899018  1
  Fe  Fe41  1  0.74886968  0.00112214  0.00410331  1
  Fe  Fe42  1  0.37414504  0.12277688  0.87330756  1
  Fe  Fe43  1  0.12603357  0.12303109  0.37506516  1
  Fe  Fe44  1  -0.00039446  0.75500935  -0.00226374  1
  Fe  Fe45  1  -0.00063255  0.75284350  0.75357021  1
  Fe  Fe46  1  0.75001879  0.25067181  -0.00038150  1
  Fe  Fe47  1  0.12327330  0.62637249  0.12518002  1
  Fe  Fe48  1  0.24981553  0.50082314  0.49910668  1
  Fe  Fe49  1  0.50120382  0.25116750  0.75094149  1
  Fe  Fe50  1  0.75202639  0.50045445  0.00616361  1
  Fe  Fe51  1  0.12511610  0.87277871  0.62422947  1
  Fe  Fe52  1  0.25154303  0.24979231  0.49975308  1
  Fe  Fe53  1  0.12438255  0.12327724  0.12188092  1
  Fe  Fe54  1  0.75046504  0.00400580  0.49681956  1
  Fe  Fe55  1  0.62180073  0.87409028  0.12991581  1
  Fe  Fe56  1  0.12128542  0.62613957  0.62105237  1
  Fe  Fe57  1  0.24926240  0.24918114  0.24924177  1
  Fe  Fe58  1  0.62681442  0.37679626  0.87461342  1
  Fe  Fe59  1  0.25156596  -0.00100351  0.50122177  1
  Fe  Fe60  1  0.37371135  0.37447027  0.62728018  1
  Fe  Fe61  1  0.12753714  0.87473212  0.37193020  1
  Fe  Fe62  1  0.24873452  0.74924123  0.75066569  1
  Fe  Fe63  1  0.87162087  0.87662570  0.37125823  1
  Fe  Fe64  1  0.62666372  0.37435624  0.12784934  1
  Fe  Fe65  1  0.75052671  0.50195355  0.74886706  1
  Fe  Fe66  1  0.62380615  0.62304773  0.87908092  1
  Fe  Fe67  1  0.87315499  0.87498559  0.62532656  1
  Fe  Fe68  1  0.87478081  0.62524811  0.87780207  1
  Fe  Fe69  1  0.24970072  0.50184746  0.75070379  1
  Fe  Fe70  1  -0.00333842  0.49549465  0.00306248  1
  Fe  Fe71  1  0.37683157  0.12425467  0.37588759  1
  Fe  Fe72  1  -0.00013775  -0.00253869  0.49822067  1
  Fe  Fe73  1  0.50001787  0.25301478  -0.00171831  1
  Fe  Fe74  1  0.25201021  0.75495296  0.00589454  1
  Fe  Fe75  1  0.37535462  0.37627475  0.12883893  1
  Fe  Fe76  1  -0.00145211  0.25189559  -0.00055163  1
  Fe  Fe77  1  0.12612446  0.37522829  0.62492824  1
  Fe  Fe78  1  0.87224949  0.12411529  0.87562206  1
  Fe  Fe79  1  0.00009665  0.49801175  0.24728368  1
  Fe  Fe80  1  0.87553028  0.62398609  0.37509997  1
  Fe  Fe81  1  0.62755420  0.87630550  0.87444371  1
  Fe  Fe82  1  0.37627219  0.87361651  0.62612233  1
  Fe  Fe83  1  0.24933486  0.74855763  0.49642882  1
  Fe  Fe84  1  0.37534203  0.87572679  0.36977830  1
  Fe  Fe85  1  0.37383611  0.62310483  0.37083102  1
  Fe  Fe86  1  0.12389990  0.12432968  0.62463773  1
  Fe  Fe87  1  0.50140995  0.75024811  0.75261402  1
  Fe  Fe88  1  0.12865968  0.12016521  0.87754957  1
  Fe  Fe89  1  0.62253942  0.62409837  0.62194882  1
  Co  Co90  1  0.24867775  0.24840889  0.75021121  1
  Co  Co91  1  -0.00376197  -0.00126074  -0.00216685  1
  Co  Co92  1  0.74719362  0.74503070  0.24898411  1
  Co  Co93  1  0.62488986  0.12570865  0.87706585  1
  Co  Co94  1  0.74809874  0.50572202  0.24680482  1
  Co  Co95  1  0.50146374  0.75412292  -0.00366705  1
  Co  Co96  1  0.61946682  0.12462186  0.38041135  1
  Co  Co97  1  0.87238071  0.37539441  0.87384364  1
  Co  Co98  1  0.62280947  0.12784002  0.12311216  1
  Co  Co99  1  0.86803034  0.87482227  0.87561654  1
  Co  Co100  1  -0.00149387  0.49548314  0.49804040  1
  Co  Co101  1  0.24985911  0.74921289  0.24591391  1
  Co  Co102  1  0.37139534  0.37587599  0.37070708  1
  Co  Co103  1  0.50162317  0.00505170  0.24856115  1
  Co  Co104  1  0.25430263  -0.00319167  0.00681285  1
  Co  Co105  1  0.24929482  -0.00017856  0.74611685  1
  Co  Co106  1  0.87844568  0.12547715  0.37512832  1
  Co  Co107  1  0.61765558  0.62498123  0.12216567  1
  Co  Co108  1  0.12743261  0.37324513  0.12373632  1
  Co  Co109  1  0.50427551  0.49932719  0.25239575  1
  Co  Co110  1  0.87869376  0.62809017  0.12543762  1
  Co  Co111  1  0.74850437  0.00612362  0.24873549  1
  Co  Co112  1  0.50266813  -0.00052015  0.74989562  1
  Co  Co113  1  0.12333927  0.62351686  0.37460418  1
  Co  Co114  1  0.49785559  -0.00390918  0.49953631  1
  Co  Co115  1  0.62469178  0.37614953  0.62444032  1
  Co  Co116  1  0.49624361  0.25455323  0.49918660  1
  Co  Co117  1  0.75215110  0.24859113  0.49955102  1
  Co  Co118  1  0.13029771  0.87740970  0.87766483  1
  Co  Co119  1  0.12101319  0.87643027  0.12591027  1
  Co  Co120  1  0.38356613  0.87242193  0.12978745  1
  Co  Co121  1  0.87111637  0.37044501  0.12978270  1
  Co  Co122  1  0.24903619  0.50355063  0.24591217  1
  Co  Co123  1  0.62680051  0.62202269  0.37931775  1
  Co  Co124  1  0.37328459  0.37461721  0.87298129  1
  Co  Co125  1  0.50415701  0.74617471  0.25565077  1
  Co  Co126  1  -0.00143906  0.75394583  0.49650695  1
  Co  Co127  1  0.49970379  0.49477304  0.00074527  1
