# generated using pymatgen
data_Fe45Co19
_symmetry_space_group_name_H-M   'P 1'
_cell_length_a   11.41557888
_cell_length_b   11.41489393
_cell_length_c   11.41436485
_cell_angle_alpha   90.01371580
_cell_angle_beta   90.00443563
_cell_angle_gamma   89.99558723
_symmetry_Int_Tables_number   1
_chemical_formula_structural   Fe45Co19
_chemical_formula_sum   'Fe90 Co38'
_cell_volume   1487.37869040
_cell_formula_units_Z   2
loop_
 _symmetry_equiv_pos_site_id
 _symmetry_equiv_pos_as_xyz
  1  'x, y, z'
loop_
 _atom_site_type_symbol
 _atom_site_label
 _atom_site_symmetry_multiplicity
 _atom_site_fract_x
 _atom_site_fract_y
 _atom_site_fract_z
 _atom_site_occupancy
  Fe  Fe0  1  0.37616506  0.37671034  0.12473702  1
  Fe  Fe1  1  0.62404488  0.37537103  0.12346375  1
  Fe  Fe2  1  0.75012718  0.75172413  0.75081280  1
  Fe  Fe3  1  0.87498944  0.12507527  0.37354489  1
  Fe  Fe4  1  0.25008702  0.75127958  0.24908041  1
  Fe  Fe5  1  0.37586557  0.37458314  0.37712142  1
  Fe  Fe6  1  0.75108893  0.25015473  0.24700242  1
  Fe  Fe7  1  0.37360376  0.12566260  0.37500515  1
  Fe  Fe8  1  0.24747884  0.00078027  0.50198092  1
  Fe  Fe9  1  0.12340598  0.37398726  0.37598391  1
  Fe  Fe10  1  0.25034861  -0.00126916  0.74930413  1
  Fe  Fe11  1  0.00003484  0.00328503  0.50231565  1
  Fe  Fe12  1  0.87479232  0.37347196  0.37593537  1
  Fe  Fe13  1  0.50018124  0.25049316  -0.00072740  1
  Fe  Fe14  1  0.62711991  0.12610692  0.37432728  1
  Fe  Fe15  1  0.75138668  0.24952424  0.50399185  1
  Fe  Fe16  1  0.24797336  0.74958360  0.50126972  1
  Fe  Fe17  1  0.74950377  0.75126553  -0.00510864  1
  Fe  Fe18  1  0.37548658  0.12544489  0.62530116  1
  Fe  Fe19  1  0.49894941  0.24975722  0.75112414  1
  Fe  Fe20  1  0.50120365  0.25088708  0.25045232  1
  Fe  Fe21  1  0.37787796  0.87240519  0.87477879  1
  Fe  Fe22  1  0.25273593  0.75136112  0.00079351  1
  Fe  Fe23  1  0.24859050  0.50083080  -0.00083345  1
  Fe  Fe24  1  0.75137718  0.49688251  0.24951027  1
  Fe  Fe25  1  0.87757100  0.37155750  0.11862766  1
  Fe  Fe26  1  0.12466293  0.62457592  0.37478421  1
  Fe  Fe27  1  0.74946300  0.49821030  0.50177159  1
  Fe  Fe28  1  -0.00506265  -0.00107767  0.24575595  1
  Fe  Fe29  1  0.49923392  -0.00104376  -0.00008537  1
  Fe  Fe30  1  0.24761075  0.50065081  0.74977189  1
  Fe  Fe31  1  0.74954562  0.49718137  -0.00229664  1
  Fe  Fe32  1  0.87334683  0.62379751  0.37545812  1
  Fe  Fe33  1  0.50057014  0.50052767  -0.00309958  1
  Fe  Fe34  1  0.62574480  0.87522239  0.12405530  1
  Fe  Fe35  1  0.62731148  0.62462477  0.12578720  1
  Fe  Fe36  1  0.62581382  0.62211134  0.87138473  1
  Fe  Fe37  1  0.50075266  -0.00106879  0.25022364  1
  Fe  Fe38  1  0.37598245  0.62814453  0.87343049  1
  Fe  Fe39  1  0.50054093  -0.00035319  0.75011948  1
  Fe  Fe40  1  0.24772581  0.25032345  0.50243186  1
  Fe  Fe41  1  0.87418557  0.12539041  0.87774993  1
  Fe  Fe42  1  0.37637147  0.87363385  0.62500283  1
  Fe  Fe43  1  -0.00220670  0.49952080  0.24774551  1
  Fe  Fe44  1  -0.00490573  0.74888750  -0.00588603  1
  Fe  Fe45  1  0.37761089  0.37628602  0.62282880  1
  Fe  Fe46  1  -0.00130487  0.74853763  0.50177818  1
  Fe  Fe47  1  0.24886896  0.25079588  0.24779276  1
  Fe  Fe48  1  0.75029581  0.00115533  0.50050774  1
  Fe  Fe49  1  0.87588846  0.62235988  0.62940780  1
  Fe  Fe50  1  0.88088698  0.37349401  0.62913991  1
  Fe  Fe51  1  0.75194704  0.75517300  0.25290851  1
  Fe  Fe52  1  0.00426634  0.50112725  0.75695961  1
  Fe  Fe53  1  0.37484455  0.12425267  0.12475469  1
  Fe  Fe54  1  0.12309604  0.12582060  0.37318976  1
  Fe  Fe55  1  0.37137327  0.12615206  0.87544694  1
  Fe  Fe56  1  0.24881327  -0.00165134  0.24757888  1
  Fe  Fe57  1  0.24908858  -0.00150197  0.00075234  1
  Fe  Fe58  1  0.74936599  0.00064160  0.74986153  1
  Fe  Fe59  1  0.50165043  0.00331519  0.50028711  1
  Fe  Fe60  1  0.37589506  0.62486640  0.62660597  1
  Fe  Fe61  1  0.75149131  0.75108877  0.50052180  1
  Fe  Fe62  1  0.50076941  0.74938314  0.25041284  1
  Fe  Fe63  1  0.62093701  0.37486564  0.62525177  1
  Fe  Fe64  1  0.62711275  0.12456238  0.12457217  1
  Fe  Fe65  1  0.75095837  0.25187768  0.75150180  1
  Fe  Fe66  1  0.37163988  0.37293485  0.87576748  1
  Fe  Fe67  1  0.12130177  0.87311082  0.12279185  1
  Fe  Fe68  1  0.12349922  0.87318183  0.87318568  1
  Fe  Fe69  1  0.87690375  0.87721124  0.62727545  1
  Fe  Fe70  1  0.12231619  0.87245595  0.62826010  1
  Fe  Fe71  1  0.12234116  0.37454225  0.12119056  1
  Fe  Fe72  1  0.12287735  0.62555926  0.12198031  1
  Fe  Fe73  1  0.62534669  0.12478243  0.87544171  1
  Fe  Fe74  1  0.12221013  0.87577761  0.37516182  1
  Fe  Fe75  1  0.00061302  0.50016802  0.50032895  1
  Fe  Fe76  1  0.87364824  0.62512989  0.12199811  1
  Fe  Fe77  1  0.24779596  0.50070224  0.50181344  1
  Fe  Fe78  1  0.37634913  0.62446532  0.12558834  1
  Fe  Fe79  1  -0.00299505  0.74952424  0.25082623  1
  Fe  Fe80  1  0.12077781  0.12678253  0.12232455  1
  Fe  Fe81  1  0.75388091  -0.00065338  0.00244803  1
  Fe  Fe82  1  0.50261547  0.50075625  0.25546633  1
  Fe  Fe83  1  0.62479563  0.87685446  0.62510090  1
  Fe  Fe84  1  0.00067596  0.00372620  0.75285495  1
  Fe  Fe85  1  0.12271403  0.13026504  0.62871559  1
  Fe  Fe86  1  0.24844248  0.49986227  0.24946300  1
  Fe  Fe87  1  0.62472790  0.62176395  0.62759090  1
  Fe  Fe88  1  0.50179891  0.74624162  0.49848905  1
  Fe  Fe89  1  0.37509712  0.87554889  0.37575126  1
  Co  Co90  1  0.25025514  0.75024419  0.74878793  1
  Co  Co91  1  0.25198396  0.25147948  0.74534306  1
  Co  Co92  1  0.50092957  0.24758219  0.50026221  1
  Co  Co93  1  0.00106728  0.24986372  -0.00744489  1
  Co  Co94  1  0.37695416  0.87507365  0.12472426  1
  Co  Co95  1  0.25080108  0.24917973  0.00491374  1
  Co  Co96  1  0.62525836  0.12587189  0.62793857  1
  Co  Co97  1  0.49737913  0.49893898  0.75230139  1
  Co  Co98  1  0.50386439  0.75104189  0.75014240  1
  Co  Co99  1  0.12745239  0.62881072  0.87694800  1
  Co  Co100  1  0.37144840  0.62529856  0.37390148  1
  Co  Co101  1  0.00105333  0.50072261  -0.00399090  1
  Co  Co102  1  0.87577462  0.12561157  0.62762254  1
  Co  Co103  1  0.87702525  0.12938109  0.12195071  1
  Co  Co104  1  0.62371669  0.87580619  0.37674666  1
  Co  Co105  1  0.87381389  0.37716155  0.87584748  1
  Co  Co106  1  0.13071923  0.37114126  0.87492190  1
  Co  Co107  1  0.62738719  0.37305952  0.37715102  1
  Co  Co108  1  -0.00076033  0.25210065  0.25032455  1
  Co  Co109  1  -0.00024978  0.00001516  -0.00112331  1
  Co  Co110  1  0.87009166  0.62093672  0.87291917  1
  Co  Co111  1  0.87506237  0.87789136  0.87181332  1
  Co  Co112  1  -0.00329335  0.74667651  0.75268101  1
  Co  Co113  1  0.87780005  0.87740431  0.37892134  1
  Co  Co114  1  0.74732997  0.25130242  -0.00152716  1
  Co  Co115  1  0.74911015  0.49502711  0.74808999  1
  Co  Co116  1  0.12400411  0.62576030  0.62648000  1
  Co  Co117  1  0.62512424  0.87814278  0.87587260  1
  Co  Co118  1  -0.00121172  0.24881133  0.75691346  1
  Co  Co119  1  0.12039720  0.37371978  0.62686955  1
  Co  Co120  1  0.50301862  0.74812130  0.00012142  1
  Co  Co121  1  0.13095696  0.12625951  0.87475018  1
  Co  Co122  1  0.75299581  -0.00179395  0.24860276  1
  Co  Co123  1  0.87468970  0.87183982  0.12187711  1
  Co  Co124  1  0.62400253  0.37504837  0.87349150  1
  Co  Co125  1  0.50222642  0.50356708  0.49623887  1
  Co  Co126  1  -0.00114251  0.24846348  0.49904980  1
  Co  Co127  1  0.63105786  0.62496641  0.37379066  1
