# generated using pymatgen
data_Fe45Co19
_symmetry_space_group_name_H-M   'P 1'
_cell_length_a   11.41373823
_cell_length_b   11.41526462
_cell_length_c   11.41446608
_cell_angle_alpha   90.00707248
_cell_angle_beta   90.00226525
_cell_angle_gamma   89.99448316
_symmetry_Int_Tables_number   1
_chemical_formula_structural   Fe45Co19
_chemical_formula_sum   'Fe90 Co38'
_cell_volume   1487.20037935
_cell_formula_units_Z   2
loop_
 _symmetry_equiv_pos_site_id
 _symmetry_equiv_pos_as_xyz
  1  'x, y, z'
loop_
 _atom_site_type_symbol
 _atom_site_label
 _atom_site_symmetry_multiplicity
 _atom_site_fract_x
 _atom_site_fract_y
 _atom_site_fract_z
 _atom_site_occupancy
  Fe  Fe0  1  0.37389636  0.87800551  0.12242468  1
  Fe  Fe1  1  0.49508987  0.74589519  0.00031812  1
  Fe  Fe2  1  0.87544472  0.62479856  0.12439513  1
  Fe  Fe3  1  0.37210738  0.87791793  0.87803436  1
  Fe  Fe4  1  0.50103613  0.49907123  0.25079833  1
  Fe  Fe5  1  0.37510394  0.37629882  0.12479097  1
  Fe  Fe6  1  0.24678054  0.25283959  0.25098114  1
  Fe  Fe7  1  0.37368627  0.12556292  0.37429259  1
  Fe  Fe8  1  0.87424040  0.87616674  0.37625248  1
  Fe  Fe9  1  0.87446467  0.12348351  0.62448701  1
  Fe  Fe10  1  0.49760830  0.74675368  0.75304007  1
  Fe  Fe11  1  0.75244058  0.00154226  0.24938896  1
  Fe  Fe12  1  0.49924354  0.00175059  0.50015495  1
  Fe  Fe13  1  0.25025806  0.25197764  -0.00236786  1
  Fe  Fe14  1  0.12528327  0.12567127  0.37634498  1
  Fe  Fe15  1  0.25101632  0.74972908  0.24699528  1
  Fe  Fe16  1  0.37517880  0.12533872  0.12294499  1
  Fe  Fe17  1  0.87708483  0.62499604  0.62952962  1
  Fe  Fe18  1  0.12444404  0.12627032  0.12457049  1
  Fe  Fe19  1  0.75002601  -0.00209276  0.74919480  1
  Fe  Fe20  1  0.12269301  0.37448845  0.87377070  1
  Fe  Fe21  1  0.49829797  0.24863948  0.50065268  1
  Fe  Fe22  1  -0.00334518  0.00249789  0.24829716  1
  Fe  Fe23  1  0.87689226  0.37550078  0.87144856  1
  Fe  Fe24  1  0.00084237  -0.00100585  0.00052469  1
  Fe  Fe25  1  0.75225075  0.25254866  0.50078072  1
  Fe  Fe26  1  0.62408601  0.12736633  0.12551526  1
  Fe  Fe27  1  0.12556392  0.62306006  0.37742141  1
  Fe  Fe28  1  0.74622671  0.49785873  0.74996201  1
  Fe  Fe29  1  0.74890898  0.49734616  -0.00017807  1
  Fe  Fe30  1  0.75088181  0.74948422  -0.00085627  1
  Fe  Fe31  1  0.24995150  0.00068166  0.24868179  1
  Fe  Fe32  1  0.12540923  0.87530965  0.37312313  1
  Fe  Fe33  1  0.75071242  0.49837334  0.50061509  1
  Fe  Fe34  1  0.74979996  -0.00049493  0.00087197  1
  Fe  Fe35  1  0.62605918  0.12557171  0.62433886  1
  Fe  Fe36  1  0.12898130  0.62301680  0.12170931  1
  Fe  Fe37  1  0.62379211  0.87279494  0.87498555  1
  Fe  Fe38  1  0.74914148  0.25309658  0.74837730  1
  Fe  Fe39  1  0.24561523  0.49633199  0.25133776  1
  Fe  Fe40  1  0.49930136  0.50092259  0.49984995  1
  Fe  Fe41  1  0.62332413  0.62748402  0.37517664  1
  Fe  Fe42  1  0.24761046  0.49935476  0.74894302  1
  Fe  Fe43  1  0.37367159  0.62380585  0.62684044  1
  Fe  Fe44  1  0.00111676  0.50056047  0.50350780  1
  Fe  Fe45  1  0.75098573  0.75163649  0.50352820  1
  Fe  Fe46  1  0.37536636  0.87450965  0.62431272  1
  Fe  Fe47  1  0.75038782  0.74944923  0.24965151  1
  Fe  Fe48  1  0.00093160  0.00024955  0.50146638  1
  Fe  Fe49  1  0.87443282  0.87387372  0.87380879  1
  Fe  Fe50  1  0.00147972  0.75139381  0.00000395  1
  Fe  Fe51  1  0.00051330  0.74863058  0.24847308  1
  Fe  Fe52  1  0.62514053  0.12599129  0.37469943  1
  Fe  Fe53  1  0.37348010  0.37461706  0.37708363  1
  Fe  Fe54  1  0.87442367  0.62520338  0.87172728  1
  Fe  Fe55  1  0.87655536  0.62344577  0.37519367  1
  Fe  Fe56  1  0.62421559  0.87401034  0.12363411  1
  Fe  Fe57  1  0.62253399  0.87488130  0.62620579  1
  Fe  Fe58  1  0.75021945  0.49909678  0.24961790  1
  Fe  Fe59  1  0.24971381  0.00058055  0.50127654  1
  Fe  Fe60  1  0.88063172  0.37621641  0.37310372  1
  Fe  Fe61  1  0.62360404  0.62409804  0.12425940  1
  Fe  Fe62  1  0.25051880  0.74844731  0.50107407  1
  Fe  Fe63  1  0.12561093  0.87373794  0.62624015  1
  Fe  Fe64  1  0.74964960  0.25349031  0.00058890  1
  Fe  Fe65  1  0.00093331  -0.00024396  0.74984533  1
  Fe  Fe66  1  0.12971743  0.87426708  0.87598808  1
  Fe  Fe67  1  0.62456065  0.62511824  0.62558230  1
  Fe  Fe68  1  0.00009858  0.24873885  -0.00246888  1
  Fe  Fe69  1  0.50022486  0.50114115  -0.00275538  1
  Fe  Fe70  1  0.88044157  0.37457326  0.12628798  1
  Fe  Fe71  1  0.37528131  0.62597696  0.37370859  1
  Fe  Fe72  1  0.87333514  0.12518493  0.87465036  1
  Fe  Fe73  1  0.75337591  0.25012818  0.24919592  1
  Fe  Fe74  1  0.12949196  0.62705966  0.87450321  1
  Fe  Fe75  1  -0.00039837  0.75014992  0.50162999  1
  Fe  Fe76  1  0.12841310  0.12457882  0.87116326  1
  Fe  Fe77  1  0.37023164  0.12748218  0.62807978  1
  Fe  Fe78  1  0.37616348  0.87349534  0.37562006  1
  Fe  Fe79  1  0.62305742  0.87346017  0.37629599  1
  Fe  Fe80  1  0.37917368  0.37569781  0.87034598  1
  Fe  Fe81  1  0.49756951  0.00296097  0.75272993  1
  Fe  Fe82  1  0.37667258  0.37472387  0.62667399  1
  Fe  Fe83  1  0.00039544  0.24896810  0.50228300  1
  Fe  Fe84  1  0.50028802  0.25000574  -0.00166277  1
  Fe  Fe85  1  0.00071245  0.50127001  -0.00157180  1
  Fe  Fe86  1  0.62560833  0.12680189  0.87502814  1
  Fe  Fe87  1  0.12549998  0.37292216  0.62439784  1
  Fe  Fe88  1  0.62359664  0.37299592  0.37519345  1
  Fe  Fe89  1  0.50027655  -0.00026847  0.24937804  1
  Co  Co90  1  0.62702775  0.62590751  0.87594214  1
  Co  Co91  1  0.25332729  0.74998415  0.00330790  1
  Co  Co92  1  -0.00038894  0.24829477  0.74924453  1
  Co  Co93  1  0.50098744  0.24614203  0.74930723  1
  Co  Co94  1  0.87522377  0.12623696  0.12087200  1
  Co  Co95  1  0.24945844  0.25259512  0.75280044  1
  Co  Co96  1  0.12172930  0.37566068  0.37882399  1
  Co  Co97  1  0.62312184  0.37506121  0.12586420  1
  Co  Co98  1  0.12219155  0.37415932  0.12218115  1
  Co  Co99  1  0.12492200  0.87560408  0.12671269  1
  Co  Co100  1  0.87728988  0.87606959  0.62570350  1
  Co  Co101  1  0.00098636  0.24741107  0.25103312  1
  Co  Co102  1  0.87548577  0.87448450  0.12455983  1
  Co  Co103  1  0.37297461  0.12463155  0.87579613  1
  Co  Co104  1  0.50201700  0.00204500  -0.00134723  1
  Co  Co105  1  0.62122096  0.37472105  0.62328297  1
  Co  Co106  1  0.50306779  0.50366621  0.75007410  1
  Co  Co107  1  0.75003842  0.75108708  0.74819088  1
  Co  Co108  1  0.37005146  0.62211374  0.87363512  1
  Co  Co109  1  0.00414547  0.50063767  0.75054887  1
  Co  Co110  1  0.00400385  0.50232317  0.24789480  1
  Co  Co111  1  0.24969433  0.25006137  0.49913034  1
  Co  Co112  1  0.49790803  0.75056349  0.24574101  1
  Co  Co113  1  0.12754039  0.12564001  0.62703233  1
  Co  Co114  1  0.49933453  0.74852356  0.50177102  1
  Co  Co115  1  0.12507711  0.62722155  0.62593250  1
  Co  Co116  1  0.25086641  0.50073238  0.50162873  1
  Co  Co117  1  0.25130122  -0.00151819  0.74890446  1
  Co  Co118  1  0.87500032  0.12479651  0.37936576  1
  Co  Co119  1  0.62211755  0.37451790  0.87361125  1
  Co  Co120  1  0.87674214  0.37670273  0.62807334  1
  Co  Co121  1  0.25007751  0.49503193  -0.00351692  1
  Co  Co122  1  0.00180368  0.75134611  0.75209577  1
  Co  Co123  1  0.74796078  -0.00229490  0.50076906  1
  Co  Co124  1  0.24693760  0.00253788  0.00128527  1
  Co  Co125  1  0.37236999  0.61835782  0.12617481  1
  Co  Co126  1  0.25172857  0.75106875  0.74898337  1
  Co  Co127  1  0.49732238  0.25055517  0.25024938  1
