# generated using pymatgen
data_Fe45Co19
_symmetry_space_group_name_H-M   'P 1'
_cell_length_a   11.41615228
_cell_length_b   11.41570651
_cell_length_c   11.41524330
_cell_angle_alpha   90.00613137
_cell_angle_beta   90.00361158
_cell_angle_gamma   90.00706393
_symmetry_Int_Tables_number   1
_chemical_formula_structural   Fe45Co19
_chemical_formula_sum   'Fe90 Co38'
_cell_volume   1487.67379653
_cell_formula_units_Z   2
loop_
 _symmetry_equiv_pos_site_id
 _symmetry_equiv_pos_as_xyz
  1  'x, y, z'
loop_
 _atom_site_type_symbol
 _atom_site_label
 _atom_site_symmetry_multiplicity
 _atom_site_fract_x
 _atom_site_fract_y
 _atom_site_fract_z
 _atom_site_occupancy
  Fe  Fe0  1  0.24868045  0.25236107  0.00195876  1
  Fe  Fe1  1  0.12304926  0.12616612  0.12658117  1
  Fe  Fe2  1  -0.00148376  0.00140097  -0.00019977  1
  Fe  Fe3  1  0.74955931  0.75068729  0.00094901  1
  Fe  Fe4  1  0.49891226  0.74966893  0.24938733  1
  Fe  Fe5  1  0.62482483  0.37721205  0.37653528  1
  Fe  Fe6  1  0.62830154  0.12460638  0.37397329  1
  Fe  Fe7  1  0.62466443  0.12409214  0.62552625  1
  Fe  Fe8  1  0.25203138  0.50074872  0.75151522  1
  Fe  Fe9  1  0.62612611  0.37383071  0.87208834  1
  Fe  Fe10  1  -0.00002387  0.25589021  -0.00068023  1
  Fe  Fe11  1  0.62504572  0.62446881  0.37726729  1
  Fe  Fe12  1  0.37437641  0.87227046  0.87754934  1
  Fe  Fe13  1  0.11891161  0.87776837  0.12970163  1
  Fe  Fe14  1  0.75219514  -0.00373213  0.49806511  1
  Fe  Fe15  1  0.25001470  0.00307713  0.74903019  1
  Fe  Fe16  1  0.37426884  0.62527912  0.37541748  1
  Fe  Fe17  1  0.24856472  0.74981991  0.75010892  1
  Fe  Fe18  1  0.62742728  0.87681368  0.12593277  1
  Fe  Fe19  1  0.12508141  0.37665059  0.62946558  1
  Fe  Fe20  1  0.87737344  0.87367506  0.62248961  1
  Fe  Fe21  1  0.00019065  0.74703709  0.75154011  1
  Fe  Fe22  1  0.00144393  0.25027434  0.49892499  1
  Fe  Fe23  1  0.87760058  0.62747965  0.37827156  1
  Fe  Fe24  1  0.75155959  -0.00021188  0.75051412  1
  Fe  Fe25  1  0.24833094  0.49577586  0.00296519  1
  Fe  Fe26  1  0.87521108  0.37665572  0.62690246  1
  Fe  Fe27  1  0.37252521  0.87418760  0.37612525  1
  Fe  Fe28  1  0.12547830  0.12708864  0.87451786  1
  Fe  Fe29  1  0.75462607  0.74962809  0.24942111  1
  Fe  Fe30  1  0.87196713  0.12745175  0.87471789  1
  Fe  Fe31  1  0.62452463  0.37581311  0.12644698  1
  Fe  Fe32  1  0.87534390  0.62579385  0.62393559  1
  Fe  Fe33  1  0.37445545  0.62744605  0.62261319  1
  Fe  Fe34  1  0.62597631  0.62750756  0.87404397  1
  Fe  Fe35  1  0.75166573  0.49989414  0.25101575  1
  Fe  Fe36  1  0.62401130  0.87108713  0.62594353  1
  Fe  Fe37  1  0.49876575  -0.00016110  0.25041567  1
  Fe  Fe38  1  0.37276413  0.62949616  0.88147020  1
  Fe  Fe39  1  0.62666943  0.12347800  0.12489702  1
  Fe  Fe40  1  0.24922385  0.00070867  0.24967340  1
  Fe  Fe41  1  0.37676594  0.37380828  0.62403920  1
  Fe  Fe42  1  0.37448149  0.12568118  0.37680486  1
  Fe  Fe43  1  0.87670993  0.12430695  0.62313947  1
  Fe  Fe44  1  -0.00148222  0.49914704  0.24920990  1
  Fe  Fe45  1  0.24769534  0.24737467  0.50463156  1
  Fe  Fe46  1  0.00245614  0.74766457  0.00040978  1
  Fe  Fe47  1  0.12470229  0.87472170  0.87473397  1
  Fe  Fe48  1  0.87434646  0.61951201  0.11852073  1
  Fe  Fe49  1  0.37508626  0.37252156  0.87579654  1
  Fe  Fe50  1  0.62471369  0.62427398  0.12556476  1
  Fe  Fe51  1  0.50228978  -0.00047299  -0.00123921  1
  Fe  Fe52  1  0.00166248  0.49998023  0.50009399  1
  Fe  Fe53  1  0.12625086  0.61976536  0.12515209  1
  Fe  Fe54  1  0.50029894  -0.00088763  0.49819438  1
  Fe  Fe55  1  0.62639150  0.87350608  0.87351234  1
  Fe  Fe56  1  0.00221237  0.00205919  0.49275933  1
  Fe  Fe57  1  0.75111327  0.50184322  0.75044506  1
  Fe  Fe58  1  0.62377998  0.37800103  0.62455608  1
  Fe  Fe59  1  0.24784972  -0.00107699  0.00167829  1
  Fe  Fe60  1  -0.00312525  0.24945893  0.25040661  1
  Fe  Fe61  1  0.12330067  0.87678595  0.62584502  1
  Fe  Fe62  1  0.24827089  0.74820189  0.24839964  1
  Fe  Fe63  1  -0.00028442  0.50188989  0.75675248  1
  Fe  Fe64  1  -0.00122193  0.00079740  0.75265132  1
  Fe  Fe65  1  0.87427544  0.87253446  0.87693792  1
  Fe  Fe66  1  0.24794246  0.50084733  0.49910598  1
  Fe  Fe67  1  -0.00078410  0.25152131  0.75180619  1
  Fe  Fe68  1  0.25221498  0.25214123  0.24750755  1
  Fe  Fe69  1  0.49764387  0.50386778  0.75034047  1
  Fe  Fe70  1  0.74925937  0.25244334  0.50177437  1
  Fe  Fe71  1  0.37482938  0.12628141  0.87626431  1
  Fe  Fe72  1  0.62607615  0.87313296  0.37373614  1
  Fe  Fe73  1  0.62526940  0.62652405  0.62283528  1
  Fe  Fe74  1  0.49918935  -0.00076010  0.75149721  1
  Fe  Fe75  1  0.24559789  0.00248989  0.49962591  1
  Fe  Fe76  1  0.87327454  0.12649298  0.12456319  1
  Fe  Fe77  1  0.37731646  0.12601866  0.12298217  1
  Fe  Fe78  1  0.75703810  -0.00228598  0.25135816  1
  Fe  Fe79  1  0.24243645  0.74848790  0.49877452  1
  Fe  Fe80  1  0.49598410  0.50047861  0.24925119  1
  Fe  Fe81  1  0.37614559  0.87324592  0.12374596  1
  Fe  Fe82  1  0.87324892  0.37429525  0.37459192  1
  Fe  Fe83  1  0.12627963  0.37559369  0.37215582  1
  Fe  Fe84  1  0.74838099  0.25205168  0.00006482  1
  Fe  Fe85  1  0.50083931  0.24951096  0.25049593  1
  Fe  Fe86  1  0.50090915  0.50043417  0.00028302  1
  Fe  Fe87  1  0.37488876  0.87388518  0.62291437  1
  Fe  Fe88  1  0.37560995  0.37409124  0.37711209  1
  Fe  Fe89  1  0.49972770  0.24811695  0.74957522  1
  Co  Co90  1  0.12294882  0.37557226  0.12976020  1
  Co  Co91  1  0.62673917  0.12593515  0.87373666  1
  Co  Co92  1  0.87109004  0.37679978  0.87599508  1
  Co  Co93  1  0.12846639  0.37366015  0.87121122  1
  Co  Co94  1  0.12278973  0.62296514  0.37162581  1
  Co  Co95  1  0.25421174  0.49940960  0.24949325  1
  Co  Co96  1  0.49751132  0.74828062  0.75021162  1
  Co  Co97  1  0.87042393  0.12859296  0.37700747  1
  Co  Co98  1  0.37822894  0.37430760  0.12348579  1
  Co  Co99  1  0.12910865  0.62471312  0.87650241  1
  Co  Co100  1  0.75044652  0.75108094  0.49920785  1
  Co  Co101  1  0.37859715  0.12348836  0.62363627  1
  Co  Co102  1  0.74902875  0.25270606  0.24875558  1
  Co  Co103  1  0.00430002  0.49591546  -0.00363543  1
  Co  Co104  1  0.12780935  0.12821426  0.37106073  1
  Co  Co105  1  0.75125477  0.00005623  -0.00188827  1
  Co  Co106  1  -0.00461936  0.00552761  0.25325157  1
  Co  Co107  1  0.50061172  0.75000120  0.49828262  1
  Co  Co108  1  -0.00221934  0.74433052  0.24445504  1
  Co  Co109  1  0.37462323  0.62636438  0.12147084  1
  Co  Co110  1  0.50307470  0.25007314  -0.00029984  1
  Co  Co111  1  0.49802669  0.50154970  0.50051634  1
  Co  Co112  1  0.00549977  0.74739845  0.50368180  1
  Co  Co113  1  0.88154707  0.86911472  0.37482169  1
  Co  Co114  1  0.11982958  0.12416781  0.62733665  1
  Co  Co115  1  0.12088017  0.87283110  0.36977619  1
  Co  Co116  1  0.87304644  0.62371506  0.87977966  1
  Co  Co117  1  0.87365026  0.37803121  0.12362105  1
  Co  Co118  1  0.75099313  0.25002879  0.74656046  1
  Co  Co119  1  0.12470795  0.62123008  0.62889162  1
  Co  Co120  1  0.24417645  0.75435759  0.00466633  1
  Co  Co121  1  0.25088103  0.24668510  0.74664141  1
  Co  Co122  1  0.50293089  0.24952462  0.49906822  1
  Co  Co123  1  0.74493411  0.49768058  -0.00136989  1
  Co  Co124  1  0.50379320  0.75143771  0.00174993  1
  Co  Co125  1  0.75290632  0.74928674  0.74908012  1
  Co  Co126  1  0.75232097  0.50006404  0.50012193  1
  Co  Co127  1  0.87735661  0.87541171  0.12335368  1
