# generated using pymatgen
data_Fe45Co19
_symmetry_space_group_name_H-M   'P 1'
_cell_length_a   11.41465055
_cell_length_b   11.41625977
_cell_length_c   11.41542097
_cell_angle_alpha   89.99960134
_cell_angle_beta   90.00380197
_cell_angle_gamma   89.99641689
_symmetry_Int_Tables_number   1
_chemical_formula_structural   Fe45Co19
_chemical_formula_sum   'Fe90 Co38'
_cell_volume   1487.57336156
_cell_formula_units_Z   2
loop_
 _symmetry_equiv_pos_site_id
 _symmetry_equiv_pos_as_xyz
  1  'x, y, z'
loop_
 _atom_site_type_symbol
 _atom_site_label
 _atom_site_symmetry_multiplicity
 _atom_site_fract_x
 _atom_site_fract_y
 _atom_site_fract_z
 _atom_site_occupancy
  Fe  Fe0  1  0.12593246  0.12255708  0.62484265  1
  Fe  Fe1  1  0.37326573  0.36999605  0.87719632  1
  Fe  Fe2  1  0.49793522  0.74955600  0.24881346  1
  Fe  Fe3  1  0.00418295  0.75245942  0.74587070  1
  Fe  Fe4  1  0.87705068  0.37607766  0.37711876  1
  Fe  Fe5  1  0.49978394  0.49772408  0.75279640  1
  Fe  Fe6  1  -0.00026811  0.24918861  0.50128364  1
  Fe  Fe7  1  0.37416450  0.87641353  0.62368260  1
  Fe  Fe8  1  0.75001517  0.74924226  0.49938047  1
  Fe  Fe9  1  0.87704682  0.12566203  0.12373174  1
  Fe  Fe10  1  0.87685197  0.62570082  0.37568594  1
  Fe  Fe11  1  0.62661812  0.12441200  0.12581522  1
  Fe  Fe12  1  0.12548461  0.37647232  0.62538900  1
  Fe  Fe13  1  0.62675297  0.12667537  0.37588003  1
  Fe  Fe14  1  0.62416680  0.12634582  0.87348722  1
  Fe  Fe15  1  0.12038915  0.87945391  0.37755796  1
  Fe  Fe16  1  0.25209927  0.00172943  0.49886607  1
  Fe  Fe17  1  0.24834807  0.75065158  0.75092923  1
  Fe  Fe18  1  -0.00030497  0.74637221  0.00284892  1
  Fe  Fe19  1  0.24993425  0.75013344  0.25148820  1
  Fe  Fe20  1  0.12409934  0.62519694  0.37535323  1
  Fe  Fe21  1  0.75174648  0.50316053  -0.00587421  1
  Fe  Fe22  1  0.24917093  0.50049266  0.49973986  1
  Fe  Fe23  1  0.00104210  0.50143062  0.24764521  1
  Fe  Fe24  1  0.62461178  0.62300730  0.62663381  1
  Fe  Fe25  1  0.75028215  0.74834043  -0.00276910  1
  Fe  Fe26  1  0.62195535  0.62509262  0.37502375  1
  Fe  Fe27  1  0.62753295  0.37575962  0.12315105  1
  Fe  Fe28  1  -0.00104223  0.25216952  0.74737183  1
  Fe  Fe29  1  0.62769134  0.12270312  0.62559318  1
  Fe  Fe30  1  0.37608610  0.12632320  0.37555573  1
  Fe  Fe31  1  0.62570653  0.87584044  0.12378407  1
  Fe  Fe32  1  0.37738103  0.87431333  0.37674796  1
  Fe  Fe33  1  0.50099052  0.25013408  0.24776422  1
  Fe  Fe34  1  0.87417797  0.62266997  0.62458090  1
  Fe  Fe35  1  0.00028285  0.24663436  0.25168012  1
  Fe  Fe36  1  0.87604894  0.37691530  0.12393870  1
  Fe  Fe37  1  0.50029239  0.49721815  -0.00078204  1
  Fe  Fe38  1  0.00498985  0.25431272  -0.00187031  1
  Fe  Fe39  1  0.37578669  0.62453106  0.87604026  1
  Fe  Fe40  1  0.75183803  0.25300029  0.50056592  1
  Fe  Fe41  1  0.75439860  -0.00222416  0.49795495  1
  Fe  Fe42  1  0.37117539  0.87765018  0.12248137  1
  Fe  Fe43  1  0.62659135  0.87682146  0.62484945  1
  Fe  Fe44  1  0.74788629  0.74842586  0.75305518  1
  Fe  Fe45  1  0.49940765  0.75209416  0.74992533  1
  Fe  Fe46  1  0.24840308  -0.00019782  0.75521790  1
  Fe  Fe47  1  0.37570036  0.37430476  0.37617189  1
  Fe  Fe48  1  0.87462464  0.37592544  0.87282064  1
  Fe  Fe49  1  0.75072081  0.75077097  0.25036137  1
  Fe  Fe50  1  0.00211637  -0.00061238  -0.00069949  1
  Fe  Fe51  1  0.87600616  0.87297646  0.87279832  1
  Fe  Fe52  1  0.62951734  0.37739053  0.62759151  1
  Fe  Fe53  1  0.25040030  0.50074404  0.74983700  1
  Fe  Fe54  1  0.74988923  0.24928340  -0.00232071  1
  Fe  Fe55  1  0.74949833  0.49887257  0.25344171  1
  Fe  Fe56  1  -0.00085805  0.49952794  0.74827254  1
  Fe  Fe57  1  0.37332425  0.87592139  0.87780453  1
  Fe  Fe58  1  0.00106730  0.75153896  0.50417138  1
  Fe  Fe59  1  0.24755903  0.24626421  0.24944489  1
  Fe  Fe60  1  0.37184904  0.36967407  0.12208355  1
  Fe  Fe61  1  0.50011398  0.49905798  0.50006099  1
  Fe  Fe62  1  0.49949444  0.00110929  0.25058619  1
  Fe  Fe63  1  0.62317916  0.87450712  0.37640915  1
  Fe  Fe64  1  0.12319195  0.62488209  0.87530499  1
  Fe  Fe65  1  0.75084588  0.00024123  -0.00365674  1
  Fe  Fe66  1  0.37507903  0.62491670  0.62397104  1
  Fe  Fe67  1  0.25005169  0.24907031  0.74973394  1
  Fe  Fe68  1  0.24510191  0.49775584  0.00058588  1
  Fe  Fe69  1  0.12485262  0.37409236  0.37460748  1
  Fe  Fe70  1  0.24800187  0.00242179  0.24941407  1
  Fe  Fe71  1  0.37211739  0.62496650  0.12456927  1
  Fe  Fe72  1  0.25094339  0.24960589  0.50209356  1
  Fe  Fe73  1  0.24997265  0.74888143  0.49991484  1
  Fe  Fe74  1  0.49860120  0.00285021  0.00001847  1
  Fe  Fe75  1  0.49869006  0.49848618  0.24921480  1
  Fe  Fe76  1  0.87796835  0.12507828  0.87315296  1
  Fe  Fe77  1  0.00074054  0.75015592  0.24651205  1
  Fe  Fe78  1  0.87448585  0.87539360  0.12536622  1
  Fe  Fe79  1  0.49993079  0.25090851  0.74792669  1
  Fe  Fe80  1  0.49865516  0.24900484  0.50394767  1
  Fe  Fe81  1  0.62646991  0.62449458  0.12358627  1
  Fe  Fe82  1  0.75362992  -0.00076085  0.25175405  1
  Fe  Fe83  1  0.25015091  0.50028859  0.25047673  1
  Fe  Fe84  1  0.50002946  -0.00008134  0.75010286  1
  Fe  Fe85  1  0.49881649  0.75042540  0.00095214  1
  Fe  Fe86  1  0.87274969  0.12435994  0.62670330  1
  Fe  Fe87  1  0.12768765  0.87626219  0.12162605  1
  Fe  Fe88  1  0.75151168  0.25146242  0.25058328  1
  Fe  Fe89  1  0.00059487  -0.00424506  0.74683907  1
  Co  Co90  1  0.62039339  0.62617157  0.87523958  1
  Co  Co91  1  0.37614274  0.62421888  0.37668313  1
  Co  Co92  1  0.12420085  0.37298607  0.12856437  1
  Co  Co93  1  0.49964964  0.00158479  0.49999636  1
  Co  Co94  1  0.12627443  0.62300279  0.62579453  1
  Co  Co95  1  0.87058627  0.87276132  0.62763784  1
  Co  Co96  1  0.62203509  0.37249576  0.37592972  1
  Co  Co97  1  0.37424311  0.12654767  0.12370519  1
  Co  Co98  1  0.12951010  0.87867226  0.62202433  1
  Co  Co99  1  0.88113585  0.62775338  0.87217636  1
  Co  Co100  1  0.75084964  0.00010838  0.75414057  1
  Co  Co101  1  0.75141261  0.24961379  0.75062471  1
  Co  Co102  1  0.12562825  0.37653269  0.87023052  1
  Co  Co103  1  0.75111181  0.50277652  0.75416697  1
  Co  Co104  1  0.12728931  0.62546114  0.12479640  1
  Co  Co105  1  0.12406041  0.87265739  0.87849729  1
  Co  Co106  1  0.12026965  0.12558479  0.87059557  1
  Co  Co107  1  0.24325658  0.24611304  -0.00194784  1
  Co  Co108  1  0.37322590  0.12165319  0.62713360  1
  Co  Co109  1  0.00165151  0.49907910  0.00071732  1
  Co  Co110  1  0.24816345  0.00692472  -0.00327791  1
  Co  Co111  1  0.62385261  0.87529240  0.87627081  1
  Co  Co112  1  0.87309901  0.37888112  0.62494858  1
  Co  Co113  1  0.87483697  0.12521719  0.37524870  1
  Co  Co114  1  -0.00487738  0.00017855  0.50437277  1
  Co  Co115  1  0.50022314  0.75037158  0.50238906  1
  Co  Co116  1  0.25025190  0.74747864  -0.00216330  1
  Co  Co117  1  0.37397328  0.37745696  0.62538200  1
  Co  Co118  1  0.12360939  0.12236319  0.37852853  1
  Co  Co119  1  -0.00048373  0.00118876  0.24829806  1
  Co  Co120  1  0.00208249  0.49948923  0.50069320  1
  Co  Co121  1  0.87206475  0.62287184  0.12627995  1
  Co  Co122  1  0.12166736  0.12508415  0.12445241  1
  Co  Co123  1  0.50355072  0.24922869  0.00155981  1
  Co  Co124  1  0.87954401  0.87272503  0.37458075  1
  Co  Co125  1  0.37702923  0.12958593  0.87469259  1
  Co  Co126  1  0.62610011  0.37314605  0.87375164  1
  Co  Co127  1  0.74932891  0.49992757  0.49712660  1
