# generated using pymatgen
data_Fe45Co19
_symmetry_space_group_name_H-M   'P 1'
_cell_length_a   11.41567943
_cell_length_b   11.41497276
_cell_length_c   11.41482234
_cell_angle_alpha   90.00669820
_cell_angle_beta   89.99279371
_cell_angle_gamma   90.00082464
_symmetry_Int_Tables_number   1
_chemical_formula_structural   Fe45Co19
_chemical_formula_sum   'Fe90 Co38'
_cell_volume   1487.46170650
_cell_formula_units_Z   2
loop_
 _symmetry_equiv_pos_site_id
 _symmetry_equiv_pos_as_xyz
  1  'x, y, z'
loop_
 _atom_site_type_symbol
 _atom_site_label
 _atom_site_symmetry_multiplicity
 _atom_site_fract_x
 _atom_site_fract_y
 _atom_site_fract_z
 _atom_site_occupancy
  Fe  Fe0  1  0.62565482  0.87429433  0.62508965  1
  Fe  Fe1  1  0.87523700  0.87488773  0.87561479  1
  Fe  Fe2  1  0.12918190  0.37670199  0.87386503  1
  Fe  Fe3  1  0.25268738  0.25191172  0.24644790  1
  Fe  Fe4  1  0.00024335  0.00025139  0.00238067  1
  Fe  Fe5  1  0.12434224  0.62470383  0.37659343  1
  Fe  Fe6  1  -0.00309197  0.75121292  0.25027765  1
  Fe  Fe7  1  0.12433938  0.62479433  0.12471572  1
  Fe  Fe8  1  0.75172514  0.00371323  0.50203996  1
  Fe  Fe9  1  0.49926800  0.75131092  -0.00184451  1
  Fe  Fe10  1  0.50041764  0.74907965  0.49908117  1
  Fe  Fe11  1  0.87341433  0.12464227  0.87490921  1
  Fe  Fe12  1  0.49992221  0.00062903  0.49990645  1
  Fe  Fe13  1  0.75244850  0.24767914  0.50139583  1
  Fe  Fe14  1  0.12832035  0.12217589  0.87769456  1
  Fe  Fe15  1  -0.00202015  0.00108786  0.49936203  1
  Fe  Fe16  1  -0.00122926  0.25195127  -0.00094874  1
  Fe  Fe17  1  0.37836351  0.87747323  0.12539716  1
  Fe  Fe18  1  0.87301188  0.87760011  0.37292961  1
  Fe  Fe19  1  0.62475251  0.62761624  0.12440358  1
  Fe  Fe20  1  0.00092128  0.49921893  -0.00036842  1
  Fe  Fe21  1  0.37605547  0.87687502  0.62629480  1
  Fe  Fe22  1  0.37285841  0.37333401  0.63124724  1
  Fe  Fe23  1  0.87572826  0.12666093  0.12589167  1
  Fe  Fe24  1  0.74816143  0.00114615  0.00219497  1
  Fe  Fe25  1  0.49970856  0.74989169  0.25103149  1
  Fe  Fe26  1  0.50084412  0.49701325  0.24844138  1
  Fe  Fe27  1  -0.00048369  0.49777119  0.24973237  1
  Fe  Fe28  1  0.74862262  0.24687252  0.74942306  1
  Fe  Fe29  1  0.74757173  0.00013405  0.24664477  1
  Fe  Fe30  1  0.62606029  0.87415420  0.37384573  1
  Fe  Fe31  1  0.74912919  0.49902825  0.00100949  1
  Fe  Fe32  1  0.75076562  0.50337630  0.74750780  1
  Fe  Fe33  1  0.12220848  0.87144668  0.62387590  1
  Fe  Fe34  1  0.37370880  0.37582313  0.37523272  1
  Fe  Fe35  1  0.37781436  0.12351538  0.12447455  1
  Fe  Fe36  1  0.62458626  0.37473235  0.62580693  1
  Fe  Fe37  1  0.62622127  0.37400221  0.37632719  1
  Fe  Fe38  1  0.74928645  0.74683135  0.50156763  1
  Fe  Fe39  1  0.37762573  0.12442934  0.63182365  1
  Fe  Fe40  1  0.12579243  0.87645629  0.37396224  1
  Fe  Fe41  1  0.25098153  0.75090860  0.00061185  1
  Fe  Fe42  1  0.87536332  0.62471552  0.12362060  1
  Fe  Fe43  1  0.12261343  0.12668053  0.62562884  1
  Fe  Fe44  1  0.37561878  0.12387613  0.37318312  1
  Fe  Fe45  1  0.87303403  0.37620301  0.37619265  1
  Fe  Fe46  1  0.25081723  0.74987776  0.49889973  1
  Fe  Fe47  1  0.37720388  0.62124875  0.12085544  1
  Fe  Fe48  1  -0.00231099  0.24928112  0.49905402  1
  Fe  Fe49  1  0.49833644  0.25057684  0.50078968  1
  Fe  Fe50  1  0.12400954  0.12506461  0.37261244  1
  Fe  Fe51  1  0.37627165  0.62589868  0.62642073  1
  Fe  Fe52  1  0.87328310  0.37662075  0.87441381  1
  Fe  Fe53  1  0.25174347  0.74892020  0.24878984  1
  Fe  Fe54  1  0.74780602  0.00218346  0.74920121  1
  Fe  Fe55  1  0.25156740  0.24968355  -0.00013609  1
  Fe  Fe56  1  0.00320771  0.50188975  0.74762027  1
  Fe  Fe57  1  0.74933768  0.49745860  0.24804305  1
  Fe  Fe58  1  0.75315823  0.74993190  -0.00041369  1
  Fe  Fe59  1  0.87451924  0.62277540  0.37663982  1
  Fe  Fe60  1  0.49848357  0.49945939  0.75433919  1
  Fe  Fe61  1  0.12588588  0.37407246  0.37563688  1
  Fe  Fe62  1  0.25017576  0.74994444  0.75085946  1
  Fe  Fe63  1  0.62846037  0.37330233  0.87492439  1
  Fe  Fe64  1  0.24685178  0.49958499  0.50484668  1
  Fe  Fe65  1  0.24834635  0.00105361  0.24684737  1
  Fe  Fe66  1  0.37465307  0.87675297  0.37369899  1
  Fe  Fe67  1  0.25057924  0.49777698  0.24659454  1
  Fe  Fe68  1  0.24969997  0.00140030  0.50260954  1
  Fe  Fe69  1  -0.00167346  0.25148474  0.24872046  1
  Fe  Fe70  1  0.62700308  0.87528480  0.87575108  1
  Fe  Fe71  1  0.37467480  0.62225832  0.37508498  1
  Fe  Fe72  1  0.25088839  0.24869362  0.50225055  1
  Fe  Fe73  1  0.87633017  0.37379560  0.62584889  1
  Fe  Fe74  1  0.62635665  0.62671913  0.87390617  1
  Fe  Fe75  1  0.12268449  0.87392030  0.12479592  1
  Fe  Fe76  1  0.87869175  0.62706936  0.62398867  1
  Fe  Fe77  1  0.00135151  0.24934687  0.75304193  1
  Fe  Fe78  1  0.87566575  0.87409973  0.62737189  1
  Fe  Fe79  1  0.00156455  -0.00029514  0.75121470  1
  Fe  Fe80  1  0.49657260  0.24878959  -0.00771491  1
  Fe  Fe81  1  0.37392573  0.88170759  0.87447227  1
  Fe  Fe82  1  0.62568055  0.62355506  0.37481195  1
  Fe  Fe83  1  0.62293605  0.12861842  0.12417850  1
  Fe  Fe84  1  0.50029034  0.49915972  0.50136344  1
  Fe  Fe85  1  0.62469160  0.12744877  0.37462907  1
  Fe  Fe86  1  0.12595623  0.62629518  0.87547864  1
  Fe  Fe87  1  0.62354892  0.37059506  0.12294188  1
  Fe  Fe88  1  0.12470826  0.87517455  0.87748515  1
  Fe  Fe89  1  0.49990412  0.75121982  0.75189493  1
  Co  Co90  1  0.62137279  0.62505282  0.62730577  1
  Co  Co91  1  0.49729137  0.25193623  0.25116648  1
  Co  Co92  1  0.24754466  0.50428296  0.74732394  1
  Co  Co93  1  0.75101016  0.25138752  0.24941547  1
  Co  Co94  1  0.62460192  0.87159386  0.12452232  1
  Co  Co95  1  0.12517219  0.37063411  0.62618073  1
  Co  Co96  1  0.75263377  0.24989899  -0.00055707  1
  Co  Co97  1  0.37739742  0.37783727  0.11963668  1
  Co  Co98  1  0.24882662  0.24724441  0.75284465  1
  Co  Co99  1  0.12305947  0.12797467  0.12482640  1
  Co  Co100  1  0.00183697  0.49739417  0.50214493  1
  Co  Co101  1  -0.00119549  0.74931670  0.75435768  1
  Co  Co102  1  0.62269104  0.12653004  0.62372476  1
  Co  Co103  1  0.37153392  0.11845276  0.87172670  1
  Co  Co104  1  0.75242440  0.74961961  0.24987204  1
  Co  Co105  1  0.87495635  0.87479883  0.12325258  1
  Co  Co106  1  0.37403399  0.62343195  0.87773481  1
  Co  Co107  1  0.50499617  0.00063517  0.75166795  1
  Co  Co108  1  0.75169148  0.74847059  0.74969982  1
  Co  Co109  1  0.62725530  0.12528456  0.87628849  1
  Co  Co110  1  0.74975822  0.50126616  0.50288409  1
  Co  Co111  1  0.50254071  0.00102222  -0.00111936  1
  Co  Co112  1  0.87444798  0.62238827  0.87617577  1
  Co  Co113  1  0.12241369  0.63069145  0.62257809  1
  Co  Co114  1  0.00080470  -0.00127652  0.24762824  1
  Co  Co115  1  0.12455348  0.37443375  0.12434722  1
  Co  Co116  1  0.50106585  0.25042966  0.75556134  1
  Co  Co117  1  0.24489793  -0.00151949  0.74667615  1
  Co  Co118  1  0.37002750  0.37807185  0.87413098  1
  Co  Co119  1  0.24941850  -0.00072873  0.00446414  1
  Co  Co120  1  0.50316653  -0.00017885  0.25035086  1
  Co  Co121  1  0.87482118  0.12352583  0.37063935  1
  Co  Co122  1  0.87735790  0.12541347  0.62900808  1
  Co  Co123  1  -0.00084702  0.74889492  -0.00049941  1
  Co  Co124  1  0.50465263  0.49888788  -0.00388601  1
  Co  Co125  1  0.24729285  0.50007557  0.00054571  1
  Co  Co126  1  -0.00248664  0.75287411  0.49542901  1
  Co  Co127  1  0.87535403  0.37543717  0.12277173  1
