# generated using pymatgen
data_Fe45Co19
_symmetry_space_group_name_H-M   'P 1'
_cell_length_a   11.41461616
_cell_length_b   11.41335586
_cell_length_c   11.41421204
_cell_angle_alpha   90.00572188
_cell_angle_beta   89.99496028
_cell_angle_gamma   89.99232822
_symmetry_Int_Tables_number   1
_chemical_formula_structural   Fe45Co19
_chemical_formula_sum   'Fe90 Co38'
_cell_volume   1487.03297436
_cell_formula_units_Z   2
loop_
 _symmetry_equiv_pos_site_id
 _symmetry_equiv_pos_as_xyz
  1  'x, y, z'
loop_
 _atom_site_type_symbol
 _atom_site_label
 _atom_site_symmetry_multiplicity
 _atom_site_fract_x
 _atom_site_fract_y
 _atom_site_fract_z
 _atom_site_occupancy
  Fe  Fe0  1  0.87532439  0.12359392  0.12289556  1
  Fe  Fe1  1  0.00130798  0.24559373  0.50249197  1
  Fe  Fe2  1  0.62584600  0.87374390  0.12209779  1
  Fe  Fe3  1  0.37479359  0.37173709  0.87795603  1
  Fe  Fe4  1  0.37520482  0.87260204  0.87754013  1
  Fe  Fe5  1  0.50032793  0.25070770  0.25037646  1
  Fe  Fe6  1  0.12479291  0.37470111  0.62555144  1
  Fe  Fe7  1  0.37426374  0.37646265  0.62531654  1
  Fe  Fe8  1  0.87641128  0.37196542  0.37366753  1
  Fe  Fe9  1  0.87379166  0.62783315  0.62514366  1
  Fe  Fe10  1  0.25099889  0.00050996  0.49670916  1
  Fe  Fe11  1  0.37447626  0.62912814  0.37491822  1
  Fe  Fe12  1  0.00203065  0.24688650  -0.00212182  1
  Fe  Fe13  1  -0.00305024  -0.00386576  0.24738077  1
  Fe  Fe14  1  0.24710385  0.50283465  0.75362400  1
  Fe  Fe15  1  0.62804155  0.62327972  0.62361295  1
  Fe  Fe16  1  0.24956165  0.49982512  0.24881171  1
  Fe  Fe17  1  -0.00112649  0.50151253  0.49936713  1
  Fe  Fe18  1  0.12302364  0.37442637  0.37470651  1
  Fe  Fe19  1  0.12420575  0.12302857  0.87120438  1
  Fe  Fe20  1  0.12314838  0.12309810  0.37326189  1
  Fe  Fe21  1  0.50351677  0.00218318  -0.00185487  1
  Fe  Fe22  1  0.24989427  -0.00050582  0.00079721  1
  Fe  Fe23  1  0.37319191  0.62571638  0.62403344  1
  Fe  Fe24  1  0.24928554  0.50173431  0.49860841  1
  Fe  Fe25  1  0.62308222  0.12557004  0.12852572  1
  Fe  Fe26  1  0.00004815  0.75535590  0.75226213  1
  Fe  Fe27  1  0.87434851  0.62737477  0.12321915  1
  Fe  Fe28  1  0.12371661  0.87515254  0.37263746  1
  Fe  Fe29  1  -0.00006820  0.75516350  0.00192287  1
  Fe  Fe30  1  0.75425115  -0.00181838  0.50168368  1
  Fe  Fe31  1  0.12492623  0.62765424  0.37293259  1
  Fe  Fe32  1  0.12355298  0.62680987  0.62659461  1
  Fe  Fe33  1  0.62610247  0.62383105  0.37602460  1
  Fe  Fe34  1  0.24833379  0.24886968  0.74999239  1
  Fe  Fe35  1  0.75140852  -0.00058609  0.24801930  1
  Fe  Fe36  1  0.49918811  -0.00121139  0.75001293  1
  Fe  Fe37  1  0.87797054  0.62527153  0.87628350  1
  Fe  Fe38  1  0.25465952  -0.00292766  0.25032899  1
  Fe  Fe39  1  0.62542650  0.12409707  0.62651209  1
  Fe  Fe40  1  0.37633921  0.12489131  0.12501820  1
  Fe  Fe41  1  0.24754594  0.50263561  -0.00197628  1
  Fe  Fe42  1  0.50261601  0.74769225  0.00124811  1
  Fe  Fe43  1  0.87541738  0.37194437  0.12524941  1
  Fe  Fe44  1  0.75086936  0.50083486  -0.00059720  1
  Fe  Fe45  1  0.49841558  0.50031171  0.75115268  1
  Fe  Fe46  1  0.37486596  0.37452045  0.37574592  1
  Fe  Fe47  1  0.62385498  0.37652607  0.12307619  1
  Fe  Fe48  1  0.37298601  0.87500847  0.62305220  1
  Fe  Fe49  1  0.87812433  0.12100595  0.63231397  1
  Fe  Fe50  1  0.49899240  0.24836993  0.50100609  1
  Fe  Fe51  1  0.62733104  0.12617433  0.86933547  1
  Fe  Fe52  1  0.49970780  0.75060930  0.74912492  1
  Fe  Fe53  1  0.37363937  0.12356829  0.62463701  1
  Fe  Fe54  1  0.12527074  0.12183650  0.12667176  1
  Fe  Fe55  1  0.24994922  0.24967595  0.24914684  1
  Fe  Fe56  1  0.62665771  0.87553452  0.62544204  1
  Fe  Fe57  1  0.62276723  0.37351247  0.87511159  1
  Fe  Fe58  1  0.62571019  0.87647718  0.37668534  1
  Fe  Fe59  1  0.50007670  0.50109652  0.24945867  1
  Fe  Fe60  1  -0.00105080  0.50090101  0.24890734  1
  Fe  Fe61  1  0.75139443  0.49903658  0.25010280  1
  Fe  Fe62  1  0.25214276  0.75413094  0.24627367  1
  Fe  Fe63  1  0.12463303  0.37464505  0.12280452  1
  Fe  Fe64  1  0.75043601  0.75286703  0.75284062  1
  Fe  Fe65  1  0.75011269  0.75131246  0.24925794  1
  Fe  Fe66  1  0.87553939  0.12501246  0.37240844  1
  Fe  Fe67  1  -0.00057557  0.75419130  0.49959149  1
  Fe  Fe68  1  0.75078664  0.49899455  0.75063569  1
  Fe  Fe69  1  0.37309318  0.62855162  0.87546808  1
  Fe  Fe70  1  0.62404576  0.37671275  0.62387772  1
  Fe  Fe71  1  0.62520572  0.62487438  0.87530424  1
  Fe  Fe72  1  0.86974129  0.88140765  0.88042392  1
  Fe  Fe73  1  0.37734691  0.62590041  0.12501566  1
  Fe  Fe74  1  0.00228574  0.49998435  0.75264039  1
  Fe  Fe75  1  0.62476186  0.12353786  0.37610745  1
  Fe  Fe76  1  0.49710199  -0.00374029  0.25246407  1
  Fe  Fe77  1  0.87430736  0.62789568  0.37651675  1
  Fe  Fe78  1  0.74838423  0.24683975  -0.00035854  1
  Fe  Fe79  1  0.24810671  0.24727094  0.49967474  1
  Fe  Fe80  1  0.87700560  0.37552908  0.62623519  1
  Fe  Fe81  1  0.62567197  0.37539861  0.37744350  1
  Fe  Fe82  1  0.13000532  0.87382885  0.87659122  1
  Fe  Fe83  1  0.50193242  0.74996246  0.50013636  1
  Fe  Fe84  1  0.87731499  0.37279817  0.87486266  1
  Fe  Fe85  1  0.37563498  0.37330981  0.12028095  1
  Fe  Fe86  1  0.12561707  0.87964986  0.62575625  1
  Fe  Fe87  1  0.75268476  0.24883701  0.50182013  1
  Fe  Fe88  1  0.12232536  0.62721601  0.12347523  1
  Fe  Fe89  1  0.37567305  0.12667565  0.87572658  1
  Co  Co90  1  0.50125310  0.75171781  0.24989430  1
  Co  Co91  1  0.62397439  0.87454599  0.87639265  1
  Co  Co92  1  0.00341085  -0.00011790  -0.00139836  1
  Co  Co93  1  0.87352607  0.12285363  0.87317260  1
  Co  Co94  1  0.00208896  0.24936110  0.75086790  1
  Co  Co95  1  0.74788975  0.24962393  0.24970226  1
  Co  Co96  1  0.24623328  0.75089660  0.50106858  1
  Co  Co97  1  0.12535659  0.87651295  0.12659629  1
  Co  Co98  1  0.50319126  0.24649023  -0.00004466  1
  Co  Co99  1  0.49901111  -0.00026861  0.50110262  1
  Co  Co100  1  0.24999308  0.74965918  0.00429521  1
  Co  Co101  1  0.37560466  0.87149819  0.37856937  1
  Co  Co102  1  -0.00226588  0.75154951  0.24795265  1
  Co  Co103  1  0.37891785  0.87650709  0.11997943  1
  Co  Co104  1  0.87488022  0.87452855  0.37324986  1
  Co  Co105  1  0.00210642  0.24872675  0.24780568  1
  Co  Co106  1  0.75349359  0.49817288  0.49982087  1
  Co  Co107  1  -0.00293493  -0.00053398  0.49912573  1
  Co  Co108  1  0.74851578  -0.00326610  0.74959086  1
  Co  Co109  1  0.49842768  0.24974139  0.74827890  1
  Co  Co110  1  0.12461605  0.11979003  0.62738558  1
  Co  Co111  1  0.37650879  0.12590288  0.37398549  1
  Co  Co112  1  -0.00004998  -0.00485128  0.75405017  1
  Co  Co113  1  0.74445465  0.00511908  0.00093573  1
  Co  Co114  1  0.24634071  0.24609461  0.00054390  1
  Co  Co115  1  0.87454649  0.87460641  0.62612214  1
  Co  Co116  1  0.25305299  -0.00092647  0.75262540  1
  Co  Co117  1  0.62664355  0.62440639  0.12489235  1
  Co  Co118  1  0.49772594  0.50233064  0.49931646  1
  Co  Co119  1  0.74944541  0.74802713  -0.00196356  1
  Co  Co120  1  0.74977127  0.75280731  0.49956799  1
  Co  Co121  1  0.24930912  0.75011519  0.74855438  1
  Co  Co122  1  0.12564091  0.37456617  0.87592198  1
  Co  Co123  1  0.75088080  0.25241761  0.74861997  1
  Co  Co124  1  0.12228669  0.62960862  0.87687341  1
  Co  Co125  1  0.87090478  0.87670638  0.12104582  1
  Co  Co126  1  0.49914138  0.50300442  -0.00158813  1
  Co  Co127  1  -0.00000919  0.49897836  0.00085195  1
