# generated using pymatgen
data_Fe45Co19
_symmetry_space_group_name_H-M   'P 1'
_cell_length_a   11.41406656
_cell_length_b   11.41368845
_cell_length_c   11.41563796
_cell_angle_alpha   89.99505605
_cell_angle_beta   90.00406159
_cell_angle_gamma   90.00902184
_symmetry_Int_Tables_number   1
_chemical_formula_structural   Fe45Co19
_chemical_formula_sum   'Fe90 Co38'
_cell_volume   1487.19046977
_cell_formula_units_Z   2
loop_
 _symmetry_equiv_pos_site_id
 _symmetry_equiv_pos_as_xyz
  1  'x, y, z'
loop_
 _atom_site_type_symbol
 _atom_site_label
 _atom_site_symmetry_multiplicity
 _atom_site_fract_x
 _atom_site_fract_y
 _atom_site_fract_z
 _atom_site_occupancy
  Fe  Fe0  1  0.25213104  0.75136358  0.74858331  1
  Fe  Fe1  1  0.49899262  0.24718022  0.74907808  1
  Fe  Fe2  1  0.12576256  0.62274933  0.62485463  1
  Fe  Fe3  1  0.37565713  0.37423946  0.87496208  1
  Fe  Fe4  1  0.25141273  0.24543435  0.25007967  1
  Fe  Fe5  1  0.12987510  0.62646813  0.37577920  1
  Fe  Fe6  1  0.49330952  -0.00577983  0.25311027  1
  Fe  Fe7  1  0.87541214  0.62870774  0.87662632  1
  Fe  Fe8  1  0.12618674  0.37368239  0.37549054  1
  Fe  Fe9  1  0.25182453  0.24642249  0.75107392  1
  Fe  Fe10  1  0.87411956  0.87522593  0.62420560  1
  Fe  Fe11  1  0.62072860  0.12260158  0.37628251  1
  Fe  Fe12  1  0.37552977  0.12106901  0.62082962  1
  Fe  Fe13  1  0.12459915  0.12062049  0.12610534  1
  Fe  Fe14  1  0.87399954  0.62545354  0.37714337  1
  Fe  Fe15  1  0.49850806  0.50297431  0.49745374  1
  Fe  Fe16  1  0.50177609  0.25098104  0.50019391  1
  Fe  Fe17  1  0.74775798  0.50227749  0.00035881  1
  Fe  Fe18  1  0.12389260  0.12309750  0.87621090  1
  Fe  Fe19  1  0.37468928  0.62730028  0.62076004  1
  Fe  Fe20  1  0.62574951  0.37868330  0.37308270  1
  Fe  Fe21  1  0.49802003  -0.00231355  0.74810650  1
  Fe  Fe22  1  0.12651755  0.37529429  0.62509274  1
  Fe  Fe23  1  0.49934527  0.24956603  0.24909173  1
  Fe  Fe24  1  0.49611506  0.50732440  0.25333302  1
  Fe  Fe25  1  0.13239619  0.87433637  0.36898167  1
  Fe  Fe26  1  0.62432577  0.12241305  0.87343230  1
  Fe  Fe27  1  0.87478514  0.87571493  0.12577782  1
  Fe  Fe28  1  0.24565554  -0.00634398  0.00030237  1
  Fe  Fe29  1  0.74903050  0.75021760  0.50152888  1
  Fe  Fe30  1  0.25311803  0.50081221  0.75116834  1
  Fe  Fe31  1  0.50171544  0.24998336  0.00114994  1
  Fe  Fe32  1  0.37511822  0.87252542  0.87749056  1
  Fe  Fe33  1  0.37384306  0.37421782  0.37477107  1
  Fe  Fe34  1  0.37545514  0.63047055  0.88045491  1
  Fe  Fe35  1  0.62431296  0.37693167  0.12722402  1
  Fe  Fe36  1  0.62170032  0.62920149  0.87109683  1
  Fe  Fe37  1  0.37459886  0.37468563  0.62455268  1
  Fe  Fe38  1  -0.00226645  -0.00041013  0.25097041  1
  Fe  Fe39  1  0.87554854  0.37604851  0.62362580  1
  Fe  Fe40  1  0.75204035  0.50355750  0.75008134  1
  Fe  Fe41  1  0.62657805  0.87635947  0.62719942  1
  Fe  Fe42  1  0.12589640  0.37397067  0.87433964  1
  Fe  Fe43  1  0.62399046  0.37537551  0.87227670  1
  Fe  Fe44  1  0.24894226  0.24654837  0.49772448  1
  Fe  Fe45  1  0.87640572  0.62713653  0.12330214  1
  Fe  Fe46  1  0.00094958  0.49969825  -0.00104463  1
  Fe  Fe47  1  0.37596340  0.12190019  0.12279674  1
  Fe  Fe48  1  0.62216566  0.62762765  0.12778434  1
  Fe  Fe49  1  0.00607544  0.75526514  0.00237465  1
  Fe  Fe50  1  -0.00106476  0.50162326  0.75065627  1
  Fe  Fe51  1  0.00441268  0.75160626  0.50026804  1
  Fe  Fe52  1  -0.00176224  0.24755786  0.00187515  1
  Fe  Fe53  1  0.74893059  0.24698706  0.00118265  1
  Fe  Fe54  1  0.74989945  0.24919452  0.25114309  1
  Fe  Fe55  1  0.74538992  0.75330657  0.00005935  1
  Fe  Fe56  1  -0.00087958  0.74909732  0.74719156  1
  Fe  Fe57  1  0.12685226  0.37722623  0.12503410  1
  Fe  Fe58  1  0.87727287  0.12615365  0.37745164  1
  Fe  Fe59  1  0.62440359  0.12096193  0.12853603  1
  Fe  Fe60  1  0.87472639  0.87473434  0.87357194  1
  Fe  Fe61  1  0.75054689  0.74905297  0.24981945  1
  Fe  Fe62  1  0.37551062  0.37668162  0.12549129  1
  Fe  Fe63  1  -0.00118820  0.25070116  0.24990551  1
  Fe  Fe64  1  0.50044667  0.49975241  -0.00169979  1
  Fe  Fe65  1  -0.00130939  0.50087653  0.25133577  1
  Fe  Fe66  1  -0.00136941  0.00055540  0.75145575  1
  Fe  Fe67  1  0.75191049  -0.00021307  0.25422044  1
  Fe  Fe68  1  0.37649108  0.12214324  0.87858958  1
  Fe  Fe69  1  0.12743112  0.12173016  0.62387400  1
  Fe  Fe70  1  0.74836598  0.24884092  0.49949678  1
  Fe  Fe71  1  0.12721048  0.62686396  0.87634111  1
  Fe  Fe72  1  0.25327466  0.50564929  0.24900165  1
  Fe  Fe73  1  0.25056013  0.25050030  0.00084558  1
  Fe  Fe74  1  0.00082717  0.49942390  0.49840144  1
  Fe  Fe75  1  0.00193049  0.74806004  0.24963372  1
  Fe  Fe76  1  0.62257699  0.37693892  0.62729877  1
  Fe  Fe77  1  0.62303255  0.62665498  0.62722120  1
  Fe  Fe78  1  -0.00021408  0.24818100  0.74800263  1
  Fe  Fe79  1  0.50403452  -0.00602974  0.00188213  1
  Fe  Fe80  1  0.00270972  -0.00186283  0.49772300  1
  Fe  Fe81  1  0.62316153  0.87137195  0.37344339  1
  Fe  Fe82  1  0.87288463  0.37564356  0.12555269  1
  Fe  Fe83  1  0.87395449  0.37363826  0.87522109  1
  Fe  Fe84  1  0.75045318  -0.00055438  -0.00082603  1
  Fe  Fe85  1  0.12971617  0.87951611  0.62761761  1
  Fe  Fe86  1  0.74905351  0.24695374  0.74842484  1
  Fe  Fe87  1  0.74916761  0.50177829  0.49997071  1
  Fe  Fe88  1  0.87552247  0.87254061  0.37655554  1
  Fe  Fe89  1  0.87299016  0.12203265  0.62232915  1
  Co  Co90  1  0.25113513  0.49895841  -0.00086926  1
  Co  Co91  1  0.62668504  0.87655522  0.13147802  1
  Co  Co92  1  0.37011187  0.87794253  0.62048389  1
  Co  Co93  1  0.25120685  0.49835067  0.49954774  1
  Co  Co94  1  0.75076703  0.00057104  0.75065897  1
  Co  Co95  1  0.24998743  0.00239792  0.49249139  1
  Co  Co96  1  0.38090176  0.12715291  0.37773814  1
  Co  Co97  1  0.49922920  -0.00636486  0.49824469  1
  Co  Co98  1  0.37775114  0.62765337  0.11625928  1
  Co  Co99  1  0.00030403  -0.00331532  -0.00009300  1
  Co  Co100  1  0.24335653  0.75451589  0.00392545  1
  Co  Co101  1  0.62342182  0.12138699  0.62337080  1
  Co  Co102  1  0.25718139  0.00408229  0.25391067  1
  Co  Co103  1  0.37394054  0.87339827  0.12405462  1
  Co  Co104  1  0.50605837  0.75592349  0.00189152  1
  Co  Co105  1  0.87584345  0.12477586  0.87432815  1
  Co  Co106  1  0.87341218  0.37544429  0.37579184  1
  Co  Co107  1  0.87472004  0.12273760  0.12713225  1
  Co  Co108  1  0.62688341  0.62745952  0.37429564  1
  Co  Co109  1  0.12395540  0.87390766  0.86886283  1
  Co  Co110  1  0.24342117  0.75236360  0.50515874  1
  Co  Co111  1  0.12091611  0.12513661  0.37296784  1
  Co  Co112  1  0.75164293  0.50289976  0.24801165  1
  Co  Co113  1  0.49514315  0.74916845  0.25064514  1
  Co  Co114  1  0.74904445  -0.00160879  0.49651352  1
  Co  Co115  1  0.75218137  0.74892868  0.74835139  1
  Co  Co116  1  0.00057424  0.24982017  0.50191674  1
  Co  Co117  1  0.49568014  0.50222787  0.75051601  1
  Co  Co118  1  0.37067176  0.63321432  0.38131418  1
  Co  Co119  1  0.62560283  0.87471067  0.86924970  1
  Co  Co120  1  0.12352324  0.62238395  0.12309360  1
  Co  Co121  1  0.12598101  0.87920896  0.13405942  1
  Co  Co122  1  0.49563032  0.75380487  0.74673680  1
  Co  Co123  1  0.87692609  0.62611007  0.62096359  1
  Co  Co124  1  0.25328926  0.00085638  0.75379623  1
  Co  Co125  1  0.50299433  0.75191863  0.50163904  1
  Co  Co126  1  0.36946246  0.86593857  0.37815451  1
  Co  Co127  1  0.25234240  0.74464529  0.24205846  1
