# generated using pymatgen
data_Fe45Co19
_symmetry_space_group_name_H-M   'P 1'
_cell_length_a   11.41412158
_cell_length_b   11.41497532
_cell_length_c   11.41549010
_cell_angle_alpha   90.00546317
_cell_angle_beta   89.99923726
_cell_angle_gamma   89.98687147
_symmetry_Int_Tables_number   1
_chemical_formula_structural   Fe45Co19
_chemical_formula_sum   'Fe90 Co38'
_cell_volume   1487.34603319
_cell_formula_units_Z   2
loop_
 _symmetry_equiv_pos_site_id
 _symmetry_equiv_pos_as_xyz
  1  'x, y, z'
loop_
 _atom_site_type_symbol
 _atom_site_label
 _atom_site_symmetry_multiplicity
 _atom_site_fract_x
 _atom_site_fract_y
 _atom_site_fract_z
 _atom_site_occupancy
  Fe  Fe0  1  0.24779014  0.50039083  -0.00205537  1
  Fe  Fe1  1  0.49812769  0.74981788  0.50142706  1
  Fe  Fe2  1  0.49992522  0.74797678  0.00164178  1
  Fe  Fe3  1  0.75085758  0.00232792  0.00106460  1
  Fe  Fe4  1  -0.00177405  0.50108281  0.50003043  1
  Fe  Fe5  1  0.00135922  0.50148104  0.75028443  1
  Fe  Fe6  1  0.49731107  0.00210009  0.25090667  1
  Fe  Fe7  1  0.62442199  0.87639480  0.37422241  1
  Fe  Fe8  1  0.62404027  0.62540223  0.87417697  1
  Fe  Fe9  1  0.62374837  0.62204108  0.62423543  1
  Fe  Fe10  1  0.74783968  0.00128705  0.74898510  1
  Fe  Fe11  1  0.87254694  0.37529642  0.62228515  1
  Fe  Fe12  1  0.37213037  0.87683032  0.12600626  1
  Fe  Fe13  1  0.87761057  0.37330541  0.87525863  1
  Fe  Fe14  1  0.49785815  0.00131488  0.74761754  1
  Fe  Fe15  1  0.12183760  0.62363303  0.12660821  1
  Fe  Fe16  1  0.37859139  0.61833207  0.12648631  1
  Fe  Fe17  1  0.49733216  0.25814648  0.24906258  1
  Fe  Fe18  1  0.62709095  0.37305097  0.87615433  1
  Fe  Fe19  1  0.62321728  0.87689110  0.62272068  1
  Fe  Fe20  1  0.75132004  0.49952447  -0.00085415  1
  Fe  Fe21  1  0.62311943  0.62326531  0.37485234  1
  Fe  Fe22  1  0.49802419  0.25279298  0.00025433  1
  Fe  Fe23  1  0.24995183  0.49731073  0.25037434  1
  Fe  Fe24  1  0.12381590  0.12442954  0.62695333  1
  Fe  Fe25  1  0.12684766  0.87634740  0.87823559  1
  Fe  Fe26  1  0.75045507  0.50038199  0.74945423  1
  Fe  Fe27  1  0.00655926  0.24706984  -0.00392446  1
  Fe  Fe28  1  0.74897747  0.74811999  0.00162091  1
  Fe  Fe29  1  0.25231401  0.49892428  0.50339185  1
  Fe  Fe30  1  0.87530414  0.12521233  0.37257435  1
  Fe  Fe31  1  0.37477751  0.12616647  0.87465216  1
  Fe  Fe32  1  0.12621741  0.87484580  0.62230841  1
  Fe  Fe33  1  0.87691639  0.12501479  0.87397347  1
  Fe  Fe34  1  0.87475110  0.87732191  0.37461705  1
  Fe  Fe35  1  -0.00106258  0.74843929  0.49884907  1
  Fe  Fe36  1  0.62201047  0.61841974  0.12653790  1
  Fe  Fe37  1  0.37092407  0.37431129  0.87492291  1
  Fe  Fe38  1  0.87612924  0.37257490  0.12284358  1
  Fe  Fe39  1  0.63096111  0.37248813  0.37981010  1
  Fe  Fe40  1  0.25268417  0.00400534  0.50060052  1
  Fe  Fe41  1  0.62367970  0.87620156  0.87637893  1
  Fe  Fe42  1  0.87829607  0.62228322  0.12787139  1
  Fe  Fe43  1  0.25314054  -0.00000316  0.74807599  1
  Fe  Fe44  1  0.37447157  0.62648129  0.87232103  1
  Fe  Fe45  1  0.75148659  0.74752905  0.50041560  1
  Fe  Fe46  1  0.61904350  0.12987303  0.62340401  1
  Fe  Fe47  1  0.37442632  0.87402929  0.87473007  1
  Fe  Fe48  1  0.74969522  0.74967930  0.74820479  1
  Fe  Fe49  1  0.12659001  0.87452537  0.37592366  1
  Fe  Fe50  1  0.00199390  0.25259500  0.25126861  1
  Fe  Fe51  1  0.74947022  0.74940708  0.24964719  1
  Fe  Fe52  1  0.75059182  0.24883092  0.74906359  1
  Fe  Fe53  1  0.87456708  0.87528430  0.87562821  1
  Fe  Fe54  1  0.74822863  0.00343987  0.49925267  1
  Fe  Fe55  1  0.62367224  0.12865737  0.37341528  1
  Fe  Fe56  1  0.87744212  0.62290133  0.37129872  1
  Fe  Fe57  1  0.00368036  0.74855056  0.74937762  1
  Fe  Fe58  1  0.87562867  0.87558940  0.62354234  1
  Fe  Fe59  1  0.24718088  0.24798664  0.75101344  1
  Fe  Fe60  1  0.25273452  0.74717856  0.50310010  1
  Fe  Fe61  1  0.49870336  0.74889385  0.24938946  1
  Fe  Fe62  1  0.12714848  0.37335397  0.12253633  1
  Fe  Fe63  1  0.12474645  0.37501254  0.62615212  1
  Fe  Fe64  1  0.37622705  0.62132506  0.37497696  1
  Fe  Fe65  1  0.36825706  0.12878737  0.12655249  1
  Fe  Fe66  1  0.62391180  0.12541098  0.87651124  1
  Fe  Fe67  1  0.87552117  0.12746747  0.12605240  1
  Fe  Fe68  1  0.75110334  0.49486886  0.25076072  1
  Fe  Fe69  1  0.12432246  0.62332197  0.37418736  1
  Fe  Fe70  1  0.49870247  0.75097403  0.74729043  1
  Fe  Fe71  1  0.25055908  0.74827365  0.00147226  1
  Fe  Fe72  1  0.37386025  0.13151658  0.37637605  1
  Fe  Fe73  1  0.62446602  0.87663692  0.12609254  1
  Fe  Fe74  1  0.87555441  0.87620362  0.12589166  1
  Fe  Fe75  1  0.37510311  0.87532751  0.37588836  1
  Fe  Fe76  1  0.12569443  0.37491887  0.37771885  1
  Fe  Fe77  1  0.24951898  0.74894381  0.24948501  1
  Fe  Fe78  1  0.49793270  0.49300044  0.50189793  1
  Fe  Fe79  1  0.87767738  0.62530529  0.87542041  1
  Fe  Fe80  1  0.49763919  0.00187961  0.00285814  1
  Fe  Fe81  1  0.00104716  0.75018344  0.00243371  1
  Fe  Fe82  1  0.62656788  0.12915226  0.12674872  1
  Fe  Fe83  1  0.49976474  0.49501832  0.74876480  1
  Fe  Fe84  1  0.12675754  0.12651182  0.37304250  1
  Fe  Fe85  1  0.00409506  -0.00163171  0.24836380  1
  Fe  Fe86  1  0.87744936  0.12360823  0.62569943  1
  Fe  Fe87  1  0.00015531  0.24850691  0.50111472  1
  Fe  Fe88  1  0.00069027  -0.00186853  0.75042961  1
  Fe  Fe89  1  0.24785142  0.50415748  0.74876972  1
  Co  Co90  1  0.12413134  0.62471975  0.62194521  1
  Co  Co91  1  0.37333240  0.37762985  0.12128504  1
  Co  Co92  1  0.49805931  0.00230524  0.49798199  1
  Co  Co93  1  0.25038925  -0.00091559  0.25375702  1
  Co  Co94  1  0.87439892  0.37381247  0.37953157  1
  Co  Co95  1  0.24692563  0.24894976  -0.00377135  1
  Co  Co96  1  0.75120861  0.25410050  0.24993584  1
  Co  Co97  1  0.24941661  0.25522256  0.24981269  1
  Co  Co98  1  0.74965555  0.00124999  0.24941764  1
  Co  Co99  1  0.37479622  0.87582950  0.62375125  1
  Co  Co100  1  0.62430135  0.37634269  0.12175592  1
  Co  Co101  1  0.37721237  0.62309320  0.62608677  1
  Co  Co102  1  0.12517220  0.37632138  0.87170220  1
  Co  Co103  1  0.49968704  0.49848069  -0.00607734  1
  Co  Co104  1  0.75034731  0.24951619  -0.00146908  1
  Co  Co105  1  0.50007328  0.49189504  0.25556120  1
  Co  Co106  1  0.49839700  0.25655747  0.49964076  1
  Co  Co107  1  0.50050206  0.25348594  0.75293096  1
  Co  Co108  1  -0.00054824  0.25110157  0.74859359  1
  Co  Co109  1  0.00102284  0.49743954  -0.00004939  1
  Co  Co110  1  0.36913098  0.37288033  0.37718615  1
  Co  Co111  1  0.12371754  0.62574604  0.87762455  1
  Co  Co112  1  0.24735743  0.74901226  0.74789967  1
  Co  Co113  1  -0.00018334  0.00345815  0.00178213  1
  Co  Co114  1  0.00236216  0.75311878  0.25025161  1
  Co  Co115  1  0.12802790  0.87726483  0.12326325  1
  Co  Co116  1  0.75320493  0.24377318  0.50179185  1
  Co  Co117  1  0.00147212  0.00185148  0.49876717  1
  Co  Co118  1  0.12410066  0.12125412  0.87113468  1
  Co  Co119  1  0.00107045  0.49394052  0.25053496  1
  Co  Co120  1  0.87658496  0.62477640  0.62698279  1
  Co  Co121  1  0.62992509  0.37334722  0.62392904  1
  Co  Co122  1  0.12924625  0.12489777  0.12772868  1
  Co  Co123  1  0.75112581  0.50434901  0.49936315  1
  Co  Co124  1  0.24577727  0.24903089  0.50280633  1
  Co  Co125  1  0.24994605  0.00322467  -0.00157082  1
  Co  Co126  1  0.37129237  0.37004932  0.62827784  1
  Co  Co127  1  0.37745199  0.13073698  0.62394649  1
