# generated using pymatgen
data_Fe45Co19
_symmetry_space_group_name_H-M   'P 1'
_cell_length_a   11.41572904
_cell_length_b   11.41599369
_cell_length_c   11.41557650
_cell_angle_alpha   90.00876644
_cell_angle_beta   89.99474833
_cell_angle_gamma   90.00608094
_symmetry_Int_Tables_number   1
_chemical_formula_structural   Fe45Co19
_chemical_formula_sum   'Fe90 Co38'
_cell_volume   1487.69948014
_cell_formula_units_Z   2
loop_
 _symmetry_equiv_pos_site_id
 _symmetry_equiv_pos_as_xyz
  1  'x, y, z'
loop_
 _atom_site_type_symbol
 _atom_site_label
 _atom_site_symmetry_multiplicity
 _atom_site_fract_x
 _atom_site_fract_y
 _atom_site_fract_z
 _atom_site_occupancy
  Fe  Fe0  1  0.62871563  0.37691987  0.62593097  1
  Fe  Fe1  1  0.12623147  0.87719341  0.12642027  1
  Fe  Fe2  1  0.62372719  0.62428235  0.87633101  1
  Fe  Fe3  1  0.25066565  0.49762277  0.25078606  1
  Fe  Fe4  1  0.87526239  0.62474155  0.37344228  1
  Fe  Fe5  1  0.12436329  0.62532015  0.37440297  1
  Fe  Fe6  1  0.62553864  0.87680183  0.12329561  1
  Fe  Fe7  1  -0.00166053  0.00097404  0.25326101  1
  Fe  Fe8  1  0.00373037  0.50589087  0.00375163  1
  Fe  Fe9  1  0.75304162  0.24838866  0.24749646  1
  Fe  Fe10  1  0.87531217  0.12597600  0.62653604  1
  Fe  Fe11  1  0.62319320  0.37489456  0.12505638  1
  Fe  Fe12  1  0.24697369  0.74847488  -0.00163272  1
  Fe  Fe13  1  0.12357166  0.87155933  0.87256428  1
  Fe  Fe14  1  0.24794376  0.74997152  0.50038941  1
  Fe  Fe15  1  0.50131293  0.74716856  0.24759266  1
  Fe  Fe16  1  0.24769339  0.00018411  0.49309053  1
  Fe  Fe17  1  0.75060627  0.00113295  0.49818847  1
  Fe  Fe18  1  0.74724021  0.74783294  0.24735937  1
  Fe  Fe19  1  0.37526461  0.62585207  0.87484588  1
  Fe  Fe20  1  0.12815539  0.37514174  0.12258972  1
  Fe  Fe21  1  0.24978418  0.24935017  0.24878840  1
  Fe  Fe22  1  0.74984728  0.74862962  0.49990238  1
  Fe  Fe23  1  0.62588468  0.12547869  0.12383192  1
  Fe  Fe24  1  0.00176294  0.50011973  0.24774205  1
  Fe  Fe25  1  0.49995229  0.00078071  0.49952322  1
  Fe  Fe26  1  0.00035814  0.00033913  -0.00215462  1
  Fe  Fe27  1  0.49837219  0.75130180  0.74968523  1
  Fe  Fe28  1  0.49803200  -0.00029112  0.75181728  1
  Fe  Fe29  1  0.87213656  0.62014774  0.62648507  1
  Fe  Fe30  1  0.12373214  0.37242814  0.37503824  1
  Fe  Fe31  1  0.24913006  0.00186220  -0.00279981  1
  Fe  Fe32  1  0.37338137  0.62243528  0.62625575  1
  Fe  Fe33  1  0.75292938  0.74888760  0.75426408  1
  Fe  Fe34  1  0.12379138  0.37252920  0.87579466  1
  Fe  Fe35  1  0.49881312  0.00270484  -0.00262093  1
  Fe  Fe36  1  0.37733279  0.37248774  0.37360653  1
  Fe  Fe37  1  0.37411990  0.12996204  0.87285325  1
  Fe  Fe38  1  -0.00140156  -0.00124849  0.75036261  1
  Fe  Fe39  1  0.62339862  0.87428324  0.37492651  1
  Fe  Fe40  1  0.37175684  0.62231519  0.12372299  1
  Fe  Fe41  1  0.87370132  0.87628616  0.62441941  1
  Fe  Fe42  1  0.12725195  0.87642470  0.62656040  1
  Fe  Fe43  1  0.12354433  0.12855941  0.86948045  1
  Fe  Fe44  1  0.75621502  0.25496133  0.75309538  1
  Fe  Fe45  1  0.87524664  0.37657181  0.12297235  1
  Fe  Fe46  1  0.24969022  0.75277187  0.25176605  1
  Fe  Fe47  1  0.00107046  0.74791834  0.50349518  1
  Fe  Fe48  1  0.37417884  0.37622203  0.62554079  1
  Fe  Fe49  1  -0.00261413  0.49575457  0.74804242  1
  Fe  Fe50  1  0.62488733  0.87498858  0.87611923  1
  Fe  Fe51  1  0.62530979  0.37265508  0.87760673  1
  Fe  Fe52  1  0.62467581  0.12555861  0.37431520  1
  Fe  Fe53  1  0.00149640  0.00197481  0.49816562  1
  Fe  Fe54  1  0.49607303  0.49638688  0.00143063  1
  Fe  Fe55  1  0.75204948  -0.00111760  0.75251003  1
  Fe  Fe56  1  0.75169404  0.50206436  -0.00206597  1
  Fe  Fe57  1  -0.00192944  0.24728617  0.00170689  1
  Fe  Fe58  1  0.12352605  0.12352273  0.12842653  1
  Fe  Fe59  1  0.62626212  0.12640627  0.62863023  1
  Fe  Fe60  1  0.24729236  0.24951126  0.50305002  1
  Fe  Fe61  1  0.50235375  0.50003349  0.49895376  1
  Fe  Fe62  1  0.00270705  0.24900532  0.50460708  1
  Fe  Fe63  1  0.62774723  0.62195889  0.62655248  1
  Fe  Fe64  1  0.62312871  0.37487323  0.37276177  1
  Fe  Fe65  1  0.87639197  0.37336752  0.37532667  1
  Fe  Fe66  1  0.37341089  0.87689040  0.12366825  1
  Fe  Fe67  1  0.62643345  0.12910017  0.87443700  1
  Fe  Fe68  1  0.75033002  0.25002014  0.49909404  1
  Fe  Fe69  1  0.37220364  0.12411016  0.62663155  1
  Fe  Fe70  1  0.37618947  0.62540322  0.37532768  1
  Fe  Fe71  1  0.00041968  0.50014378  0.50021312  1
  Fe  Fe72  1  0.12133013  0.62784051  0.87018310  1
  Fe  Fe73  1  0.75253352  0.00132825  -0.00221016  1
  Fe  Fe74  1  0.74809333  0.50252700  0.25077257  1
  Fe  Fe75  1  0.24856686  0.49854383  0.75218024  1
  Fe  Fe76  1  0.49698344  0.00169626  0.25208216  1
  Fe  Fe77  1  0.50033717  0.75013220  0.50229840  1
  Fe  Fe78  1  0.87498809  0.87439710  0.12167110  1
  Fe  Fe79  1  0.50043679  0.75064195  0.00133184  1
  Fe  Fe80  1  0.50078636  0.49687164  0.75165414  1
  Fe  Fe81  1  0.00064474  0.74847583  0.24616310  1
  Fe  Fe82  1  0.62611406  0.87577598  0.62658436  1
  Fe  Fe83  1  0.75301458  0.00111295  0.25201023  1
  Fe  Fe84  1  0.24816512  0.49959736  0.49912670  1
  Fe  Fe85  1  0.37134371  0.37065006  0.87735422  1
  Fe  Fe86  1  0.87608430  0.87267200  0.37590554  1
  Fe  Fe87  1  0.37238603  0.87696334  0.62568935  1
  Fe  Fe88  1  0.50078187  0.24923505  0.50228693  1
  Fe  Fe89  1  0.37451500  0.12659573  0.12460940  1
  Co  Co90  1  0.74929309  0.49986418  0.49525348  1
  Co  Co91  1  0.37397129  0.12885133  0.37668704  1
  Co  Co92  1  0.12316133  0.12878185  0.37190889  1
  Co  Co93  1  0.24730562  0.24621376  0.00084857  1
  Co  Co94  1  0.24786605  0.25282408  0.74651887  1
  Co  Co95  1  0.75041810  0.74947306  -0.00179015  1
  Co  Co96  1  0.88039900  0.37688460  0.88143721  1
  Co  Co97  1  -0.00335963  0.75159306  0.74400095  1
  Co  Co98  1  0.87828516  0.87271320  0.87752245  1
  Co  Co99  1  0.13041486  0.62494042  0.12856399  1
  Co  Co100  1  0.49947633  0.25237029  0.74870318  1
  Co  Co101  1  0.25138580  -0.00130272  0.75535460  1
  Co  Co102  1  0.12634164  0.62235225  0.62735933  1
  Co  Co103  1  0.24786271  0.50236622  -0.00399805  1
  Co  Co104  1  0.37778710  0.87287672  0.37478839  1
  Co  Co105  1  0.75163958  0.49768657  0.75593394  1
  Co  Co106  1  -0.00203412  0.25341777  0.74692952  1
  Co  Co107  1  0.50004282  0.25031900  0.00098357  1
  Co  Co108  1  0.87246726  0.37677747  0.62114771  1
  Co  Co109  1  0.37204125  0.37460553  0.12376459  1
  Co  Co110  1  -0.00087618  0.25256248  0.24561044  1
  Co  Co111  1  0.12544590  0.37806193  0.62484495  1
  Co  Co112  1  0.87694337  0.12238978  0.12397687  1
  Co  Co113  1  0.37436023  0.87283818  0.87778599  1
  Co  Co114  1  0.49917567  0.50158312  0.24866857  1
  Co  Co115  1  0.12687943  0.12102520  0.62853959  1
  Co  Co116  1  0.62338461  0.62609219  0.37683773  1
  Co  Co117  1  0.49977768  0.24873935  0.24795166  1
  Co  Co118  1  0.75262911  0.24937597  0.00177213  1
  Co  Co119  1  0.25169079  0.74945681  0.74937798  1
  Co  Co120  1  0.62436056  0.62214618  0.11990531  1
  Co  Co121  1  0.87284396  0.62502098  0.12432015  1
  Co  Co122  1  0.88024343  0.62547762  0.87613247  1
  Co  Co123  1  0.00270431  0.74786962  0.00470634  1
  Co  Co124  1  0.12186075  0.87313612  0.37369122  1
  Co  Co125  1  0.87782470  0.12871640  0.37564000  1
  Co  Co126  1  0.25172216  0.00056510  0.25325105  1
  Co  Co127  1  0.87622434  0.12583601  0.87381221  1
