# generated using pymatgen
data_Fe45Co19
_symmetry_space_group_name_H-M   'P 1'
_cell_length_a   11.41471620
_cell_length_b   11.41494564
_cell_length_c   11.41408129
_cell_angle_alpha   89.99669677
_cell_angle_beta   90.00527030
_cell_angle_gamma   90.01231110
_symmetry_Int_Tables_number   1
_chemical_formula_structural   Fe45Co19
_chemical_formula_sum   'Fe90 Co38'
_cell_volume   1487.23608731
_cell_formula_units_Z   2
loop_
 _symmetry_equiv_pos_site_id
 _symmetry_equiv_pos_as_xyz
  1  'x, y, z'
loop_
 _atom_site_type_symbol
 _atom_site_label
 _atom_site_symmetry_multiplicity
 _atom_site_fract_x
 _atom_site_fract_y
 _atom_site_fract_z
 _atom_site_occupancy
  Fe  Fe0  1  0.00235504  0.25081737  0.25063795  1
  Fe  Fe1  1  0.62542142  0.62438148  0.12303750  1
  Fe  Fe2  1  0.37187352  0.12567853  0.87610187  1
  Fe  Fe3  1  0.24704964  -0.00502343  0.00003596  1
  Fe  Fe4  1  0.00059513  0.50338683  0.24870310  1
  Fe  Fe5  1  0.62681268  0.87649435  0.37340525  1
  Fe  Fe6  1  0.50118903  0.49863402  0.50058995  1
  Fe  Fe7  1  0.50065904  0.74873621  0.75307750  1
  Fe  Fe8  1  0.50036063  0.75148723  -0.00198811  1
  Fe  Fe9  1  0.12498275  0.12299631  0.87568494  1
  Fe  Fe10  1  0.00118734  0.24983941  0.74943386  1
  Fe  Fe11  1  0.37246800  0.37535825  0.62678378  1
  Fe  Fe12  1  0.49876370  0.00204448  0.49867764  1
  Fe  Fe13  1  0.62494482  0.12496232  0.62464166  1
  Fe  Fe14  1  0.12487929  0.62797801  0.37297376  1
  Fe  Fe15  1  0.12276895  0.62506893  0.62387923  1
  Fe  Fe16  1  0.62445489  0.37459810  0.62620336  1
  Fe  Fe17  1  0.87490216  0.62384555  0.62239151  1
  Fe  Fe18  1  0.62539528  0.87607004  0.12514108  1
  Fe  Fe19  1  0.24633821  0.50162953  0.00050517  1
  Fe  Fe20  1  0.50006007  0.50061704  0.25034954  1
  Fe  Fe21  1  0.87609970  0.62466112  0.87854238  1
  Fe  Fe22  1  0.24819949  0.50127902  0.24788233  1
  Fe  Fe23  1  0.87771640  0.87566205  0.36944137  1
  Fe  Fe24  1  0.87500888  0.87599477  0.62705695  1
  Fe  Fe25  1  0.75078052  0.75128055  0.49827235  1
  Fe  Fe26  1  0.37462856  0.62582585  0.12143999  1
  Fe  Fe27  1  0.25048910  0.25052403  -0.00022640  1
  Fe  Fe28  1  0.87728161  0.12411274  0.37395661  1
  Fe  Fe29  1  0.24727708  -0.00150241  0.24994075  1
  Fe  Fe30  1  0.37462583  0.12369241  0.12499418  1
  Fe  Fe31  1  0.50141084  0.24681315  0.24891790  1
  Fe  Fe32  1  0.37097341  0.87315543  0.87113713  1
  Fe  Fe33  1  -0.00018249  0.00118813  0.74893682  1
  Fe  Fe34  1  0.74801094  0.49602710  -0.00129656  1
  Fe  Fe35  1  0.87747807  0.87494280  0.87470705  1
  Fe  Fe36  1  0.50167790  0.00298232  0.25180618  1
  Fe  Fe37  1  0.87512247  0.37502180  0.87522523  1
  Fe  Fe38  1  0.74975671  0.00436683  0.24654360  1
  Fe  Fe39  1  0.25059556  -0.00233212  0.50134086  1
  Fe  Fe40  1  0.74868934  0.24689245  0.24420164  1
  Fe  Fe41  1  0.25058884  0.75141901  0.50063319  1
  Fe  Fe42  1  0.74832039  0.50076440  0.75008907  1
  Fe  Fe43  1  0.12600428  0.37569177  0.62421892  1
  Fe  Fe44  1  0.37564576  0.87457868  0.12703583  1
  Fe  Fe45  1  0.62493714  0.62485046  0.62516740  1
  Fe  Fe46  1  0.50036859  0.00024948  0.75208203  1
  Fe  Fe47  1  0.12598227  0.37464402  0.87531878  1
  Fe  Fe48  1  0.00152669  -0.00475367  0.00381158  1
  Fe  Fe49  1  0.37323788  0.37442395  0.37436753  1
  Fe  Fe50  1  -0.00020715  0.25242510  0.00024455  1
  Fe  Fe51  1  0.75226534  0.24819911  0.74985530  1
  Fe  Fe52  1  0.62707481  0.37379115  0.37346977  1
  Fe  Fe53  1  0.12449212  0.12653096  0.12349720  1
  Fe  Fe54  1  0.24917222  0.50314432  0.75182897  1
  Fe  Fe55  1  0.75185381  0.50303274  0.25147666  1
  Fe  Fe56  1  0.24984380  0.49997535  0.49865144  1
  Fe  Fe57  1  0.62402241  0.87589113  0.62615346  1
  Fe  Fe58  1  0.00041807  0.50167069  0.75240711  1
  Fe  Fe59  1  0.50020043  0.75093515  0.49876571  1
  Fe  Fe60  1  0.12279696  0.63195243  0.87862270  1
  Fe  Fe61  1  0.12502837  0.12273656  0.37777472  1
  Fe  Fe62  1  0.24817106  0.25081961  0.25096077  1
  Fe  Fe63  1  0.37498330  0.62452570  0.37523221  1
  Fe  Fe64  1  0.50118615  0.74916823  0.25033264  1
  Fe  Fe65  1  0.37407091  0.87573336  0.37453226  1
  Fe  Fe66  1  0.12496715  0.12504093  0.62388108  1
  Fe  Fe67  1  0.50226374  0.49643374  -0.00503033  1
  Fe  Fe68  1  0.87584815  0.37676407  0.62554330  1
  Fe  Fe69  1  0.87749053  0.37675776  0.12532482  1
  Fe  Fe70  1  0.87675392  0.12542940  0.87775022  1
  Fe  Fe71  1  0.75239763  0.00089834  0.00185863  1
  Fe  Fe72  1  0.75265574  0.00087157  0.50042680  1
  Fe  Fe73  1  -0.00211983  0.49800189  0.49611809  1
  Fe  Fe74  1  0.75147090  0.75221486  0.00167016  1
  Fe  Fe75  1  0.62541684  0.12831296  0.88003085  1
  Fe  Fe76  1  0.75015425  0.00219449  0.75112426  1
  Fe  Fe77  1  0.75250262  0.25025665  0.50067639  1
  Fe  Fe78  1  -0.00043886  0.25187204  0.49942635  1
  Fe  Fe79  1  0.49706498  0.25243616  0.75378391  1
  Fe  Fe80  1  0.37263622  0.12634109  0.62615887  1
  Fe  Fe81  1  0.49821382  -0.00173649  -0.00211637  1
  Fe  Fe82  1  0.75114703  0.74953100  0.75142329  1
  Fe  Fe83  1  0.37697194  0.62478783  0.62694463  1
  Fe  Fe84  1  0.37439980  0.37561352  0.12418130  1
  Fe  Fe85  1  -0.00018385  0.75275648  0.49909892  1
  Fe  Fe86  1  0.12521004  0.87430466  0.62871455  1
  Fe  Fe87  1  0.62620255  0.62469621  0.37657773  1
  Fe  Fe88  1  0.12384574  0.86691784  0.12960500  1
  Fe  Fe89  1  0.49837324  0.24797121  0.49679863  1
  Co  Co90  1  0.12394645  0.87188965  0.37174140  1
  Co  Co91  1  0.00418515  0.00067838  0.24736336  1
  Co  Co92  1  0.12645454  0.62966497  0.12440693  1
  Co  Co93  1  0.25100194  0.75405138  -0.00036776  1
  Co  Co94  1  0.75182441  0.25098127  0.00484695  1
  Co  Co95  1  0.62883462  0.12547875  0.37659507  1
  Co  Co96  1  -0.00041215  -0.00318599  0.50064182  1
  Co  Co97  1  0.24954536  0.74701060  0.74885418  1
  Co  Co98  1  0.62091782  0.12279888  0.11871447  1
  Co  Co99  1  0.37048207  0.37690310  0.87561501  1
  Co  Co100  1  0.25441274  0.74809663  0.25026628  1
  Co  Co101  1  0.62429093  0.37704815  0.12696789  1
  Co  Co102  1  0.62721262  0.87570447  0.87522187  1
  Co  Co103  1  0.50098313  0.49904269  0.75310564  1
  Co  Co104  1  0.88067512  0.12549453  0.12398644  1
  Co  Co105  1  0.37074550  0.12366099  0.37271333  1
  Co  Co106  1  0.12228219  0.87205343  0.87113001  1
  Co  Co107  1  0.12474478  0.37402083  0.12481323  1
  Co  Co108  1  -0.00347909  0.75293054  0.00422751  1
  Co  Co109  1  0.37762857  0.87394870  0.62720868  1
  Co  Co110  1  0.87319665  0.62149740  0.11949895  1
  Co  Co111  1  0.75059510  0.74605554  0.24948295  1
  Co  Co112  1  0.37423115  0.62476100  0.87700374  1
  Co  Co113  1  0.12578380  0.37715855  0.37465391  1
  Co  Co114  1  0.24775418  0.24960993  0.75090492  1
  Co  Co115  1  0.24949302  0.00041751  0.74978181  1
  Co  Co116  1  -0.00279693  0.74784104  0.74845179  1
  Co  Co117  1  0.62775856  0.37065413  0.87381373  1
  Co  Co118  1  0.49787464  0.25334975  0.00080769  1
  Co  Co119  1  0.87313282  0.37351646  0.37175775  1
  Co  Co120  1  0.62690860  0.62598821  0.87593862  1
  Co  Co121  1  0.87654546  0.12480583  0.62446330  1
  Co  Co122  1  0.00321974  0.49960659  0.00097876  1
  Co  Co123  1  0.24965063  0.25040681  0.49915778  1
  Co  Co124  1  -0.00604554  0.74401579  0.24700076  1
  Co  Co125  1  0.74891173  0.49847968  0.49975853  1
  Co  Co126  1  0.87362605  0.87677974  0.13008494  1
  Co  Co127  1  0.87555340  0.62552771  0.37882000  1
