# generated using pymatgen
data_Fe45Co19
_symmetry_space_group_name_H-M   'P 1'
_cell_length_a   11.42241741
_cell_length_b   11.42260952
_cell_length_c   11.42238648
_cell_angle_alpha   90.00493386
_cell_angle_beta   90.00205194
_cell_angle_gamma   89.99459213
_symmetry_Int_Tables_number   1
_chemical_formula_structural   Fe45Co19
_chemical_formula_sum   'Fe90 Co38'
_cell_volume   1490.32231286
_cell_formula_units_Z   2
loop_
 _symmetry_equiv_pos_site_id
 _symmetry_equiv_pos_as_xyz
  1  'x, y, z'
loop_
 _atom_site_type_symbol
 _atom_site_label
 _atom_site_symmetry_multiplicity
 _atom_site_fract_x
 _atom_site_fract_y
 _atom_site_fract_z
 _atom_site_occupancy
  Fe  Fe0  1  0.37342903  0.62594825  0.87064645  1
  Fe  Fe1  1  0.37313279  0.62490121  0.12405204  1
  Fe  Fe2  1  0.24952829  0.49960673  -0.00523901  1
  Fe  Fe3  1  0.00318801  0.50229355  0.50339594  1
  Fe  Fe4  1  0.37412735  0.87301391  0.87457823  1
  Fe  Fe5  1  0.49817910  0.24962656  0.25012259  1
  Fe  Fe6  1  0.37129526  0.12308484  0.12200811  1
  Fe  Fe7  1  0.00093477  0.50259177  0.75133943  1
  Fe  Fe8  1  0.12750258  0.12786830  0.87662017  1
  Fe  Fe9  1  0.49857499  0.50074131  -0.00477524  1
  Fe  Fe10  1  0.24721051  0.74912227  0.24965685  1
  Fe  Fe11  1  0.74879458  0.50100609  0.74739059  1
  Fe  Fe12  1  0.75457322  0.24889403  0.75035317  1
  Fe  Fe13  1  0.24745478  0.50119154  0.25117609  1
  Fe  Fe14  1  0.87527522  0.87450016  0.87786355  1
  Fe  Fe15  1  0.12393278  0.37769855  0.12451230  1
  Fe  Fe16  1  0.49975166  0.50105093  0.25163398  1
  Fe  Fe17  1  0.75179909  0.50121940  0.24941984  1
  Fe  Fe18  1  0.62432482  0.87267317  0.12298692  1
  Fe  Fe19  1  0.37652155  0.62200772  0.62714008  1
  Fe  Fe20  1  0.37025294  0.12703932  0.87662760  1
  Fe  Fe21  1  0.37447930  0.87514063  0.37607917  1
  Fe  Fe22  1  0.75299763  0.24910768  0.50325864  1
  Fe  Fe23  1  0.12407499  0.62869682  0.63069912  1
  Fe  Fe24  1  0.12261292  0.87404700  0.37657972  1
  Fe  Fe25  1  0.37538485  0.12178139  0.62521771  1
  Fe  Fe26  1  0.87628335  0.37606087  0.12190135  1
  Fe  Fe27  1  0.75172452  0.25106517  0.24899010  1
  Fe  Fe28  1  0.24917878  -0.00031608  0.75091521  1
  Fe  Fe29  1  0.87699231  0.62438083  0.37768597  1
  Fe  Fe30  1  0.62474319  0.62525881  0.37699749  1
  Fe  Fe31  1  0.87598289  0.12767483  0.11906884  1
  Fe  Fe32  1  0.62377236  0.62581456  0.12366371  1
  Fe  Fe33  1  0.12419974  0.37643484  0.37669333  1
  Fe  Fe34  1  0.88045216  0.87570053  0.62299544  1
  Fe  Fe35  1  0.49879154  0.74947522  0.25036599  1
  Fe  Fe36  1  0.87441224  0.37647602  0.87393444  1
  Fe  Fe37  1  0.24745489  -0.00171965  0.50150521  1
  Fe  Fe38  1  0.87638956  0.37674534  0.37716256  1
  Fe  Fe39  1  0.12475513  0.12588010  0.37548357  1
  Fe  Fe40  1  0.49956828  0.00004764  0.25020360  1
  Fe  Fe41  1  -0.00191333  0.24823877  0.50203658  1
  Fe  Fe42  1  0.24696319  0.74998093  -0.00000964  1
  Fe  Fe43  1  0.00315842  -0.00075327  -0.00075442  1
  Fe  Fe44  1  0.12883053  0.37218176  0.87040396  1
  Fe  Fe45  1  -0.00003682  0.00252613  0.24883772  1
  Fe  Fe46  1  0.12356461  0.12379783  0.62596732  1
  Fe  Fe47  1  0.62577116  0.87564379  0.37554800  1
  Fe  Fe48  1  0.37626700  0.87798634  0.62655584  1
  Fe  Fe49  1  0.87798906  0.87446313  0.37554251  1
  Fe  Fe50  1  0.37530996  0.37717248  0.12402119  1
  Fe  Fe51  1  0.74893807  0.50069036  -0.00093583  1
  Fe  Fe52  1  0.62615216  0.12570387  0.12251633  1
  Fe  Fe53  1  0.24883063  0.25074721  0.24865308  1
  Fe  Fe54  1  0.12441486  0.87009639  0.87134168  1
  Fe  Fe55  1  0.62552187  0.12294009  0.62752738  1
  Fe  Fe56  1  0.49940663  0.25099478  -0.00201724  1
  Fe  Fe57  1  0.87776583  0.62429534  0.12111402  1
  Fe  Fe58  1  0.75215357  -0.00020436  0.24761627  1
  Fe  Fe59  1  0.87783751  0.87194413  0.12270763  1
  Fe  Fe60  1  0.49883428  0.25099342  0.50174562  1
  Fe  Fe61  1  0.00009898  0.25045259  0.24896068  1
  Fe  Fe62  1  0.75173103  0.74981912  0.50194691  1
  Fe  Fe63  1  0.75148514  0.74864371  0.24949516  1
  Fe  Fe64  1  0.37522694  0.37871124  0.62895361  1
  Fe  Fe65  1  0.49831714  0.24863828  0.75116874  1
  Fe  Fe66  1  0.62976957  0.12266067  0.87412466  1
  Fe  Fe67  1  0.49959960  0.75021789  0.50226913  1
  Fe  Fe68  1  0.24893760  0.25233985  0.50426536  1
  Fe  Fe69  1  0.62399214  0.87682866  0.62690535  1
  Fe  Fe70  1  0.37325561  0.12429979  0.37657926  1
  Fe  Fe71  1  0.62434894  0.37587003  0.12410521  1
  Fe  Fe72  1  0.62529755  0.37431306  0.87274501  1
  Fe  Fe73  1  0.00319558  0.50126172  -0.00524130  1
  Fe  Fe74  1  -0.00206947  0.24806966  0.75139121  1
  Fe  Fe75  1  0.62634589  0.87333411  0.87450347  1
  Fe  Fe76  1  0.37291268  0.37795087  0.37757703  1
  Fe  Fe77  1  0.62553128  0.37470693  0.37585628  1
  Fe  Fe78  1  0.49998140  -0.00066529  -0.00321074  1
  Fe  Fe79  1  0.24738134  0.75009340  0.50388177  1
  Fe  Fe80  1  0.00257740  0.74597142  0.24920623  1
  Fe  Fe81  1  -0.00057761  0.00054340  0.75211904  1
  Fe  Fe82  1  0.75410018  0.75061501  0.74871390  1
  Fe  Fe83  1  0.37319332  0.87517023  0.12333334  1
  Fe  Fe84  1  0.74823009  0.49948678  0.50392366  1
  Fe  Fe85  1  0.75300384  0.00103514  0.50108994  1
  Fe  Fe86  1  0.24691004  -0.00060002  0.24946909  1
  Fe  Fe87  1  0.62611901  0.12454666  0.37593997  1
  Fe  Fe88  1  0.62612388  0.62856213  0.87291818  1
  Fe  Fe89  1  0.37306879  0.62344874  0.37828248  1
  Co  Co90  1  0.00134273  0.25305606  -0.00334757  1
  Co  Co91  1  0.49823420  0.74904380  -0.00128635  1
  Co  Co92  1  0.24555027  0.50087730  0.50545470  1
  Co  Co93  1  0.24636857  -0.00430808  -0.00302754  1
  Co  Co94  1  0.12120908  0.37359600  0.62793666  1
  Co  Co95  1  0.49987160  0.75112958  0.74858828  1
  Co  Co96  1  0.50322120  0.50028704  0.75147194  1
  Co  Co97  1  -0.00565560  0.74884435  0.75137907  1
  Co  Co98  1  0.24891241  0.25469066  0.00309320  1
  Co  Co99  1  0.12536581  0.62215155  0.12245348  1
  Co  Co100  1  0.87704889  0.37689367  0.62673865  1
  Co  Co101  1  0.00036133  0.00249622  0.49910644  1
  Co  Co102  1  0.25090717  0.24841943  0.74492342  1
  Co  Co103  1  0.24674463  0.50036438  0.74968759  1
  Co  Co104  1  0.50090794  -0.00017110  0.49953047  1
  Co  Co105  1  0.87304002  0.62362528  0.87501550  1
  Co  Co106  1  0.87440203  0.12527620  0.37391831  1
  Co  Co107  1  0.75073802  -0.00240156  0.00157157  1
  Co  Co108  1  0.12099838  0.87560863  0.62743998  1
  Co  Co109  1  0.00265616  0.74750957  0.50158027  1
  Co  Co110  1  -0.00104776  0.50094209  0.25020739  1
  Co  Co111  1  0.00208686  0.74738120  -0.00245477  1
  Co  Co112  1  0.75391980  -0.00359295  0.74936302  1
  Co  Co113  1  0.12531819  0.12532080  0.12207439  1
  Co  Co114  1  0.49813397  0.00068145  0.75445280  1
  Co  Co115  1  0.87649849  0.12284095  0.62784929  1
  Co  Co116  1  0.50271094  0.49894614  0.50221795  1
  Co  Co117  1  0.62525166  0.37108145  0.62765000  1
  Co  Co118  1  0.37276571  0.37374766  0.87109058  1
  Co  Co119  1  0.75087819  0.74899094  -0.00016755  1
  Co  Co120  1  0.12545797  0.62422958  0.37557555  1
  Co  Co121  1  0.25251657  0.75241686  0.74665024  1
  Co  Co122  1  0.75006389  0.25260819  -0.00265009  1
  Co  Co123  1  0.87459008  0.12320219  0.87799802  1
  Co  Co124  1  0.62496357  0.62764683  0.62633668  1
  Co  Co125  1  0.87558150  0.62334835  0.62450358  1
  Co  Co126  1  0.12719983  0.62986995  0.87116571  1
  Co  Co127  1  0.12300469  0.87375232  0.12530768  1
