# generated using pymatgen
data_Fe45Co19
_symmetry_space_group_name_H-M   'P 1'
_cell_length_a   11.41496905
_cell_length_b   11.41510203
_cell_length_c   11.41602754
_cell_angle_alpha   89.99958516
_cell_angle_beta   89.99525883
_cell_angle_gamma   89.99325052
_symmetry_Int_Tables_number   1
_chemical_formula_structural   Fe45Co19
_chemical_formula_sum   'Fe90 Co38'
_cell_volume   1487.54303718
_cell_formula_units_Z   2
loop_
 _symmetry_equiv_pos_site_id
 _symmetry_equiv_pos_as_xyz
  1  'x, y, z'
loop_
 _atom_site_type_symbol
 _atom_site_label
 _atom_site_symmetry_multiplicity
 _atom_site_fract_x
 _atom_site_fract_y
 _atom_site_fract_z
 _atom_site_occupancy
  Fe  Fe0  1  0.74745703  0.50159586  0.74902108  1
  Fe  Fe1  1  0.37315862  0.87534735  0.37210782  1
  Fe  Fe2  1  0.87722384  0.87561297  0.62858601  1
  Fe  Fe3  1  0.37363222  0.62781091  0.62569261  1
  Fe  Fe4  1  0.49953813  0.24837041  0.74764536  1
  Fe  Fe5  1  0.75078833  -0.00227625  0.50038396  1
  Fe  Fe6  1  0.62646202  0.87290783  0.37549834  1
  Fe  Fe7  1  0.87709777  0.62693782  0.62650960  1
  Fe  Fe8  1  0.74958225  0.49830915  -0.00127286  1
  Fe  Fe9  1  0.25074264  0.49924097  0.25007343  1
  Fe  Fe10  1  0.49982157  0.50301707  0.75052200  1
  Fe  Fe11  1  0.24832031  0.74729301  0.24743407  1
  Fe  Fe12  1  0.12476323  0.87559647  0.62928586  1
  Fe  Fe13  1  0.87413083  0.62605755  0.12473665  1
  Fe  Fe14  1  0.12755529  0.87561738  0.12226049  1
  Fe  Fe15  1  0.00162913  0.00031815  0.50112073  1
  Fe  Fe16  1  -0.00126019  0.49776059  0.24964122  1
  Fe  Fe17  1  0.62423342  0.12179173  0.62499175  1
  Fe  Fe18  1  0.49746519  -0.00329491  0.50163645  1
  Fe  Fe19  1  0.87308200  0.12464322  0.62631807  1
  Fe  Fe20  1  0.87849129  0.12521082  0.37233447  1
  Fe  Fe21  1  0.37666294  0.37506103  0.62423095  1
  Fe  Fe22  1  0.62204451  0.63153426  0.62321216  1
  Fe  Fe23  1  0.62361358  0.12279389  0.37503743  1
  Fe  Fe24  1  0.37694288  0.62652263  0.12208803  1
  Fe  Fe25  1  0.12703052  0.37585403  0.87489425  1
  Fe  Fe26  1  0.37530238  0.12447973  0.37780124  1
  Fe  Fe27  1  0.87536711  0.37468319  0.62503125  1
  Fe  Fe28  1  0.00146078  0.50183378  0.75041229  1
  Fe  Fe29  1  0.87465620  0.87536674  0.12596368  1
  Fe  Fe30  1  0.24752487  0.74923111  0.49817128  1
  Fe  Fe31  1  0.62293965  0.12272389  0.87600715  1
  Fe  Fe32  1  0.37435793  0.62538971  0.37446107  1
  Fe  Fe33  1  0.25016042  0.00095849  0.24781866  1
  Fe  Fe34  1  0.37472306  0.12557774  0.87570234  1
  Fe  Fe35  1  0.50126675  0.74990366  0.24966767  1
  Fe  Fe36  1  0.49949867  0.50279352  0.49899631  1
  Fe  Fe37  1  0.12346255  0.12494369  0.37485116  1
  Fe  Fe38  1  0.87353538  0.12572162  0.87515768  1
  Fe  Fe39  1  0.74814978  0.24968307  0.75140785  1
  Fe  Fe40  1  0.62553986  0.37662387  0.37589056  1
  Fe  Fe41  1  0.25270541  0.25037537  0.74969584  1
  Fe  Fe42  1  0.49784967  0.25345126  0.00017383  1
  Fe  Fe43  1  0.87488723  0.87447440  0.37201197  1
  Fe  Fe44  1  0.12482488  0.12829108  0.12384894  1
  Fe  Fe45  1  0.62429290  0.87583084  0.87336083  1
  Fe  Fe46  1  0.12441053  0.37490092  0.37666573  1
  Fe  Fe47  1  0.37153734  0.87228872  0.88012486  1
  Fe  Fe48  1  -0.00369059  0.49589846  -0.00083431  1
  Fe  Fe49  1  0.49638812  -0.00261372  0.74837901  1
  Fe  Fe50  1  0.00062196  0.24890896  0.75047177  1
  Fe  Fe51  1  0.75001731  0.00062260  0.00052740  1
  Fe  Fe52  1  0.87687748  0.87595012  0.87259993  1
  Fe  Fe53  1  0.49920835  0.25182313  0.25285190  1
  Fe  Fe54  1  0.74928384  0.50387815  0.49986847  1
  Fe  Fe55  1  0.87248831  0.36968101  0.12442826  1
  Fe  Fe56  1  0.74748408  0.75108999  0.00021047  1
  Fe  Fe57  1  0.00344777  0.75039969  -0.00408261  1
  Fe  Fe58  1  0.49600557  -0.00279802  0.00255250  1
  Fe  Fe59  1  0.25101170  0.25015130  0.50087108  1
  Fe  Fe60  1  0.62548696  0.37453018  0.12547400  1
  Fe  Fe61  1  0.62552166  0.62270206  0.12470219  1
  Fe  Fe62  1  0.12832993  0.12221083  0.62612597  1
  Fe  Fe63  1  0.62375173  0.37584238  0.87489098  1
  Fe  Fe64  1  0.24938307  0.50202188  0.50039652  1
  Fe  Fe65  1  0.00083054  0.50282623  0.49929205  1
  Fe  Fe66  1  0.12876868  0.12260324  0.87564975  1
  Fe  Fe67  1  0.87318660  0.62738661  0.37215751  1
  Fe  Fe68  1  0.49901906  0.49942711  0.25102958  1
  Fe  Fe69  1  0.62451056  0.12497025  0.12558744  1
  Fe  Fe70  1  0.25102217  0.25200809  0.25093443  1
  Fe  Fe71  1  0.12410563  0.62143155  0.12236099  1
  Fe  Fe72  1  0.00205305  0.74969426  0.24772090  1
  Fe  Fe73  1  0.37225154  0.87209242  0.62554362  1
  Fe  Fe74  1  0.25581149  0.49731358  -0.00146130  1
  Fe  Fe75  1  0.37841591  0.62655690  0.87788018  1
  Fe  Fe76  1  0.87492687  0.12794051  0.12635459  1
  Fe  Fe77  1  0.62409441  0.37454915  0.62364137  1
  Fe  Fe78  1  0.00053758  0.00154933  0.00041673  1
  Fe  Fe79  1  0.12526074  0.37682131  0.62511700  1
  Fe  Fe80  1  0.74834506  0.75113952  0.74881774  1
  Fe  Fe81  1  0.00134977  0.74898653  0.50040334  1
  Fe  Fe82  1  0.74957356  0.24900522  0.49917769  1
  Fe  Fe83  1  0.12497297  0.87560909  0.37305242  1
  Fe  Fe84  1  0.87364501  0.62527143  0.87447234  1
  Fe  Fe85  1  0.12698525  0.37345695  0.12243927  1
  Fe  Fe86  1  0.62449114  0.87809920  0.12756691  1
  Fe  Fe87  1  0.24438649  0.74670261  0.75582667  1
  Fe  Fe88  1  0.87539818  0.37298010  0.37633396  1
  Fe  Fe89  1  0.37565176  0.12642573  0.12598102  1
  Co  Co90  1  0.25240298  0.00163345  0.00346630  1
  Co  Co91  1  0.50136098  0.24975288  0.49982370  1
  Co  Co92  1  0.24602106  0.74786718  -0.00116682  1
  Co  Co93  1  0.25241645  0.50194161  0.75091612  1
  Co  Co94  1  0.00470507  0.74730053  0.75428748  1
  Co  Co95  1  0.74858344  0.24995808  -0.00206080  1
  Co  Co96  1  0.12402080  0.62466484  0.37287380  1
  Co  Co97  1  0.25469691  -0.00041535  0.75049310  1
  Co  Co98  1  0.49684503  0.75137767  0.49751327  1
  Co  Co99  1  0.49854125  -0.00073569  0.25055605  1
  Co  Co100  1  0.62386752  0.87399727  0.62458414  1
  Co  Co101  1  0.00059812  0.25020785  -0.00303401  1
  Co  Co102  1  0.00129152  -0.00081613  0.24739279  1
  Co  Co103  1  0.49951623  0.49823940  -0.00093301  1
  Co  Co104  1  -0.00008319  0.00370532  0.75046150  1
  Co  Co105  1  0.37750596  0.37425394  0.87156688  1
  Co  Co106  1  0.24947678  -0.00168044  0.49978095  1
  Co  Co107  1  0.62504911  0.62583511  0.87566630  1
  Co  Co108  1  0.12394208  0.61797403  0.87982330  1
  Co  Co109  1  0.37361815  0.87173572  0.12549425  1
  Co  Co110  1  0.50432671  0.75191126  0.00205138  1
  Co  Co111  1  0.75240893  0.75035426  0.50217787  1
  Co  Co112  1  0.49884461  0.75172342  0.75223585  1
  Co  Co113  1  0.12562566  0.88109696  0.87530944  1
  Co  Co114  1  0.74879312  -0.00056388  0.75054819  1
  Co  Co115  1  0.74856473  0.24894970  0.25212805  1
  Co  Co116  1  0.62605100  0.62679199  0.37481265  1
  Co  Co117  1  0.00144231  0.25285381  0.24925665  1
  Co  Co118  1  0.87369376  0.37519887  0.87161831  1
  Co  Co119  1  0.12567001  0.62505254  0.62403406  1
  Co  Co120  1  0.75077533  0.00129772  0.25014132  1
  Co  Co121  1  0.75197271  0.49917677  0.24980329  1
  Co  Co122  1  0.00100430  0.24805562  0.50298652  1
  Co  Co123  1  0.37527152  0.12505207  0.62216394  1
  Co  Co124  1  0.37548857  0.37453318  0.12671232  1
  Co  Co125  1  0.37459952  0.37556415  0.37762517  1
  Co  Co126  1  0.25307344  0.25134282  -0.00149611  1
  Co  Co127  1  0.74814356  0.75050523  0.24744395  1
