# generated using pymatgen
data_Fe45Co19
_symmetry_space_group_name_H-M   'P 1'
_cell_length_a   11.41419287
_cell_length_b   11.41408665
_cell_length_c   11.41411772
_cell_angle_alpha   89.99597482
_cell_angle_beta   89.99021929
_cell_angle_gamma   89.99565027
_symmetry_Int_Tables_number   1
_chemical_formula_structural   Fe45Co19
_chemical_formula_sum   'Fe90 Co38'
_cell_volume   1487.06074963
_cell_formula_units_Z   2
loop_
 _symmetry_equiv_pos_site_id
 _symmetry_equiv_pos_as_xyz
  1  'x, y, z'
loop_
 _atom_site_type_symbol
 _atom_site_label
 _atom_site_symmetry_multiplicity
 _atom_site_fract_x
 _atom_site_fract_y
 _atom_site_fract_z
 _atom_site_occupancy
  Fe  Fe0  1  0.62718133  0.37342708  0.37338562  1
  Fe  Fe1  1  0.50142908  0.25100748  0.50091617  1
  Fe  Fe2  1  0.87698472  0.62438861  0.12362321  1
  Fe  Fe3  1  0.75054599  0.50239118  0.74817860  1
  Fe  Fe4  1  -0.00111560  0.24978590  0.25147379  1
  Fe  Fe5  1  0.74992906  0.24840634  -0.00002045  1
  Fe  Fe6  1  0.74911319  0.75185718  0.00115853  1
  Fe  Fe7  1  0.24943303  0.25120180  0.75253620  1
  Fe  Fe8  1  0.12473284  0.62322552  0.62545593  1
  Fe  Fe9  1  0.87323964  0.87614742  0.12549729  1
  Fe  Fe10  1  0.00266001  0.25320140  0.75397786  1
  Fe  Fe11  1  0.49969820  -0.00162890  0.49792074  1
  Fe  Fe12  1  0.24876798  0.75132731  0.25052253  1
  Fe  Fe13  1  0.75199315  0.49996432  0.24958473  1
  Fe  Fe14  1  0.87272634  0.37258056  0.37707680  1
  Fe  Fe15  1  0.62493273  0.62732773  0.87341264  1
  Fe  Fe16  1  0.62389650  0.12352568  0.62541398  1
  Fe  Fe17  1  -0.00064357  0.75160488  0.25006586  1
  Fe  Fe18  1  0.37486748  0.12548959  0.62378291  1
  Fe  Fe19  1  0.74908021  0.00042120  0.25052083  1
  Fe  Fe20  1  0.49797796  0.75156791  0.75019679  1
  Fe  Fe21  1  0.75271021  0.00041886  0.74665468  1
  Fe  Fe22  1  0.87183758  0.87460575  0.37674614  1
  Fe  Fe23  1  0.49967242  0.75255627  -0.00014031  1
  Fe  Fe24  1  0.37457197  0.12653544  0.87518295  1
  Fe  Fe25  1  0.74766788  0.00064533  -0.00099515  1
  Fe  Fe26  1  0.00261556  0.75079819  0.49916707  1
  Fe  Fe27  1  0.37090194  0.87386339  0.62233306  1
  Fe  Fe28  1  0.87649138  0.12447219  0.87251272  1
  Fe  Fe29  1  0.87275666  0.87429547  0.87314228  1
  Fe  Fe30  1  0.74912857  0.49899485  -0.00098628  1
  Fe  Fe31  1  0.62325767  0.37409209  0.87400156  1
  Fe  Fe32  1  0.37479357  0.37492521  0.62617700  1
  Fe  Fe33  1  -0.00248270  0.00098684  0.50273157  1
  Fe  Fe34  1  0.00036044  -0.00197252  -0.00277101  1
  Fe  Fe35  1  0.37567513  0.87632111  0.12531888  1
  Fe  Fe36  1  0.12495474  0.87616993  0.12552161  1
  Fe  Fe37  1  0.25154908  0.50076751  0.75144767  1
  Fe  Fe38  1  0.25117787  0.50098538  0.24784748  1
  Fe  Fe39  1  0.12094166  0.62459244  0.12308694  1
  Fe  Fe40  1  0.37445845  0.62620889  0.62333139  1
  Fe  Fe41  1  0.87603165  0.37283142  0.62340007  1
  Fe  Fe42  1  0.24881545  0.49940496  0.49977010  1
  Fe  Fe43  1  0.12782798  0.87271681  0.87510181  1
  Fe  Fe44  1  0.62664940  0.62495586  0.37463596  1
  Fe  Fe45  1  0.50010170  0.49947630  0.25012584  1
  Fe  Fe46  1  0.00302955  0.49457097  0.49743669  1
  Fe  Fe47  1  0.37450208  0.62648912  0.37412864  1
  Fe  Fe48  1  0.12156128  0.12482643  0.62750077  1
  Fe  Fe49  1  0.87637605  0.12458257  0.12362685  1
  Fe  Fe50  1  0.37374511  0.37301198  0.37542449  1
  Fe  Fe51  1  0.74815237  0.24904028  0.74790293  1
  Fe  Fe52  1  0.25275056  0.00103915  0.25323817  1
  Fe  Fe53  1  0.62302708  0.12473921  0.12695037  1
  Fe  Fe54  1  0.12429102  0.62305437  0.37301553  1
  Fe  Fe55  1  0.25003535  0.00059166  -0.00130195  1
  Fe  Fe56  1  0.00140663  0.25193952  -0.00376735  1
  Fe  Fe57  1  0.50149652  0.75255467  0.25087847  1
  Fe  Fe58  1  0.37747733  0.37603933  0.12264772  1
  Fe  Fe59  1  0.12415856  0.62623451  0.87811310  1
  Fe  Fe60  1  0.87561198  0.62550517  0.87670010  1
  Fe  Fe61  1  0.74836718  0.74789626  0.50244294  1
  Fe  Fe62  1  0.62396203  0.37372671  0.12539870  1
  Fe  Fe63  1  0.24951151  0.00004762  0.75027790  1
  Fe  Fe64  1  0.12554384  0.12475656  0.37494737  1
  Fe  Fe65  1  0.24634927  0.25037379  0.50172914  1
  Fe  Fe66  1  0.87640246  0.37522254  0.12425431  1
  Fe  Fe67  1  0.37455107  0.62746917  0.87704465  1
  Fe  Fe68  1  0.87415192  0.62461406  0.37587060  1
  Fe  Fe69  1  0.25252767  0.50111894  0.00073574  1
  Fe  Fe70  1  0.00033694  0.75168595  0.75022853  1
  Fe  Fe71  1  0.25435733  0.24641893  0.24692447  1
  Fe  Fe72  1  0.87224007  0.12786827  0.37878151  1
  Fe  Fe73  1  -0.00043691  0.49766864  0.75334586  1
  Fe  Fe74  1  0.49823694  0.50069283  0.75140958  1
  Fe  Fe75  1  0.50057140  0.50041572  0.49924936  1
  Fe  Fe76  1  0.62426836  0.62538274  0.12528191  1
  Fe  Fe77  1  0.49949604  0.24837015  -0.00091735  1
  Fe  Fe78  1  0.50234689  -0.00165301  -0.00418418  1
  Fe  Fe79  1  0.62568979  0.12705489  0.37475214  1
  Fe  Fe80  1  0.49867000  -0.00079839  0.75194079  1
  Fe  Fe81  1  0.62687169  0.87383092  0.62640622  1
  Fe  Fe82  1  0.50054103  0.75055644  0.49954278  1
  Fe  Fe83  1  0.87705126  0.62416560  0.62326079  1
  Fe  Fe84  1  0.12368339  0.37520855  0.12533754  1
  Fe  Fe85  1  0.12711023  0.87460313  0.62298087  1
  Fe  Fe86  1  0.12438418  0.12454055  0.12315940  1
  Fe  Fe87  1  0.49876073  -0.00045855  0.25433650  1
  Fe  Fe88  1  0.62377868  0.37789906  0.62615161  1
  Fe  Fe89  1  -0.00154910  0.00011435  0.25167159  1
  Co  Co90  1  0.62906509  0.87461218  0.37614986  1
  Co  Co91  1  0.00010638  -0.00464627  0.74953247  1
  Co  Co92  1  0.62438276  0.87680442  0.12582020  1
  Co  Co93  1  0.49978491  0.24874165  0.74862979  1
  Co  Co94  1  -0.00231305  0.49898983  0.25168993  1
  Co  Co95  1  0.62786590  0.87390513  0.87135719  1
  Co  Co96  1  0.37551933  0.12762746  0.37923815  1
  Co  Co97  1  0.25136428  0.74981177  0.00315437  1
  Co  Co98  1  0.00442420  0.25171753  0.49815793  1
  Co  Co99  1  0.12909105  0.37819501  0.87719226  1
  Co  Co100  1  0.75163392  0.24932448  0.24754516  1
  Co  Co101  1  0.37236239  0.87306363  0.37762517  1
  Co  Co102  1  0.37687131  0.37336063  0.87553515  1
  Co  Co103  1  0.12893543  0.37382309  0.36976090  1
  Co  Co104  1  0.25075169  0.24972825  0.00122325  1
  Co  Co105  1  0.37771365  0.62650975  0.12672153  1
  Co  Co106  1  0.75074425  0.74927140  0.24839135  1
  Co  Co107  1  0.12397283  0.87806025  0.37643454  1
  Co  Co108  1  0.62241201  0.62519879  0.62604582  1
  Co  Co109  1  0.62573331  0.12520982  0.87299097  1
  Co  Co110  1  0.74901933  0.50019582  0.50151003  1
  Co  Co111  1  0.50054893  0.50167947  -0.00090356  1
  Co  Co112  1  -0.00140368  0.49685458  -0.00237635  1
  Co  Co113  1  0.24958423  0.00240187  0.49953270  1
  Co  Co114  1  0.24945195  0.74836990  0.74899308  1
  Co  Co115  1  0.37794416  0.12072957  0.12197874  1
  Co  Co116  1  0.49701054  0.24952609  0.24939053  1
  Co  Co117  1  0.12532369  0.37678136  0.62835850  1
  Co  Co118  1  0.12449749  0.12389265  0.87505123  1
  Co  Co119  1  0.75093163  0.00192936  0.50326892  1
  Co  Co120  1  0.37233632  0.87469245  0.87473076  1
  Co  Co121  1  0.87925897  0.13026629  0.62670905  1
  Co  Co122  1  -0.00121553  0.75388964  0.00039152  1
  Co  Co123  1  0.74649189  0.24937223  0.50355171  1
  Co  Co124  1  0.24732776  0.74705833  0.49860124  1
  Co  Co125  1  0.75237930  0.74662481  0.74793488  1
  Co  Co126  1  0.87400719  0.87205448  0.62354782  1
  Co  Co127  1  0.87079030  0.37449273  0.87365277  1
