# generated using pymatgen
data_Fe45Co19
_symmetry_space_group_name_H-M   'P 1'
_cell_length_a   11.41392803
_cell_length_b   11.41393920
_cell_length_c   11.41441329
_cell_angle_alpha   89.99746148
_cell_angle_beta   89.99753350
_cell_angle_gamma   90.00094032
_symmetry_Int_Tables_number   1
_chemical_formula_structural   Fe45Co19
_chemical_formula_sum   'Fe90 Co38'
_cell_volume   1487.04556824
_cell_formula_units_Z   2
loop_
 _symmetry_equiv_pos_site_id
 _symmetry_equiv_pos_as_xyz
  1  'x, y, z'
loop_
 _atom_site_type_symbol
 _atom_site_label
 _atom_site_symmetry_multiplicity
 _atom_site_fract_x
 _atom_site_fract_y
 _atom_site_fract_z
 _atom_site_occupancy
  Fe  Fe0  1  0.49956203  0.74922553  0.50057055  1
  Fe  Fe1  1  0.87474821  0.37602966  0.12399896  1
  Fe  Fe2  1  0.75039321  0.49933095  0.25050042  1
  Fe  Fe3  1  -0.00103878  0.75059243  0.00018576  1
  Fe  Fe4  1  0.62215991  0.36969040  0.37179644  1
  Fe  Fe5  1  0.24897545  0.49553646  0.24794884  1
  Fe  Fe6  1  0.00234614  0.49832287  0.25039913  1
  Fe  Fe7  1  0.62131419  0.12722067  0.62315487  1
  Fe  Fe8  1  0.00030205  -0.00080988  0.74998234  1
  Fe  Fe9  1  0.25138021  0.24752095  0.74902640  1
  Fe  Fe10  1  0.00256950  0.75190725  0.74989167  1
  Fe  Fe11  1  0.12700161  0.87766217  0.62399988  1
  Fe  Fe12  1  0.74576922  0.00381080  0.25068833  1
  Fe  Fe13  1  0.87337118  0.87520202  0.87265861  1
  Fe  Fe14  1  0.74975387  -0.00061587  -0.00067555  1
  Fe  Fe15  1  0.62421616  0.87602794  0.37394159  1
  Fe  Fe16  1  -0.00115922  0.25055443  0.74952253  1
  Fe  Fe17  1  0.50046890  0.49383542  0.50350478  1
  Fe  Fe18  1  0.37578250  0.62156589  0.37398035  1
  Fe  Fe19  1  0.12823381  0.62760752  0.87771813  1
  Fe  Fe20  1  0.87571559  0.62396052  0.37474602  1
  Fe  Fe21  1  0.37548202  0.87776982  0.62601245  1
  Fe  Fe22  1  0.74960981  0.75017608  0.50036558  1
  Fe  Fe23  1  0.75025519  0.25106247  0.49995331  1
  Fe  Fe24  1  0.50180551  0.00064617  0.75360199  1
  Fe  Fe25  1  0.74840002  0.74818159  0.24926695  1
  Fe  Fe26  1  0.74976216  0.00019430  0.50100315  1
  Fe  Fe27  1  0.25114986  0.00573896  0.25092595  1
  Fe  Fe28  1  0.37804318  0.37413462  0.87278618  1
  Fe  Fe29  1  0.12322627  0.12631067  0.87518582  1
  Fe  Fe30  1  0.25097835  0.00065401  -0.00198253  1
  Fe  Fe31  1  0.25104245  0.00603556  0.50082014  1
  Fe  Fe32  1  0.37532071  0.62120900  0.62572985  1
  Fe  Fe33  1  0.37181372  0.87221274  0.87355787  1
  Fe  Fe34  1  0.12787328  0.12947646  0.12231152  1
  Fe  Fe35  1  0.87293524  0.12617631  0.12471098  1
  Fe  Fe36  1  0.12714643  0.87644194  0.37551001  1
  Fe  Fe37  1  0.75234272  0.74757655  0.00192209  1
  Fe  Fe38  1  0.62364772  0.62283518  0.87820577  1
  Fe  Fe39  1  0.25053425  0.74897032  0.24837435  1
  Fe  Fe40  1  0.00190594  0.74899801  0.24939523  1
  Fe  Fe41  1  -0.00376605  0.49984455  -0.00326314  1
  Fe  Fe42  1  0.49818474  0.49721797  0.24595253  1
  Fe  Fe43  1  0.12370274  0.12939406  0.37915250  1
  Fe  Fe44  1  0.87564127  0.62299975  0.62557438  1
  Fe  Fe45  1  0.62292693  0.37792761  0.87586531  1
  Fe  Fe46  1  0.87572583  0.37454466  0.37454915  1
  Fe  Fe47  1  0.24973995  0.00243285  0.75031168  1
  Fe  Fe48  1  0.37821155  0.12768749  0.87743132  1
  Fe  Fe49  1  0.00028330  0.25075908  0.24845023  1
  Fe  Fe50  1  0.24883832  0.49935075  0.75224520  1
  Fe  Fe51  1  0.12628502  0.37178756  0.62334348  1
  Fe  Fe52  1  0.37612772  0.87967291  0.12740518  1
  Fe  Fe53  1  0.00193436  0.00291442  0.24980584  1
  Fe  Fe54  1  -0.00014198  0.00072319  -0.00077954  1
  Fe  Fe55  1  0.87497076  0.87682446  0.37304039  1
  Fe  Fe56  1  0.12594505  0.37094943  0.37833474  1
  Fe  Fe57  1  0.74745851  0.49843849  0.49989356  1
  Fe  Fe58  1  0.62231812  0.62283140  0.37515491  1
  Fe  Fe59  1  0.49732257  0.74970263  0.00214679  1
  Fe  Fe60  1  0.37262622  0.62538143  0.87651347  1
  Fe  Fe61  1  0.12695450  0.62206773  0.12171248  1
  Fe  Fe62  1  0.62252580  0.87833451  0.12512687  1
  Fe  Fe63  1  0.25217962  0.74885334  0.50119298  1
  Fe  Fe64  1  -0.00082011  0.75132655  0.49973446  1
  Fe  Fe65  1  0.87506996  0.12525257  0.37485996  1
  Fe  Fe66  1  0.49914798  0.74705189  0.74898116  1
  Fe  Fe67  1  0.12401641  0.37192741  0.87819095  1
  Fe  Fe68  1  0.87387016  0.37639079  0.62630011  1
  Fe  Fe69  1  0.62543850  0.62067384  0.12276023  1
  Fe  Fe70  1  0.62414588  0.87593271  0.62607026  1
  Fe  Fe71  1  0.37857806  0.13301518  0.37316301  1
  Fe  Fe72  1  0.37277051  0.36923343  0.12446077  1
  Fe  Fe73  1  0.87619592  0.12382947  0.62511889  1
  Fe  Fe74  1  0.00060151  0.49829448  0.75185126  1
  Fe  Fe75  1  0.25262715  0.49501237  0.49936786  1
  Fe  Fe76  1  0.87428141  0.12634980  0.87569342  1
  Fe  Fe77  1  0.12714521  0.62339849  0.37612090  1
  Fe  Fe78  1  0.62347908  0.12511326  0.87819437  1
  Fe  Fe79  1  0.74738312  0.25237212  0.00230238  1
  Fe  Fe80  1  0.12633458  0.87748282  0.12444596  1
  Fe  Fe81  1  0.74864641  0.74848258  0.74837647  1
  Fe  Fe82  1  0.49959158  0.00176703  0.49687683  1
  Fe  Fe83  1  0.74896763  0.50094991  0.75240239  1
  Fe  Fe84  1  0.12531403  0.62314391  0.62396335  1
  Fe  Fe85  1  0.62645526  0.87386517  0.87511630  1
  Fe  Fe86  1  0.37432653  0.87571280  0.37375389  1
  Fe  Fe87  1  0.87499410  0.87574626  0.12703165  1
  Fe  Fe88  1  0.49950292  0.74926976  0.24932051  1
  Fe  Fe89  1  0.74784122  0.24859080  0.75103978  1
  Co  Co90  1  0.25568999  0.24987839  0.50369345  1
  Co  Co91  1  0.37264068  0.62434061  0.12587710  1
  Co  Co92  1  0.62247359  0.12023772  0.12121287  1
  Co  Co93  1  0.87344480  0.87557142  0.62741746  1
  Co  Co94  1  0.25098366  0.25035197  -0.00365414  1
  Co  Co95  1  -0.00014296  -0.00115888  0.49982968  1
  Co  Co96  1  -0.00338097  0.25115759  0.50133270  1
  Co  Co97  1  0.62627343  0.37315577  0.62882970  1
  Co  Co98  1  0.87567708  0.62301388  0.12706070  1
  Co  Co99  1  0.49510252  0.49848953  0.00195165  1
  Co  Co100  1  0.62338448  0.13048793  0.37852922  1
  Co  Co101  1  0.24999515  0.74874813  0.74620385  1
  Co  Co102  1  0.25161491  0.75261784  0.00408338  1
  Co  Co103  1  0.37466728  0.37576335  0.63183431  1
  Co  Co104  1  0.12314139  0.37388314  0.11989776  1
  Co  Co105  1  0.74847354  0.24901354  0.24743922  1
  Co  Co106  1  -0.00231153  0.24876849  0.00075744  1
  Co  Co107  1  0.49866737  -0.00273621  -0.00361021  1
  Co  Co108  1  0.87550820  0.62739822  0.87169715  1
  Co  Co109  1  0.37494707  0.12568168  0.12164709  1
  Co  Co110  1  0.12711451  0.87402615  0.87572045  1
  Co  Co111  1  0.62559288  0.62425184  0.62360345  1
  Co  Co112  1  0.50150626  0.24907638  0.75091081  1
  Co  Co113  1  0.62844773  0.38061377  0.12329912  1
  Co  Co114  1  0.37729077  0.37209130  0.37081995  1
  Co  Co115  1  0.12324671  0.12714457  0.62451982  1
  Co  Co116  1  0.50452089  0.24780510  0.24249104  1
  Co  Co117  1  0.74745915  0.00330469  0.75012788  1
  Co  Co118  1  0.49631249  0.25553982  0.50403197  1
  Co  Co119  1  0.50314248  0.25314465  0.00251817  1
  Co  Co120  1  0.75458881  0.50040608  -0.00323521  1
  Co  Co121  1  0.87402357  0.37134968  0.87446220  1
  Co  Co122  1  0.50062949  0.00474298  0.25285227  1
  Co  Co123  1  0.50138783  0.50267206  0.74975538  1
  Co  Co124  1  0.00066714  0.49859758  0.49983480  1
  Co  Co125  1  0.25313329  0.49597143  -0.00096464  1
  Co  Co126  1  0.37945272  0.12386196  0.62761156  1
  Co  Co127  1  0.24759316  0.25093130  0.24975642  1
