# generated using pymatgen
data_Fe45Co19
_symmetry_space_group_name_H-M   'P 1'
_cell_length_a   11.41475564
_cell_length_b   11.41465210
_cell_length_c   11.41615146
_cell_angle_alpha   90.00540709
_cell_angle_beta   89.99289066
_cell_angle_gamma   90.00259037
_symmetry_Int_Tables_number   1
_chemical_formula_structural   Fe45Co19
_chemical_formula_sum   'Fe90 Co38'
_cell_volume   1487.47273558
_cell_formula_units_Z   2
loop_
 _symmetry_equiv_pos_site_id
 _symmetry_equiv_pos_as_xyz
  1  'x, y, z'
loop_
 _atom_site_type_symbol
 _atom_site_label
 _atom_site_symmetry_multiplicity
 _atom_site_fract_x
 _atom_site_fract_y
 _atom_site_fract_z
 _atom_site_occupancy
  Fe  Fe0  1  0.37673370  0.62762181  0.12485199  1
  Fe  Fe1  1  0.87740328  0.12601895  0.87561616  1
  Fe  Fe2  1  0.37542659  0.87675349  0.87322057  1
  Fe  Fe3  1  0.74897924  0.49836088  0.00250282  1
  Fe  Fe4  1  0.75065630  0.00023335  0.75057495  1
  Fe  Fe5  1  0.62274574  0.62420767  0.87678263  1
  Fe  Fe6  1  0.00331147  0.75179342  0.25259885  1
  Fe  Fe7  1  0.12408934  0.12481896  0.12161483  1
  Fe  Fe8  1  0.25124540  0.00077540  0.50355208  1
  Fe  Fe9  1  0.50007790  0.00271453  0.74747618  1
  Fe  Fe10  1  0.37414727  0.62442715  0.37565588  1
  Fe  Fe11  1  0.37326382  0.13137522  0.62722931  1
  Fe  Fe12  1  0.37520193  0.12365511  0.37359974  1
  Fe  Fe13  1  0.49594295  0.49562904  0.50039031  1
  Fe  Fe14  1  0.00130556  0.24854084  0.25243406  1
  Fe  Fe15  1  0.74842390  0.49869318  0.74723580  1
  Fe  Fe16  1  0.49940442  0.75249925  0.49865923  1
  Fe  Fe17  1  0.12507121  0.62717136  0.12297425  1
  Fe  Fe18  1  0.12765106  0.87413350  0.62473155  1
  Fe  Fe19  1  0.24957499  0.00228352  0.74918946  1
  Fe  Fe20  1  0.49638402  0.25222345  0.49904762  1
  Fe  Fe21  1  0.74716746  0.74910604  0.25310383  1
  Fe  Fe22  1  0.25027937  0.24951805  -0.00052950  1
  Fe  Fe23  1  0.62408734  0.12520312  0.87516931  1
  Fe  Fe24  1  0.50021587  0.74970909  0.75048493  1
  Fe  Fe25  1  0.37376045  0.87535102  0.12579659  1
  Fe  Fe26  1  0.74964279  -0.00151364  -0.00198305  1
  Fe  Fe27  1  0.00215701  0.50070339  0.24931026  1
  Fe  Fe28  1  0.24900154  0.49771346  0.74805748  1
  Fe  Fe29  1  0.87720000  0.87881583  0.37420102  1
  Fe  Fe30  1  0.87583330  0.87412324  0.12622952  1
  Fe  Fe31  1  0.49864446  -0.00040856  0.00123891  1
  Fe  Fe32  1  0.37538326  0.62534207  0.62406202  1
  Fe  Fe33  1  0.87786933  0.12832598  0.62500344  1
  Fe  Fe34  1  0.49991508  0.50095933  0.24916922  1
  Fe  Fe35  1  0.87463151  0.62248181  0.37540126  1
  Fe  Fe36  1  0.24783927  0.74925353  0.25282264  1
  Fe  Fe37  1  0.00140327  0.75229264  -0.00275069  1
  Fe  Fe38  1  0.37508511  0.12661171  0.87467289  1
  Fe  Fe39  1  0.37338002  0.87687101  0.37513287  1
  Fe  Fe40  1  0.74993177  0.00273112  0.25138772  1
  Fe  Fe41  1  0.36590783  0.37511633  0.37219446  1
  Fe  Fe42  1  0.25180547  0.50029246  0.00172197  1
  Fe  Fe43  1  0.62358489  0.87470875  0.12614276  1
  Fe  Fe44  1  0.75222849  0.00095735  0.50092185  1
  Fe  Fe45  1  0.49966272  0.24959604  0.25136535  1
  Fe  Fe46  1  0.87426844  0.62474762  0.87478528  1
  Fe  Fe47  1  0.24946429  0.00283562  0.24635151  1
  Fe  Fe48  1  0.00059394  0.25380391  0.49728939  1
  Fe  Fe49  1  0.74895650  0.25107996  0.00103143  1
  Fe  Fe50  1  0.62252249  0.12586797  0.12697057  1
  Fe  Fe51  1  0.12689867  0.37379284  0.12651966  1
  Fe  Fe52  1  0.12768936  0.62167497  0.37767444  1
  Fe  Fe53  1  0.74871657  0.74931935  0.49742281  1
  Fe  Fe54  1  0.50113535  0.25147298  -0.00049244  1
  Fe  Fe55  1  0.74708285  0.50283073  0.24855515  1
  Fe  Fe56  1  0.62523599  0.62379056  0.62120005  1
  Fe  Fe57  1  -0.00115719  0.49554093  0.49936577  1
  Fe  Fe58  1  0.87282766  0.87175037  0.62698840  1
  Fe  Fe59  1  0.37296246  0.37192745  0.12844143  1
  Fe  Fe60  1  0.62495707  0.12865127  0.62285415  1
  Fe  Fe61  1  0.25196936  0.74875417  0.74959738  1
  Fe  Fe62  1  0.49963110  0.49894427  0.00193803  1
  Fe  Fe63  1  0.87493681  0.62801298  0.12494504  1
  Fe  Fe64  1  0.74763006  0.25142840  0.75044007  1
  Fe  Fe65  1  0.00025978  -0.00141904  0.74852193  1
  Fe  Fe66  1  0.62432909  0.12393781  0.37632436  1
  Fe  Fe67  1  0.74782070  0.75236067  -0.00328684  1
  Fe  Fe68  1  0.87605756  0.12564340  0.12467342  1
  Fe  Fe69  1  0.12452811  0.12370431  0.87728968  1
  Fe  Fe70  1  0.75444721  0.25274204  0.49745445  1
  Fe  Fe71  1  0.25177747  0.75067284  -0.00297072  1
  Fe  Fe72  1  0.87557237  0.37443893  0.87472575  1
  Fe  Fe73  1  0.62735710  0.37639974  0.37477984  1
  Fe  Fe74  1  0.12507614  0.62451608  0.62305826  1
  Fe  Fe75  1  0.00232329  0.75247246  0.49778961  1
  Fe  Fe76  1  0.87392908  0.37279094  0.12879549  1
  Fe  Fe77  1  0.50273734  0.75060725  0.25273541  1
  Fe  Fe78  1  0.00083781  -0.00426614  -0.00018916  1
  Fe  Fe79  1  0.12099486  0.11967190  0.37860590  1
  Fe  Fe80  1  0.00001511  0.74990157  0.75196316  1
  Fe  Fe81  1  0.87483855  0.62525681  0.62457909  1
  Fe  Fe82  1  0.00237836  0.49755157  0.74992679  1
  Fe  Fe83  1  0.50064703  0.49590844  0.74743515  1
  Fe  Fe84  1  0.37463272  0.37375676  0.87194058  1
  Fe  Fe85  1  0.49884234  -0.00014435  0.50179007  1
  Fe  Fe86  1  -0.00080442  0.49884202  0.00140187  1
  Fe  Fe87  1  0.12662192  0.62348637  0.87564554  1
  Fe  Fe88  1  0.00571929  0.25274813  0.75097432  1
  Fe  Fe89  1  0.62535651  0.87497467  0.62563163  1
  Co  Co90  1  0.37462708  0.87488081  0.62573162  1
  Co  Co91  1  0.62485133  0.37601527  0.87533691  1
  Co  Co92  1  0.12833416  0.37386946  0.62082392  1
  Co  Co93  1  0.12574775  0.37690124  0.87911540  1
  Co  Co94  1  0.12716244  0.87346704  0.12485601  1
  Co  Co95  1  0.87690098  0.37342535  0.62841282  1
  Co  Co96  1  0.62468745  0.87912556  0.37614035  1
  Co  Co97  1  -0.00230570  -0.00383658  0.50623470  1
  Co  Co98  1  0.74972772  0.24560712  0.25151351  1
  Co  Co99  1  0.12684422  0.88077939  0.37592365  1
  Co  Co100  1  0.25014233  0.74976853  0.49936190  1
  Co  Co101  1  0.87373948  0.37685948  0.36954342  1
  Co  Co102  1  -0.00023140  0.25188580  0.00082482  1
  Co  Co103  1  0.75339281  0.49742347  0.50202456  1
  Co  Co104  1  0.62147228  0.87696836  0.87251970  1
  Co  Co105  1  0.25072382  0.00066593  0.00087837  1
  Co  Co106  1  0.87880543  0.12202755  0.37648046  1
  Co  Co107  1  0.62390080  0.62117782  0.37831022  1
  Co  Co108  1  0.37727140  0.12716080  0.12432890  1
  Co  Co109  1  0.12356042  0.12571047  0.62322891  1
  Co  Co110  1  0.24671920  0.24334122  0.25087455  1
  Co  Co111  1  0.37126413  0.36908633  0.62731182  1
  Co  Co112  1  0.87576176  0.87509763  0.87324790  1
  Co  Co113  1  0.25288548  0.50114987  0.50328560  1
  Co  Co114  1  0.74772590  0.74801591  0.75202220  1
  Co  Co115  1  0.49813474  0.75160284  -0.00184153  1
  Co  Co116  1  0.62357462  0.62749159  0.12324511  1
  Co  Co117  1  0.50281659  0.25046417  0.75007464  1
  Co  Co118  1  0.24860632  0.24690177  0.49684964  1
  Co  Co119  1  0.37597818  0.62210888  0.87345061  1
  Co  Co120  1  0.12745521  0.87524167  0.87288956  1
  Co  Co121  1  0.24972504  0.50447918  0.24619368  1
  Co  Co122  1  0.62439245  0.37370253  0.12753593  1
  Co  Co123  1  0.62456698  0.37249109  0.62152406  1
  Co  Co124  1  0.13007058  0.37793777  0.37389854  1
  Co  Co125  1  0.00117276  0.00040288  0.24572033  1
  Co  Co126  1  0.24445227  0.25017566  0.75259301  1
  Co  Co127  1  0.49906814  -0.00014660  0.24979515  1
