# generated using pymatgen
data_Fe45Co19
_symmetry_space_group_name_H-M   'P 1'
_cell_length_a   11.41429334
_cell_length_b   11.41470942
_cell_length_c   11.41513982
_cell_angle_alpha   90.00752395
_cell_angle_beta   90.01524093
_cell_angle_gamma   89.99395194
_symmetry_Int_Tables_number   1
_chemical_formula_structural   Fe45Co19
_chemical_formula_sum   'Fe90 Co38'
_cell_volume   1487.28810164
_cell_formula_units_Z   2
loop_
 _symmetry_equiv_pos_site_id
 _symmetry_equiv_pos_as_xyz
  1  'x, y, z'
loop_
 _atom_site_type_symbol
 _atom_site_label
 _atom_site_symmetry_multiplicity
 _atom_site_fract_x
 _atom_site_fract_y
 _atom_site_fract_z
 _atom_site_occupancy
  Fe  Fe0  1  0.49480184  0.25040897  0.24802198  1
  Fe  Fe1  1  0.00121165  0.25112542  0.00055509  1
  Fe  Fe2  1  0.62311556  0.62534737  0.62626953  1
  Fe  Fe3  1  0.87330391  0.87370262  0.37505070  1
  Fe  Fe4  1  0.24682345  0.74799652  0.50495208  1
  Fe  Fe5  1  0.49870787  0.50053173  0.49969234  1
  Fe  Fe6  1  0.62070009  0.12077395  0.87212053  1
  Fe  Fe7  1  0.12585004  0.12633526  0.87530916  1
  Fe  Fe8  1  0.49866926  0.50176219  -0.00259392  1
  Fe  Fe9  1  0.37553812  0.12090465  0.62883998  1
  Fe  Fe10  1  0.37356291  0.87389684  0.37736306  1
  Fe  Fe11  1  0.87559250  0.12281527  0.62485013  1
  Fe  Fe12  1  0.87445088  0.37422153  0.37499112  1
  Fe  Fe13  1  0.37794069  0.87280016  0.12068023  1
  Fe  Fe14  1  -0.00024947  0.75022386  -0.00052222  1
  Fe  Fe15  1  0.74936308  0.24889303  0.24807075  1
  Fe  Fe16  1  0.12335088  0.62676271  0.87209617  1
  Fe  Fe17  1  0.50008169  -0.00148909  0.50116962  1
  Fe  Fe18  1  0.37833519  0.62825912  0.12204285  1
  Fe  Fe19  1  0.62519030  0.37462175  0.37372418  1
  Fe  Fe20  1  0.87412069  0.87705944  0.62271008  1
  Fe  Fe21  1  0.87621320  0.87869457  0.12274719  1
  Fe  Fe22  1  0.75052742  0.75299448  0.74932456  1
  Fe  Fe23  1  0.00276095  0.25001612  0.25012960  1
  Fe  Fe24  1  0.74716609  0.74989902  0.24508550  1
  Fe  Fe25  1  0.12359406  0.62448379  0.12555545  1
  Fe  Fe26  1  0.87038205  0.87461875  0.87952683  1
  Fe  Fe27  1  0.50296023  0.75596521  0.75078668  1
  Fe  Fe28  1  0.75156135  0.50138463  0.49974414  1
  Fe  Fe29  1  0.87629236  0.12550878  0.87561918  1
  Fe  Fe30  1  0.24935004  0.25029454  0.74814282  1
  Fe  Fe31  1  0.00392686  0.25182894  0.50061898  1
  Fe  Fe32  1  0.24975373  0.24832360  0.50082134  1
  Fe  Fe33  1  0.00055857  -0.00224926  0.75300421  1
  Fe  Fe34  1  0.87931760  0.12246013  0.12441950  1
  Fe  Fe35  1  0.12531910  0.12078766  0.62643263  1
  Fe  Fe36  1  0.37244924  0.62750520  0.37614044  1
  Fe  Fe37  1  0.74809380  0.24851436  0.50106084  1
  Fe  Fe38  1  0.37364034  0.63134387  0.87461447  1
  Fe  Fe39  1  0.87567228  0.62334098  0.12540537  1
  Fe  Fe40  1  0.49780614  0.50090309  0.75196690  1
  Fe  Fe41  1  0.37506198  0.37215059  0.87485425  1
  Fe  Fe42  1  0.00266338  0.50110540  0.49721878  1
  Fe  Fe43  1  0.00080900  -0.00136533  0.49703893  1
  Fe  Fe44  1  0.62370284  0.37717712  0.12446343  1
  Fe  Fe45  1  0.49712334  0.50138953  0.25051610  1
  Fe  Fe46  1  0.25073684  0.50211240  -0.00132550  1
  Fe  Fe47  1  0.24643619  0.74929002  0.74550434  1
  Fe  Fe48  1  0.00289656  0.74904185  0.50092120  1
  Fe  Fe49  1  0.25435058  -0.00011960  -0.00463245  1
  Fe  Fe50  1  0.12716357  0.87411023  0.37578921  1
  Fe  Fe51  1  0.25259596  0.24910630  0.00339059  1
  Fe  Fe52  1  0.62526730  0.37735030  0.62605399  1
  Fe  Fe53  1  0.87622698  0.37296110  0.62606786  1
  Fe  Fe54  1  0.62783824  0.62785554  0.87517060  1
  Fe  Fe55  1  0.12501273  0.12126941  0.12461219  1
  Fe  Fe56  1  0.25065858  0.74989293  0.24713117  1
  Fe  Fe57  1  0.49727917  -0.00277408  0.25074522  1
  Fe  Fe58  1  0.49798484  0.24838889  0.00120793  1
  Fe  Fe59  1  0.12473812  0.87799029  0.12380440  1
  Fe  Fe60  1  0.12696142  0.12456018  0.37374500  1
  Fe  Fe61  1  0.87474576  0.37501645  0.12453082  1
  Fe  Fe62  1  0.62356915  0.12010008  0.62789591  1
  Fe  Fe63  1  0.74887609  0.24720714  -0.00000720  1
  Fe  Fe64  1  0.12732115  0.87249539  0.87486482  1
  Fe  Fe65  1  -0.00171385  0.49719109  0.75257455  1
  Fe  Fe66  1  0.25250623  0.00036729  0.25118310  1
  Fe  Fe67  1  0.00073959  0.75116818  0.25001719  1
  Fe  Fe68  1  0.61994697  0.12034761  0.12402847  1
  Fe  Fe69  1  0.75021183  0.00053323  0.24917227  1
  Fe  Fe70  1  0.36973189  0.37432237  0.37304151  1
  Fe  Fe71  1  0.12586805  0.37376101  0.87344358  1
  Fe  Fe72  1  0.12875341  0.37649497  0.12849356  1
  Fe  Fe73  1  0.49875296  0.25102640  0.50291357  1
  Fe  Fe74  1  0.37316459  0.37797091  0.62693277  1
  Fe  Fe75  1  0.50077596  0.75022930  0.50112553  1
  Fe  Fe76  1  0.62457623  0.37351598  0.87462440  1
  Fe  Fe77  1  -0.00057831  0.49935076  -0.00289409  1
  Fe  Fe78  1  0.62581883  0.87511023  0.37514826  1
  Fe  Fe79  1  0.87530880  0.12550306  0.37495624  1
  Fe  Fe80  1  0.87820619  0.62651252  0.62718477  1
  Fe  Fe81  1  0.74880517  0.74892740  0.50083652  1
  Fe  Fe82  1  0.62185444  0.12540245  0.37491638  1
  Fe  Fe83  1  0.74968576  0.24862116  0.75029123  1
  Fe  Fe84  1  0.37188906  0.87650556  0.62533351  1
  Fe  Fe85  1  0.62616363  0.62449636  0.37286733  1
  Fe  Fe86  1  0.24669010  0.50339262  0.50305390  1
  Fe  Fe87  1  0.75198168  0.49984651  0.75139802  1
  Fe  Fe88  1  0.00087459  0.50129518  0.25451973  1
  Fe  Fe89  1  0.75108258  0.50107327  -0.00092433  1
  Co  Co90  1  0.37747307  0.12907501  0.87099522  1
  Co  Co91  1  0.00228310  -0.00167021  -0.00484909  1
  Co  Co92  1  0.37643481  0.12046060  0.12295910  1
  Co  Co93  1  0.74989818  0.00472234  0.00265535  1
  Co  Co94  1  0.00102648  0.24829983  0.74946081  1
  Co  Co95  1  0.62727076  0.87719529  0.62335214  1
  Co  Co96  1  0.12745635  0.62821691  0.37373017  1
  Co  Co97  1  0.25223262  0.50150928  0.75270417  1
  Co  Co98  1  0.74917705  0.74728012  0.00552251  1
  Co  Co99  1  0.63178482  0.87765601  0.88020680  1
  Co  Co100  1  0.25193034  0.50547751  0.24715240  1
  Co  Co101  1  0.37416570  0.37734214  0.12426450  1
  Co  Co102  1  0.37736040  0.12491771  0.37655785  1
  Co  Co103  1  0.25009197  -0.00081371  0.75487136  1
  Co  Co104  1  0.75092982  0.49964192  0.25009245  1
  Co  Co105  1  0.75201560  -0.00147130  0.75061251  1
  Co  Co106  1  0.13034064  0.37508958  0.37230653  1
  Co  Co107  1  0.87415124  0.37122678  0.87548267  1
  Co  Co108  1  0.25204047  0.24491930  0.24722439  1
  Co  Co109  1  0.87389926  0.62789427  0.37424733  1
  Co  Co110  1  0.74928410  0.00187143  0.49727791  1
  Co  Co111  1  0.11981930  0.62308128  0.63011041  1
  Co  Co112  1  0.37727237  0.62641579  0.62696818  1
  Co  Co113  1  0.36930197  0.86638701  0.87575763  1
  Co  Co114  1  0.24530846  0.74835779  0.00302766  1
  Co  Co115  1  0.50053145  0.75026490  0.25122552  1
  Co  Co116  1  0.12542568  0.87897513  0.62471190  1
  Co  Co117  1  0.25020633  0.00172887  0.49803822  1
  Co  Co118  1  -0.00139173  0.75640370  0.75121210  1
  Co  Co119  1  0.62179149  0.87857174  0.12140478  1
  Co  Co120  1  0.49754526  -0.00883780  0.75418548  1
  Co  Co121  1  0.50078033  0.25252358  0.74606925  1
  Co  Co122  1  0.12529190  0.37720413  0.62709866  1
  Co  Co123  1  0.49417167  -0.00312835  -0.00777876  1
  Co  Co124  1  0.62219953  0.62204783  0.12569549  1
  Co  Co125  1  0.50589106  0.75176971  -0.00305137  1
  Co  Co126  1  0.87497829  0.62760161  0.87454288  1
  Co  Co127  1  0.00070714  -0.00105705  0.25361524  1
