# generated using pymatgen
data_Fe45Co19
_symmetry_space_group_name_H-M   'P 1'
_cell_length_a   11.41511345
_cell_length_b   11.41487895
_cell_length_c   11.41548643
_cell_angle_alpha   90.00070917
_cell_angle_beta   90.00311082
_cell_angle_gamma   90.00886523
_symmetry_Int_Tables_number   1
_chemical_formula_structural   Fe45Co19
_chemical_formula_sum   'Fe90 Co38'
_cell_volume   1487.46227022
_cell_formula_units_Z   2
loop_
 _symmetry_equiv_pos_site_id
 _symmetry_equiv_pos_as_xyz
  1  'x, y, z'
loop_
 _atom_site_type_symbol
 _atom_site_label
 _atom_site_symmetry_multiplicity
 _atom_site_fract_x
 _atom_site_fract_y
 _atom_site_fract_z
 _atom_site_occupancy
  Fe  Fe0  1  0.12533699  0.37781719  0.62176635  1
  Fe  Fe1  1  0.62715927  0.37380776  0.12650273  1
  Fe  Fe2  1  0.37599180  0.12353064  0.87878760  1
  Fe  Fe3  1  0.24762016  0.75099089  0.00066012  1
  Fe  Fe4  1  0.24948321  0.25127009  0.24969061  1
  Fe  Fe5  1  0.12411634  0.37934495  0.37596748  1
  Fe  Fe6  1  0.75116860  0.74794407  -0.00099936  1
  Fe  Fe7  1  0.00077988  0.49974541  0.74820039  1
  Fe  Fe8  1  0.75103435  -0.00025058  0.24656535  1
  Fe  Fe9  1  0.24824012  0.74775246  0.49933498  1
  Fe  Fe10  1  0.62728607  0.12732607  0.12127251  1
  Fe  Fe11  1  0.37306446  0.12317403  0.37506617  1
  Fe  Fe12  1  0.62708253  0.37710168  0.87449667  1
  Fe  Fe13  1  0.50021831  -0.00116749  0.24996571  1
  Fe  Fe14  1  0.24922510  0.00104773  0.74957515  1
  Fe  Fe15  1  0.00169446  0.74639034  0.49800143  1
  Fe  Fe16  1  0.37491182  0.12563739  0.62357948  1
  Fe  Fe17  1  0.50094625  0.24982393  0.75249505  1
  Fe  Fe18  1  0.37417463  0.62414299  0.87526581  1
  Fe  Fe19  1  0.74953520  -0.00279210  0.50240114  1
  Fe  Fe20  1  0.87389619  0.62245333  0.87537956  1
  Fe  Fe21  1  0.87565442  0.37663561  0.87451294  1
  Fe  Fe22  1  0.24638700  0.50034255  0.24489100  1
  Fe  Fe23  1  0.50087878  0.75037474  -0.00291750  1
  Fe  Fe24  1  0.37393770  0.87572675  0.62474714  1
  Fe  Fe25  1  0.12602872  0.62259253  0.87628804  1
  Fe  Fe26  1  0.24811013  0.75060703  0.24904682  1
  Fe  Fe27  1  0.50135715  0.00030565  0.75124625  1
  Fe  Fe28  1  0.62349543  0.87061359  0.12592497  1
  Fe  Fe29  1  0.62506968  0.87187798  0.37287523  1
  Fe  Fe30  1  0.50416997  0.50435001  0.24924608  1
  Fe  Fe31  1  0.12432123  0.87873489  0.87818149  1
  Fe  Fe32  1  0.37315852  0.37500399  0.87570354  1
  Fe  Fe33  1  0.62991850  0.12306330  0.87958361  1
  Fe  Fe34  1  -0.00281080  0.24799470  0.25420792  1
  Fe  Fe35  1  0.75008786  0.50167598  0.00276812  1
  Fe  Fe36  1  0.49705896  0.49797035  0.50080342  1
  Fe  Fe37  1  -0.00428964  0.24855708  -0.00020879  1
  Fe  Fe38  1  0.12336226  0.12354999  0.87816692  1
  Fe  Fe39  1  0.62832776  0.87458456  0.87302775  1
  Fe  Fe40  1  0.87591408  0.37520886  0.62413631  1
  Fe  Fe41  1  0.00138073  0.50099504  0.00437409  1
  Fe  Fe42  1  0.62496704  0.87219729  0.62853961  1
  Fe  Fe43  1  0.12496473  0.37597914  0.87823617  1
  Fe  Fe44  1  0.37723122  0.37530864  0.12545679  1
  Fe  Fe45  1  0.49909476  0.75086726  0.49880197  1
  Fe  Fe46  1  0.87434807  0.62261714  0.37325319  1
  Fe  Fe47  1  0.62426721  0.12665987  0.62312533  1
  Fe  Fe48  1  0.62387157  0.62511199  0.62990070  1
  Fe  Fe49  1  0.00157915  0.50309715  0.24727510  1
  Fe  Fe50  1  0.37473453  0.62455825  0.37356427  1
  Fe  Fe51  1  0.24995203  0.49884968  0.74894417  1
  Fe  Fe52  1  0.12644751  0.12622124  0.62200271  1
  Fe  Fe53  1  -0.00090250  0.00043984  0.24976708  1
  Fe  Fe54  1  0.25048539  0.25083660  0.00187559  1
  Fe  Fe55  1  0.49753390  0.25332786  0.49672522  1
  Fe  Fe56  1  0.37423024  0.87779318  0.87642649  1
  Fe  Fe57  1  0.00103731  0.00093763  0.49849414  1
  Fe  Fe58  1  0.37660785  0.87440603  0.12482099  1
  Fe  Fe59  1  0.75201651  0.24979024  0.75131231  1
  Fe  Fe60  1  0.24914879  0.75113189  0.75109519  1
  Fe  Fe61  1  0.37583550  0.62579613  0.12344925  1
  Fe  Fe62  1  0.50089073  0.50016559  -0.00234662  1
  Fe  Fe63  1  0.24891538  -0.00147897  0.24784637  1
  Fe  Fe64  1  0.50155570  0.24892430  0.25088800  1
  Fe  Fe65  1  -0.00227700  0.25032581  0.49519839  1
  Fe  Fe66  1  0.37547453  0.62488108  0.62785223  1
  Fe  Fe67  1  0.87232803  0.37435035  0.12981985  1
  Fe  Fe68  1  -0.00099758  0.74983828  0.75275514  1
  Fe  Fe69  1  0.12340507  0.87341814  0.62491550  1
  Fe  Fe70  1  0.25209396  0.25423394  0.49695913  1
  Fe  Fe71  1  0.62691463  0.12306327  0.37546578  1
  Fe  Fe72  1  0.12623011  0.87570399  0.37471230  1
  Fe  Fe73  1  0.87975794  0.86872892  0.12510945  1
  Fe  Fe74  1  -0.00022337  0.24974841  0.75056460  1
  Fe  Fe75  1  -0.00135009  0.00153065  0.74920370  1
  Fe  Fe76  1  0.74861390  0.74391153  0.24947078  1
  Fe  Fe77  1  0.12284859  0.12551276  0.12457322  1
  Fe  Fe78  1  0.49922365  -0.00285656  0.49794208  1
  Fe  Fe79  1  0.75074157  0.74922184  0.50195246  1
  Fe  Fe80  1  0.24832360  0.24985099  0.75100263  1
  Fe  Fe81  1  0.75256742  0.25171279  0.49541658  1
  Fe  Fe82  1  0.87330326  0.87946019  0.87463876  1
  Fe  Fe83  1  0.37778327  0.12452500  0.12226034  1
  Fe  Fe84  1  0.87360611  0.87421814  0.37500649  1
  Fe  Fe85  1  0.62449446  0.37509984  0.62651226  1
  Fe  Fe86  1  0.87608806  0.62569504  0.62739800  1
  Fe  Fe87  1  0.62713944  0.37765637  0.37259843  1
  Fe  Fe88  1  0.75084082  0.50034735  0.50080475  1
  Fe  Fe89  1  0.87427311  0.12468205  0.62384822  1
  Co  Co90  1  0.49867085  0.49860017  0.75178234  1
  Co  Co91  1  0.75435560  0.75011970  0.74979846  1
  Co  Co92  1  0.87847821  0.62843012  0.12494395  1
  Co  Co93  1  0.49778912  0.75142351  0.75209481  1
  Co  Co94  1  0.87442745  0.38093982  0.37120393  1
  Co  Co95  1  -0.00326122  0.00122569  0.00340646  1
  Co  Co96  1  0.12717827  0.62065199  0.37394943  1
  Co  Co97  1  0.87176614  0.12024900  0.37608745  1
  Co  Co98  1  0.75169631  -0.00358569  0.00580851  1
  Co  Co99  1  0.37463242  0.37280870  0.62861620  1
  Co  Co100  1  0.87294288  0.12812742  0.12533537  1
  Co  Co101  1  0.37381500  0.87386531  0.37399653  1
  Co  Co102  1  0.87861976  0.87434949  0.62343425  1
  Co  Co103  1  0.12218045  0.63095531  0.12314642  1
  Co  Co104  1  0.12030514  0.87246236  0.12343497  1
  Co  Co105  1  0.00216380  0.74839316  0.25583937  1
  Co  Co106  1  0.49991365  0.74778073  0.25106532  1
  Co  Co107  1  0.62286222  0.62737322  0.12022929  1
  Co  Co108  1  0.00026877  0.74927138  -0.00601310  1
  Co  Co109  1  0.75013694  0.24790975  0.25399516  1
  Co  Co110  1  0.24859435  -0.00004242  0.00363223  1
  Co  Co111  1  0.12548337  0.62502827  0.62767873  1
  Co  Co112  1  0.12764804  0.12492378  0.37454633  1
  Co  Co113  1  0.37516091  0.37834852  0.36864319  1
  Co  Co114  1  0.75153218  0.49925295  0.74867944  1
  Co  Co115  1  -0.00198553  0.50361069  0.50101411  1
  Co  Co116  1  0.87195819  0.12164897  0.87505775  1
  Co  Co117  1  0.50083976  0.25283850  -0.00095325  1
  Co  Co118  1  0.62408804  0.62591234  0.37920911  1
  Co  Co119  1  0.50313285  -0.00313320  0.00067784  1
  Co  Co120  1  0.24946239  -0.00156570  0.50026768  1
  Co  Co121  1  0.62647045  0.62572269  0.87192979  1
  Co  Co122  1  0.74959114  0.00075878  0.74521818  1
  Co  Co123  1  0.74689313  0.50658985  0.24766459  1
  Co  Co124  1  0.12219533  0.37092028  0.12466374  1
  Co  Co125  1  0.25375298  0.50053626  0.50105681  1
  Co  Co126  1  0.75335787  0.25353567  -0.00128515  1
  Co  Co127  1  0.24838250  0.49950853  0.00412843  1
