# generated using pymatgen
data_Fe45Co19
_symmetry_space_group_name_H-M   'P 1'
_cell_length_a   11.41524297
_cell_length_b   11.41624026
_cell_length_c   11.41527220
_cell_angle_alpha   90.00251886
_cell_angle_beta   89.99195172
_cell_angle_gamma   89.99879805
_symmetry_Int_Tables_number   1
_chemical_formula_structural   Fe45Co19
_chemical_formula_sum   'Fe90 Co38'
_cell_volume   1487.62862498
_cell_formula_units_Z   2
loop_
 _symmetry_equiv_pos_site_id
 _symmetry_equiv_pos_as_xyz
  1  'x, y, z'
loop_
 _atom_site_type_symbol
 _atom_site_label
 _atom_site_symmetry_multiplicity
 _atom_site_fract_x
 _atom_site_fract_y
 _atom_site_fract_z
 _atom_site_occupancy
  Fe  Fe0  1  0.13032161  0.37592438  0.12687743  1
  Fe  Fe1  1  0.49861047  0.74894785  -0.00193127  1
  Fe  Fe2  1  0.49762838  0.50183668  0.00092004  1
  Fe  Fe3  1  0.62605339  0.37668452  0.62384866  1
  Fe  Fe4  1  0.75058677  0.50136365  0.00292708  1
  Fe  Fe5  1  0.50007462  0.75311734  0.25167982  1
  Fe  Fe6  1  -0.00037728  0.49882867  0.00190396  1
  Fe  Fe7  1  0.25028423  0.24941065  0.74782216  1
  Fe  Fe8  1  0.12460512  0.62583439  0.37521413  1
  Fe  Fe9  1  0.62413478  0.12288094  0.37389530  1
  Fe  Fe10  1  -0.00207136  0.75208568  0.49773836  1
  Fe  Fe11  1  0.37611137  0.62614910  0.62241100  1
  Fe  Fe12  1  0.00038362  -0.00389096  0.25076251  1
  Fe  Fe13  1  0.37746119  0.12221930  0.62328469  1
  Fe  Fe14  1  0.75219585  0.74947119  0.00282544  1
  Fe  Fe15  1  0.49927509  0.25141603  0.00120968  1
  Fe  Fe16  1  0.75182867  0.25029318  0.75036844  1
  Fe  Fe17  1  0.75134673  0.24904249  0.49986103  1
  Fe  Fe18  1  0.24849042  0.50147172  0.74785858  1
  Fe  Fe19  1  0.87554397  0.12329521  0.37569979  1
  Fe  Fe20  1  0.37283825  0.87414256  0.37716270  1
  Fe  Fe21  1  0.12624257  0.12166653  0.12672959  1
  Fe  Fe22  1  0.36960669  0.37401146  0.37451551  1
  Fe  Fe23  1  0.37530805  0.12461670  0.87420313  1
  Fe  Fe24  1  0.13141376  0.37360570  0.37508464  1
  Fe  Fe25  1  0.87630979  0.87615030  0.62427263  1
  Fe  Fe26  1  0.75137889  0.74513480  0.74602470  1
  Fe  Fe27  1  0.50501204  -0.00555072  0.49903034  1
  Fe  Fe28  1  0.12460930  0.37325141  0.62208602  1
  Fe  Fe29  1  0.87767463  0.12138949  0.12453874  1
  Fe  Fe30  1  0.86901543  0.87772575  0.37539738  1
  Fe  Fe31  1  0.87278501  0.37905623  0.13050974  1
  Fe  Fe32  1  -0.00131688  0.49492455  0.49618077  1
  Fe  Fe33  1  0.62427331  0.62924229  0.37790824  1
  Fe  Fe34  1  0.74976075  -0.00075055  0.00026973  1
  Fe  Fe35  1  0.62631507  0.37677091  0.87634273  1
  Fe  Fe36  1  0.37258628  0.37723159  0.87617926  1
  Fe  Fe37  1  0.37306827  0.62742797  0.37695828  1
  Fe  Fe38  1  0.12113093  0.12531383  0.62319882  1
  Fe  Fe39  1  0.87902749  0.12403705  0.62199382  1
  Fe  Fe40  1  0.87762946  0.12577940  0.87706810  1
  Fe  Fe41  1  0.62434079  0.12422464  0.87446360  1
  Fe  Fe42  1  0.62325605  0.12397193  0.12472656  1
  Fe  Fe43  1  0.12620349  0.87335436  0.37346152  1
  Fe  Fe44  1  0.12673649  0.37465878  0.87693115  1
  Fe  Fe45  1  0.00093963  0.25310742  0.25086371  1
  Fe  Fe46  1  0.24944829  0.74929282  0.24921871  1
  Fe  Fe47  1  0.50134402  0.50247216  0.75054145  1
  Fe  Fe48  1  0.62640438  0.87542120  0.12589727  1
  Fe  Fe49  1  0.75332552  0.74872521  0.24664843  1
  Fe  Fe50  1  0.87630028  0.62514475  0.87658685  1
  Fe  Fe51  1  0.12470817  0.12589372  0.37575563  1
  Fe  Fe52  1  0.49993039  -0.00326760  0.25141738  1
  Fe  Fe53  1  0.12053154  0.62519557  0.62148678  1
  Fe  Fe54  1  0.25239924  0.50671920  0.00347731  1
  Fe  Fe55  1  0.24646980  0.00169353  0.75318018  1
  Fe  Fe56  1  0.12034156  0.62752462  0.12998104  1
  Fe  Fe57  1  0.62622756  0.87380260  0.87245202  1
  Fe  Fe58  1  0.49930601  0.49885057  0.25019709  1
  Fe  Fe59  1  0.62269603  0.62578624  0.12482299  1
  Fe  Fe60  1  -0.00172790  0.25242653  0.75073229  1
  Fe  Fe61  1  0.75241177  0.50126314  0.49932716  1
  Fe  Fe62  1  -0.00125553  0.49881772  0.75055086  1
  Fe  Fe63  1  0.12104709  0.87550905  0.62691487  1
  Fe  Fe64  1  0.50228713  0.74819746  0.74894746  1
  Fe  Fe65  1  -0.00046017  0.25328246  0.00259067  1
  Fe  Fe66  1  0.49961384  0.25167792  0.75114335  1
  Fe  Fe67  1  0.49778205  0.25165890  0.24932661  1
  Fe  Fe68  1  0.12375935  0.62667441  0.87439626  1
  Fe  Fe69  1  0.24811634  0.00002734  0.49897979  1
  Fe  Fe70  1  0.49807951  0.50010475  0.49807460  1
  Fe  Fe71  1  0.49907023  0.25081998  0.49913856  1
  Fe  Fe72  1  0.74945600  0.24778925  0.24835109  1
  Fe  Fe73  1  0.37430625  0.37535407  0.62393213  1
  Fe  Fe74  1  0.00526018  -0.00329360  -0.00377100  1
  Fe  Fe75  1  0.87639868  0.87378171  0.87314664  1
  Fe  Fe76  1  0.37039667  0.87199315  0.87552343  1
  Fe  Fe77  1  0.37314471  0.12157079  0.12660799  1
  Fe  Fe78  1  0.37499480  0.87541786  0.62552483  1
  Fe  Fe79  1  0.62747098  0.37490061  0.37414284  1
  Fe  Fe80  1  0.75101321  0.00099530  0.74857037  1
  Fe  Fe81  1  0.00050093  0.75292038  0.00283094  1
  Fe  Fe82  1  0.75157325  0.50258007  0.74855222  1
  Fe  Fe83  1  0.24762971  0.74747798  0.74714316  1
  Fe  Fe84  1  0.25062640  0.24731723  0.00150244  1
  Fe  Fe85  1  0.75047671  0.25125437  0.00158463  1
  Fe  Fe86  1  0.36897057  0.87545220  0.12267023  1
  Fe  Fe87  1  0.62251269  0.12405239  0.62653371  1
  Fe  Fe88  1  0.87729865  0.62342199  0.37114409  1
  Fe  Fe89  1  0.49922440  -0.00176427  -0.00181781  1
  Co  Co90  1  0.87453309  0.37621739  0.87580112  1
  Co  Co91  1  0.24765773  0.75122371  0.50220188  1
  Co  Co92  1  0.12953861  0.87620318  0.12587019  1
  Co  Co93  1  0.25008584  0.50156117  0.50138406  1
  Co  Co94  1  -0.00254094  0.75534915  0.25098822  1
  Co  Co95  1  0.25172028  0.24610172  0.25040727  1
  Co  Co96  1  0.87992287  0.62300366  0.62223596  1
  Co  Co97  1  0.62328704  0.62366362  0.62011335  1
  Co  Co98  1  0.25056762  -0.00013596  0.25450111  1
  Co  Co99  1  0.37225067  0.37562570  0.12543723  1
  Co  Co100  1  0.62490232  0.37585094  0.12520403  1
  Co  Co101  1  0.62683903  0.62513761  0.87693180  1
  Co  Co102  1  0.25140873  0.24621647  0.50117548  1
  Co  Co103  1  0.24635306  0.00208965  -0.00507070  1
  Co  Co104  1  0.24847610  0.74418886  0.00243791  1
  Co  Co105  1  0.75315534  0.74807670  0.50197329  1
  Co  Co106  1  0.87917997  0.62246054  0.12747717  1
  Co  Co107  1  0.37377105  0.62610769  0.87182188  1
  Co  Co108  1  0.37802038  0.12298294  0.37719998  1
  Co  Co109  1  0.63177057  0.87258442  0.37336066  1
  Co  Co110  1  0.25065862  0.50409961  0.24879940  1
  Co  Co111  1  0.00067143  0.00042296  0.75376408  1
  Co  Co112  1  0.74665646  0.00183141  0.50276889  1
  Co  Co113  1  0.49982491  -0.00271295  0.75200388  1
  Co  Co114  1  -0.00162080  0.25413239  0.49597049  1
  Co  Co115  1  0.12217504  0.13096434  0.87444943  1
  Co  Co116  1  0.74534889  0.50454592  0.25003786  1
  Co  Co117  1  0.50055661  0.75422242  0.50055566  1
  Co  Co118  1  0.62722294  0.87266989  0.62690468  1
  Co  Co119  1  0.00393902  0.49543676  0.25259091  1
  Co  Co120  1  0.00128316  -0.00323208  0.49657165  1
  Co  Co121  1  0.74938097  0.00213631  0.24761270  1
  Co  Co122  1  -0.00152167  0.74848979  0.74911492  1
  Co  Co123  1  0.37866370  0.62818060  0.12896751  1
  Co  Co124  1  0.87441085  0.37517798  0.62429201  1
  Co  Co125  1  0.87583668  0.87848555  0.12445184  1
  Co  Co126  1  0.87035610  0.37545539  0.37070294  1
  Co  Co127  1  0.12721330  0.86937239  0.87375345  1
