# generated using pymatgen
data_Fe45Co19
_symmetry_space_group_name_H-M   'P 1'
_cell_length_a   11.41569439
_cell_length_b   11.41504364
_cell_length_c   11.41369473
_cell_angle_alpha   90.00374641
_cell_angle_beta   90.00246286
_cell_angle_gamma   89.99810754
_symmetry_Int_Tables_number   1
_chemical_formula_structural   Fe45Co19
_chemical_formula_sum   'Fe90 Co38'
_cell_volume   1487.32597119
_cell_formula_units_Z   2
loop_
 _symmetry_equiv_pos_site_id
 _symmetry_equiv_pos_as_xyz
  1  'x, y, z'
loop_
 _atom_site_type_symbol
 _atom_site_label
 _atom_site_symmetry_multiplicity
 _atom_site_fract_x
 _atom_site_fract_y
 _atom_site_fract_z
 _atom_site_occupancy
  Fe  Fe0  1  0.49797108  0.49974204  0.00033561  1
  Fe  Fe1  1  0.87488083  0.62843782  0.87825786  1
  Fe  Fe2  1  0.62558011  0.12368313  0.12550124  1
  Fe  Fe3  1  0.12787068  0.62255977  0.12561490  1
  Fe  Fe4  1  0.75318808  0.00111932  0.25590147  1
  Fe  Fe5  1  0.50148903  0.50341073  0.50231848  1
  Fe  Fe6  1  -0.00327616  0.00061241  0.25382607  1
  Fe  Fe7  1  0.25249303  0.00040296  0.25345926  1
  Fe  Fe8  1  0.25077449  -0.00140047  0.74913203  1
  Fe  Fe9  1  0.12266333  0.12873265  0.37584460  1
  Fe  Fe10  1  0.62576661  0.62600366  0.87547596  1
  Fe  Fe11  1  0.00038242  0.74966236  0.24800025  1
  Fe  Fe12  1  0.37203005  0.62892208  0.37917572  1
  Fe  Fe13  1  0.12398267  0.62293043  0.62555183  1
  Fe  Fe14  1  0.75138215  0.74736005  0.24758518  1
  Fe  Fe15  1  0.75064962  0.50158837  0.00227677  1
  Fe  Fe16  1  0.49943540  0.50131782  0.74812651  1
  Fe  Fe17  1  0.87583135  0.12297086  0.61954888  1
  Fe  Fe18  1  0.25061463  0.50130276  0.75126552  1
  Fe  Fe19  1  0.87612597  0.87753619  0.61997257  1
  Fe  Fe20  1  0.25090306  0.49819345  -0.00257312  1
  Fe  Fe21  1  0.37273831  0.37733201  0.62507598  1
  Fe  Fe22  1  0.00038578  0.49624401  0.49953137  1
  Fe  Fe23  1  0.62433914  0.12497924  0.87424616  1
  Fe  Fe24  1  0.87790579  0.12367241  0.87475262  1
  Fe  Fe25  1  0.12487071  0.87310140  0.37420996  1
  Fe  Fe26  1  0.00536645  0.49621110  0.25112766  1
  Fe  Fe27  1  0.12376977  0.62558700  0.87405273  1
  Fe  Fe28  1  0.25173256  -0.00140754  -0.00172218  1
  Fe  Fe29  1  0.37562709  0.87184094  0.61980776  1
  Fe  Fe30  1  0.12477147  0.87749227  0.12564844  1
  Fe  Fe31  1  0.37628502  0.12675658  0.37762447  1
  Fe  Fe32  1  0.49927361  0.74700053  0.74541562  1
  Fe  Fe33  1  0.50081407  0.00086650  0.74622699  1
  Fe  Fe34  1  0.62396567  0.12562124  0.37928073  1
  Fe  Fe35  1  0.00048665  0.50006031  0.00106034  1
  Fe  Fe36  1  0.37616742  0.12600158  0.87297343  1
  Fe  Fe37  1  0.75004828  0.49866787  0.25215280  1
  Fe  Fe38  1  0.75206133  -0.00062954  0.74883074  1
  Fe  Fe39  1  0.50161437  0.25113999  0.74671064  1
  Fe  Fe40  1  0.25009942  0.25041107  -0.00134902  1
  Fe  Fe41  1  0.12226870  0.87847672  0.62370177  1
  Fe  Fe42  1  0.11960959  0.87742972  0.87555236  1
  Fe  Fe43  1  0.75213963  0.50125370  0.75062639  1
  Fe  Fe44  1  0.62476572  0.37592807  0.12702485  1
  Fe  Fe45  1  0.00171269  0.74999253  0.49976604  1
  Fe  Fe46  1  0.24944204  0.75117655  0.74818459  1
  Fe  Fe47  1  0.24870516  0.25090990  0.50234896  1
  Fe  Fe48  1  0.37077199  0.37554625  0.12758228  1
  Fe  Fe49  1  0.74982382  0.25504769  0.49681577  1
  Fe  Fe50  1  0.12608835  0.12498332  0.12675136  1
  Fe  Fe51  1  0.49953040  0.75040013  0.00276719  1
  Fe  Fe52  1  0.49944771  0.25151560  0.00028653  1
  Fe  Fe53  1  0.24956968  -0.00117907  0.49809221  1
  Fe  Fe54  1  0.37498766  0.12519414  0.62363915  1
  Fe  Fe55  1  0.75123317  -0.00118576  -0.00125681  1
  Fe  Fe56  1  0.24703616  0.24954466  0.74845486  1
  Fe  Fe57  1  0.12103365  0.37444200  0.87084130  1
  Fe  Fe58  1  0.24551515  0.50095112  0.49769900  1
  Fe  Fe59  1  0.62585805  0.62394166  0.37421274  1
  Fe  Fe60  1  0.25121547  0.74910278  0.25030476  1
  Fe  Fe61  1  0.37512758  0.12395781  0.12513305  1
  Fe  Fe62  1  0.75280557  0.75222834  0.74988194  1
  Fe  Fe63  1  0.49715918  0.74971953  0.24940070  1
  Fe  Fe64  1  0.00066974  0.25003090  0.00270204  1
  Fe  Fe65  1  0.62809116  0.37701532  0.62363289  1
  Fe  Fe66  1  -0.00154826  0.75076298  0.74982973  1
  Fe  Fe67  1  0.87550660  0.87358648  0.12271531  1
  Fe  Fe68  1  0.87800692  0.62389597  0.37388801  1
  Fe  Fe69  1  0.62511728  0.87383565  0.87397433  1
  Fe  Fe70  1  0.37444577  0.37413371  0.37579390  1
  Fe  Fe71  1  0.75017454  0.25055814  0.00060731  1
  Fe  Fe72  1  0.25037688  0.75312126  -0.00016586  1
  Fe  Fe73  1  0.37505086  0.62693177  0.87483777  1
  Fe  Fe74  1  0.62520086  0.87369996  0.37673957  1
  Fe  Fe75  1  0.87461961  0.37360652  0.12916813  1
  Fe  Fe76  1  0.62559611  0.37528266  0.87469984  1
  Fe  Fe77  1  0.87324568  0.12761925  0.12896499  1
  Fe  Fe78  1  0.12199512  0.12325523  0.87278361  1
  Fe  Fe79  1  0.87425492  0.62277958  0.62272463  1
  Fe  Fe80  1  0.74906630  0.74703843  0.49929665  1
  Fe  Fe81  1  0.49802134  -0.00205799  -0.00107968  1
  Fe  Fe82  1  0.00215856  0.25462900  0.50452751  1
  Fe  Fe83  1  0.49604333  0.50247618  0.25030834  1
  Fe  Fe84  1  0.50086573  0.25022513  0.25099551  1
  Fe  Fe85  1  0.62538500  0.87579860  0.12685567  1
  Fe  Fe86  1  0.75161711  0.24806960  0.74915835  1
  Fe  Fe87  1  0.62583898  0.87573534  0.62130536  1
  Fe  Fe88  1  0.49787047  -0.00175160  0.25394974  1
  Fe  Fe89  1  0.87778427  0.37377090  0.87235041  1
  Co  Co90  1  0.24880667  0.50168469  0.25526287  1
  Co  Co91  1  0.49961388  -0.00012692  0.50036350  1
  Co  Co92  1  0.49973319  0.25209896  0.50225007  1
  Co  Co93  1  0.37040811  0.62508022  0.62254409  1
  Co  Co94  1  0.12560780  0.37901937  0.62928451  1
  Co  Co95  1  0.00338609  0.25132091  0.24701031  1
  Co  Co96  1  0.74450460  0.25006887  0.25369530  1
  Co  Co97  1  0.74818031  0.74899993  0.00314787  1
  Co  Co98  1  -0.00000545  -0.00190378  0.49319888  1
  Co  Co99  1  0.75154620  -0.00002244  0.49551841  1
  Co  Co100  1  0.00232945  0.74711454  0.00247412  1
  Co  Co101  1  0.62106702  0.37787959  0.37562002  1
  Co  Co102  1  0.37148780  0.62472776  0.12367186  1
  Co  Co103  1  0.25129033  0.24816222  0.25059944  1
  Co  Co104  1  0.37415443  0.87648536  0.12656434  1
  Co  Co105  1  0.75201387  0.49889542  0.49621439  1
  Co  Co106  1  0.37685913  0.87384849  0.87252340  1
  Co  Co107  1  0.37484276  0.87074048  0.37934669  1
  Co  Co108  1  0.62790392  0.12578556  0.62142864  1
  Co  Co109  1  0.87767869  0.37286649  0.37139464  1
  Co  Co110  1  0.87449481  0.86939945  0.37626840  1
  Co  Co111  1  0.87834274  0.87424897  0.87956481  1
  Co  Co112  1  0.24427150  0.75025767  0.50129824  1
  Co  Co113  1  -0.00317325  -0.00025348  0.74834025  1
  Co  Co114  1  0.00009075  0.24717499  0.74483652  1
  Co  Co115  1  0.12236184  0.62711468  0.37471976  1
  Co  Co116  1  -0.00093091  0.00306133  0.00387813  1
  Co  Co117  1  0.12991054  0.37521177  0.12538526  1
  Co  Co118  1  0.50399114  0.74583736  0.50159891  1
  Co  Co119  1  0.87815099  0.13198535  0.37649266  1
  Co  Co120  1  -0.00294277  0.50355017  0.75006873  1
  Co  Co121  1  0.87695225  0.62260999  0.12755954  1
  Co  Co122  1  0.63018925  0.62304691  0.62637096  1
  Co  Co123  1  0.62329735  0.62313715  0.12644322  1
  Co  Co124  1  0.87327449  0.37660496  0.62711913  1
  Co  Co125  1  0.37514973  0.37386877  0.87208864  1
  Co  Co126  1  0.12385319  0.12067585  0.62284662  1
  Co  Co127  1  0.12694422  0.37027871  0.37437697  1
