# generated using pymatgen
data_Fe45Co19
_symmetry_space_group_name_H-M   'P 1'
_cell_length_a   11.41546009
_cell_length_b   11.41467102
_cell_length_c   11.41510949
_cell_angle_alpha   90.00402590
_cell_angle_beta   90.00223669
_cell_angle_gamma   90.00225557
_symmetry_Int_Tables_number   1
_chemical_formula_structural   Fe45Co19
_chemical_formula_sum   'Fe90 Co38'
_cell_volume   1487.43124112
_cell_formula_units_Z   2
loop_
 _symmetry_equiv_pos_site_id
 _symmetry_equiv_pos_as_xyz
  1  'x, y, z'
loop_
 _atom_site_type_symbol
 _atom_site_label
 _atom_site_symmetry_multiplicity
 _atom_site_fract_x
 _atom_site_fract_y
 _atom_site_fract_z
 _atom_site_occupancy
  Fe  Fe0  1  0.87541716  0.37537823  0.37404682  1
  Fe  Fe1  1  0.75234758  0.25092093  0.75109826  1
  Fe  Fe2  1  0.62792154  0.37492534  0.37151775  1
  Fe  Fe3  1  0.12573010  0.87395187  0.36989541  1
  Fe  Fe4  1  0.50084750  0.49937812  0.50084555  1
  Fe  Fe5  1  0.12121162  0.12679147  0.87615633  1
  Fe  Fe6  1  0.62584916  0.87397815  0.87591860  1
  Fe  Fe7  1  0.37416566  0.62483882  0.12538972  1
  Fe  Fe8  1  0.49775848  -0.00205959  0.75126499  1
  Fe  Fe9  1  0.75202495  -0.00114386  0.75171206  1
  Fe  Fe10  1  0.75089061  0.00130834  0.25138188  1
  Fe  Fe11  1  0.12598584  0.87661294  0.12766007  1
  Fe  Fe12  1  0.24961667  0.49777104  0.75484598  1
  Fe  Fe13  1  0.37322645  0.37421069  0.37494592  1
  Fe  Fe14  1  0.24757931  0.49990736  0.49894263  1
  Fe  Fe15  1  0.87658783  0.87091908  0.88039716  1
  Fe  Fe16  1  0.12450116  0.87119582  0.87632127  1
  Fe  Fe17  1  0.37358696  0.87541062  0.62393795  1
  Fe  Fe18  1  0.75131072  0.50492307  0.75335419  1
  Fe  Fe19  1  0.37775188  0.12767838  0.87918180  1
  Fe  Fe20  1  0.24857857  0.74732842  0.00372036  1
  Fe  Fe21  1  0.50091766  0.49977931  0.00119563  1
  Fe  Fe22  1  0.87689851  0.12476683  0.62388608  1
  Fe  Fe23  1  0.00194462  0.50444647  0.75315962  1
  Fe  Fe24  1  0.37144418  0.37179188  0.11972933  1
  Fe  Fe25  1  0.62396974  0.37598474  0.87456647  1
  Fe  Fe26  1  0.00221550  0.50051528  0.49996411  1
  Fe  Fe27  1  0.74903699  0.50318646  0.49728110  1
  Fe  Fe28  1  -0.00048285  0.25345944  0.24713612  1
  Fe  Fe29  1  0.62676727  0.87396780  0.62539004  1
  Fe  Fe30  1  0.25114049  0.25366385  0.75423758  1
  Fe  Fe31  1  0.87669542  0.12237806  0.12330470  1
  Fe  Fe32  1  0.87194279  0.38183015  0.12196738  1
  Fe  Fe33  1  0.25119029  -0.00022052  0.75282624  1
  Fe  Fe34  1  0.75007993  0.25032165  0.00060301  1
  Fe  Fe35  1  0.87657633  0.12363510  0.87824309  1
  Fe  Fe36  1  0.50106310  0.75055661  0.49900781  1
  Fe  Fe37  1  0.49851085  -0.00184138  0.25192289  1
  Fe  Fe38  1  -0.00216248  0.74689073  0.24536319  1
  Fe  Fe39  1  0.12415407  0.12436071  0.12624528  1
  Fe  Fe40  1  0.62460114  0.12462319  0.62623249  1
  Fe  Fe41  1  0.37360093  0.12612284  0.62440596  1
  Fe  Fe42  1  0.24869382  -0.00072218  0.49805282  1
  Fe  Fe43  1  0.62493284  0.12412384  0.12651263  1
  Fe  Fe44  1  0.49916510  0.75105021  0.25074892  1
  Fe  Fe45  1  0.12467336  0.37553054  0.62658587  1
  Fe  Fe46  1  0.12404201  0.12586824  0.62646664  1
  Fe  Fe47  1  0.49808501  0.25289560  0.74911693  1
  Fe  Fe48  1  0.49765487  0.49891684  0.74851436  1
  Fe  Fe49  1  -0.00148017  0.25163775  0.75040587  1
  Fe  Fe50  1  0.49866568  0.75061615  0.74970277  1
  Fe  Fe51  1  0.87299961  0.87421542  0.12131349  1
  Fe  Fe52  1  0.50103617  0.75022102  0.00136190  1
  Fe  Fe53  1  -0.00194362  0.50126277  0.24631484  1
  Fe  Fe54  1  0.62737577  0.37676667  0.62581427  1
  Fe  Fe55  1  0.50020075  -0.00188505  0.00068458  1
  Fe  Fe56  1  0.37492067  0.62550303  0.87652307  1
  Fe  Fe57  1  0.24997922  0.74910286  0.74895795  1
  Fe  Fe58  1  0.87810499  0.62694418  0.62347823  1
  Fe  Fe59  1  0.37345142  0.62344965  0.62415284  1
  Fe  Fe60  1  0.75075952  0.74168187  0.24947965  1
  Fe  Fe61  1  0.74865228  0.00137713  0.49753467  1
  Fe  Fe62  1  0.87842563  0.37886584  0.87956437  1
  Fe  Fe63  1  0.37378594  0.12630978  0.37258422  1
  Fe  Fe64  1  0.87575462  0.37663599  0.62435463  1
  Fe  Fe65  1  0.62832014  0.87337312  0.12634825  1
  Fe  Fe66  1  0.50163583  -0.00174257  0.49670689  1
  Fe  Fe67  1  0.49929727  0.49855738  0.24895777  1
  Fe  Fe68  1  0.25114507  0.49797594  0.24894678  1
  Fe  Fe69  1  0.37520112  0.62512137  0.37368906  1
  Fe  Fe70  1  0.00058588  -0.00200677  0.49797736  1
  Fe  Fe71  1  0.49913801  0.25138670  0.24743169  1
  Fe  Fe72  1  0.24745563  0.74875289  0.49825521  1
  Fe  Fe73  1  0.12658360  0.37613650  0.12021989  1
  Fe  Fe74  1  0.50073584  0.25174746  0.50001936  1
  Fe  Fe75  1  0.74843325  0.74571491  0.49761972  1
  Fe  Fe76  1  0.62471035  0.12524489  0.87511167  1
  Fe  Fe77  1  0.63043800  0.37868496  0.12695407  1
  Fe  Fe78  1  0.87404230  0.87207244  0.37402868  1
  Fe  Fe79  1  0.87751127  0.12752262  0.37416964  1
  Fe  Fe80  1  -0.00112167  -0.00301869  0.75162851  1
  Fe  Fe81  1  0.75003200  0.24962489  0.49942383  1
  Fe  Fe82  1  0.37253529  0.87626697  0.12622862  1
  Fe  Fe83  1  0.12345757  0.87378286  0.62654316  1
  Fe  Fe84  1  0.75112958  0.74620535  0.75368361  1
  Fe  Fe85  1  0.24648186  0.25250559  0.49795681  1
  Fe  Fe86  1  0.12325043  0.12657660  0.37108718  1
  Fe  Fe87  1  0.24987278  0.00182970  0.00035959  1
  Fe  Fe88  1  0.12364977  0.62448466  0.37083837  1
  Fe  Fe89  1  0.87590764  0.87236681  0.62379975  1
  Co  Co90  1  0.37608056  0.12583236  0.12398524  1
  Co  Co91  1  0.74502588  0.50306496  -0.00497267  1
  Co  Co92  1  0.37200351  0.37509497  0.62313448  1
  Co  Co93  1  0.37275988  0.87380261  0.37502951  1
  Co  Co94  1  0.61902794  0.62492339  0.87414755  1
  Co  Co95  1  0.12271322  0.37735479  0.37248400  1
  Co  Co96  1  0.00419920  0.74728516  0.00623788  1
  Co  Co97  1  0.75183317  0.50648263  0.25376628  1
  Co  Co98  1  0.24803253  0.24746581  -0.00137067  1
  Co  Co99  1  0.25286777  0.00141553  0.24971933  1
  Co  Co100  1  0.88051279  0.62466293  0.37661624  1
  Co  Co101  1  0.37232876  0.87279611  0.87734870  1
  Co  Co102  1  -0.00250226  0.25011858  0.00314551  1
  Co  Co103  1  0.12658004  0.62811357  0.87531612  1
  Co  Co104  1  0.62426103  0.12698919  0.37194685  1
  Co  Co105  1  0.37700336  0.37390139  0.88052080  1
  Co  Co106  1  0.75334357  0.24888606  0.24706937  1
  Co  Co107  1  -0.00120740  0.74832613  0.75098558  1
  Co  Co108  1  0.00587152  0.50534460  0.00044694  1
  Co  Co109  1  0.50559270  0.25176138  0.00343685  1
  Co  Co110  1  0.62049289  0.62401145  0.37296553  1
  Co  Co111  1  0.87862696  0.62690280  0.88132270  1
  Co  Co112  1  0.00173723  0.25147399  0.50025560  1
  Co  Co113  1  0.24955832  0.50192280  -0.00226794  1
  Co  Co114  1  0.00216664  -0.00233484  0.00007102  1
  Co  Co115  1  0.87204379  0.62142645  0.11819215  1
  Co  Co116  1  0.74554416  0.74539995  -0.00103182  1
  Co  Co117  1  0.25135425  0.74906781  0.24975674  1
  Co  Co118  1  0.62885128  0.87277061  0.37269628  1
  Co  Co119  1  0.62510602  0.62499906  0.62634935  1
  Co  Co120  1  0.24868140  0.25177044  0.24837139  1
  Co  Co121  1  0.62338656  0.62323935  0.12671561  1
  Co  Co122  1  0.74858938  0.00099827  -0.00012763  1
  Co  Co123  1  -0.00273078  -0.00190029  0.25010696  1
  Co  Co124  1  0.12105112  0.37407513  0.87882816  1
  Co  Co125  1  0.12520782  0.62448886  0.62606212  1
  Co  Co126  1  0.00395155  0.75126045  0.49855956  1
  Co  Co127  1  0.12869513  0.62282645  0.12876650  1
