# generated using pymatgen
data_Fe45Co19
_symmetry_space_group_name_H-M   'P 1'
_cell_length_a   11.41477845
_cell_length_b   11.41542274
_cell_length_c   11.41521477
_cell_angle_alpha   90.00839571
_cell_angle_beta   90.00602549
_cell_angle_gamma   89.98947662
_symmetry_Int_Tables_number   1
_chemical_formula_structural   Fe45Co19
_chemical_formula_sum   'Fe90 Co38'
_cell_volume   1487.45404881
_cell_formula_units_Z   2
loop_
 _symmetry_equiv_pos_site_id
 _symmetry_equiv_pos_as_xyz
  1  'x, y, z'
loop_
 _atom_site_type_symbol
 _atom_site_label
 _atom_site_symmetry_multiplicity
 _atom_site_fract_x
 _atom_site_fract_y
 _atom_site_fract_z
 _atom_site_occupancy
  Fe  Fe0  1  0.87571271  0.87271294  0.12607034  1
  Fe  Fe1  1  -0.00011476  0.25159327  0.74711904  1
  Fe  Fe2  1  0.74769115  0.25028551  -0.00208595  1
  Fe  Fe3  1  0.12579051  0.12474269  0.12273803  1
  Fe  Fe4  1  0.25101982  0.50059457  0.00022802  1
  Fe  Fe5  1  0.87286162  0.37236927  0.12654656  1
  Fe  Fe6  1  -0.00265150  -0.00105077  0.75067812  1
  Fe  Fe7  1  0.74886296  0.50129543  0.00123182  1
  Fe  Fe8  1  0.87675651  0.62795280  0.87687307  1
  Fe  Fe9  1  0.37510504  0.37300925  0.62564866  1
  Fe  Fe10  1  0.25224792  0.50068044  0.75161566  1
  Fe  Fe11  1  0.12625072  0.87585446  0.62345542  1
  Fe  Fe12  1  0.25173479  -0.00048799  0.24972376  1
  Fe  Fe13  1  0.37546303  0.12727198  0.37592408  1
  Fe  Fe14  1  0.87570371  0.62495337  0.37513296  1
  Fe  Fe15  1  0.00385753  0.74845893  0.24899671  1
  Fe  Fe16  1  -0.00108596  0.49520567  0.50247985  1
  Fe  Fe17  1  0.12304256  0.87634319  0.37573404  1
  Fe  Fe18  1  0.74837168  0.75154531  -0.00214548  1
  Fe  Fe19  1  0.50317804  0.25129654  0.50073232  1
  Fe  Fe20  1  0.74641077  0.50006968  0.24929296  1
  Fe  Fe21  1  0.62402242  0.87355053  0.12687359  1
  Fe  Fe22  1  0.12427890  0.87570271  0.87515072  1
  Fe  Fe23  1  0.62665939  0.12624463  0.12400458  1
  Fe  Fe24  1  0.87420367  0.37375083  0.87343826  1
  Fe  Fe25  1  0.00505664  0.74940489  0.00387942  1
  Fe  Fe26  1  0.25156833  0.49814772  0.25086823  1
  Fe  Fe27  1  0.62920027  0.12157642  0.62675568  1
  Fe  Fe28  1  0.37899191  0.37227437  0.12700554  1
  Fe  Fe29  1  -0.00385075  0.00246668  0.49827340  1
  Fe  Fe30  1  0.49967806  0.00056877  0.50088768  1
  Fe  Fe31  1  0.25201443  0.74898001  0.75242927  1
  Fe  Fe32  1  0.37884710  0.12310475  0.87477898  1
  Fe  Fe33  1  0.12491492  0.62136554  0.37570156  1
  Fe  Fe34  1  0.50364923  0.24877183  0.75085206  1
  Fe  Fe35  1  0.37173770  0.63031860  0.12495648  1
  Fe  Fe36  1  0.61974592  0.37799657  0.37127505  1
  Fe  Fe37  1  0.50210654  0.24800048  0.24885174  1
  Fe  Fe38  1  0.25117832  0.75058327  0.49756991  1
  Fe  Fe39  1  0.50175848  0.74838205  0.25304815  1
  Fe  Fe40  1  0.25207567  0.49575737  0.49848998  1
  Fe  Fe41  1  0.37422770  0.12665188  0.62322296  1
  Fe  Fe42  1  0.75140522  -0.00183008  -0.00047330  1
  Fe  Fe43  1  0.12671175  0.62285625  0.62400279  1
  Fe  Fe44  1  0.49760125  0.00014220  0.00307781  1
  Fe  Fe45  1  0.37693055  0.62281120  0.37559123  1
  Fe  Fe46  1  0.62220963  0.62391807  0.87375600  1
  Fe  Fe47  1  0.74796892  0.75239381  0.25507421  1
  Fe  Fe48  1  0.62961705  0.38083461  0.62758198  1
  Fe  Fe49  1  0.12385991  0.37414317  0.87479659  1
  Fe  Fe50  1  -0.00410035  0.00326762  0.25098247  1
  Fe  Fe51  1  0.25426770  -0.00374337  0.00261428  1
  Fe  Fe52  1  0.50007610  0.00142116  0.24824058  1
  Fe  Fe53  1  0.12450256  0.12503836  0.87668252  1
  Fe  Fe54  1  0.12510628  0.62454038  0.87572725  1
  Fe  Fe55  1  0.12548353  0.12463486  0.62373587  1
  Fe  Fe56  1  0.87152428  0.12716079  0.62412854  1
  Fe  Fe57  1  0.12358643  0.37363946  0.12392549  1
  Fe  Fe58  1  0.50125400  0.50256822  0.00557695  1
  Fe  Fe59  1  -0.00222685  0.49939674  0.74843578  1
  Fe  Fe60  1  0.74880810  0.25258185  0.49826566  1
  Fe  Fe61  1  0.24869868  0.25086755  0.25085758  1
  Fe  Fe62  1  0.87227802  0.12606930  0.87218075  1
  Fe  Fe63  1  0.25117588  0.00092791  0.74971146  1
  Fe  Fe64  1  -0.00146149  0.49993411  0.00187735  1
  Fe  Fe65  1  0.87325525  0.87438321  0.62314512  1
  Fe  Fe66  1  0.49843967  0.75119783  -0.00171807  1
  Fe  Fe67  1  -0.00338482  0.00102174  0.00003421  1
  Fe  Fe68  1  0.25059178  0.24883126  0.75184490  1
  Fe  Fe69  1  0.37699177  0.87551154  0.37440374  1
  Fe  Fe70  1  0.87135619  0.12873964  0.12794044  1
  Fe  Fe71  1  0.74947175  0.74938236  0.75018911  1
  Fe  Fe72  1  0.37351031  0.87677459  0.62432747  1
  Fe  Fe73  1  0.86933108  0.62226298  0.62238287  1
  Fe  Fe74  1  0.24769762  0.25313423  0.49796593  1
  Fe  Fe75  1  0.62310927  0.37707573  0.87643000  1
  Fe  Fe76  1  0.62223333  0.62333374  0.38053547  1
  Fe  Fe77  1  0.62285514  0.87920620  0.87249360  1
  Fe  Fe78  1  -0.00044892  0.74949475  0.74761896  1
  Fe  Fe79  1  0.37683651  0.62350242  0.62359898  1
  Fe  Fe80  1  -0.00006415  0.49941508  0.24728289  1
  Fe  Fe81  1  0.49946346  0.74853439  0.74750881  1
  Fe  Fe82  1  -0.00056098  0.74872038  0.49998119  1
  Fe  Fe83  1  0.37888534  0.37657729  0.87542658  1
  Fe  Fe84  1  0.62878466  0.12111907  0.37384152  1
  Fe  Fe85  1  0.62657288  0.87495742  0.62248108  1
  Fe  Fe86  1  0.25250098  0.24985004  -0.00045718  1
  Fe  Fe87  1  0.87171009  0.62729987  0.12572869  1
  Fe  Fe88  1  0.87774704  0.37056257  0.37325827  1
  Fe  Fe89  1  0.12357248  0.12662969  0.37652452  1
  Co  Co90  1  0.25123024  -0.00007704  0.49771075  1
  Co  Co91  1  0.50008194  0.50083636  0.74737364  1
  Co  Co92  1  0.75116097  0.50362572  0.75519415  1
  Co  Co93  1  0.37491164  0.12769415  0.12652671  1
  Co  Co94  1  0.62354602  0.37213880  0.12438090  1
  Co  Co95  1  0.62264162  0.87819697  0.37608641  1
  Co  Co96  1  0.12850748  0.62198187  0.12594124  1
  Co  Co97  1  0.49901312  0.75109738  0.50158281  1
  Co  Co98  1  0.74982687  0.75127597  0.49666939  1
  Co  Co99  1  0.62437242  0.12033915  0.87534427  1
  Co  Co100  1  0.37675992  0.62394698  0.87744504  1
  Co  Co101  1  0.75261208  -0.00175267  0.49743781  1
  Co  Co102  1  0.12189360  0.37584965  0.37376917  1
  Co  Co103  1  0.24661582  0.75074917  0.25325323  1
  Co  Co104  1  0.38043865  0.37359496  0.37277969  1
  Co  Co105  1  0.49928188  0.00151385  0.74553124  1
  Co  Co106  1  0.75046979  0.49678942  0.49353210  1
  Co  Co107  1  0.86939357  0.37559933  0.62638162  1
  Co  Co108  1  -0.00203858  0.24922386  0.00020899  1
  Co  Co109  1  0.00259962  0.24721696  0.24791477  1
  Co  Co110  1  0.87704835  0.87132534  0.87654828  1
  Co  Co111  1  0.37669454  0.87664497  0.87302660  1
  Co  Co112  1  0.12387553  0.87930810  0.12687073  1
  Co  Co113  1  0.74596894  0.25251534  0.25167882  1
  Co  Co114  1  0.50034722  0.24793157  -0.00144067  1
  Co  Co115  1  0.74578609  0.24998783  0.75181814  1
  Co  Co116  1  0.49932910  0.49699407  0.50313531  1
  Co  Co117  1  0.37658764  0.86974877  0.12880882  1
  Co  Co118  1  0.87180610  0.12990545  0.37491933  1
  Co  Co119  1  0.75262957  -0.00326768  0.75131019  1
  Co  Co120  1  0.87750307  0.87392149  0.37415075  1
  Co  Co121  1  0.24799239  0.75309065  -0.00111994  1
  Co  Co122  1  0.50130604  0.50432655  0.24498656  1
  Co  Co123  1  0.62732291  0.63036853  0.12488488  1
  Co  Co124  1  0.00056878  0.25185990  0.50375764  1
  Co  Co125  1  0.62831388  0.62277144  0.62189098  1
  Co  Co126  1  0.75142567  -0.00299160  0.24895458  1
  Co  Co127  1  0.12816693  0.37632977  0.62733290  1
