# generated using pymatgen
data_Fe45Co19
_symmetry_space_group_name_H-M   'P 1'
_cell_length_a   11.41493501
_cell_length_b   11.41494012
_cell_length_c   11.41418972
_cell_angle_alpha   89.99378159
_cell_angle_beta   89.99676324
_cell_angle_gamma   89.99822833
_symmetry_Int_Tables_number   1
_chemical_formula_structural   Fe45Co19
_chemical_formula_sum   'Fe90 Co38'
_cell_volume   1487.27803573
_cell_formula_units_Z   2
loop_
 _symmetry_equiv_pos_site_id
 _symmetry_equiv_pos_as_xyz
  1  'x, y, z'
loop_
 _atom_site_type_symbol
 _atom_site_label
 _atom_site_symmetry_multiplicity
 _atom_site_fract_x
 _atom_site_fract_y
 _atom_site_fract_z
 _atom_site_occupancy
  Fe  Fe0  1  0.25303430  0.25122259  0.50002970  1
  Fe  Fe1  1  0.87417512  0.62796133  0.87434052  1
  Fe  Fe2  1  0.75068544  0.50197810  -0.00070147  1
  Fe  Fe3  1  0.12550008  0.87490984  0.37634661  1
  Fe  Fe4  1  0.87513222  0.12505734  0.87509782  1
  Fe  Fe5  1  0.50064228  0.25155742  0.75145875  1
  Fe  Fe6  1  0.12521459  0.37728342  0.37510114  1
  Fe  Fe7  1  0.37546614  0.87205605  0.87453875  1
  Fe  Fe8  1  0.87360485  0.12450318  0.12522661  1
  Fe  Fe9  1  0.25336219  0.50025730  0.24617720  1
  Fe  Fe10  1  0.38017515  0.62409550  0.37460451  1
  Fe  Fe11  1  0.25053556  0.74693514  0.49876752  1
  Fe  Fe12  1  0.25056917  -0.00154485  0.24813093  1
  Fe  Fe13  1  -0.00156142  0.74990433  0.24946646  1
  Fe  Fe14  1  0.12665395  0.12455734  0.12404361  1
  Fe  Fe15  1  0.74972723  -0.00364640  -0.00039985  1
  Fe  Fe16  1  0.62545870  0.37463292  0.12683048  1
  Fe  Fe17  1  0.00081280  0.74826281  0.74748181  1
  Fe  Fe18  1  0.62338327  0.37954552  0.87337540  1
  Fe  Fe19  1  -0.00353591  0.49994216  0.00337647  1
  Fe  Fe20  1  0.50162508  -0.00057000  -0.00093680  1
  Fe  Fe21  1  0.37659861  0.87394105  0.37706499  1
  Fe  Fe22  1  0.50213374  0.75016493  0.74646093  1
  Fe  Fe23  1  0.37418524  0.87507040  0.62380037  1
  Fe  Fe24  1  0.12637897  0.12590443  0.62325816  1
  Fe  Fe25  1  0.12709986  0.87302476  0.62303898  1
  Fe  Fe26  1  0.62352062  0.12840617  0.37725836  1
  Fe  Fe27  1  0.00057840  0.25256946  0.74923492  1
  Fe  Fe28  1  0.37430497  0.87273996  0.12351377  1
  Fe  Fe29  1  0.87010402  0.37755077  0.62104109  1
  Fe  Fe30  1  0.12435585  0.62404530  0.12408848  1
  Fe  Fe31  1  0.87339013  0.62332269  0.62200017  1
  Fe  Fe32  1  0.62432299  0.12921866  0.62435629  1
  Fe  Fe33  1  0.74796303  0.49954212  0.25474786  1
  Fe  Fe34  1  -0.00169017  -0.00327670  0.00118067  1
  Fe  Fe35  1  0.62780399  0.87277497  0.87300882  1
  Fe  Fe36  1  0.62223705  0.87284918  0.37736748  1
  Fe  Fe37  1  0.37515789  0.12739248  0.12034474  1
  Fe  Fe38  1  0.12472418  0.12425907  0.87599528  1
  Fe  Fe39  1  0.37474355  0.12695445  0.87706904  1
  Fe  Fe40  1  0.49938115  -0.00047652  0.24894997  1
  Fe  Fe41  1  0.37842357  0.37672669  0.37235203  1
  Fe  Fe42  1  0.87519345  0.12606745  0.62485140  1
  Fe  Fe43  1  0.25039632  0.50416066  0.75363970  1
  Fe  Fe44  1  0.62863718  0.62784180  0.12846920  1
  Fe  Fe45  1  0.50276952  0.74908266  0.00106996  1
  Fe  Fe46  1  -0.00011227  -0.00152069  0.74986772  1
  Fe  Fe47  1  0.25017977  0.74591307  -0.00178072  1
  Fe  Fe48  1  0.74967900  0.25198059  0.75187323  1
  Fe  Fe49  1  0.74658120  0.74806639  0.50021939  1
  Fe  Fe50  1  0.50533064  0.49790938  0.49813079  1
  Fe  Fe51  1  -0.00210374  0.25262662  0.24984237  1
  Fe  Fe52  1  0.49894114  0.24986581  0.24827145  1
  Fe  Fe53  1  0.74715136  0.25047933  -0.00205268  1
  Fe  Fe54  1  0.74987570  0.00207763  0.49931599  1
  Fe  Fe55  1  0.24820279  0.74533009  0.75144509  1
  Fe  Fe56  1  -0.00296859  0.49827466  0.24813874  1
  Fe  Fe57  1  0.24967515  0.00046614  0.75071507  1
  Fe  Fe58  1  0.12442204  0.87374581  0.87683506  1
  Fe  Fe59  1  0.00111803  0.25146384  0.00222110  1
  Fe  Fe60  1  0.25006891  0.25181158  0.24778662  1
  Fe  Fe61  1  0.24924270  0.74891460  0.25180622  1
  Fe  Fe62  1  0.00182423  -0.00196838  0.24777808  1
  Fe  Fe63  1  0.24992110  0.25106289  0.75118370  1
  Fe  Fe64  1  0.62595009  0.62011259  0.62792345  1
  Fe  Fe65  1  -0.00112894  0.50136440  0.74804621  1
  Fe  Fe66  1  0.87358009  0.87325766  0.62485209  1
  Fe  Fe67  1  0.00054245  -0.00098058  0.50040374  1
  Fe  Fe68  1  0.37535926  0.37636902  0.88039231  1
  Fe  Fe69  1  0.62506706  0.12478400  0.12434780  1
  Fe  Fe70  1  0.49765257  0.50282810  0.00530363  1
  Fe  Fe71  1  0.12734218  0.37886891  0.62342414  1
  Fe  Fe72  1  0.87475885  0.62349997  0.37712831  1
  Fe  Fe73  1  0.50051039  -0.00009137  0.74982614  1
  Fe  Fe74  1  0.50086675  0.75110786  0.24938497  1
  Fe  Fe75  1  -0.00469548  0.75181735  0.00360449  1
  Fe  Fe76  1  0.87560694  0.37462545  0.87637514  1
  Fe  Fe77  1  -0.00243936  0.25166807  0.49815988  1
  Fe  Fe78  1  0.75319455  0.24993744  0.25333266  1
  Fe  Fe79  1  0.37551122  0.62306567  0.62470715  1
  Fe  Fe80  1  0.74715177  -0.00165201  0.25118055  1
  Fe  Fe81  1  0.12347790  0.62159189  0.37789353  1
  Fe  Fe82  1  0.75000741  -0.00081119  0.74925389  1
  Fe  Fe83  1  0.62450290  0.62466579  0.87255767  1
  Fe  Fe84  1  0.37575241  0.37708094  0.62537798  1
  Fe  Fe85  1  0.87494434  0.87541641  0.37479441  1
  Fe  Fe86  1  0.49829891  0.00201113  0.50175651  1
  Fe  Fe87  1  0.37375876  0.12467557  0.37591830  1
  Fe  Fe88  1  0.12534884  0.12493205  0.37619546  1
  Fe  Fe89  1  0.12547129  0.37983832  0.87812392  1
  Co  Co90  1  0.24594295  0.25145012  -0.00027296  1
  Co  Co91  1  0.62462787  0.87372608  0.12609155  1
  Co  Co92  1  0.75359820  0.24910279  0.49668382  1
  Co  Co93  1  0.75095443  0.75023257  0.00010804  1
  Co  Co94  1  0.74272542  0.50104192  0.49530564  1
  Co  Co95  1  0.50127274  0.49974571  0.24731278  1
  Co  Co96  1  0.75329390  0.49974826  0.75224865  1
  Co  Co97  1  0.87512422  0.37914039  0.37697887  1
  Co  Co98  1  0.37487881  0.12454256  0.62726307  1
  Co  Co99  1  0.25040124  -0.00016290  0.49960873  1
  Co  Co100  1  0.87078226  0.37441808  0.12470678  1
  Co  Co101  1  0.50136513  0.74766774  0.50425989  1
  Co  Co102  1  0.87726142  0.12167269  0.37305466  1
  Co  Co103  1  0.00020440  0.49869731  0.50167906  1
  Co  Co104  1  0.12749840  0.87206183  0.12373641  1
  Co  Co105  1  0.62551762  0.87756094  0.62347089  1
  Co  Co106  1  0.49611399  0.25153569  0.50110933  1
  Co  Co107  1  0.25314344  0.50039934  0.49783108  1
  Co  Co108  1  0.75112886  0.75186493  0.25282083  1
  Co  Co109  1  0.38009250  0.62621268  0.87350083  1
  Co  Co110  1  0.12582929  0.37884674  0.12485654  1
  Co  Co111  1  0.62623341  0.12249291  0.87286574  1
  Co  Co112  1  0.87209550  0.87587486  0.12864889  1
  Co  Co113  1  0.25186379  -0.00098265  -0.00027219  1
  Co  Co114  1  0.62314246  0.36932606  0.37428949  1
  Co  Co115  1  0.87389321  0.87285843  0.87196468  1
  Co  Co116  1  0.37613930  0.37169955  0.12231296  1
  Co  Co117  1  0.25431527  0.50445686  0.00157382  1
  Co  Co118  1  0.49796937  0.49823262  0.74941144  1
  Co  Co119  1  -0.00004423  0.74988245  0.49967954  1
  Co  Co120  1  0.12613631  0.62306209  0.62227724  1
  Co  Co121  1  0.74835561  0.74828640  0.74753833  1
  Co  Co122  1  0.12025044  0.62358490  0.87850171  1
  Co  Co123  1  0.87133771  0.62417461  0.12779416  1
  Co  Co124  1  0.50572660  0.25029984  -0.00213534  1
  Co  Co125  1  0.62158614  0.62915097  0.37131814  1
  Co  Co126  1  0.62729686  0.37319866  0.62549300  1
  Co  Co127  1  0.37514801  0.62965523  0.12800353  1
