# generated using pymatgen
data_Fe45Co19
_symmetry_space_group_name_H-M   'P 1'
_cell_length_a   11.41509020
_cell_length_b   11.41508341
_cell_length_c   11.41493594
_cell_angle_alpha   90.00443947
_cell_angle_beta   90.00734684
_cell_angle_gamma   89.99656098
_symmetry_Int_Tables_number   1
_chemical_formula_structural   Fe45Co19
_chemical_formula_sum   'Fe90 Co38'
_cell_volume   1487.41415255
_cell_formula_units_Z   2
loop_
 _symmetry_equiv_pos_site_id
 _symmetry_equiv_pos_as_xyz
  1  'x, y, z'
loop_
 _atom_site_type_symbol
 _atom_site_label
 _atom_site_symmetry_multiplicity
 _atom_site_fract_x
 _atom_site_fract_y
 _atom_site_fract_z
 _atom_site_occupancy
  Fe  Fe0  1  0.87399940  0.62458859  0.37680269  1
  Fe  Fe1  1  0.87821737  0.87411886  0.62732018  1
  Fe  Fe2  1  0.37676507  0.37880480  0.87537193  1
  Fe  Fe3  1  0.37547669  0.87610235  0.12630088  1
  Fe  Fe4  1  0.12295746  0.37494772  0.37161762  1
  Fe  Fe5  1  0.37136501  0.62330487  0.12531368  1
  Fe  Fe6  1  0.00251106  0.74718156  0.50188786  1
  Fe  Fe7  1  0.49984825  0.00169114  0.24987786  1
  Fe  Fe8  1  0.62462120  0.87300304  0.37398383  1
  Fe  Fe9  1  0.37180500  0.12438619  0.12398492  1
  Fe  Fe10  1  0.62568372  0.62283863  0.62201735  1
  Fe  Fe11  1  0.24867755  0.25292271  0.24690835  1
  Fe  Fe12  1  0.62283395  0.37680128  0.12536383  1
  Fe  Fe13  1  0.49531940  0.49917893  0.25249973  1
  Fe  Fe14  1  0.00081725  0.25024208  0.50001087  1
  Fe  Fe15  1  0.62467095  0.62158718  0.87867521  1
  Fe  Fe16  1  0.74829003  0.25449420  0.75128208  1
  Fe  Fe17  1  0.00019662  0.24761629  0.75282859  1
  Fe  Fe18  1  0.12651237  0.12502243  0.62724533  1
  Fe  Fe19  1  0.24938752  0.25306052  0.50240470  1
  Fe  Fe20  1  0.87485767  0.12576015  0.62582593  1
  Fe  Fe21  1  0.00014599  0.00083719  -0.00428236  1
  Fe  Fe22  1  0.11854988  0.37899782  0.12709876  1
  Fe  Fe23  1  0.12453146  0.87148611  0.12200395  1
  Fe  Fe24  1  0.00244217  0.50039062  0.49899029  1
  Fe  Fe25  1  0.00443151  0.50412808  0.75464048  1
  Fe  Fe26  1  0.62833175  0.12631623  0.12406557  1
  Fe  Fe27  1  0.87476100  0.62241006  0.62595602  1
  Fe  Fe28  1  0.75167221  -0.00103387  -0.00188049  1
  Fe  Fe29  1  0.13204887  0.62409859  0.37621826  1
  Fe  Fe30  1  0.49809732  0.00180095  0.49951666  1
  Fe  Fe31  1  0.62289935  0.87261584  0.87512078  1
  Fe  Fe32  1  0.75249790  0.74852746  0.00053009  1
  Fe  Fe33  1  0.50111924  0.00249088  0.75053291  1
  Fe  Fe34  1  0.49904067  0.49941773  0.49707601  1
  Fe  Fe35  1  0.74964671  0.49605086  0.49711752  1
  Fe  Fe36  1  0.12213954  0.87443768  0.62853637  1
  Fe  Fe37  1  0.37555710  0.62249195  0.87627304  1
  Fe  Fe38  1  0.50051493  0.25238428  0.74960639  1
  Fe  Fe39  1  0.12499145  0.37769238  0.62942190  1
  Fe  Fe40  1  0.75242463  0.25394140  0.49733656  1
  Fe  Fe41  1  0.49979498  0.74518078  0.74909437  1
  Fe  Fe42  1  0.62583568  0.62266322  0.12599327  1
  Fe  Fe43  1  0.62524233  0.87392650  0.12532159  1
  Fe  Fe44  1  0.49848993  0.74896544  0.00140220  1
  Fe  Fe45  1  0.49748241  0.25103418  0.24789362  1
  Fe  Fe46  1  0.37557527  0.87464025  0.62668042  1
  Fe  Fe47  1  0.74975531  0.75003041  0.49998794  1
  Fe  Fe48  1  0.25069748  -0.00143810  0.50057255  1
  Fe  Fe49  1  -0.00012483  0.00179399  0.50016586  1
  Fe  Fe50  1  0.37327964  0.12538355  0.87525230  1
  Fe  Fe51  1  0.62709286  0.12785589  0.87691060  1
  Fe  Fe52  1  0.87607609  0.87701262  0.12665660  1
  Fe  Fe53  1  0.49849211  0.25057504  0.00076398  1
  Fe  Fe54  1  0.24731292  0.49854958  0.00070887  1
  Fe  Fe55  1  0.00047786  0.74559044  0.24825334  1
  Fe  Fe56  1  0.24862821  0.74896322  0.75062747  1
  Fe  Fe57  1  0.87777532  0.61784560  0.12118640  1
  Fe  Fe58  1  0.12485506  0.12565495  0.12137780  1
  Fe  Fe59  1  0.87731491  0.87398658  0.37437488  1
  Fe  Fe60  1  0.00166952  0.00348892  0.24942991  1
  Fe  Fe61  1  0.62338495  0.87367818  0.62458725  1
  Fe  Fe62  1  0.12379385  0.63174552  0.88152824  1
  Fe  Fe63  1  0.62683101  0.12933313  0.37361760  1
  Fe  Fe64  1  0.25048648  0.75087959  0.24934511  1
  Fe  Fe65  1  0.49759179  0.74760768  0.25252976  1
  Fe  Fe66  1  0.25134209  0.25130125  0.75040477  1
  Fe  Fe67  1  0.74991008  0.74739815  0.75024766  1
  Fe  Fe68  1  0.75024762  0.00000928  0.75038436  1
  Fe  Fe69  1  0.87917640  0.87184219  0.87122250  1
  Fe  Fe70  1  0.75121791  -0.00057438  0.49911069  1
  Fe  Fe71  1  0.74559511  0.49786611  0.75225668  1
  Fe  Fe72  1  0.87754031  0.37695559  0.62739509  1
  Fe  Fe73  1  0.75218347  0.74808940  0.24847735  1
  Fe  Fe74  1  0.75451373  0.25711288  0.00275984  1
  Fe  Fe75  1  0.24979272  0.25406270  0.00093455  1
  Fe  Fe76  1  0.12523303  0.87486195  0.37397586  1
  Fe  Fe77  1  -0.00249075  0.25219750  -0.00215318  1
  Fe  Fe78  1  0.49743543  0.25071076  0.50158344  1
  Fe  Fe79  1  0.37364294  0.37932238  0.62721874  1
  Fe  Fe80  1  0.62615484  0.12725861  0.62446554  1
  Fe  Fe81  1  0.49961066  0.00004292  -0.00056010  1
  Fe  Fe82  1  0.36898816  0.62176783  0.62232352  1
  Fe  Fe83  1  0.24758979  -0.00104877  0.75370900  1
  Fe  Fe84  1  0.24955224  -0.00439412  -0.00318001  1
  Fe  Fe85  1  0.37102485  0.12608424  0.37331963  1
  Fe  Fe86  1  0.49749409  0.74766386  0.49652956  1
  Fe  Fe87  1  0.75133187  0.00231507  0.25082888  1
  Fe  Fe88  1  0.75177200  0.49583931  0.25166230  1
  Fe  Fe89  1  0.12695648  0.12584039  0.37472153  1
  Co  Co90  1  0.12919996  0.62249804  0.62207844  1
  Co  Co91  1  0.12637181  0.62540071  0.12213200  1
  Co  Co92  1  0.00332510  0.49793950  -0.00541654  1
  Co  Co93  1  0.62079458  0.37626508  0.87863631  1
  Co  Co94  1  0.87556508  0.12431535  0.12295307  1
  Co  Co95  1  0.62391922  0.37515546  0.62189726  1
  Co  Co96  1  0.24757359  0.49339096  0.49901648  1
  Co  Co97  1  0.50199381  0.50107040  0.74758715  1
  Co  Co98  1  0.37378530  0.37252088  0.37530168  1
  Co  Co99  1  0.75439292  0.25360005  0.24667102  1
  Co  Co100  1  0.37308726  0.12462017  0.62667911  1
  Co  Co101  1  0.25032327  0.49617474  0.24756022  1
  Co  Co102  1  0.88055870  0.37478369  0.37271693  1
  Co  Co103  1  0.87637843  0.37780205  0.87231263  1
  Co  Co104  1  0.49866105  0.50155354  0.00324154  1
  Co  Co105  1  0.00132888  0.74328539  0.74667455  1
  Co  Co106  1  0.62296376  0.37310069  0.37313447  1
  Co  Co107  1  0.87243037  0.12791587  0.87545142  1
  Co  Co108  1  0.24746366  -0.00016881  0.24737747  1
  Co  Co109  1  0.24590752  0.50287515  0.75524731  1
  Co  Co110  1  0.25553054  0.75237906  -0.00019202  1
  Co  Co111  1  0.36817595  0.62290402  0.37720476  1
  Co  Co112  1  0.12590965  0.37198749  0.87352639  1
  Co  Co113  1  0.87494762  0.12636312  0.37564179  1
  Co  Co114  1  -0.00072447  0.24468267  0.24959834  1
  Co  Co115  1  0.12053454  0.86903517  0.87554503  1
  Co  Co116  1  0.37776150  0.87419712  0.87199060  1
  Co  Co117  1  0.24872390  0.75498851  0.50127227  1
  Co  Co118  1  0.87403237  0.62298707  0.87512655  1
  Co  Co119  1  -0.00662479  0.74953642  0.00399968  1
  Co  Co120  1  0.00223762  0.50765362  0.25402005  1
  Co  Co121  1  0.37407497  0.87666878  0.37382455  1
  Co  Co122  1  0.75096809  0.49513551  -0.00013184  1
  Co  Co123  1  0.00113081  0.00468514  0.75281632  1
  Co  Co124  1  0.37503415  0.37619685  0.12252734  1
  Co  Co125  1  0.62623729  0.62385036  0.37328053  1
  Co  Co126  1  0.88367304  0.38000854  0.12866175  1
  Co  Co127  1  0.12806955  0.12803362  0.87673316  1
