# generated using pymatgen
data_Fe45Co19
_symmetry_space_group_name_H-M   'P 1'
_cell_length_a   11.41447942
_cell_length_b   11.41478832
_cell_length_c   11.41566726
_cell_angle_alpha   89.99303430
_cell_angle_beta   89.99904453
_cell_angle_gamma   89.99941690
_symmetry_Int_Tables_number   1
_chemical_formula_structural   Fe45Co19
_chemical_formula_sum   'Fe90 Co38'
_cell_volume   1487.39141351
_cell_formula_units_Z   2
loop_
 _symmetry_equiv_pos_site_id
 _symmetry_equiv_pos_as_xyz
  1  'x, y, z'
loop_
 _atom_site_type_symbol
 _atom_site_label
 _atom_site_symmetry_multiplicity
 _atom_site_fract_x
 _atom_site_fract_y
 _atom_site_fract_z
 _atom_site_occupancy
  Fe  Fe0  1  0.74737111  -0.00355481  0.25357126  1
  Fe  Fe1  1  0.87477750  0.12382481  0.87525347  1
  Fe  Fe2  1  0.12401317  0.37679066  0.12674432  1
  Fe  Fe3  1  0.62672881  0.12214223  0.12384506  1
  Fe  Fe4  1  0.74978505  0.25233442  0.50013379  1
  Fe  Fe5  1  0.00020128  0.75109793  0.49941398  1
  Fe  Fe6  1  0.75123270  0.75453837  0.00274801  1
  Fe  Fe7  1  0.75061445  0.75341545  0.24863477  1
  Fe  Fe8  1  0.74908863  0.50377288  0.74775526  1
  Fe  Fe9  1  0.62643446  0.12716830  0.37577303  1
  Fe  Fe10  1  0.24896669  -0.00219287  0.00123762  1
  Fe  Fe11  1  0.12498972  0.12621047  0.87653262  1
  Fe  Fe12  1  -0.00177993  0.50523551  0.24936489  1
  Fe  Fe13  1  -0.00006790  0.24997525  0.74931814  1
  Fe  Fe14  1  0.50156260  0.25178612  0.00169973  1
  Fe  Fe15  1  0.24871053  -0.00012355  0.25189702  1
  Fe  Fe16  1  0.24875278  -0.00146437  0.49752070  1
  Fe  Fe17  1  0.62449099  0.87590363  0.62498638  1
  Fe  Fe18  1  0.50012167  0.74715887  0.75050775  1
  Fe  Fe19  1  0.37293786  0.12816918  0.37724917  1
  Fe  Fe20  1  0.37440339  0.62448920  0.62453376  1
  Fe  Fe21  1  -0.00260702  0.25009674  0.00241392  1
  Fe  Fe22  1  0.87573313  0.11872557  0.12534354  1
  Fe  Fe23  1  0.87655544  0.37839492  0.62533536  1
  Fe  Fe24  1  0.74944132  0.75311013  0.50009636  1
  Fe  Fe25  1  0.75038930  0.24860275  0.74886581  1
  Fe  Fe26  1  0.75032903  0.74898172  0.74741227  1
  Fe  Fe27  1  0.25129369  0.25313609  0.00052862  1
  Fe  Fe28  1  0.75050723  0.25126759  0.00157525  1
  Fe  Fe29  1  0.50129400  0.50359262  0.75088584  1
  Fe  Fe30  1  0.37413408  0.12543525  0.12534292  1
  Fe  Fe31  1  0.12221751  0.37720132  0.62521859  1
  Fe  Fe32  1  0.87245451  0.62552648  0.87653942  1
  Fe  Fe33  1  0.62945178  0.62349474  0.12291212  1
  Fe  Fe34  1  0.11973292  0.87529724  0.12889583  1
  Fe  Fe35  1  0.87372573  0.37564934  0.37263126  1
  Fe  Fe36  1  0.25212593  0.49868194  0.25268245  1
  Fe  Fe37  1  0.12557060  0.87471573  0.62567921  1
  Fe  Fe38  1  0.50050260  0.50185246  0.25216917  1
  Fe  Fe39  1  0.25245703  0.49748393  -0.00157946  1
  Fe  Fe40  1  0.37504816  0.87609924  0.62675495  1
  Fe  Fe41  1  0.24948592  0.25315058  0.25224385  1
  Fe  Fe42  1  0.87414732  0.87832627  0.62260627  1
  Fe  Fe43  1  0.50060366  0.00015577  0.49786103  1
  Fe  Fe44  1  0.50052956  0.49935937  -0.00146986  1
  Fe  Fe45  1  0.62740461  0.12296501  0.62496948  1
  Fe  Fe46  1  0.49775678  0.75050838  0.50030087  1
  Fe  Fe47  1  0.37402308  0.62305597  0.12395977  1
  Fe  Fe48  1  0.12360957  0.87303194  0.87379296  1
  Fe  Fe49  1  0.25049729  0.75185620  0.00271489  1
  Fe  Fe50  1  0.49910441  0.00019562  -0.00137240  1
  Fe  Fe51  1  0.37464317  0.37291314  0.62617339  1
  Fe  Fe52  1  -0.00194572  0.74863454  0.00422490  1
  Fe  Fe53  1  0.25048279  0.49659100  0.49692110  1
  Fe  Fe54  1  0.50042523  0.00239275  0.75122469  1
  Fe  Fe55  1  0.62388766  0.62743224  0.37726293  1
  Fe  Fe56  1  -0.00073875  0.00019121  0.74981147  1
  Fe  Fe57  1  0.50047053  0.74904453  0.00107592  1
  Fe  Fe58  1  0.37984637  0.87600183  0.12844140  1
  Fe  Fe59  1  0.49990171  0.24689470  0.74890624  1
  Fe  Fe60  1  0.12673328  0.12641697  0.62221291  1
  Fe  Fe61  1  0.12565073  0.62560607  0.37491186  1
  Fe  Fe62  1  0.75129259  -0.00368603  -0.00249446  1
  Fe  Fe63  1  0.87417736  0.12144193  0.62175271  1
  Fe  Fe64  1  0.12409506  0.12398916  0.12534785  1
  Fe  Fe65  1  0.12242131  0.62213275  0.62305875  1
  Fe  Fe66  1  -0.00217422  0.24727607  0.25012685  1
  Fe  Fe67  1  0.25010634  0.50105965  0.75197688  1
  Fe  Fe68  1  0.87475707  0.37605398  0.87344515  1
  Fe  Fe69  1  0.62564917  0.87432881  0.87390398  1
  Fe  Fe70  1  0.00083544  0.25162963  0.49817203  1
  Fe  Fe71  1  0.12358587  0.37399836  0.87466752  1
  Fe  Fe72  1  0.87550988  0.12063180  0.37815258  1
  Fe  Fe73  1  0.50100865  0.24901912  0.24929165  1
  Fe  Fe74  1  0.37308115  0.87224974  0.87306870  1
  Fe  Fe75  1  0.50170772  0.49789549  0.49920315  1
  Fe  Fe76  1  0.50176947  0.25132759  0.50132758  1
  Fe  Fe77  1  0.74850684  0.49916662  0.50008952  1
  Fe  Fe78  1  0.37832493  0.87310112  0.37149942  1
  Fe  Fe79  1  0.62509640  0.37466162  0.87220008  1
  Fe  Fe80  1  0.12632288  0.62683228  0.87703082  1
  Fe  Fe81  1  0.37361290  0.12714423  0.87571378  1
  Fe  Fe82  1  0.87410078  0.62754511  0.37676983  1
  Fe  Fe83  1  0.25020931  0.00146526  0.74986695  1
  Fe  Fe84  1  -0.00101905  0.74738574  0.74798893  1
  Fe  Fe85  1  0.25089190  0.75086972  0.50040009  1
  Fe  Fe86  1  -0.00186164  0.50141036  0.00112311  1
  Fe  Fe87  1  0.62890588  0.37626616  0.12996504  1
  Fe  Fe88  1  0.87189556  0.37810661  0.12815496  1
  Fe  Fe89  1  0.25093137  0.74851364  0.24933119  1
  Co  Co90  1  0.37336150  0.12553261  0.62217731  1
  Co  Co91  1  0.87982217  0.87872185  0.12792011  1
  Co  Co92  1  -0.00036389  0.50259413  0.75325145  1
  Co  Co93  1  0.62162103  0.87764045  0.12585285  1
  Co  Co94  1  0.62639834  0.37322755  0.37218773  1
  Co  Co95  1  0.87800156  0.87622391  0.37540350  1
  Co  Co96  1  0.12097148  0.37614825  0.37183866  1
  Co  Co97  1  0.12635325  0.12798331  0.37551789  1
  Co  Co98  1  0.74944771  0.50392232  0.25455037  1
  Co  Co99  1  0.87642703  0.62360675  0.62250349  1
  Co  Co100  1  0.62560803  0.37473776  0.62715489  1
  Co  Co101  1  -0.00270526  0.74481730  0.24861696  1
  Co  Co102  1  0.75009257  -0.00012539  0.75119079  1
  Co  Co103  1  0.37834539  0.37261663  0.37539263  1
  Co  Co104  1  0.87687475  0.87310080  0.87344919  1
  Co  Co105  1  0.62804948  0.62619367  0.87709440  1
  Co  Co106  1  0.74975264  0.49558871  -0.00199009  1
  Co  Co107  1  0.00127785  -0.00055635  -0.00296431  1
  Co  Co108  1  0.24693516  0.25506988  0.49942762  1
  Co  Co109  1  0.12422831  0.87040818  0.37235301  1
  Co  Co110  1  0.62644199  0.12577308  0.87658108  1
  Co  Co111  1  0.74529213  -0.00293221  0.49682907  1
  Co  Co112  1  0.00533368  -0.00126735  0.49916113  1
  Co  Co113  1  0.62419528  0.62680328  0.62160951  1
  Co  Co114  1  0.37368945  0.62734721  0.87617791  1
  Co  Co115  1  0.37772262  0.37336859  0.87217565  1
  Co  Co116  1  0.50103951  0.00473436  0.25232709  1
  Co  Co117  1  0.61993404  0.87112711  0.37321790  1
  Co  Co118  1  0.50179358  0.74405769  0.24643785  1
  Co  Co119  1  0.24894226  0.74752023  0.74694695  1
  Co  Co120  1  0.86965765  0.62348159  0.12305486  1
  Co  Co121  1  0.00260221  0.00168201  0.25552787  1
  Co  Co122  1  0.75221564  0.24539903  0.24969629  1
  Co  Co123  1  0.12848864  0.62347717  0.12486649  1
  Co  Co124  1  0.37611711  0.37558633  0.12696943  1
  Co  Co125  1  0.24898447  0.25017169  0.74929393  1
  Co  Co126  1  -0.00211305  0.49980991  0.49564387  1
  Co  Co127  1  0.37521101  0.62584387  0.37622226  1
