# generated using pymatgen
data_Fe45Co19
_symmetry_space_group_name_H-M   'P 1'
_cell_length_a   11.41564327
_cell_length_b   11.41458124
_cell_length_c   11.41423624
_cell_angle_alpha   89.99912831
_cell_angle_beta   90.00334191
_cell_angle_gamma   90.00947352
_symmetry_Int_Tables_number   1
_chemical_formula_structural   Fe45Co19
_chemical_formula_sum   'Fe90 Co38'
_cell_volume   1487.32960512
_cell_formula_units_Z   2
loop_
 _symmetry_equiv_pos_site_id
 _symmetry_equiv_pos_as_xyz
  1  'x, y, z'
loop_
 _atom_site_type_symbol
 _atom_site_label
 _atom_site_symmetry_multiplicity
 _atom_site_fract_x
 _atom_site_fract_y
 _atom_site_fract_z
 _atom_site_occupancy
  Fe  Fe0  1  0.62478577  0.12761717  0.87289873  1
  Fe  Fe1  1  0.75356491  0.24838287  0.74831952  1
  Fe  Fe2  1  -0.00051509  0.24820442  0.00047105  1
  Fe  Fe3  1  0.62597187  0.37570710  0.37757336  1
  Fe  Fe4  1  0.87485844  0.37370159  0.87508674  1
  Fe  Fe5  1  0.25044539  -0.00215573  0.74982119  1
  Fe  Fe6  1  -0.00083280  0.49899315  0.74967916  1
  Fe  Fe7  1  0.62603682  0.62457119  0.12659945  1
  Fe  Fe8  1  0.37391872  0.12399051  0.37491459  1
  Fe  Fe9  1  0.37770529  0.62506877  0.37465661  1
  Fe  Fe10  1  0.49841619  0.25267571  0.75016654  1
  Fe  Fe11  1  0.74942355  0.50070367  0.25189549  1
  Fe  Fe12  1  0.25117463  0.74825636  0.00331332  1
  Fe  Fe13  1  0.37713372  0.62108871  0.87407021  1
  Fe  Fe14  1  0.12678248  0.12554444  0.87395979  1
  Fe  Fe15  1  0.25138553  0.25177865  0.75031384  1
  Fe  Fe16  1  0.75111938  0.49941232  0.74941179  1
  Fe  Fe17  1  0.87166386  0.62765767  0.37656858  1
  Fe  Fe18  1  0.62469325  0.62631355  0.87141389  1
  Fe  Fe19  1  0.87543317  0.37606752  0.37766840  1
  Fe  Fe20  1  0.25147148  0.74906654  0.75099965  1
  Fe  Fe21  1  -0.00281552  0.24857275  0.74851113  1
  Fe  Fe22  1  0.37452870  0.37701941  0.37910680  1
  Fe  Fe23  1  0.87585699  0.62420374  0.87578199  1
  Fe  Fe24  1  -0.00073610  0.24969472  0.50178613  1
  Fe  Fe25  1  0.37471452  0.62156478  0.62591230  1
  Fe  Fe26  1  0.49876657  0.74769905  0.00098424  1
  Fe  Fe27  1  0.12369003  0.87304439  0.37210412  1
  Fe  Fe28  1  0.62589637  0.87564581  0.12447656  1
  Fe  Fe29  1  0.62571897  0.37335940  0.12429386  1
  Fe  Fe30  1  0.50314400  0.74965725  0.50185871  1
  Fe  Fe31  1  0.50054047  0.00363488  0.00122059  1
  Fe  Fe32  1  -0.00055223  -0.00037462  0.75016163  1
  Fe  Fe33  1  0.12438524  0.12569449  0.37413327  1
  Fe  Fe34  1  0.25168535  0.75111810  0.24576376  1
  Fe  Fe35  1  -0.00159332  0.50186142  0.25086414  1
  Fe  Fe36  1  0.49964062  -0.00133115  0.74968685  1
  Fe  Fe37  1  0.12383347  0.37474554  0.87604914  1
  Fe  Fe38  1  0.75031975  -0.00041251  0.75167158  1
  Fe  Fe39  1  0.25050522  0.25118475  0.25091765  1
  Fe  Fe40  1  -0.00672692  0.75172895  0.24441763  1
  Fe  Fe41  1  0.12257004  0.62611650  0.87533323  1
  Fe  Fe42  1  0.49988759  0.24789036  -0.00027689  1
  Fe  Fe43  1  0.87355604  0.12030589  0.12165583  1
  Fe  Fe44  1  0.37559654  0.37556433  0.12259829  1
  Fe  Fe45  1  0.75367389  0.24943909  0.24992971  1
  Fe  Fe46  1  0.24769391  0.50126309  0.00101832  1
  Fe  Fe47  1  0.37517564  0.87489041  0.37424232  1
  Fe  Fe48  1  0.87171577  0.87842112  0.62029590  1
  Fe  Fe49  1  0.49991277  0.00079100  0.24918806  1
  Fe  Fe50  1  0.75058851  0.24771536  0.00006900  1
  Fe  Fe51  1  0.37474921  0.87458817  0.62428689  1
  Fe  Fe52  1  -0.00365994  0.75289782  0.74942812  1
  Fe  Fe53  1  0.50102942  0.49888373  0.25026367  1
  Fe  Fe54  1  0.62659267  0.62820468  0.62897084  1
  Fe  Fe55  1  0.12571578  0.37752905  0.62238683  1
  Fe  Fe56  1  0.12225524  0.37591386  0.12580021  1
  Fe  Fe57  1  0.24918230  0.74943718  0.50053584  1
  Fe  Fe58  1  0.87687501  0.12162535  0.37845114  1
  Fe  Fe59  1  -0.00027639  -0.00182222  0.24913819  1
  Fe  Fe60  1  0.24995993  0.50089563  0.25103990  1
  Fe  Fe61  1  0.50049559  0.75026107  0.24816756  1
  Fe  Fe62  1  -0.00113691  0.75170907  0.50158294  1
  Fe  Fe63  1  0.37224545  0.37920861  0.62289155  1
  Fe  Fe64  1  0.12358232  0.62781856  0.37323682  1
  Fe  Fe65  1  0.37596007  0.37757410  0.87576044  1
  Fe  Fe66  1  0.75072752  -0.00186974  0.25126326  1
  Fe  Fe67  1  0.62324143  0.87184694  0.87252507  1
  Fe  Fe68  1  0.24677230  -0.00173990  0.49917099  1
  Fe  Fe69  1  0.75095242  0.75043676  0.00116254  1
  Fe  Fe70  1  0.12535795  0.87360504  0.87656168  1
  Fe  Fe71  1  0.62738385  0.37492882  0.62345714  1
  Fe  Fe72  1  0.25056903  0.00056821  0.00273055  1
  Fe  Fe73  1  0.49924890  0.25045274  0.25006242  1
  Fe  Fe74  1  0.87582395  0.37765910  0.12420377  1
  Fe  Fe75  1  0.12301785  0.37410186  0.37560989  1
  Fe  Fe76  1  0.37570330  0.87551936  0.87667940  1
  Fe  Fe77  1  0.87592377  0.87920660  0.88064501  1
  Fe  Fe78  1  0.12312067  0.62533854  0.62590732  1
  Fe  Fe79  1  0.12731141  0.12649068  0.12660711  1
  Fe  Fe80  1  0.75229290  0.24813418  0.50019578  1
  Fe  Fe81  1  -0.00128674  0.74890281  0.00462206  1
  Fe  Fe82  1  0.62553811  0.12453174  0.62490587  1
  Fe  Fe83  1  0.62854274  0.87085130  0.37434009  1
  Fe  Fe84  1  0.74853258  0.49958577  -0.00186471  1
  Fe  Fe85  1  0.37444967  0.12438753  0.62463636  1
  Fe  Fe86  1  0.62496258  0.12741223  0.37348544  1
  Fe  Fe87  1  0.49890180  0.25028048  0.50024138  1
  Fe  Fe88  1  0.50375491  -0.00199078  0.50027813  1
  Fe  Fe89  1  0.12519957  0.12429508  0.62536533  1
  Co  Co90  1  0.74445931  0.00004628  0.49765985  1
  Co  Co91  1  0.37401812  0.12470003  0.87379453  1
  Co  Co92  1  0.75371421  0.75173450  0.24580178  1
  Co  Co93  1  0.50267963  0.50187211  0.50142739  1
  Co  Co94  1  0.62743424  0.87306456  0.62904825  1
  Co  Co95  1  0.24689611  0.50061120  0.75170509  1
  Co  Co96  1  0.62675782  0.37229670  0.87545818  1
  Co  Co97  1  0.12383125  0.62411330  0.12663964  1
  Co  Co98  1  0.75663024  0.75240236  0.75171102  1
  Co  Co99  1  0.00065402  0.50164283  0.49786448  1
  Co  Co100  1  0.12578433  0.87274453  0.62745797  1
  Co  Co101  1  0.49576817  0.74988709  0.74962448  1
  Co  Co102  1  0.00508810  -0.00239246  0.49994080  1
  Co  Co103  1  0.50348673  0.50092613  -0.00052340  1
  Co  Co104  1  0.50316952  0.49743606  0.74914585  1
  Co  Co105  1  0.12474394  0.87373557  0.12510789  1
  Co  Co106  1  0.87435012  0.87458648  0.37804967  1
  Co  Co107  1  0.37369097  0.12607526  0.12729573  1
  Co  Co108  1  0.87644559  0.62434498  0.62454850  1
  Co  Co109  1  0.87309214  0.62071778  0.12359862  1
  Co  Co110  1  0.24979953  0.25109158  -0.00066972  1
  Co  Co111  1  0.37620256  0.62313172  0.12651142  1
  Co  Co112  1  0.62535525  0.62635430  0.37220913  1
  Co  Co113  1  0.00569652  0.00267477  0.00030189  1
  Co  Co114  1  0.87505863  0.12349918  0.87653817  1
  Co  Co115  1  0.24930352  -0.00139390  0.25040507  1
  Co  Co116  1  0.87512369  0.37668187  0.62323073  1
  Co  Co117  1  0.87522215  0.12061520  0.62225197  1
  Co  Co118  1  0.24924630  0.24878105  0.49960836  1
  Co  Co119  1  0.24759415  0.50346656  0.49716741  1
  Co  Co120  1  0.74323569  0.00039243  -0.00325593  1
  Co  Co121  1  0.74853035  0.50332823  0.50070848  1
  Co  Co122  1  0.62637330  0.12643041  0.12779470  1
  Co  Co123  1  -0.00334810  0.24822140  0.24866050  1
  Co  Co124  1  0.00045452  0.49971658  -0.00100619  1
  Co  Co125  1  0.37677915  0.87581730  0.12472033  1
  Co  Co126  1  0.74775581  0.74890627  0.50135515  1
  Co  Co127  1  0.87350075  0.88072526  0.11982163  1
