# generated using pymatgen
data_Fe45Co19
_symmetry_space_group_name_H-M   'P 1'
_cell_length_a   11.41481384
_cell_length_b   11.41385065
_cell_length_c   11.41478692
_cell_angle_alpha   90.00389408
_cell_angle_beta   89.99983552
_cell_angle_gamma   89.99560866
_symmetry_Int_Tables_number   1
_chemical_formula_structural   Fe45Co19
_chemical_formula_sum   'Fe90 Co38'
_cell_volume   1487.19811174
_cell_formula_units_Z   2
loop_
 _symmetry_equiv_pos_site_id
 _symmetry_equiv_pos_as_xyz
  1  'x, y, z'
loop_
 _atom_site_type_symbol
 _atom_site_label
 _atom_site_symmetry_multiplicity
 _atom_site_fract_x
 _atom_site_fract_y
 _atom_site_fract_z
 _atom_site_occupancy
  Fe  Fe0  1  0.12659402  0.87615076  0.37612730  1
  Fe  Fe1  1  0.00185922  0.25139501  0.50207476  1
  Fe  Fe2  1  0.12521795  0.62409960  0.62659897  1
  Fe  Fe3  1  0.25018344  0.75003972  0.24840935  1
  Fe  Fe4  1  0.62249117  0.87884144  0.87634350  1
  Fe  Fe5  1  0.62730497  0.37118131  0.87754119  1
  Fe  Fe6  1  0.49867771  0.50085179  0.50066430  1
  Fe  Fe7  1  0.87406984  0.62340916  0.37425229  1
  Fe  Fe8  1  0.75016906  0.00232503  0.50005480  1
  Fe  Fe9  1  0.37378192  0.37687920  0.62710412  1
  Fe  Fe10  1  0.50128958  0.75197307  0.00205409  1
  Fe  Fe11  1  0.87179806  0.37555968  0.12135317  1
  Fe  Fe12  1  0.74679286  0.49990970  0.50020920  1
  Fe  Fe13  1  0.25098687  0.24850768  0.50155079  1
  Fe  Fe14  1  0.12303353  0.62517161  0.87718421  1
  Fe  Fe15  1  0.49832873  0.24815079  0.25032422  1
  Fe  Fe16  1  -0.00158204  0.74984689  0.25008264  1
  Fe  Fe17  1  0.00087069  0.74899985  0.49921322  1
  Fe  Fe18  1  0.37834940  0.12093037  0.87288322  1
  Fe  Fe19  1  0.37722936  0.62593028  0.87479501  1
  Fe  Fe20  1  0.50047097  0.24667761  0.00006166  1
  Fe  Fe21  1  0.25039182  0.24993231  0.75131035  1
  Fe  Fe22  1  0.00118918  0.49550442  0.74971220  1
  Fe  Fe23  1  0.62592229  0.12430066  0.37390968  1
  Fe  Fe24  1  0.50029016  0.49949862  0.24852300  1
  Fe  Fe25  1  0.25205817  0.00168001  0.00148059  1
  Fe  Fe26  1  0.62707502  0.62554246  0.12780881  1
  Fe  Fe27  1  0.74884880  0.00297259  0.00020127  1
  Fe  Fe28  1  0.37618101  0.62492684  0.62866268  1
  Fe  Fe29  1  0.37676563  0.87721735  0.12474281  1
  Fe  Fe30  1  0.74652715  0.49689251  0.74902344  1
  Fe  Fe31  1  0.00097743  0.24739767  -0.00374947  1
  Fe  Fe32  1  0.37205791  0.87899895  0.37793911  1
  Fe  Fe33  1  -0.00115269  0.00141243  0.25115197  1
  Fe  Fe34  1  0.50143266  0.25144498  0.74996836  1
  Fe  Fe35  1  0.12333417  0.87862637  0.87605491  1
  Fe  Fe36  1  -0.00033956  0.75204480  0.75118261  1
  Fe  Fe37  1  0.62265845  0.12320466  0.12635418  1
  Fe  Fe38  1  0.87620113  0.12618575  0.12586474  1
  Fe  Fe39  1  0.87378097  0.37368098  0.37763948  1
  Fe  Fe40  1  0.25061453  0.75248626  0.75084011  1
  Fe  Fe41  1  0.37406139  0.62444775  0.37221586  1
  Fe  Fe42  1  0.87340750  0.87640721  0.37465913  1
  Fe  Fe43  1  0.37573833  0.37420957  0.12402139  1
  Fe  Fe44  1  0.25446698  -0.00331902  0.74562301  1
  Fe  Fe45  1  0.50304005  0.50041144  0.00011361  1
  Fe  Fe46  1  0.87088952  0.37239169  0.87599014  1
  Fe  Fe47  1  0.50276316  0.75195420  0.49874605  1
  Fe  Fe48  1  0.87327864  0.87587411  0.12437938  1
  Fe  Fe49  1  0.12542738  0.12433362  0.37423157  1
  Fe  Fe50  1  0.25142673  0.50152082  0.00088387  1
  Fe  Fe51  1  0.12250064  0.87709280  0.12354473  1
  Fe  Fe52  1  -0.00078102  0.25109723  0.25129802  1
  Fe  Fe53  1  0.00311093  0.49944623  0.50037763  1
  Fe  Fe54  1  0.87690093  0.12782140  0.62679382  1
  Fe  Fe55  1  0.62366939  0.62609703  0.62610779  1
  Fe  Fe56  1  0.49907534  0.75661727  0.74821700  1
  Fe  Fe57  1  0.74956472  0.00005508  0.74968469  1
  Fe  Fe58  1  0.25182383  0.24673749  -0.00223353  1
  Fe  Fe59  1  0.12697413  0.37474665  0.87603261  1
  Fe  Fe60  1  0.87409589  0.12758397  0.87201723  1
  Fe  Fe61  1  0.74852012  0.74829758  0.49816013  1
  Fe  Fe62  1  0.87440302  0.87378599  0.62405229  1
  Fe  Fe63  1  0.00071884  0.00039466  0.50146536  1
  Fe  Fe64  1  0.62389410  0.37457367  0.37456796  1
  Fe  Fe65  1  0.75031207  0.25056952  0.24947476  1
  Fe  Fe66  1  0.87694449  0.87680259  0.87722214  1
  Fe  Fe67  1  0.37276548  0.37701691  0.37405986  1
  Fe  Fe68  1  0.12323233  0.62417392  0.12460061  1
  Fe  Fe69  1  0.37327895  0.11954228  0.37583888  1
  Fe  Fe70  1  0.49812938  0.24867874  0.49967206  1
  Fe  Fe71  1  0.62794906  0.87735155  0.37224321  1
  Fe  Fe72  1  0.87426053  0.62384304  0.62585609  1
  Fe  Fe73  1  0.12632588  0.37338373  0.12368022  1
  Fe  Fe74  1  0.24988937  0.75022661  0.00073099  1
  Fe  Fe75  1  0.50100099  0.75255842  0.25035904  1
  Fe  Fe76  1  0.62130239  0.12337848  0.62742511  1
  Fe  Fe77  1  0.12555662  0.12552778  0.12474989  1
  Fe  Fe78  1  0.24798183  0.74689272  0.50006953  1
  Fe  Fe79  1  0.74890489  0.25004665  0.50290375  1
  Fe  Fe80  1  0.12897995  0.37710291  0.37550757  1
  Fe  Fe81  1  0.37640947  0.37712424  0.87510204  1
  Fe  Fe82  1  0.62346451  0.62697147  0.87304940  1
  Fe  Fe83  1  0.25157435  0.24867172  0.24995561  1
  Fe  Fe84  1  0.75038790  0.75168077  0.75156570  1
  Fe  Fe85  1  0.75022064  0.74944333  -0.00056100  1
  Fe  Fe86  1  0.00031906  0.49815219  0.25007691  1
  Fe  Fe87  1  0.87621295  0.62240469  0.87577341  1
  Fe  Fe88  1  0.12356363  0.12565578  0.62989022  1
  Fe  Fe89  1  0.87370517  0.62237908  0.12326023  1
  Co  Co90  1  0.49962566  0.00098108  0.00215313  1
  Co  Co91  1  0.62732024  0.87624288  0.12594633  1
  Co  Co92  1  0.74701061  0.25078114  0.74619172  1
  Co  Co93  1  0.37328427  0.87289721  0.61769096  1
  Co  Co94  1  0.49718859  -0.00598252  0.74548274  1
  Co  Co95  1  0.49912951  -0.00057866  0.25127998  1
  Co  Co96  1  0.00009751  0.49713086  -0.00089947  1
  Co  Co97  1  0.74993221  0.49764913  0.25129286  1
  Co  Co98  1  0.37785432  0.12656245  0.62600529  1
  Co  Co99  1  0.62459744  0.37340394  0.12509827  1
  Co  Co100  1  0.87493079  0.37496048  0.62395815  1
  Co  Co101  1  -0.00250344  -0.00173235  0.74908812  1
  Co  Co102  1  0.00164372  0.25379578  0.75237060  1
  Co  Co103  1  0.37701327  0.62582701  0.12391662  1
  Co  Co104  1  0.24739256  0.00305278  0.50506163  1
  Co  Co105  1  -0.00135729  0.00399359  -0.00024729  1
  Co  Co106  1  0.75196067  0.00328048  0.24947702  1
  Co  Co107  1  0.37547986  0.87503800  0.87850666  1
  Co  Co108  1  -0.00164167  0.75059336  -0.00020102  1
  Co  Co109  1  0.62383963  0.62414354  0.37281011  1
  Co  Co110  1  0.74600847  0.50162474  -0.00202421  1
  Co  Co111  1  0.12406583  0.87339163  0.62480720  1
  Co  Co112  1  0.75152244  0.74874199  0.25042172  1
  Co  Co113  1  0.24955463  -0.00021195  0.24796011  1
  Co  Co114  1  0.37511173  0.12533387  0.12567653  1
  Co  Co115  1  0.25220825  0.50297069  0.50100356  1
  Co  Co116  1  0.12935598  0.37488392  0.62469773  1
  Co  Co117  1  0.12696298  0.12048489  0.87158805  1
  Co  Co118  1  0.87539190  0.12731636  0.37679644  1
  Co  Co119  1  0.25077595  0.50077581  0.24665301  1
  Co  Co120  1  0.50329241  0.49773312  0.75145680  1
  Co  Co121  1  0.12596496  0.62462995  0.37214285  1
  Co  Co122  1  0.62195324  0.37434737  0.62198537  1
  Co  Co123  1  0.74778534  0.24510183  0.00198088  1
  Co  Co124  1  0.62232275  0.12300029  0.87169143  1
  Co  Co125  1  0.62885481  0.87457821  0.62417855  1
  Co  Co126  1  0.50202889  -0.00094252  0.50042771  1
  Co  Co127  1  0.24966699  0.50126089  0.75261509  1
