# generated using pymatgen
data_Fe45Co19
_symmetry_space_group_name_H-M   'P 1'
_cell_length_a   11.41601119
_cell_length_b   11.41572101
_cell_length_c   11.41545696
_cell_angle_alpha   89.98631637
_cell_angle_beta   90.00097253
_cell_angle_gamma   89.99823535
_symmetry_Int_Tables_number   1
_chemical_formula_structural   Fe45Co19
_chemical_formula_sum   'Fe90 Co38'
_cell_volume   1487.68512397
_cell_formula_units_Z   2
loop_
 _symmetry_equiv_pos_site_id
 _symmetry_equiv_pos_as_xyz
  1  'x, y, z'
loop_
 _atom_site_type_symbol
 _atom_site_label
 _atom_site_symmetry_multiplicity
 _atom_site_fract_x
 _atom_site_fract_y
 _atom_site_fract_z
 _atom_site_occupancy
  Fe  Fe0  1  0.25033134  0.50061974  0.74910889  1
  Fe  Fe1  1  -0.00036250  0.24638586  0.49806108  1
  Fe  Fe2  1  0.75353284  0.75446794  0.74525664  1
  Fe  Fe3  1  0.00121113  0.00344372  0.49453179  1
  Fe  Fe4  1  0.12429790  0.37345653  0.62548533  1
  Fe  Fe5  1  -0.00055219  0.50137410  0.00023070  1
  Fe  Fe6  1  0.25095453  -0.00060375  0.50123694  1
  Fe  Fe7  1  0.62581615  0.87368841  0.37459644  1
  Fe  Fe8  1  0.37183863  0.62620085  0.87738430  1
  Fe  Fe9  1  0.12970037  0.37499086  0.87715703  1
  Fe  Fe10  1  0.75142278  0.24969029  0.74881194  1
  Fe  Fe11  1  0.37634722  0.62442060  0.61947091  1
  Fe  Fe12  1  0.24818288  0.75237503  0.00389513  1
  Fe  Fe13  1  0.00075886  0.00131163  -0.00572199  1
  Fe  Fe14  1  0.00001980  0.74957850  0.49960753  1
  Fe  Fe15  1  0.37512168  0.37658823  0.12077651  1
  Fe  Fe16  1  0.12415081  0.37457723  0.12411815  1
  Fe  Fe17  1  0.75006029  0.75315613  0.50411492  1
  Fe  Fe18  1  0.87380205  0.37370477  0.37474589  1
  Fe  Fe19  1  0.25084587  0.50145994  0.24838623  1
  Fe  Fe20  1  0.74789985  0.49889796  0.50249751  1
  Fe  Fe21  1  0.87616737  0.12051866  0.62699607  1
  Fe  Fe22  1  0.87728126  0.37617533  0.62448891  1
  Fe  Fe23  1  0.25339997  0.25009641  0.75219219  1
  Fe  Fe24  1  0.62234044  0.87305398  0.86819737  1
  Fe  Fe25  1  0.25130934  0.25069249  0.50150253  1
  Fe  Fe26  1  0.00133185  0.24798846  -0.00273945  1
  Fe  Fe27  1  0.12679450  0.37190700  0.37401336  1
  Fe  Fe28  1  0.38092885  0.87330788  0.62570765  1
  Fe  Fe29  1  0.37192967  0.87298023  0.37531129  1
  Fe  Fe30  1  0.75087802  0.49958386  0.00056739  1
  Fe  Fe31  1  0.25342821  0.24644892  0.24358822  1
  Fe  Fe32  1  0.87172952  0.62581844  0.37556113  1
  Fe  Fe33  1  0.25178850  0.75051692  0.74736875  1
  Fe  Fe34  1  0.37717276  0.12533822  0.62429798  1
  Fe  Fe35  1  0.87730758  0.12175518  0.12468078  1
  Fe  Fe36  1  0.13213680  0.62906161  0.37373189  1
  Fe  Fe37  1  0.12546254  0.12390203  0.62630998  1
  Fe  Fe38  1  -0.00235695  0.75056269  0.74785960  1
  Fe  Fe39  1  0.50185107  0.50173822  0.75439287  1
  Fe  Fe40  1  0.50100850  0.75113908  -0.00317019  1
  Fe  Fe41  1  0.37549244  0.12540443  0.37324632  1
  Fe  Fe42  1  0.74765785  -0.00109814  0.50251000  1
  Fe  Fe43  1  0.74996100  0.49895297  0.24784412  1
  Fe  Fe44  1  0.00027474  0.24744342  0.75303579  1
  Fe  Fe45  1  0.74935025  0.24841379  0.50256596  1
  Fe  Fe46  1  0.37573004  0.62507787  0.12345513  1
  Fe  Fe47  1  0.12166374  0.87800182  0.62525370  1
  Fe  Fe48  1  0.62352699  0.12666094  0.37234060  1
  Fe  Fe49  1  0.50062615  -0.00001202  0.49788704  1
  Fe  Fe50  1  0.87244145  0.62747945  0.87387797  1
  Fe  Fe51  1  0.49895895  0.50062629  0.25207151  1
  Fe  Fe52  1  0.62016341  0.37158645  0.62742783  1
  Fe  Fe53  1  0.37583421  0.37559813  0.37698003  1
  Fe  Fe54  1  0.00069033  0.50254460  0.25041219  1
  Fe  Fe55  1  0.37870877  0.87966475  0.12108912  1
  Fe  Fe56  1  0.75007254  -0.00107405  0.24831256  1
  Fe  Fe57  1  -0.00048311  0.24536890  0.25252915  1
  Fe  Fe58  1  0.37896734  0.37575357  0.62481112  1
  Fe  Fe59  1  0.87267092  0.37341746  0.87650880  1
  Fe  Fe60  1  0.74975260  0.25003411  0.24679541  1
  Fe  Fe61  1  0.74894364  0.49972765  0.75019179  1
  Fe  Fe62  1  0.12630728  0.87404582  0.87308859  1
  Fe  Fe63  1  0.12652269  0.62654112  0.87631093  1
  Fe  Fe64  1  0.12519977  0.62475622  0.62392770  1
  Fe  Fe65  1  0.50260629  0.50079914  -0.00481486  1
  Fe  Fe66  1  0.75006545  0.24904190  0.00292447  1
  Fe  Fe67  1  0.11847593  0.87685161  0.12918909  1
  Fe  Fe68  1  0.12750923  0.87415198  0.37232991  1
  Fe  Fe69  1  0.37106974  0.11967026  0.88157334  1
  Fe  Fe70  1  0.62148340  0.12277593  0.62893432  1
  Fe  Fe71  1  0.87457212  0.87475116  0.37283661  1
  Fe  Fe72  1  0.62271269  0.87508607  0.12721692  1
  Fe  Fe73  1  0.62430474  0.62636518  0.12448254  1
  Fe  Fe74  1  -0.00096782  0.74983241  0.00189077  1
  Fe  Fe75  1  0.00213798  0.50087318  0.49807581  1
  Fe  Fe76  1  0.25053244  0.00209165  0.24524445  1
  Fe  Fe77  1  0.87397456  0.62746510  0.12652837  1
  Fe  Fe78  1  0.75048333  0.75398181  0.00165227  1
  Fe  Fe79  1  0.62443728  0.37233910  0.37490752  1
  Fe  Fe80  1  0.49770769  0.75013448  0.25210057  1
  Fe  Fe81  1  0.74892851  -0.00220320  -0.00145345  1
  Fe  Fe82  1  0.62302728  0.62855362  0.62541208  1
  Fe  Fe83  1  0.62683558  0.12551800  0.87243432  1
  Fe  Fe84  1  0.62545845  0.62642395  0.37432522  1
  Fe  Fe85  1  0.25157725  -0.00203506  0.74971080  1
  Fe  Fe86  1  0.49855492  0.25066946  -0.00264947  1
  Fe  Fe87  1  -0.00011349  0.50025250  0.75214007  1
  Fe  Fe88  1  0.62319790  0.37564452  0.12351332  1
  Fe  Fe89  1  0.61858214  0.12292728  0.12716573  1
  Co  Co90  1  0.24797805  0.50203147  0.00143678  1
  Co  Co91  1  0.13259792  0.12584765  0.37530405  1
  Co  Co92  1  0.49587692  0.74613482  0.75273280  1
  Co  Co93  1  0.62736609  0.37266465  0.87511547  1
  Co  Co94  1  0.49758722  0.25254595  0.24831338  1
  Co  Co95  1  0.38144213  0.11951062  0.12133244  1
  Co  Co96  1  0.24748208  0.49700074  0.50098547  1
  Co  Co97  1  0.50032165  0.75104044  0.49622212  1
  Co  Co98  1  0.87610720  0.87405178  0.87517212  1
  Co  Co99  1  0.87524411  0.62314662  0.62459474  1
  Co  Co100  1  0.50045847  0.24807583  0.49889336  1
  Co  Co101  1  0.62993663  0.62910674  0.87472975  1
  Co  Co102  1  0.25105639  0.24735729  0.00372877  1
  Co  Co103  1  -0.00083854  0.74722391  0.25124546  1
  Co  Co104  1  0.49565580  0.24801254  0.75594144  1
  Co  Co105  1  0.87855410  0.87842392  0.12682894  1
  Co  Co106  1  0.61817517  0.87607503  0.62857263  1
  Co  Co107  1  0.12552925  0.62486281  0.12513035  1
  Co  Co108  1  0.13077881  0.12454100  0.87328038  1
  Co  Co109  1  0.50636402  -0.00255072  -0.00571193  1
  Co  Co110  1  0.12118390  0.12461463  0.12469298  1
  Co  Co111  1  0.88013957  0.88039343  0.62260829  1
  Co  Co112  1  -0.00022795  0.00436950  0.25618685  1
  Co  Co113  1  0.24909798  0.75290794  0.50464873  1
  Co  Co114  1  0.75119557  -0.00368051  0.75015912  1
  Co  Co115  1  0.50280179  0.50034759  0.49853866  1
  Co  Co116  1  0.86857618  0.12567834  0.37453324  1
  Co  Co117  1  0.87101843  0.12537434  0.87539121  1
  Co  Co118  1  0.37206949  0.37793303  0.87701295  1
  Co  Co119  1  0.74968600  0.75143351  0.24787702  1
  Co  Co120  1  0.37077250  0.62625462  0.37741109  1
  Co  Co121  1  0.49921274  -0.00359745  0.25410406  1
  Co  Co122  1  0.87833347  0.37350240  0.12604425  1
  Co  Co123  1  0.24385573  -0.00225045  0.00430850  1
  Co  Co124  1  0.37251193  0.87542880  0.87741432  1
  Co  Co125  1  0.49576507  0.00244677  0.75353262  1
  Co  Co126  1  0.25285716  0.75255619  0.24330729  1
  Co  Co127  1  0.00001929  0.00193648  0.75562594  1
