# generated using pymatgen
data_Fe45Co19
_symmetry_space_group_name_H-M   'P 1'
_cell_length_a   11.41494064
_cell_length_b   11.41430512
_cell_length_c   11.41411137
_cell_angle_alpha   89.99900087
_cell_angle_beta   89.99996673
_cell_angle_gamma   89.99769699
_symmetry_Int_Tables_number   1
_chemical_formula_structural   Fe45Co19
_chemical_formula_sum   'Fe90 Co38'
_cell_volume   1487.18583506
_cell_formula_units_Z   2
loop_
 _symmetry_equiv_pos_site_id
 _symmetry_equiv_pos_as_xyz
  1  'x, y, z'
loop_
 _atom_site_type_symbol
 _atom_site_label
 _atom_site_symmetry_multiplicity
 _atom_site_fract_x
 _atom_site_fract_y
 _atom_site_fract_z
 _atom_site_occupancy
  Fe  Fe0  1  0.87397679  0.87346834  0.12369129  1
  Fe  Fe1  1  0.24945531  -0.00328067  0.49817467  1
  Fe  Fe2  1  0.87643015  0.37337897  0.37596221  1
  Fe  Fe3  1  0.37495715  0.87350512  0.87514222  1
  Fe  Fe4  1  0.37454855  0.12435746  0.37354297  1
  Fe  Fe5  1  -0.00059941  0.74960965  0.25099937  1
  Fe  Fe6  1  0.62655199  0.87342132  0.37541315  1
  Fe  Fe7  1  0.75050126  0.00135049  0.25196456  1
  Fe  Fe8  1  0.49664353  0.74916142  0.49951541  1
  Fe  Fe9  1  0.25040751  0.75024662  0.25141684  1
  Fe  Fe10  1  0.37325042  0.62297722  0.37519192  1
  Fe  Fe11  1  0.74954727  0.50068244  0.25147411  1
  Fe  Fe12  1  0.12387887  0.87520886  0.12599885  1
  Fe  Fe13  1  0.62450359  0.12645830  0.37614387  1
  Fe  Fe14  1  0.00262872  0.49995009  0.74958373  1
  Fe  Fe15  1  0.87371953  0.87319894  0.62493732  1
  Fe  Fe16  1  0.75033956  0.25160956  0.74781752  1
  Fe  Fe17  1  0.37732724  0.87552260  0.12642868  1
  Fe  Fe18  1  -0.00256262  -0.00042751  0.25049678  1
  Fe  Fe19  1  0.62267813  0.12533269  0.12621212  1
  Fe  Fe20  1  0.24938999  0.49824286  0.74903785  1
  Fe  Fe21  1  0.49992936  0.74830836  0.25071892  1
  Fe  Fe22  1  0.87482024  0.87456759  0.87347045  1
  Fe  Fe23  1  0.37368625  0.37391755  0.87486762  1
  Fe  Fe24  1  0.62662962  0.87234019  0.62432716  1
  Fe  Fe25  1  0.12630572  0.12642592  0.37300464  1
  Fe  Fe26  1  0.75124381  0.24995383  0.25117101  1
  Fe  Fe27  1  0.25079859  0.49621972  0.50160885  1
  Fe  Fe28  1  0.12840717  0.12783345  0.62316033  1
  Fe  Fe29  1  0.49941401  -0.00120554  0.50053145  1
  Fe  Fe30  1  0.25080108  -0.00016842  0.24989894  1
  Fe  Fe31  1  0.62534962  0.62520107  0.12416910  1
  Fe  Fe32  1  0.00099127  0.00032875  0.49946833  1
  Fe  Fe33  1  0.62533530  0.62512499  0.37753575  1
  Fe  Fe34  1  0.87350741  0.12667406  0.62061855  1
  Fe  Fe35  1  0.87521737  0.62415216  0.12556939  1
  Fe  Fe36  1  0.74942997  0.50321111  0.74562012  1
  Fe  Fe37  1  0.25085970  0.24853314  0.00602564  1
  Fe  Fe38  1  0.62576176  0.37667323  0.87294758  1
  Fe  Fe39  1  0.12397458  0.37481494  0.87820357  1
  Fe  Fe40  1  0.87695815  0.12563742  0.87673240  1
  Fe  Fe41  1  0.62422247  0.87510481  0.87356031  1
  Fe  Fe42  1  0.62509307  0.37574070  0.12640551  1
  Fe  Fe43  1  0.87883156  0.37497540  0.62189795  1
  Fe  Fe44  1  0.49859676  0.50158122  0.74808031  1
  Fe  Fe45  1  0.87717746  0.12575792  0.12325399  1
  Fe  Fe46  1  0.00206514  0.75124618  0.50039496  1
  Fe  Fe47  1  0.50062185  -0.00069129  -0.00028028  1
  Fe  Fe48  1  0.00096832  0.00138967  0.74893790  1
  Fe  Fe49  1  0.87540981  0.62430244  0.87371680  1
  Fe  Fe50  1  0.87385813  0.87437196  0.37608989  1
  Fe  Fe51  1  0.24854089  0.74905847  0.74866945  1
  Fe  Fe52  1  0.74959838  0.00010508  0.74837717  1
  Fe  Fe53  1  0.37415237  0.62731659  0.87580067  1
  Fe  Fe54  1  0.87629716  0.37554822  0.87594854  1
  Fe  Fe55  1  0.49481992  0.25236132  0.24832522  1
  Fe  Fe56  1  0.24994082  0.00090142  0.75107085  1
  Fe  Fe57  1  0.12247543  0.12533007  0.87950559  1
  Fe  Fe58  1  0.12554160  0.62431388  0.62331349  1
  Fe  Fe59  1  0.75001395  0.00111895  -0.00030747  1
  Fe  Fe60  1  0.24833137  0.50239388  -0.00037046  1
  Fe  Fe61  1  0.49814099  0.25204519  0.00219698  1
  Fe  Fe62  1  0.62422307  0.12475366  0.87343191  1
  Fe  Fe63  1  0.12835703  0.37203145  0.37427335  1
  Fe  Fe64  1  0.75086998  0.50024443  0.50205286  1
  Fe  Fe65  1  0.00182355  0.74886696  0.74928332  1
  Fe  Fe66  1  0.62575298  0.12649971  0.62349190  1
  Fe  Fe67  1  0.00153206  0.25110169  0.24702044  1
  Fe  Fe68  1  0.37606685  0.12495712  0.87512177  1
  Fe  Fe69  1  0.75074423  0.25097954  -0.00001453  1
  Fe  Fe70  1  0.74817718  0.74874817  -0.00224543  1
  Fe  Fe71  1  0.37246665  0.12727670  0.62618794  1
  Fe  Fe72  1  0.62480539  0.87442670  0.12674752  1
  Fe  Fe73  1  0.00229442  0.74829054  -0.00168882  1
  Fe  Fe74  1  0.00181216  0.49862177  0.25049828  1
  Fe  Fe75  1  0.12584751  0.62639792  0.37696582  1
  Fe  Fe76  1  0.12557936  0.87404615  0.87480191  1
  Fe  Fe77  1  0.12453309  0.62424631  0.12467283  1
  Fe  Fe78  1  0.49616733  0.25363707  0.50063406  1
  Fe  Fe79  1  0.75121684  0.49934222  0.00048372  1
  Fe  Fe80  1  0.37484457  0.62328294  0.12641078  1
  Fe  Fe81  1  0.00221368  0.24980052  0.74882977  1
  Fe  Fe82  1  0.49962590  0.50011625  0.00012902  1
  Fe  Fe83  1  0.62291706  0.37540581  0.37571460  1
  Fe  Fe84  1  0.50087318  0.74796503  0.75068569  1
  Fe  Fe85  1  0.24943636  -0.00080204  0.00118731  1
  Fe  Fe86  1  0.49629443  0.49780573  0.50303643  1
  Fe  Fe87  1  0.37297739  0.87357246  0.62451356  1
  Fe  Fe88  1  0.87569381  0.62509906  0.37656282  1
  Fe  Fe89  1  0.49980823  0.25029703  0.74965019  1
  Co  Co90  1  0.24671886  0.24939388  0.75404119  1
  Co  Co91  1  0.50223337  -0.00105952  0.25338913  1
  Co  Co92  1  0.37283641  0.37147798  0.62958965  1
  Co  Co93  1  0.12205280  0.12199372  0.12531091  1
  Co  Co94  1  0.37311585  0.38111428  0.12738458  1
  Co  Co95  1  0.75252977  0.74757289  0.50038081  1
  Co  Co96  1  0.37515580  0.87486005  0.37394822  1
  Co  Co97  1  0.49898194  -0.00028447  0.74758818  1
  Co  Co98  1  0.25242422  0.24849915  0.24500045  1
  Co  Co99  1  -0.00051537  0.50138764  0.00025117  1
  Co  Co100  1  0.62335015  0.62621596  0.62306503  1
  Co  Co101  1  0.62373272  0.37542309  0.62535712  1
  Co  Co102  1  0.74915393  0.00016213  0.49858147  1
  Co  Co103  1  0.00255578  0.24879643  0.49938309  1
  Co  Co104  1  0.12728426  0.37834334  0.12407409  1
  Co  Co105  1  -0.00023393  -0.00350527  -0.00091698  1
  Co  Co106  1  0.62440744  0.62225024  0.87512617  1
  Co  Co107  1  0.87880181  0.62575630  0.62386130  1
  Co  Co108  1  0.50299214  0.50203479  0.25019174  1
  Co  Co109  1  0.12594732  0.87554938  0.62583783  1
  Co  Co110  1  0.00246516  0.49892144  0.49771368  1
  Co  Co111  1  0.12540045  0.37321877  0.62410443  1
  Co  Co112  1  0.24939728  0.75015915  0.00270142  1
  Co  Co113  1  0.37393784  0.37827949  0.36994840  1
  Co  Co114  1  0.00004996  0.25371973  0.00338811  1
  Co  Co115  1  0.24843687  0.75207259  0.49810392  1
  Co  Co116  1  0.74851736  0.74717595  0.75065808  1
  Co  Co117  1  0.25345345  0.25271859  0.49715782  1
  Co  Co118  1  0.50034032  0.74959862  0.00050711  1
  Co  Co119  1  0.37795962  0.12057243  0.12592498  1
  Co  Co120  1  0.74969089  0.74856730  0.25075993  1
  Co  Co121  1  0.87421558  0.37669052  0.12656594  1
  Co  Co122  1  0.12369165  0.87552494  0.37303541  1
  Co  Co123  1  0.74943857  0.25286803  0.49931084  1
  Co  Co124  1  0.24602481  0.50149834  0.25180407  1
  Co  Co125  1  0.87609933  0.12708198  0.37645096  1
  Co  Co126  1  0.37232821  0.62631817  0.62454082  1
  Co  Co127  1  0.12638107  0.62523073  0.87405721  1
