# generated using pymatgen
data_Fe45Co19
_symmetry_space_group_name_H-M   'P 1'
_cell_length_a   11.41551594
_cell_length_b   11.41453501
_cell_length_c   11.41416146
_cell_angle_alpha   89.99744912
_cell_angle_beta   89.99711453
_cell_angle_gamma   89.99066009
_symmetry_Int_Tables_number   1
_chemical_formula_structural   Fe45Co19
_chemical_formula_sum   'Fe90 Co38'
_cell_volume   1487.29724780
_cell_formula_units_Z   2
loop_
 _symmetry_equiv_pos_site_id
 _symmetry_equiv_pos_as_xyz
  1  'x, y, z'
loop_
 _atom_site_type_symbol
 _atom_site_label
 _atom_site_symmetry_multiplicity
 _atom_site_fract_x
 _atom_site_fract_y
 _atom_site_fract_z
 _atom_site_occupancy
  Fe  Fe0  1  0.37623442  0.87089130  0.12233370  1
  Fe  Fe1  1  0.74764565  -0.00540928  -0.00389874  1
  Fe  Fe2  1  0.75117173  0.74960062  0.24950540  1
  Fe  Fe3  1  0.75102592  0.24712585  0.75113196  1
  Fe  Fe4  1  0.37535534  0.37433564  0.12354085  1
  Fe  Fe5  1  0.00055865  -0.00214593  0.24978695  1
  Fe  Fe6  1  0.87912855  0.12113622  0.87878975  1
  Fe  Fe7  1  0.50125298  0.25165797  0.50272131  1
  Fe  Fe8  1  0.24972720  0.24855831  0.24831864  1
  Fe  Fe9  1  -0.00027026  0.50326713  0.24780816  1
  Fe  Fe10  1  0.50080046  -0.00033632  0.24740209  1
  Fe  Fe11  1  0.12378172  0.62883481  0.37266784  1
  Fe  Fe12  1  0.49333603  0.75471520  0.75312992  1
  Fe  Fe13  1  0.49904995  0.49839000  0.75053866  1
  Fe  Fe14  1  0.75040680  0.24873351  -0.00150572  1
  Fe  Fe15  1  0.62536826  0.12373673  0.37476025  1
  Fe  Fe16  1  0.87516686  0.37469606  0.62708332  1
  Fe  Fe17  1  0.24942164  0.50314739  0.24777200  1
  Fe  Fe18  1  0.12311293  0.12545718  0.62314207  1
  Fe  Fe19  1  -0.00078619  0.24922183  0.75209741  1
  Fe  Fe20  1  0.24863692  0.25083893  0.50007460  1
  Fe  Fe21  1  0.25190025  0.24940681  0.75229949  1
  Fe  Fe22  1  0.12459493  0.37453844  0.37419684  1
  Fe  Fe23  1  0.25296064  -0.00125543  0.75206478  1
  Fe  Fe24  1  0.87519640  0.87567024  0.37543346  1
  Fe  Fe25  1  0.24932218  0.50106952  -0.00020079  1
  Fe  Fe26  1  0.24986625  -0.00100522  0.24910426  1
  Fe  Fe27  1  0.24926591  0.75068006  0.49956356  1
  Fe  Fe28  1  0.12234917  0.12663000  0.12289637  1
  Fe  Fe29  1  0.75197821  0.50333728  -0.00241055  1
  Fe  Fe30  1  0.87837429  0.12364224  0.62292595  1
  Fe  Fe31  1  0.12118788  0.12349404  0.37634976  1
  Fe  Fe32  1  0.12428653  0.37395727  0.87569764  1
  Fe  Fe33  1  0.62567602  0.62510541  0.37616849  1
  Fe  Fe34  1  -0.00373134  0.74815910  -0.00235009  1
  Fe  Fe35  1  0.61964956  0.12433509  0.87291457  1
  Fe  Fe36  1  0.50118581  -0.00117655  0.50100141  1
  Fe  Fe37  1  0.50114316  0.50335336  0.24848249  1
  Fe  Fe38  1  0.62787178  0.62950205  0.12346116  1
  Fe  Fe39  1  -0.00208210  0.50244784  -0.00151145  1
  Fe  Fe40  1  0.87464492  0.37658989  0.37415681  1
  Fe  Fe41  1  0.12465405  0.12554373  0.87855429  1
  Fe  Fe42  1  -0.00252538  0.24945485  0.24904408  1
  Fe  Fe43  1  0.37643441  0.12543588  0.37504490  1
  Fe  Fe44  1  0.87343493  0.37717302  0.12344510  1
  Fe  Fe45  1  0.12431388  0.37520242  0.12326185  1
  Fe  Fe46  1  0.62487109  0.87692808  0.63107549  1
  Fe  Fe47  1  0.62631457  0.37395136  0.87365809  1
  Fe  Fe48  1  0.37640913  0.12349409  0.62627772  1
  Fe  Fe49  1  0.12314107  0.87411936  0.87365252  1
  Fe  Fe50  1  0.87647670  0.62573033  0.62704974  1
  Fe  Fe51  1  0.37537586  0.62452700  0.37649525  1
  Fe  Fe52  1  0.37265295  0.62473352  0.62781688  1
  Fe  Fe53  1  0.50234380  0.24880169  0.24627626  1
  Fe  Fe54  1  0.62373388  0.37710116  0.37625286  1
  Fe  Fe55  1  0.62259099  0.62609620  0.62720242  1
  Fe  Fe56  1  0.00031846  0.49992836  0.75085385  1
  Fe  Fe57  1  0.00217035  0.49929600  0.50181960  1
  Fe  Fe58  1  0.12859425  0.62559520  0.62911941  1
  Fe  Fe59  1  0.87454354  0.62478812  0.37518152  1
  Fe  Fe60  1  0.87605152  0.87655512  0.63271478  1
  Fe  Fe61  1  0.37413718  0.37634804  0.62467149  1
  Fe  Fe62  1  0.75090632  -0.00053905  0.50242467  1
  Fe  Fe63  1  0.74866949  0.50072021  0.50218349  1
  Fe  Fe64  1  0.62238471  0.12352413  0.62873724  1
  Fe  Fe65  1  0.50426299  -0.00375214  -0.00130829  1
  Fe  Fe66  1  0.75084423  0.24907985  0.49961954  1
  Fe  Fe67  1  0.74979209  0.24854955  0.24995541  1
  Fe  Fe68  1  0.37612565  0.12550227  0.12037234  1
  Fe  Fe69  1  0.37605658  0.37343060  0.87794115  1
  Fe  Fe70  1  0.50081069  0.50249730  -0.00120099  1
  Fe  Fe71  1  0.74900831  0.00007376  0.24922115  1
  Fe  Fe72  1  0.24886434  -0.00023655  0.49852606  1
  Fe  Fe73  1  -0.00005689  0.75251642  0.50158989  1
  Fe  Fe74  1  0.87415479  0.87409581  0.12337557  1
  Fe  Fe75  1  0.12502155  0.86824349  0.12748109  1
  Fe  Fe76  1  0.75015117  0.75148353  0.50390249  1
  Fe  Fe77  1  0.12890132  0.62543167  0.87244640  1
  Fe  Fe78  1  0.62573086  0.62913103  0.87401513  1
  Fe  Fe79  1  0.87485040  0.12250189  0.12237786  1
  Fe  Fe80  1  0.37484428  0.87466626  0.37494004  1
  Fe  Fe81  1  0.37620478  0.37574158  0.37407260  1
  Fe  Fe82  1  0.62468426  0.87464648  0.37356395  1
  Fe  Fe83  1  0.50041320  0.75051415  0.50054431  1
  Fe  Fe84  1  0.12569989  0.87554399  0.62653777  1
  Fe  Fe85  1  0.37466558  0.62964286  0.12054272  1
  Fe  Fe86  1  0.62636414  0.37551960  0.12278637  1
  Fe  Fe87  1  0.24676950  -0.00073840  0.00118640  1
  Fe  Fe88  1  0.74986684  0.50172261  0.74957578  1
  Fe  Fe89  1  0.24800724  0.49930778  0.50094233  1
  Co  Co90  1  0.62489865  0.87125363  0.12691017  1
  Co  Co91  1  0.62830499  0.87347762  0.86789426  1
  Co  Co92  1  0.75185530  0.00476007  0.75232628  1
  Co  Co93  1  0.49998438  0.50064407  0.50221195  1
  Co  Co94  1  0.87370017  0.62690792  0.87176792  1
  Co  Co95  1  0.74744447  0.50067674  0.25013938  1
  Co  Co96  1  0.00251611  0.00279553  0.75064353  1
  Co  Co97  1  0.12393636  0.37330856  0.62730367  1
  Co  Co98  1  0.87635363  0.12208426  0.37526966  1
  Co  Co99  1  0.12578109  0.87364664  0.37338295  1
  Co  Co100  1  0.49969449  0.74788899  0.25107473  1
  Co  Co101  1  0.50368092  0.75205851  -0.00440270  1
  Co  Co102  1  0.24736847  0.74891657  -0.00297674  1
  Co  Co103  1  0.25320944  0.75522299  0.75190582  1
  Co  Co104  1  0.00207166  0.74796312  0.75049657  1
  Co  Co105  1  -0.00068756  -0.00460490  0.50087575  1
  Co  Co106  1  0.25115883  0.49610159  0.75176116  1
  Co  Co107  1  -0.00106226  0.25237493  0.49899064  1
  Co  Co108  1  0.50208695  0.25036387  0.00060406  1
  Co  Co109  1  0.24948462  0.25028150  0.00008489  1
  Co  Co110  1  -0.00175138  0.25257246  0.00032662  1
  Co  Co111  1  0.75236064  0.75313350  -0.00256406  1
  Co  Co112  1  0.87659107  0.87525569  0.86989358  1
  Co  Co113  1  0.62753401  0.12303878  0.12266764  1
  Co  Co114  1  0.37216947  0.87672418  0.88253584  1
  Co  Co115  1  0.49803307  0.25241854  0.74973211  1
  Co  Co116  1  0.87269584  0.62440785  0.12526780  1
  Co  Co117  1  0.87329585  0.37627737  0.87396882  1
  Co  Co118  1  0.00226164  -0.00461662  0.00112722  1
  Co  Co119  1  -0.00394463  0.74971104  0.24986877  1
  Co  Co120  1  0.25304464  0.74858472  0.25067717  1
  Co  Co121  1  0.37310259  0.62520372  0.87482440  1
  Co  Co122  1  0.49401958  -0.00414079  0.75241477  1
  Co  Co123  1  0.37355631  0.87580934  0.62063415  1
  Co  Co124  1  0.62777141  0.37486906  0.62672293  1
  Co  Co125  1  0.75098592  0.74803956  0.74931612  1
  Co  Co126  1  0.37635451  0.12390280  0.87857738  1
  Co  Co127  1  0.12433725  0.62812776  0.12447973  1
