# generated using pymatgen
data_Fe45Co19
_symmetry_space_group_name_H-M   'P 1'
_cell_length_a   11.41500136
_cell_length_b   11.41519601
_cell_length_c   11.41537331
_cell_angle_alpha   90.00663145
_cell_angle_beta   89.99487866
_cell_angle_gamma   90.00579592
_symmetry_Int_Tables_number   1
_chemical_formula_structural   Fe45Co19
_chemical_formula_sum   'Fe90 Co38'
_cell_volume   1487.47423647
_cell_formula_units_Z   2
loop_
 _symmetry_equiv_pos_site_id
 _symmetry_equiv_pos_as_xyz
  1  'x, y, z'
loop_
 _atom_site_type_symbol
 _atom_site_label
 _atom_site_symmetry_multiplicity
 _atom_site_fract_x
 _atom_site_fract_y
 _atom_site_fract_z
 _atom_site_occupancy
  Fe  Fe0  1  0.37423868  0.62460522  0.62426712  1
  Fe  Fe1  1  0.50110854  0.49957106  0.00069365  1
  Fe  Fe2  1  0.24918313  0.00120525  0.24898724  1
  Fe  Fe3  1  0.24876168  -0.00121333  0.75186048  1
  Fe  Fe4  1  0.87526258  0.12286247  0.37658148  1
  Fe  Fe5  1  0.87232375  0.37605950  0.87434534  1
  Fe  Fe6  1  0.50167134  0.74726033  0.25178007  1
  Fe  Fe7  1  0.37418173  0.12519905  0.37495789  1
  Fe  Fe8  1  0.37464096  0.62440417  0.12710427  1
  Fe  Fe9  1  0.12374006  0.12739452  0.87377582  1
  Fe  Fe10  1  0.25012103  0.74900852  0.74979191  1
  Fe  Fe11  1  0.49948717  0.24855515  0.74690571  1
  Fe  Fe12  1  0.12461815  0.12483253  0.37671628  1
  Fe  Fe13  1  0.62363625  0.87630605  0.12642346  1
  Fe  Fe14  1  0.87573067  0.87449369  0.12685829  1
  Fe  Fe15  1  0.62634509  0.11938259  0.62213949  1
  Fe  Fe16  1  0.75040273  0.74933357  0.00151648  1
  Fe  Fe17  1  0.25061515  -0.00138894  -0.00116834  1
  Fe  Fe18  1  0.37656262  0.37390416  0.87375152  1
  Fe  Fe19  1  0.87548937  0.62654221  0.37519636  1
  Fe  Fe20  1  0.00018091  0.75093933  0.74966442  1
  Fe  Fe21  1  0.62519881  0.37523091  0.62395178  1
  Fe  Fe22  1  -0.00083390  -0.00247935  -0.00010270  1
  Fe  Fe23  1  0.87615392  0.12131225  0.62642174  1
  Fe  Fe24  1  0.75007933  -0.00145647  -0.00205431  1
  Fe  Fe25  1  0.37763421  0.87406282  0.87316817  1
  Fe  Fe26  1  0.12361847  0.87082625  0.87901495  1
  Fe  Fe27  1  0.12099035  0.87766486  0.37376855  1
  Fe  Fe28  1  0.37869184  0.87738457  0.62788581  1
  Fe  Fe29  1  0.12360411  0.62414451  0.37772828  1
  Fe  Fe30  1  0.25121273  0.25190292  0.74814175  1
  Fe  Fe31  1  0.37432894  0.12727194  0.87569302  1
  Fe  Fe32  1  0.37518184  0.87469260  0.37330615  1
  Fe  Fe33  1  0.87426695  0.37427348  0.37399940  1
  Fe  Fe34  1  0.49983946  0.74870494  0.00002761  1
  Fe  Fe35  1  0.62602247  0.12580377  0.87629623  1
  Fe  Fe36  1  0.12361257  0.12502853  0.62618782  1
  Fe  Fe37  1  0.37321358  0.37323039  0.37451673  1
  Fe  Fe38  1  0.12417629  0.62759121  0.87860450  1
  Fe  Fe39  1  0.75114792  0.49905747  0.49820894  1
  Fe  Fe40  1  0.87796146  0.62455345  0.62271788  1
  Fe  Fe41  1  0.87729402  0.87965607  0.62642631  1
  Fe  Fe42  1  0.00343560  0.74919974  0.24696541  1
  Fe  Fe43  1  0.37541675  0.87577668  0.12686750  1
  Fe  Fe44  1  0.49910529  0.50153780  0.49800926  1
  Fe  Fe45  1  0.75003230  -0.00065158  0.25207624  1
  Fe  Fe46  1  0.12396459  0.37491659  0.87532153  1
  Fe  Fe47  1  0.37447108  0.62499987  0.87502604  1
  Fe  Fe48  1  0.24847886  0.75048000  0.50027609  1
  Fe  Fe49  1  0.12302195  0.87461973  0.62439357  1
  Fe  Fe50  1  0.50024131  0.24635159  0.24659846  1
  Fe  Fe51  1  0.00020862  0.24823324  0.24906276  1
  Fe  Fe52  1  0.74715095  0.74845504  0.25091275  1
  Fe  Fe53  1  0.87249121  0.12579919  0.12373246  1
  Fe  Fe54  1  0.49953103  0.75097837  0.50022355  1
  Fe  Fe55  1  0.87459011  0.37527793  0.62456106  1
  Fe  Fe56  1  -0.00430115  0.50071161  0.00308002  1
  Fe  Fe57  1  0.62804181  0.37627360  0.87509933  1
  Fe  Fe58  1  0.62354337  0.87422067  0.87200442  1
  Fe  Fe59  1  0.62497785  0.12380411  0.37616840  1
  Fe  Fe60  1  0.74946275  0.75262788  0.74752186  1
  Fe  Fe61  1  0.62761836  0.62386400  0.87532852  1
  Fe  Fe62  1  0.50040197  0.00201887  0.00198908  1
  Fe  Fe63  1  0.00008905  0.50059163  0.74895938  1
  Fe  Fe64  1  0.12624683  0.37456531  0.12615048  1
  Fe  Fe65  1  -0.00115035  0.50014239  0.24851267  1
  Fe  Fe66  1  0.62340250  0.87665300  0.37600198  1
  Fe  Fe67  1  0.74975283  0.24897137  0.25081233  1
  Fe  Fe68  1  0.75254478  0.75599084  0.49985129  1
  Fe  Fe69  1  0.24993778  0.50032987  0.49904853  1
  Fe  Fe70  1  0.50188740  0.50183743  0.74916659  1
  Fe  Fe71  1  0.87653546  0.12319991  0.87182709  1
  Fe  Fe72  1  0.25016982  -0.00054947  0.50053034  1
  Fe  Fe73  1  -0.00199409  0.25155211  -0.00010049  1
  Fe  Fe74  1  0.12631124  0.37354751  0.37469533  1
  Fe  Fe75  1  -0.00081853  0.24979343  0.50080118  1
  Fe  Fe76  1  0.24693425  0.74806983  0.24819400  1
  Fe  Fe77  1  0.24845971  0.50112952  0.74935448  1
  Fe  Fe78  1  0.63056932  0.37634357  0.12461309  1
  Fe  Fe79  1  0.62565743  0.37347133  0.37612951  1
  Fe  Fe80  1  0.12703618  0.12537903  0.12249164  1
  Fe  Fe81  1  0.12485583  0.37544947  0.62359521  1
  Fe  Fe82  1  0.25074473  0.49951501  0.00072723  1
  Fe  Fe83  1  0.62683702  0.62608352  0.62209848  1
  Fe  Fe84  1  0.37238974  0.37376493  0.12733048  1
  Fe  Fe85  1  0.50143968  0.24916380  0.00360911  1
  Fe  Fe86  1  0.50213416  0.50235122  0.25284334  1
  Fe  Fe87  1  0.75043771  0.24911852  0.74880302  1
  Fe  Fe88  1  0.49724587  0.24802947  0.50274396  1
  Fe  Fe89  1  0.87462160  0.62663672  0.87485261  1
  Co  Co90  1  0.24909445  0.24779769  0.25028443  1
  Co  Co91  1  0.75340250  0.50234483  0.00214661  1
  Co  Co92  1  0.87937073  0.87470713  0.36964627  1
  Co  Co93  1  0.62124902  0.87781858  0.62608990  1
  Co  Co94  1  0.87341846  0.62727852  0.12861718  1
  Co  Co95  1  0.24922210  0.50180204  0.25129276  1
  Co  Co96  1  -0.00116827  0.25301398  0.74918688  1
  Co  Co97  1  0.62727955  0.62644588  0.37910934  1
  Co  Co98  1  0.12287691  0.62521380  0.62332935  1
  Co  Co99  1  0.75119638  0.24961973  -0.00260862  1
  Co  Co100  1  0.00036078  0.00323564  0.24688533  1
  Co  Co101  1  0.00321308  -0.00373183  0.75245840  1
  Co  Co102  1  0.49834116  -0.00034629  0.49731134  1
  Co  Co103  1  0.50104866  0.00376406  0.75254211  1
  Co  Co104  1  0.75217002  -0.00427896  0.49789609  1
  Co  Co105  1  0.74854426  -0.00115117  0.75125940  1
  Co  Co106  1  0.24953085  0.25245458  -0.00081756  1
  Co  Co107  1  0.12520259  0.87630124  0.12350643  1
  Co  Co108  1  0.25082457  0.24982808  0.50166506  1
  Co  Co109  1  0.75022147  0.50090320  0.74756772  1
  Co  Co110  1  0.37306252  0.62691330  0.37531169  1
  Co  Co111  1  0.25371101  0.75005616  0.00208522  1
  Co  Co112  1  0.87156665  0.37286817  0.12680248  1
  Co  Co113  1  0.12580387  0.62339593  0.12120452  1
  Co  Co114  1  0.62980964  0.12355954  0.12497338  1
  Co  Co115  1  0.37271608  0.12116786  0.62620513  1
  Co  Co116  1  0.87516446  0.87405260  0.87510137  1
  Co  Co117  1  0.62398688  0.62363175  0.12415351  1
  Co  Co118  1  -0.00087188  0.75338034  0.49942838  1
  Co  Co119  1  0.50119940  0.74596641  0.74992319  1
  Co  Co120  1  0.74914249  0.50179574  0.25223155  1
  Co  Co121  1  -0.00062583  -0.00016851  0.49946345  1
  Co  Co122  1  0.75130612  0.24924042  0.50114162  1
  Co  Co123  1  -0.00293723  0.74997557  0.00344639  1
  Co  Co124  1  -0.00079520  0.49762375  0.49874685  1
  Co  Co125  1  0.37527812  0.37796980  0.62481804  1
  Co  Co126  1  0.49961468  0.00270821  0.24939361  1
  Co  Co127  1  0.37160946  0.12450184  0.12328251  1
