# generated using pymatgen
data_Fe45Co19
_symmetry_space_group_name_H-M   'P 1'
_cell_length_a   11.41481499
_cell_length_b   11.41441677
_cell_length_c   11.41570569
_cell_angle_alpha   89.99208049
_cell_angle_beta   90.00338044
_cell_angle_gamma   89.99165567
_symmetry_Int_Tables_number   1
_chemical_formula_structural   Fe45Co19
_chemical_formula_sum   'Fe90 Co38'
_cell_volume   1487.39171168
_cell_formula_units_Z   2
loop_
 _symmetry_equiv_pos_site_id
 _symmetry_equiv_pos_as_xyz
  1  'x, y, z'
loop_
 _atom_site_type_symbol
 _atom_site_label
 _atom_site_symmetry_multiplicity
 _atom_site_fract_x
 _atom_site_fract_y
 _atom_site_fract_z
 _atom_site_occupancy
  Fe  Fe0  1  0.37445542  0.37536464  0.62371225  1
  Fe  Fe1  1  0.62784183  0.62678540  0.13193859  1
  Fe  Fe2  1  0.75018602  -0.00287820  0.75246327  1
  Fe  Fe3  1  0.50082667  0.75936970  0.24979449  1
  Fe  Fe4  1  0.87501516  0.87673680  0.12279422  1
  Fe  Fe5  1  0.00063350  -0.00245120  0.75029752  1
  Fe  Fe6  1  0.12430197  0.12364703  0.62531939  1
  Fe  Fe7  1  0.37670153  0.87106585  0.88067802  1
  Fe  Fe8  1  0.37430318  0.62675550  0.87417883  1
  Fe  Fe9  1  0.49929844  -0.00270643  0.75064566  1
  Fe  Fe10  1  0.37136374  0.63136237  0.12757222  1
  Fe  Fe11  1  0.24756593  0.74729804  0.50007951  1
  Fe  Fe12  1  0.62751353  0.37538198  0.62464805  1
  Fe  Fe13  1  0.12377753  0.12530251  0.87419337  1
  Fe  Fe14  1  0.00184997  0.50165307  0.00051637  1
  Fe  Fe15  1  0.24936450  0.24801063  0.49804414  1
  Fe  Fe16  1  -0.00166627  0.50013444  0.49883651  1
  Fe  Fe17  1  0.62378027  0.37545005  0.12473830  1
  Fe  Fe18  1  0.50159817  -0.00028840  0.49906727  1
  Fe  Fe19  1  0.75286536  0.24923151  0.50011035  1
  Fe  Fe20  1  -0.00130781  0.49919871  0.75059363  1
  Fe  Fe21  1  0.87513235  0.12561497  0.87426528  1
  Fe  Fe22  1  0.50079965  0.25091433  0.49914915  1
  Fe  Fe23  1  0.62543053  0.12529969  0.87458412  1
  Fe  Fe24  1  0.12723058  0.87660288  0.12344993  1
  Fe  Fe25  1  0.50061392  0.24657944  0.00178672  1
  Fe  Fe26  1  0.75052104  0.00231880  0.49913543  1
  Fe  Fe27  1  0.62176124  0.87335925  0.87901362  1
  Fe  Fe28  1  0.37448462  0.87495306  0.62090093  1
  Fe  Fe29  1  -0.00002968  0.74784502  0.50144203  1
  Fe  Fe30  1  0.37666067  0.12536155  0.62552703  1
  Fe  Fe31  1  0.25019972  0.50060582  0.49757939  1
  Fe  Fe32  1  0.74989846  0.25240310  0.24969965  1
  Fe  Fe33  1  0.74874786  0.24925928  -0.00142277  1
  Fe  Fe34  1  0.74732200  0.50315072  0.49509944  1
  Fe  Fe35  1  0.24966849  0.50311433  0.00057058  1
  Fe  Fe36  1  0.12710103  0.37524315  0.12622252  1
  Fe  Fe37  1  0.87181778  0.62371027  0.62702742  1
  Fe  Fe38  1  0.12200762  0.36985951  0.37333337  1
  Fe  Fe39  1  0.74932779  0.74993401  0.00072735  1
  Fe  Fe40  1  0.00036687  0.75264983  0.24897623  1
  Fe  Fe41  1  0.24811386  0.75217032  0.74805972  1
  Fe  Fe42  1  -0.00257320  0.49767258  0.24949431  1
  Fe  Fe43  1  0.37797808  0.37584087  0.37403580  1
  Fe  Fe44  1  0.87252169  0.62633556  0.36994562  1
  Fe  Fe45  1  -0.00430459  0.25231008  0.74564397  1
  Fe  Fe46  1  0.87440529  0.62522745  0.12627973  1
  Fe  Fe47  1  0.37843861  0.62642799  0.37318204  1
  Fe  Fe48  1  0.00428427  0.74912440  0.00167198  1
  Fe  Fe49  1  0.25186666  -0.00275773  0.25307388  1
  Fe  Fe50  1  0.62438451  0.62792859  0.87111839  1
  Fe  Fe51  1  0.37750101  0.12280475  0.12941080  1
  Fe  Fe52  1  0.87425179  0.87543610  0.62261495  1
  Fe  Fe53  1  0.37862388  0.12442780  0.37254734  1
  Fe  Fe54  1  0.37571123  0.12568941  0.87330491  1
  Fe  Fe55  1  0.25022513  0.00148214  -0.00177427  1
  Fe  Fe56  1  0.00126083  0.75085381  0.74682705  1
  Fe  Fe57  1  0.25038618  0.25156098  0.74997250  1
  Fe  Fe58  1  0.50037721  0.50496514  0.00280903  1
  Fe  Fe59  1  0.62243142  0.37905759  0.37229396  1
  Fe  Fe60  1  0.87401492  0.37600824  0.12246604  1
  Fe  Fe61  1  0.50135387  0.25154918  0.75006711  1
  Fe  Fe62  1  0.25078760  -0.00299703  0.75038747  1
  Fe  Fe63  1  0.74716880  -0.00373213  0.24945719  1
  Fe  Fe64  1  0.87747596  0.87437037  0.87834511  1
  Fe  Fe65  1  0.37372128  0.62357936  0.62562488  1
  Fe  Fe66  1  0.87517644  0.62628368  0.87596134  1
  Fe  Fe67  1  0.25113442  0.50055730  0.25081392  1
  Fe  Fe68  1  0.24912575  0.00377462  0.49833759  1
  Fe  Fe69  1  0.74739052  0.74566477  0.49861888  1
  Fe  Fe70  1  0.87859428  0.12720544  0.37210247  1
  Fe  Fe71  1  0.75071624  0.49543415  0.75517576  1
  Fe  Fe72  1  0.24960085  0.24756961  0.00192654  1
  Fe  Fe73  1  0.74819032  0.50090193  -0.00097417  1
  Fe  Fe74  1  0.37495023  0.37346234  0.12463625  1
  Fe  Fe75  1  0.50433542  0.74599559  0.50067745  1
  Fe  Fe76  1  0.12578755  0.37771057  0.62425451  1
  Fe  Fe77  1  0.37684392  0.37585768  0.87765134  1
  Fe  Fe78  1  0.62326628  0.12388343  0.37160211  1
  Fe  Fe79  1  0.49986911  0.49938123  0.74866935  1
  Fe  Fe80  1  0.87352984  0.12148930  0.12554951  1
  Fe  Fe81  1  -0.00014814  0.00272807  0.49845377  1
  Fe  Fe82  1  0.12336074  0.62493491  0.37206514  1
  Fe  Fe83  1  0.12438358  0.37401580  0.87591349  1
  Fe  Fe84  1  0.12519492  0.87512760  0.37744457  1
  Fe  Fe85  1  0.12598344  0.62497144  0.87256822  1
  Fe  Fe86  1  0.87380873  0.87459690  0.37585205  1
  Fe  Fe87  1  0.62667931  0.12561248  0.62703943  1
  Fe  Fe88  1  0.62625790  0.87342428  0.62448187  1
  Fe  Fe89  1  0.00148635  0.24650020  0.00421403  1
  Co  Co90  1  0.75160258  0.25238039  0.75155491  1
  Co  Co91  1  0.62527705  0.12332600  0.12728221  1
  Co  Co92  1  0.74981925  0.75604453  0.24854735  1
  Co  Co93  1  0.12491509  0.87508021  0.87640573  1
  Co  Co94  1  0.50284323  0.74495688  0.00317122  1
  Co  Co95  1  0.62409067  0.87829427  0.11907466  1
  Co  Co96  1  0.62086565  0.37491240  0.87876365  1
  Co  Co97  1  0.87085886  0.37978691  0.62243712  1
  Co  Co98  1  0.62732287  0.87462938  0.37890190  1
  Co  Co99  1  0.75047871  0.00024889  -0.00262062  1
  Co  Co100  1  0.50244271  0.50338179  0.50267698  1
  Co  Co101  1  0.12535112  0.62211355  0.62517737  1
  Co  Co102  1  0.50103498  0.25100686  0.24977672  1
  Co  Co103  1  0.62264374  0.62432251  0.36645878  1
  Co  Co104  1  0.62876096  0.62477223  0.63153147  1
  Co  Co105  1  0.12494484  0.87667514  0.62099341  1
  Co  Co106  1  0.12740290  0.12075364  0.12807613  1
  Co  Co107  1  0.87709306  0.37202310  0.37566874  1
  Co  Co108  1  0.87793424  0.37349088  0.87959022  1
  Co  Co109  1  0.24475948  0.74728546  -0.00054690  1
  Co  Co110  1  0.12480195  0.62389272  0.12943754  1
  Co  Co111  1  0.37282213  0.87358129  0.11965333  1
  Co  Co112  1  0.75342817  0.49666455  0.25039746  1
  Co  Co113  1  0.00031178  -0.00283733  0.25031250  1
  Co  Co114  1  0.00122173  0.00184229  0.00019988  1
  Co  Co115  1  0.49850983  0.00358282  0.00021437  1
  Co  Co116  1  0.24851059  0.75303194  0.25243351  1
  Co  Co117  1  0.75252973  0.75463850  0.75186846  1
  Co  Co118  1  0.49759852  0.75162987  0.74777350  1
  Co  Co119  1  0.25126995  0.24916713  0.25049719  1
  Co  Co120  1  0.37455202  0.87366017  0.38074222  1
  Co  Co121  1  0.50077089  -0.00732012  0.25086289  1
  Co  Co122  1  0.12106810  0.12810999  0.37254288  1
  Co  Co123  1  -0.00111788  0.24984962  0.24375630  1
  Co  Co124  1  -0.00243449  0.24900895  0.50525361  1
  Co  Co125  1  0.25128629  0.49865559  0.75168766  1
  Co  Co126  1  0.87299110  0.12154068  0.62697771  1
  Co  Co127  1  0.49618214  0.50019420  0.24528361  1
