# generated using pymatgen
data_Fe45Co19
_symmetry_space_group_name_H-M   'P 1'
_cell_length_a   11.41581465
_cell_length_b   11.41481538
_cell_length_c   11.41622680
_cell_angle_alpha   89.99813868
_cell_angle_beta   89.99931922
_cell_angle_gamma   90.00608518
_symmetry_Int_Tables_number   1
_chemical_formula_structural   Fe45Co19
_chemical_formula_sum   'Fe90 Co38'
_cell_volume   1487.64184437
_cell_formula_units_Z   2
loop_
 _symmetry_equiv_pos_site_id
 _symmetry_equiv_pos_as_xyz
  1  'x, y, z'
loop_
 _atom_site_type_symbol
 _atom_site_label
 _atom_site_symmetry_multiplicity
 _atom_site_fract_x
 _atom_site_fract_y
 _atom_site_fract_z
 _atom_site_occupancy
  Fe  Fe0  1  -0.00030555  0.75235621  0.25153117  1
  Fe  Fe1  1  0.49986367  0.00780359  -0.00083501  1
  Fe  Fe2  1  0.37611176  0.12555407  0.62578244  1
  Fe  Fe3  1  0.00151806  -0.00067718  -0.00312088  1
  Fe  Fe4  1  0.24902239  0.00218147  0.49990389  1
  Fe  Fe5  1  0.74618200  0.49878397  0.49838967  1
  Fe  Fe6  1  0.12358285  0.12858800  0.87262816  1
  Fe  Fe7  1  0.25325091  0.24747223  -0.00042673  1
  Fe  Fe8  1  0.62527230  0.62659231  0.87657171  1
  Fe  Fe9  1  0.25076847  0.49661982  0.49944595  1
  Fe  Fe10  1  0.37348554  0.62257582  0.87254435  1
  Fe  Fe11  1  0.74878866  0.75229031  0.75169881  1
  Fe  Fe12  1  0.75126312  0.75063071  0.49979869  1
  Fe  Fe13  1  0.37669917  0.87934287  0.12625738  1
  Fe  Fe14  1  0.87482308  0.37704953  0.62256537  1
  Fe  Fe15  1  0.74938872  -0.00022209  -0.00072356  1
  Fe  Fe16  1  0.75547323  0.24944170  0.00810379  1
  Fe  Fe17  1  0.25056888  0.75117081  0.00105992  1
  Fe  Fe18  1  0.38027597  0.37320733  0.37770818  1
  Fe  Fe19  1  0.74604779  0.49717627  0.24869485  1
  Fe  Fe20  1  0.87671180  0.87742247  0.12559096  1
  Fe  Fe21  1  0.87486381  0.37486079  0.37440795  1
  Fe  Fe22  1  0.87459989  0.12284883  0.62529248  1
  Fe  Fe23  1  0.25029211  0.75061577  0.74921347  1
  Fe  Fe24  1  0.37472011  0.37387989  0.87222827  1
  Fe  Fe25  1  0.24874295  0.25246876  0.25097246  1
  Fe  Fe26  1  0.12535216  0.62395758  0.12468306  1
  Fe  Fe27  1  0.74740467  0.25131284  0.50038863  1
  Fe  Fe28  1  0.12338368  0.62420545  0.62458337  1
  Fe  Fe29  1  0.50101570  0.50127827  0.25003175  1
  Fe  Fe30  1  0.24717247  0.00051320  0.74864491  1
  Fe  Fe31  1  0.25015473  0.49889916  -0.00120371  1
  Fe  Fe32  1  -0.00054745  0.49620218  -0.00053870  1
  Fe  Fe33  1  0.75041799  0.25113225  0.74699001  1
  Fe  Fe34  1  0.24843985  0.49593337  0.25182976  1
  Fe  Fe35  1  0.87525685  0.62316696  0.12581692  1
  Fe  Fe36  1  0.87350305  0.62409547  0.37342003  1
  Fe  Fe37  1  0.74844734  0.00020495  0.24927490  1
  Fe  Fe38  1  0.62397376  0.62307831  0.62616486  1
  Fe  Fe39  1  0.50073113  0.49903145  -0.00111776  1
  Fe  Fe40  1  0.74957636  0.75104616  0.00243812  1
  Fe  Fe41  1  0.37587325  0.12720351  0.37420948  1
  Fe  Fe42  1  0.00099764  0.75233149  -0.00046345  1
  Fe  Fe43  1  0.25032994  0.00230536  0.00026759  1
  Fe  Fe44  1  0.37671598  0.87749806  0.62515206  1
  Fe  Fe45  1  0.74840178  0.49841489  0.75185636  1
  Fe  Fe46  1  0.00385470  0.49695446  0.25078611  1
  Fe  Fe47  1  0.62554995  0.62811005  0.37192923  1
  Fe  Fe48  1  0.74866201  -0.00117090  0.75431851  1
  Fe  Fe49  1  -0.00133091  0.25189676  0.24687439  1
  Fe  Fe50  1  0.24860477  0.00069022  0.25032270  1
  Fe  Fe51  1  0.74960876  0.49988508  0.00091422  1
  Fe  Fe52  1  0.37476920  0.87559566  0.37416949  1
  Fe  Fe53  1  0.37704376  0.61913886  0.62684518  1
  Fe  Fe54  1  -0.00142773  0.75197115  0.49747477  1
  Fe  Fe55  1  0.62638977  0.36965512  0.87897451  1
  Fe  Fe56  1  0.12243858  0.37172552  0.62020972  1
  Fe  Fe57  1  0.00086181  0.75405433  0.75178174  1
  Fe  Fe58  1  0.62384774  0.87598580  0.62519915  1
  Fe  Fe59  1  0.12712022  0.62457222  0.37594639  1
  Fe  Fe60  1  0.37539499  0.37393642  0.12409620  1
  Fe  Fe61  1  0.50265652  0.24796601  0.75020290  1
  Fe  Fe62  1  0.50406050  0.00311222  0.75320683  1
  Fe  Fe63  1  0.87602478  0.12760629  0.87489500  1
  Fe  Fe64  1  0.38043343  0.37677977  0.62516093  1
  Fe  Fe65  1  0.50216699  0.24743810  0.24536602  1
  Fe  Fe66  1  0.12440896  0.12715653  0.12439571  1
  Fe  Fe67  1  0.12566337  0.62444468  0.87476210  1
  Fe  Fe68  1  0.37522395  0.87771553  0.87495830  1
  Fe  Fe69  1  0.74822501  -0.00042348  0.49798855  1
  Fe  Fe70  1  0.49948754  0.74926351  0.75098518  1
  Fe  Fe71  1  0.62145755  0.87558825  0.12632991  1
  Fe  Fe72  1  0.12296568  0.12828617  0.62486191  1
  Fe  Fe73  1  0.87371505  0.12565764  0.37320599  1
  Fe  Fe74  1  0.87562991  0.87709056  0.62574962  1
  Fe  Fe75  1  0.25152763  0.74985355  0.50191924  1
  Fe  Fe76  1  0.12486038  0.37131971  0.87612319  1
  Fe  Fe77  1  0.25108337  0.75108102  0.24816631  1
  Fe  Fe78  1  0.62434419  0.87222787  0.37248984  1
  Fe  Fe79  1  0.62600199  0.12863439  0.37343373  1
  Fe  Fe80  1  0.00000971  0.49604122  0.75098702  1
  Fe  Fe81  1  0.00266235  -0.00155111  0.25263460  1
  Fe  Fe82  1  0.49866400  0.74856746  0.00160145  1
  Fe  Fe83  1  0.12497194  0.12968610  0.37701223  1
  Fe  Fe84  1  0.87523555  0.62481945  0.87486196  1
  Fe  Fe85  1  0.87522262  0.62396616  0.62616093  1
  Fe  Fe86  1  0.00123213  -0.00047666  0.49866599  1
  Fe  Fe87  1  0.37449141  0.62240982  0.12595107  1
  Fe  Fe88  1  0.49806965  0.74741184  0.49851738  1
  Fe  Fe89  1  0.50156106  0.00267314  0.49789094  1
  Co  Co90  1  0.87330325  0.87672833  0.37465079  1
  Co  Co91  1  0.87207647  0.37281047  0.87612628  1
  Co  Co92  1  0.37148772  0.62314693  0.37440906  1
  Co  Co93  1  0.49443652  0.24561344  0.00004928  1
  Co  Co94  1  0.75207029  0.75158770  0.24671646  1
  Co  Co95  1  -0.00105482  0.50150695  0.49880260  1
  Co  Co96  1  0.50335595  0.50277599  0.49594218  1
  Co  Co97  1  0.62464597  0.62444303  0.12573617  1
  Co  Co98  1  0.49699438  0.74801169  0.24937649  1
  Co  Co99  1  0.12855697  0.87397094  0.37663674  1
  Co  Co100  1  0.50400043  0.49924508  0.75556003  1
  Co  Co101  1  0.12432843  0.87525512  0.62365007  1
  Co  Co102  1  0.24596574  0.49701208  0.74797951  1
  Co  Co103  1  0.62261212  0.37307797  0.12239304  1
  Co  Co104  1  0.12872921  0.87552525  0.87478454  1
  Co  Co105  1  -0.00271693  0.25225683  0.74840034  1
  Co  Co106  1  0.50301615  0.24650471  0.50366564  1
  Co  Co107  1  0.12499670  0.87581103  0.12494978  1
  Co  Co108  1  0.25415084  0.25112346  0.50115865  1
  Co  Co109  1  0.87783187  0.11988655  0.12664503  1
  Co  Co110  1  0.62959155  0.13069190  0.87774812  1
  Co  Co111  1  0.25017877  0.25183803  0.74678843  1
  Co  Co112  1  0.12751511  0.37334556  0.12184316  1
  Co  Co113  1  0.62178968  0.87433666  0.87724206  1
  Co  Co114  1  0.87499334  0.37965302  0.12757278  1
  Co  Co115  1  0.62224306  0.37057816  0.37315012  1
  Co  Co116  1  -0.00537066  0.24801241  0.49996637  1
  Co  Co117  1  0.87425311  0.87418971  0.87570943  1
  Co  Co118  1  0.37258143  0.12513766  0.12904406  1
  Co  Co119  1  0.50146679  0.00308932  0.25176264  1
  Co  Co120  1  0.12244661  0.37194714  0.37913052  1
  Co  Co121  1  0.62771427  0.12255896  0.62563007  1
  Co  Co122  1  0.62186162  0.37713343  0.62491160  1
  Co  Co123  1  0.75225156  0.25004944  0.24672362  1
  Co  Co124  1  0.00007237  -0.00007619  0.75161886  1
  Co  Co125  1  -0.00318362  0.25151148  0.00320570  1
  Co  Co126  1  0.62624010  0.12594673  0.12429339  1
  Co  Co127  1  0.37251024  0.12457141  0.86998733  1
