# generated using pymatgen
data_Fe45Co19
_symmetry_space_group_name_H-M   'P 1'
_cell_length_a   11.41534444
_cell_length_b   11.41580189
_cell_length_c   11.41539200
_cell_angle_alpha   89.99861445
_cell_angle_beta   89.99561199
_cell_angle_gamma   89.99424760
_symmetry_Int_Tables_number   1
_chemical_formula_structural   Fe45Co19
_chemical_formula_sum   'Fe90 Co38'
_cell_volume   1487.60034396
_cell_formula_units_Z   2
loop_
 _symmetry_equiv_pos_site_id
 _symmetry_equiv_pos_as_xyz
  1  'x, y, z'
loop_
 _atom_site_type_symbol
 _atom_site_label
 _atom_site_symmetry_multiplicity
 _atom_site_fract_x
 _atom_site_fract_y
 _atom_site_fract_z
 _atom_site_occupancy
  Fe  Fe0  1  0.49997911  0.49829813  0.24961685  1
  Fe  Fe1  1  0.75143992  0.00136537  0.49765366  1
  Fe  Fe2  1  0.37588706  0.62501239  0.37658651  1
  Fe  Fe3  1  0.37232099  0.37607685  0.62781728  1
  Fe  Fe4  1  0.62536594  0.62550617  0.37521917  1
  Fe  Fe5  1  0.12478374  0.62280136  0.12386103  1
  Fe  Fe6  1  0.25041654  0.00178413  0.75174034  1
  Fe  Fe7  1  0.75114109  0.00262733  0.75280766  1
  Fe  Fe8  1  0.37351806  0.37442386  0.37479999  1
  Fe  Fe9  1  0.25005483  0.74965806  0.74860586  1
  Fe  Fe10  1  0.75109367  0.24872827  0.75042960  1
  Fe  Fe11  1  0.88089046  0.37019376  0.36768745  1
  Fe  Fe12  1  0.75191186  0.25051699  0.49956695  1
  Fe  Fe13  1  0.00027601  0.74951631  0.24726209  1
  Fe  Fe14  1  0.00126667  0.00254645  0.24896496  1
  Fe  Fe15  1  0.62709319  0.87769564  0.12223422  1
  Fe  Fe16  1  0.24951427  0.74998642  0.25071347  1
  Fe  Fe17  1  -0.00393314  0.75018653  0.74634598  1
  Fe  Fe18  1  0.24849393  0.74941874  -0.00105520  1
  Fe  Fe19  1  0.37318018  0.37362665  0.87238976  1
  Fe  Fe20  1  0.62294481  0.12741251  0.37730015  1
  Fe  Fe21  1  0.24691169  0.50130018  0.25289467  1
  Fe  Fe22  1  0.75349514  0.49569557  -0.00066668  1
  Fe  Fe23  1  0.49996925  0.75147638  0.74949302  1
  Fe  Fe24  1  0.12226263  0.12647631  0.37884170  1
  Fe  Fe25  1  0.62531026  0.12511764  0.12371048  1
  Fe  Fe26  1  0.12772547  0.87922570  0.12542041  1
  Fe  Fe27  1  0.75080770  0.74961121  0.24934374  1
  Fe  Fe28  1  0.37194481  0.12481730  0.12423021  1
  Fe  Fe29  1  0.62210292  0.12579265  0.87622373  1
  Fe  Fe30  1  0.00249973  0.24887373  0.74675572  1
  Fe  Fe31  1  0.87740826  0.12323040  0.62226959  1
  Fe  Fe32  1  0.49910038  0.75069066  0.24778044  1
  Fe  Fe33  1  0.50099870  0.25199224  0.74591281  1
  Fe  Fe34  1  0.24425664  0.24897224  0.24783218  1
  Fe  Fe35  1  0.87256046  0.87766902  0.12304331  1
  Fe  Fe36  1  0.24579455  0.24715800  0.75184491  1
  Fe  Fe37  1  0.75105571  0.00361396  0.25049555  1
  Fe  Fe38  1  0.87622874  0.87487688  0.37581161  1
  Fe  Fe39  1  0.49995592  0.74998517  0.00075798  1
  Fe  Fe40  1  0.87448465  0.37490848  0.62714583  1
  Fe  Fe41  1  0.63044108  0.62289297  0.62743200  1
  Fe  Fe42  1  0.62405958  0.37267916  0.37631982  1
  Fe  Fe43  1  0.24627034  -0.00312410  0.49959531  1
  Fe  Fe44  1  0.87911560  0.12924373  0.37363769  1
  Fe  Fe45  1  -0.00126394  0.75312651  0.50502710  1
  Fe  Fe46  1  0.24713814  0.75294776  0.50180914  1
  Fe  Fe47  1  0.62412123  0.12529064  0.62245505  1
  Fe  Fe48  1  0.49748806  0.25045339  0.00062398  1
  Fe  Fe49  1  0.87513198  0.62614043  0.37648851  1
  Fe  Fe50  1  0.37230844  0.87769720  0.12335724  1
  Fe  Fe51  1  0.37405954  0.62420046  0.62596815  1
  Fe  Fe52  1  0.62789777  0.62421700  0.87328764  1
  Fe  Fe53  1  -0.00020351  0.75166737  0.00083014  1
  Fe  Fe54  1  0.50176525  0.75048083  0.50219217  1
  Fe  Fe55  1  0.62839030  0.87690226  0.62411055  1
  Fe  Fe56  1  0.37528604  0.12333032  0.62358266  1
  Fe  Fe57  1  0.12441537  0.87530022  0.87297164  1
  Fe  Fe58  1  0.49893768  0.49893591  -0.00168938  1
  Fe  Fe59  1  0.75201554  0.49732738  0.49932779  1
  Fe  Fe60  1  0.87314863  0.87543732  0.87636530  1
  Fe  Fe61  1  0.50030959  0.49726800  0.50357963  1
  Fe  Fe62  1  0.37515889  0.62502303  0.87321388  1
  Fe  Fe63  1  0.00146249  0.49691063  0.50047258  1
  Fe  Fe64  1  0.62573858  0.37425595  0.87389082  1
  Fe  Fe65  1  0.87923117  0.12715846  0.87933419  1
  Fe  Fe66  1  -0.00043658  0.00113870  0.74988186  1
  Fe  Fe67  1  0.87289342  0.62597541  0.87325344  1
  Fe  Fe68  1  0.00020748  0.49923408  0.75002222  1
  Fe  Fe69  1  -0.00126779  0.49775467  -0.00135194  1
  Fe  Fe70  1  0.24705676  0.25199902  0.50193684  1
  Fe  Fe71  1  0.00538019  0.24996760  0.00677974  1
  Fe  Fe72  1  0.37594264  0.87473255  0.37641772  1
  Fe  Fe73  1  0.37157036  0.37448888  0.12529770  1
  Fe  Fe74  1  0.49988413  0.25056973  0.25027815  1
  Fe  Fe75  1  0.25270405  0.00308742  -0.00718541  1
  Fe  Fe76  1  0.37380286  0.62364998  0.12496016  1
  Fe  Fe77  1  0.75038301  0.49665511  0.24956029  1
  Fe  Fe78  1  0.24888005  0.49844533  -0.00404931  1
  Fe  Fe79  1  0.12346099  0.62517725  0.87307813  1
  Fe  Fe80  1  0.62635985  0.62290998  0.12428188  1
  Fe  Fe81  1  0.62550118  0.87462210  0.37536321  1
  Fe  Fe82  1  0.75224764  0.25112263  0.00263673  1
  Fe  Fe83  1  0.24629244  0.49862888  0.50088682  1
  Fe  Fe84  1  0.49786370  -0.00162199  0.75072065  1
  Fe  Fe85  1  0.37537960  0.12617636  0.37784351  1
  Fe  Fe86  1  0.12348818  0.62743234  0.37751336  1
  Fe  Fe87  1  0.87485116  0.62313629  0.12497146  1
  Fe  Fe88  1  0.62648448  0.87558682  0.87792932  1
  Fe  Fe89  1  0.49827297  0.00099903  0.25023028  1
  Co  Co90  1  0.87864640  0.36935045  0.87483177  1
  Co  Co91  1  0.24728096  0.24953599  -0.00098236  1
  Co  Co92  1  0.12069430  0.12553246  0.87589767  1
  Co  Co93  1  0.49792903  0.25277188  0.50231258  1
  Co  Co94  1  0.12520890  0.38082801  0.12556181  1
  Co  Co95  1  0.12945090  0.11700481  0.12117475  1
  Co  Co96  1  0.87306424  0.87979380  0.62464694  1
  Co  Co97  1  0.87435684  0.12608188  0.12464118  1
  Co  Co98  1  0.00201661  0.50410126  0.25256948  1
  Co  Co99  1  0.37829811  0.12849915  0.87220546  1
  Co  Co100  1  0.87925301  0.37377243  0.13022371  1
  Co  Co101  1  0.75119703  0.74841376  0.00018570  1
  Co  Co102  1  0.50000023  -0.00057206  0.49994611  1
  Co  Co103  1  0.00832611  0.24411430  0.24308161  1
  Co  Co104  1  0.12255015  0.37251426  0.37287891  1
  Co  Co105  1  0.49772133  0.00134545  -0.00044997  1
  Co  Co106  1  0.24760454  0.50136322  0.75149685  1
  Co  Co107  1  0.75217940  0.75225466  0.74909623  1
  Co  Co108  1  0.12363035  0.62476990  0.62517289  1
  Co  Co109  1  0.12154643  0.87335026  0.37248166  1
  Co  Co110  1  0.37332055  0.87613509  0.62422916  1
  Co  Co111  1  0.00103902  -0.00179868  0.49952133  1
  Co  Co112  1  0.87298330  0.62175313  0.62482275  1
  Co  Co113  1  0.75128699  0.00422671  -0.00233686  1
  Co  Co114  1  0.37472246  0.87268946  0.87589248  1
  Co  Co115  1  -0.00061970  -0.00258852  0.00011739  1
  Co  Co116  1  0.74732949  0.24996391  0.24903800  1
  Co  Co117  1  0.50110132  0.49899722  0.74906082  1
  Co  Co118  1  0.12547227  0.37550439  0.62835014  1
  Co  Co119  1  0.62419825  0.37481460  0.12307264  1
  Co  Co120  1  0.62910976  0.37388603  0.62538776  1
  Co  Co121  1  0.12388828  0.87675875  0.62907328  1
  Co  Co122  1  0.12344577  0.37341545  0.87401155  1
  Co  Co123  1  0.75135604  0.75081692  0.50147693  1
  Co  Co124  1  0.00076857  0.25332523  0.50353862  1
  Co  Co125  1  0.12465868  0.12294391  0.62329612  1
  Co  Co126  1  0.75261302  0.49623281  0.75299735  1
  Co  Co127  1  0.25023162  0.00160107  0.25634817  1
