# generated using pymatgen
data_Fe45Co19
_symmetry_space_group_name_H-M   'P 1'
_cell_length_a   11.41570888
_cell_length_b   11.41357820
_cell_length_c   11.41526274
_cell_angle_alpha   90.00429337
_cell_angle_beta   90.00545482
_cell_angle_gamma   89.99762363
_symmetry_Int_Tables_number   1
_chemical_formula_structural   Fe45Co19
_chemical_formula_sum   'Fe90 Co38'
_cell_volume   1487.34121223
_cell_formula_units_Z   2
loop_
 _symmetry_equiv_pos_site_id
 _symmetry_equiv_pos_as_xyz
  1  'x, y, z'
loop_
 _atom_site_type_symbol
 _atom_site_label
 _atom_site_symmetry_multiplicity
 _atom_site_fract_x
 _atom_site_fract_y
 _atom_site_fract_z
 _atom_site_occupancy
  Fe  Fe0  1  0.50136132  0.50382458  0.49884501  1
  Fe  Fe1  1  0.87559471  0.87618553  0.62696310  1
  Fe  Fe2  1  0.87517482  0.37627821  0.37497959  1
  Fe  Fe3  1  0.62561491  0.37580454  0.37697272  1
  Fe  Fe4  1  0.50222191  0.25188576  0.24953522  1
  Fe  Fe5  1  -0.00315022  0.75066090  -0.00245659  1
  Fe  Fe6  1  0.49940486  0.74961049  0.00019516  1
  Fe  Fe7  1  0.62811086  0.86674469  0.38155420  1
  Fe  Fe8  1  0.25060233  0.00014886  0.50078740  1
  Fe  Fe9  1  0.37433190  0.37865297  0.62566384  1
  Fe  Fe10  1  0.37758850  0.62622509  0.87131634  1
  Fe  Fe11  1  0.75172711  0.74884342  -0.00068582  1
  Fe  Fe12  1  0.50162931  0.25206400  0.74907928  1
  Fe  Fe13  1  0.12578183  0.12487818  0.62476975  1
  Fe  Fe14  1  0.50410658  -0.00389789  0.25337540  1
  Fe  Fe15  1  0.62485386  0.87451865  0.87925550  1
  Fe  Fe16  1  0.24963930  0.75471219  0.75060918  1
  Fe  Fe17  1  0.62655964  0.12258102  0.12654921  1
  Fe  Fe18  1  0.37522380  0.62669486  0.12936194  1
  Fe  Fe19  1  0.87360836  0.12291325  0.37225168  1
  Fe  Fe20  1  0.62234650  0.62703521  0.62744920  1
  Fe  Fe21  1  0.12532956  0.37731228  0.37643859  1
  Fe  Fe22  1  0.87539837  0.37572625  0.62566623  1
  Fe  Fe23  1  -0.00039814  0.50229529  0.49933648  1
  Fe  Fe24  1  0.37637981  0.12310953  0.62521592  1
  Fe  Fe25  1  0.12523563  0.12443688  0.37532188  1
  Fe  Fe26  1  0.00329333  0.49774663  0.75245564  1
  Fe  Fe27  1  0.87163590  0.62762708  0.37240612  1
  Fe  Fe28  1  0.12553719  0.62762977  0.12714616  1
  Fe  Fe29  1  0.62432011  0.12287736  0.62229753  1
  Fe  Fe30  1  0.74888956  0.75051694  0.75133040  1
  Fe  Fe31  1  0.37236330  0.12326120  0.87311116  1
  Fe  Fe32  1  0.74920050  0.50228122  0.00034170  1
  Fe  Fe33  1  0.12536144  0.12194395  0.12277116  1
  Fe  Fe34  1  0.74967136  0.50379480  0.50155878  1
  Fe  Fe35  1  0.37649692  0.87423752  0.12546061  1
  Fe  Fe36  1  0.25043805  -0.00429427  0.74792779  1
  Fe  Fe37  1  -0.00254885  -0.00013492  0.50111618  1
  Fe  Fe38  1  0.37595788  0.12323736  0.12783192  1
  Fe  Fe39  1  0.87479820  0.37543197  0.87645713  1
  Fe  Fe40  1  0.50083718  0.50204261  0.00020668  1
  Fe  Fe41  1  0.25027638  0.25085570  0.50050494  1
  Fe  Fe42  1  -0.00086686  0.25011967  0.24880794  1
  Fe  Fe43  1  0.87516879  0.87771942  0.12448020  1
  Fe  Fe44  1  0.25022068  0.50196667  -0.00032251  1
  Fe  Fe45  1  0.75333170  0.24578194  0.00164439  1
  Fe  Fe46  1  0.74693018  -0.00537344  0.25308977  1
  Fe  Fe47  1  0.00162213  -0.00241383  0.25006229  1
  Fe  Fe48  1  0.25065913  0.24864742  0.00000140  1
  Fe  Fe49  1  0.24697183  0.25350023  0.75072057  1
  Fe  Fe50  1  0.37462322  0.62348534  0.36881513  1
  Fe  Fe51  1  0.24881965  0.25185472  0.24833687  1
  Fe  Fe52  1  0.12407709  0.87331548  0.37802297  1
  Fe  Fe53  1  -0.00107725  0.24908097  0.50070579  1
  Fe  Fe54  1  0.74926557  0.49825087  0.24763008  1
  Fe  Fe55  1  -0.00078427  0.75129267  0.25007735  1
  Fe  Fe56  1  0.25075957  0.75187920  0.00055121  1
  Fe  Fe57  1  -0.00065253  0.50264501  -0.00145647  1
  Fe  Fe58  1  0.12387298  0.88001999  0.87930326  1
  Fe  Fe59  1  0.87467066  0.87936150  0.87233488  1
  Fe  Fe60  1  0.12666037  0.62541364  0.37230599  1
  Fe  Fe61  1  0.25255225  0.74776342  0.50049715  1
  Fe  Fe62  1  0.75108637  0.24804947  0.50059843  1
  Fe  Fe63  1  0.37395944  0.37715753  0.37461425  1
  Fe  Fe64  1  0.62623934  0.12307863  0.87445685  1
  Fe  Fe65  1  0.62473696  0.37512673  0.87819109  1
  Fe  Fe66  1  0.37668662  0.37617305  0.12472742  1
  Fe  Fe67  1  -0.00307327  0.74922820  0.50142247  1
  Fe  Fe68  1  0.62223554  0.87281426  0.61859500  1
  Fe  Fe69  1  0.12500378  0.62610183  0.62714409  1
  Fe  Fe70  1  0.87574925  0.62458738  0.12572322  1
  Fe  Fe71  1  0.49994562  -0.00419341  0.74962187  1
  Fe  Fe72  1  0.87306245  0.12260086  0.62861146  1
  Fe  Fe73  1  0.74682211  0.49974888  0.75158534  1
  Fe  Fe74  1  0.24809383  -0.00393495  0.24863435  1
  Fe  Fe75  1  0.37528738  0.37691376  0.87443640  1
  Fe  Fe76  1  0.37572713  0.62491915  0.63114850  1
  Fe  Fe77  1  0.12116158  0.37589719  0.12267736  1
  Fe  Fe78  1  0.37492707  0.12490480  0.37305112  1
  Fe  Fe79  1  0.74721691  0.25139527  0.74899199  1
  Fe  Fe80  1  0.37525435  0.87438625  0.37779044  1
  Fe  Fe81  1  0.87752896  0.62482127  0.63170056  1
  Fe  Fe82  1  0.12441556  0.62679261  0.87394402  1
  Fe  Fe83  1  0.62383706  0.62763539  0.12824907  1
  Fe  Fe84  1  0.49954047  0.24721494  -0.00003315  1
  Fe  Fe85  1  0.75021920  0.25332993  0.24747226  1
  Fe  Fe86  1  0.00314714  0.24893889  0.75236967  1
  Fe  Fe87  1  0.49844864  0.00106083  -0.00043604  1
  Fe  Fe88  1  0.49986638  0.24887483  0.50002113  1
  Fe  Fe89  1  -0.00467848  0.24178012  -0.00198059  1
  Co  Co90  1  0.50124552  0.75351171  0.25154580  1
  Co  Co91  1  0.49632850  0.74282355  0.49774589  1
  Co  Co92  1  0.50285866  0.49874149  0.25000921  1
  Co  Co93  1  0.50357849  0.49719990  0.75083294  1
  Co  Co94  1  0.87470588  0.62401299  0.87216952  1
  Co  Co95  1  0.12329657  0.37382514  0.88048507  1
  Co  Co96  1  0.37563024  0.87445011  0.87713853  1
  Co  Co97  1  0.75502784  0.74649263  0.50551575  1
  Co  Co98  1  0.75073274  0.75310654  0.24544806  1
  Co  Co99  1  0.75236916  0.00225620  -0.00055611  1
  Co  Co100  1  0.62536458  0.37580505  0.62117813  1
  Co  Co101  1  0.50140677  0.00207244  0.49610969  1
  Co  Co102  1  -0.00020848  0.50173444  0.25119442  1
  Co  Co103  1  0.62729278  0.12764337  0.37412491  1
  Co  Co104  1  0.24654008  0.49870357  0.75275256  1
  Co  Co105  1  0.50113971  0.75578865  0.75099524  1
  Co  Co106  1  -0.00509499  0.00531146  -0.00095228  1
  Co  Co107  1  0.87833506  0.37653142  0.12232580  1
  Co  Co108  1  0.37785049  0.87406621  0.62043400  1
  Co  Co109  1  0.12181887  0.87416823  0.12126928  1
  Co  Co110  1  0.00130828  0.75335633  0.75242810  1
  Co  Co111  1  0.87144080  0.12075419  0.13192599  1
  Co  Co112  1  0.74352082  -0.00387082  0.74732669  1
  Co  Co113  1  0.62475359  0.87452516  0.12013683  1
  Co  Co114  1  0.87088858  0.12146578  0.86665161  1
  Co  Co115  1  0.87440383  0.87265650  0.37605146  1
  Co  Co116  1  0.25102315  0.50340585  0.50046143  1
  Co  Co117  1  0.24834416  0.49765268  0.24684497  1
  Co  Co118  1  0.75149436  0.00046128  0.49891433  1
  Co  Co119  1  0.24962729  0.75426407  0.24988036  1
  Co  Co120  1  0.62934968  0.62819173  0.37213638  1
  Co  Co121  1  0.12941545  0.12102846  0.87638413  1
  Co  Co122  1  0.12428107  0.37660296  0.62187153  1
  Co  Co123  1  0.62258212  0.62697579  0.87455877  1
  Co  Co124  1  0.12520688  0.87300661  0.62120779  1
  Co  Co125  1  0.62453280  0.37400002  0.12121318  1
  Co  Co126  1  0.00398739  0.00072096  0.74884512  1
  Co  Co127  1  0.25354309  -0.00145687  0.00318367  1
