# generated using pymatgen
data_Fe45Co19
_symmetry_space_group_name_H-M   'P 1'
_cell_length_a   11.41477510
_cell_length_b   11.41430381
_cell_length_c   11.41422995
_cell_angle_alpha   90.00427951
_cell_angle_beta   89.99094650
_cell_angle_gamma   89.99646792
_symmetry_Int_Tables_number   1
_chemical_formula_structural   Fe45Co19
_chemical_formula_sum   'Fe90 Co38'
_cell_volume   1487.17952317
_cell_formula_units_Z   2
loop_
 _symmetry_equiv_pos_site_id
 _symmetry_equiv_pos_as_xyz
  1  'x, y, z'
loop_
 _atom_site_type_symbol
 _atom_site_label
 _atom_site_symmetry_multiplicity
 _atom_site_fract_x
 _atom_site_fract_y
 _atom_site_fract_z
 _atom_site_occupancy
  Fe  Fe0  1  0.37537063  0.37856565  0.37462518  1
  Fe  Fe1  1  0.74955631  0.74877491  0.50026505  1
  Fe  Fe2  1  0.87421296  0.12587396  0.12621043  1
  Fe  Fe3  1  0.62456052  0.12237861  0.37745733  1
  Fe  Fe4  1  0.50247226  0.25095837  0.25251565  1
  Fe  Fe5  1  0.87649662  0.87657426  0.86975112  1
  Fe  Fe6  1  0.74685380  0.49926761  0.75129013  1
  Fe  Fe7  1  0.87482822  0.62233666  0.37405421  1
  Fe  Fe8  1  0.12396103  0.38294625  0.37585993  1
  Fe  Fe9  1  0.87264601  0.62509659  0.87414223  1
  Fe  Fe10  1  0.62490748  0.87767687  0.87627712  1
  Fe  Fe11  1  0.49756595  0.00127994  0.50373688  1
  Fe  Fe12  1  0.12738287  0.12331402  0.87379509  1
  Fe  Fe13  1  0.12526604  0.37495885  0.62346895  1
  Fe  Fe14  1  0.50223907  0.24757369  0.74823278  1
  Fe  Fe15  1  0.62817496  0.12208039  0.87251691  1
  Fe  Fe16  1  0.37528132  0.62408395  0.87271049  1
  Fe  Fe17  1  0.50142314  0.75145800  0.75182911  1
  Fe  Fe18  1  0.74946177  0.75245732  -0.00290963  1
  Fe  Fe19  1  -0.00146511  0.00110414  -0.00255834  1
  Fe  Fe20  1  -0.00164482  0.00354742  0.49961430  1
  Fe  Fe21  1  0.62444490  0.87349457  0.62354502  1
  Fe  Fe22  1  0.37585315  0.37304289  0.87312549  1
  Fe  Fe23  1  0.87465708  0.87445969  0.12522087  1
  Fe  Fe24  1  0.87371064  0.37724870  0.37532071  1
  Fe  Fe25  1  0.25211310  -0.00168328  0.50090814  1
  Fe  Fe26  1  0.24967569  0.49704124  0.74962487  1
  Fe  Fe27  1  0.25210144  -0.00011481  0.24991167  1
  Fe  Fe28  1  0.00108296  0.24872685  0.25413763  1
  Fe  Fe29  1  0.12753942  0.87568544  0.12250179  1
  Fe  Fe30  1  0.37197150  0.87601781  0.87624504  1
  Fe  Fe31  1  0.49937112  0.24666860  -0.00086616  1
  Fe  Fe32  1  0.12297629  0.87423827  0.62625173  1
  Fe  Fe33  1  0.75189831  0.00019049  0.50338066  1
  Fe  Fe34  1  0.87416061  0.62552519  0.62766011  1
  Fe  Fe35  1  0.62456551  0.37448518  0.62299837  1
  Fe  Fe36  1  0.50159718  0.49815116  0.24822908  1
  Fe  Fe37  1  0.37441028  0.87451132  0.12392127  1
  Fe  Fe38  1  0.74932417  0.24955998  -0.00011620  1
  Fe  Fe39  1  0.00096660  0.74913676  0.25169514  1
  Fe  Fe40  1  0.37589567  0.12498470  0.37498753  1
  Fe  Fe41  1  0.25108051  0.74728130  0.49716926  1
  Fe  Fe42  1  0.49646058  0.00279740  0.00188788  1
  Fe  Fe43  1  0.87257509  0.12773652  0.62947076  1
  Fe  Fe44  1  0.25046126  0.25168683  0.49738901  1
  Fe  Fe45  1  0.00206064  0.25016078  0.75197516  1
  Fe  Fe46  1  0.50430854  0.75276983  0.25077769  1
  Fe  Fe47  1  0.12395725  0.62455991  0.12578257  1
  Fe  Fe48  1  0.37620679  0.62597107  0.12691947  1
  Fe  Fe49  1  0.00146513  0.75188671  -0.00243957  1
  Fe  Fe50  1  0.74685361  0.75328812  0.25074688  1
  Fe  Fe51  1  0.87485339  0.37404675  0.87547587  1
  Fe  Fe52  1  0.12637741  0.12461168  0.12626214  1
  Fe  Fe53  1  0.62735497  0.62481200  0.12093339  1
  Fe  Fe54  1  -0.00006988  0.00153556  0.25171901  1
  Fe  Fe55  1  0.87425906  0.87625884  0.37577225  1
  Fe  Fe56  1  0.49903291  0.50019790  0.50101102  1
  Fe  Fe57  1  0.12548349  0.62276370  0.87685401  1
  Fe  Fe58  1  0.75223723  0.49763164  0.24331052  1
  Fe  Fe59  1  0.12737294  0.12651982  0.62376295  1
  Fe  Fe60  1  0.12557577  0.62420138  0.62335926  1
  Fe  Fe61  1  0.62551648  0.62225894  0.37565356  1
  Fe  Fe62  1  0.00003417  0.74723154  0.49871489  1
  Fe  Fe63  1  0.00103995  0.49959128  0.74919200  1
  Fe  Fe64  1  0.49895984  0.74933240  -0.00129187  1
  Fe  Fe65  1  0.12391205  0.87605972  0.37625404  1
  Fe  Fe66  1  0.12348741  0.37545071  0.12442694  1
  Fe  Fe67  1  0.74854927  0.25078768  0.49927849  1
  Fe  Fe68  1  0.74643002  -0.00289718  0.24874490  1
  Fe  Fe69  1  0.62355803  0.62547702  0.62726510  1
  Fe  Fe70  1  0.24942994  0.74702422  0.25226480  1
  Fe  Fe71  1  0.00014296  0.24691238  -0.00284618  1
  Fe  Fe72  1  0.24756561  0.75073831  0.75224036  1
  Fe  Fe73  1  0.62397477  0.37666042  0.87706648  1
  Fe  Fe74  1  0.25114197  0.24824052  -0.00160372  1
  Fe  Fe75  1  0.87417182  0.37462302  0.62545059  1
  Fe  Fe76  1  -0.00115309  0.24837103  0.49685452  1
  Fe  Fe77  1  0.37645036  0.37244674  0.12468459  1
  Fe  Fe78  1  0.49864904  0.00116472  0.74627940  1
  Fe  Fe79  1  0.25107858  0.00003472  0.74812504  1
  Fe  Fe80  1  0.37883626  0.87284474  0.37622854  1
  Fe  Fe81  1  0.74681478  0.25145955  0.24975786  1
  Fe  Fe82  1  0.87815924  0.87293655  0.62848824  1
  Fe  Fe83  1  -0.00448204  0.50010857  0.00365688  1
  Fe  Fe84  1  0.25247799  0.49946201  0.00159210  1
  Fe  Fe85  1  0.37623597  0.62702709  0.62689737  1
  Fe  Fe86  1  0.49957263  0.50049223  -0.00089057  1
  Fe  Fe87  1  0.24899538  0.25151186  0.25126229  1
  Fe  Fe88  1  0.62409256  0.12342215  0.12528634  1
  Fe  Fe89  1  0.37533084  0.37157952  0.62626291  1
  Co  Co90  1  0.00313311  0.74739123  0.75181540  1
  Co  Co91  1  0.62652988  0.12635794  0.62379802  1
  Co  Co92  1  0.87288809  0.63150753  0.12425108  1
  Co  Co93  1  0.62440853  0.87736725  0.38110124  1
  Co  Co94  1  0.62513717  0.62388601  0.87667457  1
  Co  Co95  1  0.37562638  0.12761700  0.12925493  1
  Co  Co96  1  0.25229241  0.00424442  0.00116344  1
  Co  Co97  1  0.37234453  0.12951376  0.62473615  1
  Co  Co98  1  0.87709655  0.36799152  0.12440111  1
  Co  Co99  1  0.37862170  0.62435160  0.37326010  1
  Co  Co100  1  0.12339079  0.61996694  0.37488886  1
  Co  Co101  1  0.74942217  0.50096820  0.50325534  1
  Co  Co102  1  0.74726403  0.75086550  0.75062081  1
  Co  Co103  1  0.62282866  0.37467249  0.12170849  1
  Co  Co104  1  0.74692297  0.25390634  0.75045503  1
  Co  Co105  1  0.62417677  0.87536607  0.12001744  1
  Co  Co106  1  0.75302531  -0.00016988  -0.00004774  1
  Co  Co107  1  0.37492861  0.12541248  0.87056931  1
  Co  Co108  1  0.12374353  0.37782383  0.87782714  1
  Co  Co109  1  0.12750591  0.87731928  0.87552131  1
  Co  Co110  1  0.87031352  0.12436251  0.37320900  1
  Co  Co111  1  0.75244649  0.49801001  0.00170738  1
  Co  Co112  1  -0.00236258  0.50075503  0.50250096  1
  Co  Co113  1  0.50089432  0.74735737  0.50011417  1
  Co  Co114  1  0.74932356  -0.00244185  0.74731695  1
  Co  Co115  1  0.50107609  0.49825951  0.74937389  1
  Co  Co116  1  0.24740701  0.25160533  0.75264530  1
  Co  Co117  1  0.12818229  0.12289747  0.37623035  1
  Co  Co118  1  0.50086658  -0.00241161  0.24909287  1
  Co  Co119  1  0.00102186  0.00384107  0.75053932  1
  Co  Co120  1  0.50078484  0.25125926  0.49830917  1
  Co  Co121  1  -0.00423912  0.50025484  0.24619191  1
  Co  Co122  1  0.25031317  0.74713541  0.00003935  1
  Co  Co123  1  0.37469663  0.87088344  0.62544478  1
  Co  Co124  1  0.25418939  0.50154489  0.50193847  1
  Co  Co125  1  0.62720300  0.37856109  0.37589567  1
  Co  Co126  1  0.25097053  0.50095517  0.24763633  1
  Co  Co127  1  0.87087919  0.12606317  0.87153901  1
