# generated using pymatgen
data_Fe45Co19
_symmetry_space_group_name_H-M   'P 1'
_cell_length_a   11.41542744
_cell_length_b   11.41517073
_cell_length_c   11.41453348
_cell_angle_alpha   89.99652401
_cell_angle_beta   90.00343581
_cell_angle_gamma   89.99538721
_symmetry_Int_Tables_number   1
_chemical_formula_structural   Fe45Co19
_chemical_formula_sum   'Fe90 Co38'
_cell_volume   1487.41703935
_cell_formula_units_Z   2
loop_
 _symmetry_equiv_pos_site_id
 _symmetry_equiv_pos_as_xyz
  1  'x, y, z'
loop_
 _atom_site_type_symbol
 _atom_site_label
 _atom_site_symmetry_multiplicity
 _atom_site_fract_x
 _atom_site_fract_y
 _atom_site_fract_z
 _atom_site_occupancy
  Fe  Fe0  1  0.87462824  0.87641455  0.62560148  1
  Fe  Fe1  1  0.12836274  0.12053182  0.37520036  1
  Fe  Fe2  1  0.74816473  0.74988858  0.24965018  1
  Fe  Fe3  1  0.12362704  0.37722352  0.12525966  1
  Fe  Fe4  1  0.24723435  0.75078780  0.00330118  1
  Fe  Fe5  1  0.00121890  0.74963081  0.00161695  1
  Fe  Fe6  1  0.24782333  0.24985586  0.24874589  1
  Fe  Fe7  1  0.12309609  0.12703751  0.87582364  1
  Fe  Fe8  1  0.24939096  -0.00015845  0.74830462  1
  Fe  Fe9  1  -0.00398688  0.00120437  0.49721603  1
  Fe  Fe10  1  0.00096544  0.74907685  0.49914028  1
  Fe  Fe11  1  0.50122137  0.74885810  0.00070856  1
  Fe  Fe12  1  0.12302884  0.87977382  0.12939836  1
  Fe  Fe13  1  0.62755474  0.62308002  0.87233468  1
  Fe  Fe14  1  0.12540251  0.62347425  0.62367274  1
  Fe  Fe15  1  0.87427053  0.87321918  0.87382793  1
  Fe  Fe16  1  0.74994220  0.25012091  0.24782843  1
  Fe  Fe17  1  0.75185193  0.49741823  0.50149160  1
  Fe  Fe18  1  0.75398879  0.49680786  0.00007635  1
  Fe  Fe19  1  0.75016575  0.25455326  0.74635700  1
  Fe  Fe20  1  0.87707240  0.37292293  0.37581238  1
  Fe  Fe21  1  0.62529647  0.87433454  0.87430956  1
  Fe  Fe22  1  0.75357852  0.00210211  0.25185790  1
  Fe  Fe23  1  0.12424552  0.87910656  0.62258959  1
  Fe  Fe24  1  0.50052374  0.50188813  0.25271506  1
  Fe  Fe25  1  0.74884071  0.75000615  0.50274860  1
  Fe  Fe26  1  0.37422042  0.87381110  0.87321799  1
  Fe  Fe27  1  0.62469355  0.87758779  0.12617218  1
  Fe  Fe28  1  0.87243380  0.12518118  0.62329111  1
  Fe  Fe29  1  0.00144860  0.74918974  0.74808652  1
  Fe  Fe30  1  0.37828614  0.37547022  0.62275849  1
  Fe  Fe31  1  0.24945954  0.49745561  0.49716632  1
  Fe  Fe32  1  0.24532720  0.25034819  0.74716329  1
  Fe  Fe33  1  0.50227503  0.74551441  0.49928206  1
  Fe  Fe34  1  0.24863006  0.25077928  0.00167557  1
  Fe  Fe35  1  0.00063309  0.24747888  0.25045416  1
  Fe  Fe36  1  0.62425296  0.87890330  0.62409093  1
  Fe  Fe37  1  0.88079018  0.37139458  0.87422485  1
  Fe  Fe38  1  0.62308195  0.87599969  0.37616871  1
  Fe  Fe39  1  0.62573678  0.61823684  0.62815266  1
  Fe  Fe40  1  0.12390152  0.12047484  0.12547731  1
  Fe  Fe41  1  0.50165337  0.24928033  0.24995272  1
  Fe  Fe42  1  0.12574174  0.87348727  0.87357401  1
  Fe  Fe43  1  0.25057045  0.00011074  0.00023142  1
  Fe  Fe44  1  0.37609642  0.37070931  0.37662486  1
  Fe  Fe45  1  0.37653734  0.87600714  0.62543707  1
  Fe  Fe46  1  0.49752541  0.00213624  0.25118937  1
  Fe  Fe47  1  0.49927047  0.00168902  -0.00125778  1
  Fe  Fe48  1  0.24779874  0.49885888  0.25318431  1
  Fe  Fe49  1  0.00179961  0.24815730  0.50044612  1
  Fe  Fe50  1  0.37450652  0.37184743  0.87411176  1
  Fe  Fe51  1  0.87564081  0.12640815  0.12184113  1
  Fe  Fe52  1  0.62321446  0.37492867  0.87492351  1
  Fe  Fe53  1  0.75059776  0.00140015  -0.00021677  1
  Fe  Fe54  1  0.00167555  0.50110453  0.25381015  1
  Fe  Fe55  1  0.87644279  0.87545425  0.12570128  1
  Fe  Fe56  1  -0.00034393  0.00200124  0.75083503  1
  Fe  Fe57  1  0.62737350  0.12495514  0.37686491  1
  Fe  Fe58  1  0.37118894  0.62843503  0.87377779  1
  Fe  Fe59  1  0.24751775  0.75515043  0.49700473  1
  Fe  Fe60  1  0.37246554  0.62884820  0.37310199  1
  Fe  Fe61  1  0.62656857  0.62316076  0.12460217  1
  Fe  Fe62  1  0.24857037  0.49867549  -0.00287373  1
  Fe  Fe63  1  0.87405758  0.62678261  0.87274240  1
  Fe  Fe64  1  0.00368242  0.74726998  0.25134512  1
  Fe  Fe65  1  0.00120632  0.50114273  -0.00105799  1
  Fe  Fe66  1  0.87306663  0.62503818  0.37485461  1
  Fe  Fe67  1  0.75078511  0.49752491  0.24902400  1
  Fe  Fe68  1  0.87676453  0.12800154  0.87656307  1
  Fe  Fe69  1  0.74687778  0.25367179  0.50427472  1
  Fe  Fe70  1  0.49722240  0.50050556  -0.00197352  1
  Fe  Fe71  1  0.37467840  0.12625333  0.87207545  1
  Fe  Fe72  1  0.50224032  0.24976143  0.74570455  1
  Fe  Fe73  1  0.37642028  0.87202134  0.12824176  1
  Fe  Fe74  1  0.24783707  0.49901553  0.75143652  1
  Fe  Fe75  1  0.87577881  0.87294023  0.37478277  1
  Fe  Fe76  1  0.37238661  0.62621350  0.12788561  1
  Fe  Fe77  1  0.37595832  0.12635015  0.12519124  1
  Fe  Fe78  1  0.12024384  0.37707607  0.62432457  1
  Fe  Fe79  1  0.74998779  -0.00042870  0.75041626  1
  Fe  Fe80  1  0.62226927  0.37588397  0.37867225  1
  Fe  Fe81  1  0.87497036  0.62174518  0.62689707  1
  Fe  Fe82  1  0.37618459  0.37518633  0.12542673  1
  Fe  Fe83  1  0.62503045  0.12715599  0.87503206  1
  Fe  Fe84  1  0.62362131  0.37383528  0.12201437  1
  Fe  Fe85  1  0.37267907  0.62409684  0.62491868  1
  Fe  Fe86  1  0.75075266  0.74996146  0.00162040  1
  Fe  Fe87  1  0.49555739  0.00582098  0.49995404  1
  Fe  Fe88  1  0.50079696  0.74893632  0.74939778  1
  Fe  Fe89  1  0.24922970  0.24784088  0.50182516  1
  Co  Co90  1  0.00160791  0.50194551  0.75220418  1
  Co  Co91  1  0.37920887  0.87079097  0.37479226  1
  Co  Co92  1  -0.00640395  0.00430627  0.25278722  1
  Co  Co93  1  0.50439968  0.74693704  0.25033170  1
  Co  Co94  1  0.00237506  0.25052654  0.00416802  1
  Co  Co95  1  0.25584384  -0.00052406  0.49844469  1
  Co  Co96  1  0.75365660  0.49322420  0.75057923  1
  Co  Co97  1  0.61900958  0.38138657  0.62389648  1
  Co  Co98  1  0.12220706  0.37165436  0.87401656  1
  Co  Co99  1  0.12645371  0.62819667  0.87426369  1
  Co  Co100  1  0.50063579  0.00004147  0.75088251  1
  Co  Co101  1  0.75092274  0.25225517  0.00074090  1
  Co  Co102  1  0.24477781  0.75318376  0.25224360  1
  Co  Co103  1  -0.00035159  0.50119278  0.49684255  1
  Co  Co104  1  0.12263756  0.88165945  0.37422445  1
  Co  Co105  1  0.24890437  0.75166075  0.74578854  1
  Co  Co106  1  0.62841845  0.12148849  0.62461849  1
  Co  Co107  1  0.37368449  0.12609815  0.62892570  1
  Co  Co108  1  0.12656080  0.62219829  0.12540640  1
  Co  Co109  1  0.88144549  0.37536904  0.62344143  1
  Co  Co110  1  0.87194401  0.13005917  0.37918520  1
  Co  Co111  1  0.49485929  0.50097352  0.75322569  1
  Co  Co112  1  0.87824679  0.37476935  0.12731083  1
  Co  Co113  1  -0.00029628  -0.00206808  -0.00236369  1
  Co  Co114  1  0.75228370  -0.00258411  0.49763824  1
  Co  Co115  1  0.00085618  0.24640973  0.74552534  1
  Co  Co116  1  0.63006100  0.62346064  0.37534527  1
  Co  Co117  1  0.25531680  -0.00175064  0.25164001  1
  Co  Co118  1  0.74832947  0.75135855  0.74675247  1
  Co  Co119  1  0.62526295  0.12491250  0.12469791  1
  Co  Co120  1  0.50157685  0.24589431  0.50287214  1
  Co  Co121  1  0.49719018  0.50409658  0.49554871  1
  Co  Co122  1  0.49858016  0.24918214  0.00016488  1
  Co  Co123  1  0.12698871  0.62496273  0.37767137  1
  Co  Co124  1  0.12486907  0.12056097  0.62211017  1
  Co  Co125  1  0.37273901  0.13046555  0.37409204  1
  Co  Co126  1  0.12427051  0.37192541  0.37603341  1
  Co  Co127  1  0.87554942  0.62438632  0.12652445  1
