# generated using pymatgen
data_Fe45Co19
_symmetry_space_group_name_H-M   'P 1'
_cell_length_a   11.41490453
_cell_length_b   11.41392739
_cell_length_c   11.41434435
_cell_angle_alpha   89.99206928
_cell_angle_beta   90.00207334
_cell_angle_gamma   89.98864958
_symmetry_Int_Tables_number   1
_chemical_formula_structural   Fe45Co19
_chemical_formula_sum   'Fe90 Co38'
_cell_volume   1487.16222807
_cell_formula_units_Z   2
loop_
 _symmetry_equiv_pos_site_id
 _symmetry_equiv_pos_as_xyz
  1  'x, y, z'
loop_
 _atom_site_type_symbol
 _atom_site_label
 _atom_site_symmetry_multiplicity
 _atom_site_fract_x
 _atom_site_fract_y
 _atom_site_fract_z
 _atom_site_occupancy
  Fe  Fe0  1  0.62559796  0.87450824  0.62433011  1
  Fe  Fe1  1  0.62719696  0.37163605  0.62821218  1
  Fe  Fe2  1  0.49920622  0.24827605  -0.00141667  1
  Fe  Fe3  1  0.62898456  0.12810098  0.62736959  1
  Fe  Fe4  1  0.49910634  0.74956999  0.00006428  1
  Fe  Fe5  1  0.25153054  0.49869593  0.25216641  1
  Fe  Fe6  1  0.49988434  0.00383751  0.74925715  1
  Fe  Fe7  1  0.74988730  0.49951497  0.24949930  1
  Fe  Fe8  1  0.62457937  0.87559432  0.87507265  1
  Fe  Fe9  1  0.75261001  0.24959824  0.25016810  1
  Fe  Fe10  1  0.87346435  0.87431460  0.12430017  1
  Fe  Fe11  1  0.87578491  0.62249073  0.37429640  1
  Fe  Fe12  1  0.12674307  0.86967552  0.13051035  1
  Fe  Fe13  1  0.37485264  0.62319611  0.87524324  1
  Fe  Fe14  1  0.49884257  0.74867642  0.74875700  1
  Fe  Fe15  1  0.62446755  0.37309136  0.37475467  1
  Fe  Fe16  1  0.49401436  0.74780877  0.25202880  1
  Fe  Fe17  1  0.49941117  0.00168616  -0.00094886  1
  Fe  Fe18  1  0.12275464  0.12651160  0.37442410  1
  Fe  Fe19  1  0.75007036  0.25063777  -0.00253739  1
  Fe  Fe20  1  0.87364494  0.12443442  0.37511999  1
  Fe  Fe21  1  -0.00003703  0.75078926  0.49900300  1
  Fe  Fe22  1  -0.00030287  0.74791619  0.00287305  1
  Fe  Fe23  1  0.24763031  0.00093688  0.00098167  1
  Fe  Fe24  1  0.12240529  0.37495428  0.62584684  1
  Fe  Fe25  1  0.12656354  0.62642275  0.37231539  1
  Fe  Fe26  1  0.37506613  0.37382909  0.62618709  1
  Fe  Fe27  1  0.37430527  0.87677841  0.87401562  1
  Fe  Fe28  1  0.74957063  -0.00004871  0.00043584  1
  Fe  Fe29  1  0.87316746  0.12508262  0.62250394  1
  Fe  Fe30  1  0.12529699  0.62591164  0.62618032  1
  Fe  Fe31  1  -0.00152184  0.00129245  0.24906777  1
  Fe  Fe32  1  0.62570494  0.62482535  0.87271119  1
  Fe  Fe33  1  0.25006195  0.49740437  0.75065057  1
  Fe  Fe34  1  0.87644422  0.37646374  0.37558749  1
  Fe  Fe35  1  0.75138784  0.74901463  0.49955857  1
  Fe  Fe36  1  0.50166278  0.24811927  0.50097678  1
  Fe  Fe37  1  0.37114182  0.37285108  0.12320967  1
  Fe  Fe38  1  0.24823695  0.25367342  0.49640772  1
  Fe  Fe39  1  0.50375720  -0.00033398  0.25288058  1
  Fe  Fe40  1  0.37095097  0.12534192  0.62361944  1
  Fe  Fe41  1  0.12228586  0.87576703  0.62239661  1
  Fe  Fe42  1  0.49696514  0.25069701  0.25037962  1
  Fe  Fe43  1  0.87578718  0.37430327  0.12458417  1
  Fe  Fe44  1  0.25036769  0.75291710  0.49614597  1
  Fe  Fe45  1  0.75387597  0.75314239  0.75031342  1
  Fe  Fe46  1  0.24628346  -0.00148750  0.49744270  1
  Fe  Fe47  1  0.49798438  0.49977452  0.24950879  1
  Fe  Fe48  1  0.00394175  0.25056908  0.00138717  1
  Fe  Fe49  1  0.62530086  0.87345582  0.12627549  1
  Fe  Fe50  1  0.00272547  0.00070207  0.00460313  1
  Fe  Fe51  1  0.00358129  0.50006451  0.00366739  1
  Fe  Fe52  1  0.87556357  0.87706457  0.37585437  1
  Fe  Fe53  1  0.12299915  0.62525388  0.87293472  1
  Fe  Fe54  1  0.87658704  0.62617112  0.87487331  1
  Fe  Fe55  1  0.37190189  0.12584814  0.12605958  1
  Fe  Fe56  1  0.62423264  0.62507392  0.37574584  1
  Fe  Fe57  1  0.00109811  0.24772142  0.74864953  1
  Fe  Fe58  1  0.50008435  0.49868306  -0.00077459  1
  Fe  Fe59  1  0.75260055  -0.00087668  0.75240227  1
  Fe  Fe60  1  0.37736813  0.12265699  0.37713558  1
  Fe  Fe61  1  0.24899113  -0.00071343  0.25248726  1
  Fe  Fe62  1  0.25075359  0.74955117  0.00087747  1
  Fe  Fe63  1  0.74996584  0.49823063  0.50228201  1
  Fe  Fe64  1  0.37440696  0.87598915  0.12607215  1
  Fe  Fe65  1  0.62514903  0.62506670  0.12490057  1
  Fe  Fe66  1  0.24700863  0.49705526  -0.00046941  1
  Fe  Fe67  1  0.75217232  0.49848838  0.74799481  1
  Fe  Fe68  1  0.37561856  0.87865883  0.62342851  1
  Fe  Fe69  1  0.87650176  0.62548381  0.62626001  1
  Fe  Fe70  1  0.87926204  0.37574395  0.87312754  1
  Fe  Fe71  1  0.87777361  0.12321613  0.87760210  1
  Fe  Fe72  1  0.74523765  0.00095603  0.49587405  1
  Fe  Fe73  1  0.24903779  0.75190838  0.74979284  1
  Fe  Fe74  1  0.00107163  0.50044644  0.24667412  1
  Fe  Fe75  1  0.24603494  0.00077289  0.74902727  1
  Fe  Fe76  1  0.00160090  0.50041061  0.50151638  1
  Fe  Fe77  1  -0.00044661  -0.00126137  0.74658980  1
  Fe  Fe78  1  0.62190512  0.37343342  0.87061412  1
  Fe  Fe79  1  0.37237743  0.62360917  0.62271090  1
  Fe  Fe80  1  -0.00086342  0.25017010  0.49890573  1
  Fe  Fe81  1  0.49860811  0.75045002  0.49991958  1
  Fe  Fe82  1  0.50324911  0.50026333  0.50395837  1
  Fe  Fe83  1  0.62553511  0.37374529  0.12555304  1
  Fe  Fe84  1  0.37050833  0.12707830  0.87391032  1
  Fe  Fe85  1  0.75230645  0.74852837  0.24972063  1
  Fe  Fe86  1  0.12718306  0.13102700  0.12854176  1
  Fe  Fe87  1  0.62696965  0.12565495  0.12585726  1
  Fe  Fe88  1  0.12260786  0.87558624  0.87523991  1
  Fe  Fe89  1  0.74996368  0.49943339  -0.00052876  1
  Co  Co90  1  0.50608892  0.00262761  0.50096854  1
  Co  Co91  1  0.37713062  0.37342011  0.87403028  1
  Co  Co92  1  0.49905460  0.50187250  0.74717445  1
  Co  Co93  1  0.12116761  0.37548745  0.37240939  1
  Co  Co94  1  0.25407562  0.25132038  0.25763236  1
  Co  Co95  1  0.12216240  0.87327556  0.37150866  1
  Co  Co96  1  0.87391779  0.87775735  0.61950128  1
  Co  Co97  1  0.24658224  0.25186819  0.75073253  1
  Co  Co98  1  0.75011287  0.00041015  0.25019938  1
  Co  Co99  1  0.75131274  0.25185785  0.49753522  1
  Co  Co100  1  0.62770429  0.62731378  0.62551054  1
  Co  Co101  1  0.12333049  0.12271467  0.87455037  1
  Co  Co102  1  0.87812854  0.87649560  0.87954870  1
  Co  Co103  1  0.62522869  0.12964163  0.37184125  1
  Co  Co104  1  0.87702352  0.37342701  0.62488146  1
  Co  Co105  1  0.62486983  0.87048250  0.37456480  1
  Co  Co106  1  0.24595687  0.49625560  0.50021086  1
  Co  Co107  1  -0.00142381  0.75399010  0.74798030  1
  Co  Co108  1  0.12823167  0.62730357  0.12908572  1
  Co  Co109  1  0.49856664  0.24563890  0.74946539  1
  Co  Co110  1  -0.00397743  0.24912094  0.25112350  1
  Co  Co111  1  0.00094982  0.00135497  0.49886370  1
  Co  Co112  1  0.25743933  0.74951402  0.25395401  1
  Co  Co113  1  0.12211654  0.37599066  0.87281145  1
  Co  Co114  1  0.12613044  0.12609128  0.62229797  1
  Co  Co115  1  -0.00489839  0.74883844  0.24971101  1
  Co  Co116  1  0.87338531  0.62268896  0.12379561  1
  Co  Co117  1  0.74968827  0.74935617  -0.00018300  1
  Co  Co118  1  0.12770980  0.37053168  0.13005568  1
  Co  Co119  1  0.37376426  0.62230982  0.12231816  1
  Co  Co120  1  0.75402242  0.25019587  0.75366310  1
  Co  Co121  1  0.62666016  0.12471115  0.87545796  1
  Co  Co122  1  0.87369655  0.12664253  0.12244510  1
  Co  Co123  1  0.37748194  0.88015032  0.37718578  1
  Co  Co124  1  0.37445235  0.61993132  0.38044877  1
  Co  Co125  1  -0.00034372  0.50114883  0.74806462  1
  Co  Co126  1  0.37924751  0.37783623  0.37878660  1
  Co  Co127  1  0.24710125  0.25086100  -0.00384096  1
