# generated using pymatgen
data_Fe45Co19
_symmetry_space_group_name_H-M   'P 1'
_cell_length_a   11.41634458
_cell_length_b   11.41380855
_cell_length_c   11.41581856
_cell_angle_alpha   90.00327888
_cell_angle_beta   90.00554214
_cell_angle_gamma   90.00033540
_symmetry_Int_Tables_number   1
_chemical_formula_structural   Fe45Co19
_chemical_formula_sum   'Fe90 Co38'
_cell_volume   1487.52648635
_cell_formula_units_Z   2
loop_
 _symmetry_equiv_pos_site_id
 _symmetry_equiv_pos_as_xyz
  1  'x, y, z'
loop_
 _atom_site_type_symbol
 _atom_site_label
 _atom_site_symmetry_multiplicity
 _atom_site_fract_x
 _atom_site_fract_y
 _atom_site_fract_z
 _atom_site_occupancy
  Fe  Fe0  1  0.49628376  0.24508631  0.75132786  1
  Fe  Fe1  1  0.75124623  0.24736951  0.00433882  1
  Fe  Fe2  1  0.49934252  0.49995787  0.49906457  1
  Fe  Fe3  1  0.74799196  0.75542041  0.50063466  1
  Fe  Fe4  1  0.37631320  0.37520342  0.62553857  1
  Fe  Fe5  1  0.00061191  0.49783666  0.24956037  1
  Fe  Fe6  1  0.25269892  0.24680267  0.74957925  1
  Fe  Fe7  1  0.00031403  0.75208287  0.50019779  1
  Fe  Fe8  1  0.49684534  0.00091201  0.75308355  1
  Fe  Fe9  1  0.87590734  0.37491163  0.87236314  1
  Fe  Fe10  1  0.12375490  0.37237632  0.87213361  1
  Fe  Fe11  1  0.37456670  0.37445587  0.12390019  1
  Fe  Fe12  1  0.50194507  -0.00490116  0.49951176  1
  Fe  Fe13  1  0.62620280  0.12370334  0.37612368  1
  Fe  Fe14  1  0.00049723  0.49822693  0.49946981  1
  Fe  Fe15  1  0.75046715  0.00092211  0.00013963  1
  Fe  Fe16  1  0.75182986  0.00110060  0.75102041  1
  Fe  Fe17  1  0.25003965  0.24981919  0.50265073  1
  Fe  Fe18  1  0.12493421  0.12316294  0.62588935  1
  Fe  Fe19  1  0.24913473  0.75517162  0.50259669  1
  Fe  Fe20  1  0.49975416  0.24675063  -0.00146707  1
  Fe  Fe21  1  0.87953612  0.87826199  0.12360519  1
  Fe  Fe22  1  0.37485143  0.37308251  0.37572860  1
  Fe  Fe23  1  0.25063964  0.49945488  -0.00245119  1
  Fe  Fe24  1  0.75022800  0.24893446  0.50190453  1
  Fe  Fe25  1  0.62319660  0.37437384  0.62690384  1
  Fe  Fe26  1  0.49773623  0.00053082  0.25057289  1
  Fe  Fe27  1  0.49753427  0.75231143  0.74886522  1
  Fe  Fe28  1  0.75051069  0.49848705  0.49989765  1
  Fe  Fe29  1  0.87445685  0.62274517  0.12351350  1
  Fe  Fe30  1  0.75367542  0.00354043  0.25113968  1
  Fe  Fe31  1  0.62530395  0.37186093  0.87346441  1
  Fe  Fe32  1  0.25123932  0.50154386  0.75070842  1
  Fe  Fe33  1  0.12428006  0.37159865  0.37421676  1
  Fe  Fe34  1  0.12368245  0.37581268  0.62768133  1
  Fe  Fe35  1  0.62574653  0.62612466  0.12437643  1
  Fe  Fe36  1  0.62388924  0.12255344  0.62552587  1
  Fe  Fe37  1  0.50008791  0.24718151  0.25024071  1
  Fe  Fe38  1  0.62557509  0.62839289  0.87533834  1
  Fe  Fe39  1  0.49859457  0.50052965  0.25080571  1
  Fe  Fe40  1  0.49945739  0.50043422  -0.00170605  1
  Fe  Fe41  1  0.87613018  0.87799666  0.62372822  1
  Fe  Fe42  1  0.25115508  0.49971597  0.25217744  1
  Fe  Fe43  1  0.00187371  0.00131945  0.75413090  1
  Fe  Fe44  1  0.87560210  0.62512394  0.87547034  1
  Fe  Fe45  1  0.00057693  0.00106175  0.49487259  1
  Fe  Fe46  1  0.00072459  0.00370012  0.25557566  1
  Fe  Fe47  1  0.12641633  0.63065740  0.87499566  1
  Fe  Fe48  1  0.62511262  0.37301180  0.37506752  1
  Fe  Fe49  1  0.37403991  0.12410423  0.37807125  1
  Fe  Fe50  1  0.37477780  0.87614841  0.12288479  1
  Fe  Fe51  1  0.49913094  0.50091326  0.75203935  1
  Fe  Fe52  1  0.37400679  0.12316384  0.12106450  1
  Fe  Fe53  1  0.87630966  0.36864913  0.37161337  1
  Fe  Fe54  1  0.24895290  0.24739000  0.24817964  1
  Fe  Fe55  1  0.75211617  0.24770752  0.74833006  1
  Fe  Fe56  1  0.12151355  0.12337277  0.12133743  1
  Fe  Fe57  1  0.74959313  0.49944693  0.25149946  1
  Fe  Fe58  1  0.24383381  -0.00565323  -0.00382415  1
  Fe  Fe59  1  0.87838959  0.12727562  0.87858336  1
  Fe  Fe60  1  0.12575226  0.62596882  0.37643998  1
  Fe  Fe61  1  0.62520575  0.62768605  0.37563252  1
  Fe  Fe62  1  0.24918025  -0.00319492  0.75294274  1
  Fe  Fe63  1  0.49873435  0.75194482  0.25028477  1
  Fe  Fe64  1  0.62558534  0.62653604  0.62464479  1
  Fe  Fe65  1  0.87662266  0.12267560  0.62235261  1
  Fe  Fe66  1  0.24785469  0.00045938  0.25091464  1
  Fe  Fe67  1  0.50125856  -0.00048762  -0.00315458  1
  Fe  Fe68  1  0.62591819  0.87427761  0.87382188  1
  Fe  Fe69  1  0.24906154  0.75261147  0.24706607  1
  Fe  Fe70  1  0.37474008  0.62638903  0.62231067  1
  Fe  Fe71  1  0.12614216  0.62378726  0.62380629  1
  Fe  Fe72  1  -0.00018519  0.74902956  0.74697582  1
  Fe  Fe73  1  0.37467943  0.62563256  0.12302614  1
  Fe  Fe74  1  0.12561825  0.62294797  0.12443785  1
  Fe  Fe75  1  0.87336245  0.62246848  0.62489525  1
  Fe  Fe76  1  0.75245994  0.75156577  0.24813979  1
  Fe  Fe77  1  0.62488449  0.37433819  0.12509681  1
  Fe  Fe78  1  0.37383899  0.62802903  0.37796242  1
  Fe  Fe79  1  0.87801917  0.87302516  0.87687662  1
  Fe  Fe80  1  0.74907207  0.49989638  -0.00201563  1
  Fe  Fe81  1  0.75231917  0.75093960  0.75001171  1
  Fe  Fe82  1  0.37260728  0.63137471  0.87724525  1
  Fe  Fe83  1  0.24846642  0.25045101  -0.00072217  1
  Fe  Fe84  1  0.62610365  0.87654890  0.12561177  1
  Fe  Fe85  1  0.24780968  -0.00266627  0.49890635  1
  Fe  Fe86  1  0.87498613  0.62640872  0.37584031  1
  Fe  Fe87  1  0.00086600  0.49715219  -0.00007396  1
  Fe  Fe88  1  -0.00032706  0.75002406  0.24932930  1
  Fe  Fe89  1  0.87690186  0.37768888  0.62853276  1
  Co  Co90  1  0.62559933  0.87696519  0.63038310  1
  Co  Co91  1  0.00388127  0.24891399  0.24393592  1
  Co  Co92  1  0.62286778  0.12236928  0.12476977  1
  Co  Co93  1  0.62692379  0.87626825  0.37030079  1
  Co  Co94  1  0.87201516  0.37576195  0.12800716  1
  Co  Co95  1  0.75131730  0.75204309  0.00103112  1
  Co  Co96  1  0.74753693  0.50088861  0.75093264  1
  Co  Co97  1  0.24650444  0.75438721  0.00534742  1
  Co  Co98  1  0.00236101  0.50349695  0.75095019  1
  Co  Co99  1  0.87493291  0.13135209  0.37523040  1
  Co  Co100  1  0.25019700  0.75268669  0.74493635  1
  Co  Co101  1  0.37497847  0.37335324  0.87490040  1
  Co  Co102  1  0.12440567  0.12913509  0.87520519  1
  Co  Co103  1  0.00073709  0.74924203  0.00345164  1
  Co  Co104  1  0.37352730  0.87224902  0.87683097  1
  Co  Co105  1  0.00379356  -0.00151584  -0.00572858  1
  Co  Co106  1  0.37444708  0.12105025  0.62256700  1
  Co  Co107  1  0.12499708  0.87284933  0.37386526  1
  Co  Co108  1  0.50185589  0.75224962  0.00214177  1
  Co  Co109  1  0.00079356  0.25009587  0.50423315  1
  Co  Co110  1  0.37141129  0.12256448  0.87803184  1
  Co  Co111  1  0.74938572  -0.00104414  0.49926010  1
  Co  Co112  1  -0.00135592  0.24647001  0.74825349  1
  Co  Co113  1  0.88020919  0.12240493  0.12396476  1
  Co  Co114  1  0.37616177  0.87725693  0.62492184  1
  Co  Co115  1  0.24965013  0.49721748  0.49972034  1
  Co  Co116  1  0.74712657  0.24550715  0.24693788  1
  Co  Co117  1  0.12919322  0.37715874  0.12518116  1
  Co  Co118  1  0.87524804  0.87435393  0.37550645  1
  Co  Co119  1  -0.00026689  0.25474359  0.00326382  1
  Co  Co120  1  0.49976530  0.24850282  0.50001820  1
  Co  Co121  1  0.12132630  0.87826552  0.62531362  1
  Co  Co122  1  0.37231856  0.87491286  0.37470180  1
  Co  Co123  1  0.12292092  0.86780150  0.87175063  1
  Co  Co124  1  0.12536722  0.12904625  0.37695985  1
  Co  Co125  1  0.11978892  0.87789546  0.12857954  1
  Co  Co126  1  0.62733699  0.12575023  0.87412961  1
  Co  Co127  1  0.50204233  0.75460948  0.49928805  1
