# generated using pymatgen
data_Fe45Co19
_symmetry_space_group_name_H-M   'P 1'
_cell_length_a   11.41638398
_cell_length_b   11.41608672
_cell_length_c   11.41572309
_cell_angle_alpha   89.99275496
_cell_angle_beta   89.99535257
_cell_angle_gamma   90.00590061
_symmetry_Int_Tables_number   1
_chemical_formula_structural   Fe45Co19
_chemical_formula_sum   'Fe90 Co38'
_cell_volume   1487.81607050
_cell_formula_units_Z   2
loop_
 _symmetry_equiv_pos_site_id
 _symmetry_equiv_pos_as_xyz
  1  'x, y, z'
loop_
 _atom_site_type_symbol
 _atom_site_label
 _atom_site_symmetry_multiplicity
 _atom_site_fract_x
 _atom_site_fract_y
 _atom_site_fract_z
 _atom_site_occupancy
  Fe  Fe0  1  0.75058396  0.75130125  0.49685678  1
  Fe  Fe1  1  0.74949262  0.00056883  -0.00191345  1
  Fe  Fe2  1  -0.00025608  -0.00046625  0.25046005  1
  Fe  Fe3  1  -0.00051309  0.25025708  0.25122749  1
  Fe  Fe4  1  0.75315171  0.74941415  0.00036626  1
  Fe  Fe5  1  0.37574732  0.87389025  0.62669316  1
  Fe  Fe6  1  0.74985032  0.25240551  0.50025365  1
  Fe  Fe7  1  0.24869258  -0.00082149  0.50214656  1
  Fe  Fe8  1  0.87525705  0.62480353  0.37366533  1
  Fe  Fe9  1  0.12825986  0.37567202  0.37437637  1
  Fe  Fe10  1  0.50114425  0.25294908  -0.00158520  1
  Fe  Fe11  1  0.50200455  0.00006365  0.25037420  1
  Fe  Fe12  1  0.87453043  0.37716263  0.87498343  1
  Fe  Fe13  1  0.12551645  0.62510520  0.37256235  1
  Fe  Fe14  1  0.25196924  0.25245260  -0.00174278  1
  Fe  Fe15  1  0.74978710  0.00041275  0.74784002  1
  Fe  Fe16  1  0.12621195  0.87199798  0.62805705  1
  Fe  Fe17  1  -0.00579521  0.75001979  -0.00049969  1
  Fe  Fe18  1  0.12279290  0.87406374  0.87451598  1
  Fe  Fe19  1  0.62612749  0.12589520  0.12475163  1
  Fe  Fe20  1  0.25039355  0.24800145  0.25065817  1
  Fe  Fe21  1  -0.00204415  -0.00085969  -0.00031988  1
  Fe  Fe22  1  0.25470359  0.50220385  0.49938730  1
  Fe  Fe23  1  0.25087289  0.74844405  0.24617987  1
  Fe  Fe24  1  0.74894412  0.50069536  0.24968167  1
  Fe  Fe25  1  0.24963359  -0.00123134  -0.00086775  1
  Fe  Fe26  1  0.12555477  0.37558691  0.62408109  1
  Fe  Fe27  1  0.62661513  0.87324328  0.12488771  1
  Fe  Fe28  1  0.75045254  0.25114468  0.74837506  1
  Fe  Fe29  1  0.37527883  0.37518764  0.12613226  1
  Fe  Fe30  1  0.62401479  0.12647316  0.87475185  1
  Fe  Fe31  1  0.37671256  0.12448201  0.12232813  1
  Fe  Fe32  1  0.37705314  0.12541259  0.37631146  1
  Fe  Fe33  1  0.62627138  0.37394356  0.12539767  1
  Fe  Fe34  1  0.62400013  0.62571534  0.37418589  1
  Fe  Fe35  1  0.24948873  0.00112914  0.75024598  1
  Fe  Fe36  1  0.12466168  0.37730326  0.87672671  1
  Fe  Fe37  1  0.37588072  0.87354300  0.37415665  1
  Fe  Fe38  1  0.50238913  0.00037674  0.49835869  1
  Fe  Fe39  1  0.49944185  0.50275692  0.24802186  1
  Fe  Fe40  1  0.00036977  0.75023551  0.49874056  1
  Fe  Fe41  1  0.37689212  0.12404726  0.87516807  1
  Fe  Fe42  1  0.87169666  0.12551709  0.12559964  1
  Fe  Fe43  1  0.87726324  0.12561013  0.62089059  1
  Fe  Fe44  1  0.12553614  0.12656462  0.12331235  1
  Fe  Fe45  1  0.25240453  0.74756744  0.49977675  1
  Fe  Fe46  1  -0.00131600  0.50202630  0.74809781  1
  Fe  Fe47  1  0.62392696  0.87195023  0.62524470  1
  Fe  Fe48  1  0.12364701  0.87360891  0.12367111  1
  Fe  Fe49  1  0.12435041  0.62257225  0.88105800  1
  Fe  Fe50  1  0.49864420  0.25308737  0.74744565  1
  Fe  Fe51  1  0.12427262  0.12512355  0.37902769  1
  Fe  Fe52  1  0.62315308  0.12728201  0.62337288  1
  Fe  Fe53  1  0.37702283  0.87410988  0.87763541  1
  Fe  Fe54  1  0.75171108  0.49815438  0.00339896  1
  Fe  Fe55  1  0.50076164  0.74749501  0.24671091  1
  Fe  Fe56  1  0.62515075  0.62429074  0.62240604  1
  Fe  Fe57  1  0.87463939  0.12583778  0.87524699  1
  Fe  Fe58  1  -0.00247676  0.25283343  0.00210378  1
  Fe  Fe59  1  0.24991607  0.50327042  0.24477287  1
  Fe  Fe60  1  0.74787107  -0.00375136  0.25577810  1
  Fe  Fe61  1  -0.00353673  0.75128517  0.24995392  1
  Fe  Fe62  1  0.87519614  0.12168975  0.37958667  1
  Fe  Fe63  1  0.62726467  0.62330534  0.87860971  1
  Fe  Fe64  1  0.75104197  0.49933718  0.50048003  1
  Fe  Fe65  1  0.37468931  0.38381283  0.87198199  1
  Fe  Fe66  1  0.62047093  0.37523001  0.37813573  1
  Fe  Fe67  1  0.25200230  0.25039373  0.74752324  1
  Fe  Fe68  1  0.74984631  0.25054991  0.25257001  1
  Fe  Fe69  1  0.12601675  0.87422457  0.37392788  1
  Fe  Fe70  1  0.25028315  0.00016636  0.24904609  1
  Fe  Fe71  1  0.75033911  0.50159700  0.74585684  1
  Fe  Fe72  1  0.87578075  0.37652155  0.37429099  1
  Fe  Fe73  1  -0.00326045  0.74618449  0.75192772  1
  Fe  Fe74  1  0.50073318  0.24917075  0.25121472  1
  Fe  Fe75  1  0.25549746  0.25164106  0.50309949  1
  Fe  Fe76  1  0.25226834  0.74546739  0.75434342  1
  Fe  Fe77  1  0.00013970  0.25142654  0.74846997  1
  Fe  Fe78  1  0.00014029  0.00052603  0.74826164  1
  Fe  Fe79  1  0.37679206  0.87423231  0.12178313  1
  Fe  Fe80  1  0.50098144  -0.00111204  0.75136134  1
  Fe  Fe81  1  0.87345253  0.87214332  0.62549004  1
  Fe  Fe82  1  0.62695068  0.37612509  0.87330793  1
  Fe  Fe83  1  0.00163869  0.49810486  0.24514433  1
  Fe  Fe84  1  0.12479649  0.12647912  0.87507787  1
  Fe  Fe85  1  0.49594275  0.74558270  0.50002149  1
  Fe  Fe86  1  0.12522774  0.62551652  0.62399714  1
  Fe  Fe87  1  -0.00111140  0.49974046  0.50077545  1
  Fe  Fe88  1  0.62717836  0.87408169  0.87459287  1
  Fe  Fe89  1  0.49972680  0.74481838  0.75410589  1
  Co  Co90  1  0.12433122  0.12796761  0.62425181  1
  Co  Co91  1  0.75127766  0.75118893  0.25253985  1
  Co  Co92  1  0.12186491  0.62901104  0.12264119  1
  Co  Co93  1  0.37619738  0.62556452  0.11812288  1
  Co  Co94  1  0.74567704  -0.00266153  0.50018417  1
  Co  Co95  1  0.74836659  0.74719954  0.75079696  1
  Co  Co96  1  0.87637098  0.87642299  0.37770455  1
  Co  Co97  1  0.62840479  0.62567798  0.12461825  1
  Co  Co98  1  0.74878254  0.25087482  -0.00161097  1
  Co  Co99  1  0.50294898  -0.00036992  -0.00023008  1
  Co  Co100  1  0.87324300  0.62104182  0.87587510  1
  Co  Co101  1  -0.00012087  0.25444733  0.49784565  1
  Co  Co102  1  0.12640888  0.37062465  0.12601993  1
  Co  Co103  1  0.87199860  0.37350054  0.12638522  1
  Co  Co104  1  0.87378589  0.62680183  0.62315018  1
  Co  Co105  1  0.00351221  -0.00432588  0.50292027  1
  Co  Co106  1  0.50574595  0.50457662  0.75121530  1
  Co  Co107  1  0.62469560  0.12826038  0.37660628  1
  Co  Co108  1  0.37409775  0.61889966  0.87916458  1
  Co  Co109  1  -0.00103186  0.49746493  0.00458448  1
  Co  Co110  1  0.49589293  0.50204087  0.49783629  1
  Co  Co111  1  0.50316158  0.49802238  0.00195405  1
  Co  Co112  1  0.50277200  0.74839447  -0.00150746  1
  Co  Co113  1  0.25018698  0.75078785  -0.00110484  1
  Co  Co114  1  0.87290890  0.87615400  0.12517484  1
  Co  Co115  1  0.24714757  0.49870807  0.00546995  1
  Co  Co116  1  0.37683497  0.38287224  0.62937661  1
  Co  Co117  1  0.37511928  0.62219732  0.62985472  1
  Co  Co118  1  0.87316302  0.87569260  0.87170528  1
  Co  Co119  1  0.87526092  0.37540680  0.62606785  1
  Co  Co120  1  0.62059842  0.87002482  0.37538293  1
  Co  Co121  1  0.62295575  0.37667513  0.62298221  1
  Co  Co122  1  0.24446042  0.50348000  0.75029635  1
  Co  Co123  1  0.37691309  0.12162899  0.62610248  1
  Co  Co124  1  0.49591151  0.25274689  0.50223783  1
  Co  Co125  1  0.37450830  0.62601688  0.37041759  1
  Co  Co126  1  0.37495590  0.37628603  0.37119498  1
  Co  Co127  1  0.87389072  0.62432231  0.12730675  1
