# generated using pymatgen
data_Fe45Co19
_symmetry_space_group_name_H-M   'P 1'
_cell_length_a   11.41472525
_cell_length_b   11.41574586
_cell_length_c   11.41563871
_cell_angle_alpha   89.99681508
_cell_angle_beta   90.00022528
_cell_angle_gamma   90.00471863
_symmetry_Int_Tables_number   1
_chemical_formula_structural   Fe45Co19
_chemical_formula_sum   'Fe90 Co38'
_cell_volume   1487.54450378
_cell_formula_units_Z   2
loop_
 _symmetry_equiv_pos_site_id
 _symmetry_equiv_pos_as_xyz
  1  'x, y, z'
loop_
 _atom_site_type_symbol
 _atom_site_label
 _atom_site_symmetry_multiplicity
 _atom_site_fract_x
 _atom_site_fract_y
 _atom_site_fract_z
 _atom_site_occupancy
  Fe  Fe0  1  0.50204391  0.49907938  0.50057208  1
  Fe  Fe1  1  0.49598363  0.75147906  0.50351276  1
  Fe  Fe2  1  0.75105709  0.24853194  0.24994025  1
  Fe  Fe3  1  0.00078769  -0.00207290  0.24940941  1
  Fe  Fe4  1  0.37620966  0.62339300  0.37662163  1
  Fe  Fe5  1  0.12675445  0.37092677  0.87198993  1
  Fe  Fe6  1  0.12488660  0.37365497  0.12557628  1
  Fe  Fe7  1  0.12902531  0.87198660  0.62617528  1
  Fe  Fe8  1  0.62664369  0.37458486  0.62641825  1
  Fe  Fe9  1  0.87669077  0.62420598  0.12364060  1
  Fe  Fe10  1  0.74982594  0.00151334  -0.00130861  1
  Fe  Fe11  1  0.75201427  0.50382051  0.74888911  1
  Fe  Fe12  1  0.24928587  0.24592911  -0.00250594  1
  Fe  Fe13  1  0.62436657  0.87313818  0.87320237  1
  Fe  Fe14  1  0.37337173  0.87609285  0.37464302  1
  Fe  Fe15  1  0.62353280  0.62736670  0.37462127  1
  Fe  Fe16  1  0.49897972  -0.00105628  0.75079666  1
  Fe  Fe17  1  0.24676058  0.00427142  -0.00270435  1
  Fe  Fe18  1  0.37437497  0.37453069  0.87627981  1
  Fe  Fe19  1  0.75253485  0.74690290  0.74791796  1
  Fe  Fe20  1  0.24847963  -0.00082186  0.49872867  1
  Fe  Fe21  1  0.12678989  0.87100448  0.37238254  1
  Fe  Fe22  1  0.12333192  0.12564050  0.37451788  1
  Fe  Fe23  1  0.74738249  0.00181439  0.50256556  1
  Fe  Fe24  1  0.49849522  0.74977046  -0.00097177  1
  Fe  Fe25  1  0.87225950  0.37441979  0.87359472  1
  Fe  Fe26  1  0.12802964  0.87333043  0.12771621  1
  Fe  Fe27  1  0.37674687  0.12334370  0.37365327  1
  Fe  Fe28  1  0.75217052  0.24740082  0.50580167  1
  Fe  Fe29  1  0.37187621  0.87709912  0.12347477  1
  Fe  Fe30  1  0.37667496  0.12298125  0.62444844  1
  Fe  Fe31  1  0.74882584  0.00250622  0.74840049  1
  Fe  Fe32  1  0.24811806  0.50018115  -0.00023813  1
  Fe  Fe33  1  0.37509595  0.62325925  0.12228149  1
  Fe  Fe34  1  0.24931288  0.50162702  0.75060535  1
  Fe  Fe35  1  0.62558662  0.12833099  0.87395662  1
  Fe  Fe36  1  -0.00238815  0.25401623  0.74478526  1
  Fe  Fe37  1  0.74766636  0.50118289  0.00049803  1
  Fe  Fe38  1  0.87659116  0.12549875  0.87263658  1
  Fe  Fe39  1  0.49855730  0.25167372  0.49889166  1
  Fe  Fe40  1  0.00094942  -0.00280342  0.74983171  1
  Fe  Fe41  1  0.87596149  0.37558025  0.12480527  1
  Fe  Fe42  1  0.49858575  0.25096241  0.75083090  1
  Fe  Fe43  1  0.12345639  0.12535913  0.62588172  1
  Fe  Fe44  1  0.50069666  0.49770197  0.24948634  1
  Fe  Fe45  1  0.62411137  0.37263372  0.12393630  1
  Fe  Fe46  1  0.12306598  0.62537836  0.62448753  1
  Fe  Fe47  1  0.62329640  0.62600032  0.87435550  1
  Fe  Fe48  1  -0.00185414  0.74849393  0.74985928  1
  Fe  Fe49  1  0.75257593  0.75110532  0.24862556  1
  Fe  Fe50  1  0.25062835  0.00209975  0.75227662  1
  Fe  Fe51  1  0.62281224  0.87436259  0.62569523  1
  Fe  Fe52  1  0.24946638  0.50127609  0.25003112  1
  Fe  Fe53  1  0.37485762  0.12499196  0.12672220  1
  Fe  Fe54  1  0.12878783  0.87244628  0.87365965  1
  Fe  Fe55  1  0.62437788  0.12587828  0.12699857  1
  Fe  Fe56  1  0.50020138  0.00082291  -0.00075304  1
  Fe  Fe57  1  0.37556940  0.37367287  0.12411118  1
  Fe  Fe58  1  0.24677931  0.50058184  0.49851367  1
  Fe  Fe59  1  0.24942420  0.25028763  0.50102890  1
  Fe  Fe60  1  0.49184807  0.74902281  0.74907961  1
  Fe  Fe61  1  0.00174154  0.49934332  -0.00283089  1
  Fe  Fe62  1  0.12688265  0.62760036  0.87539903  1
  Fe  Fe63  1  0.74890895  0.50117999  0.24965354  1
  Fe  Fe64  1  0.87700513  0.62628363  0.37717784  1
  Fe  Fe65  1  0.62269163  0.12399286  0.37484353  1
  Fe  Fe66  1  0.87812406  0.12308202  0.37873274  1
  Fe  Fe67  1  0.49824922  0.50127604  0.75088885  1
  Fe  Fe68  1  0.87437514  0.87430592  0.87610238  1
  Fe  Fe69  1  0.87534291  0.87662107  0.62429084  1
  Fe  Fe70  1  0.12575221  0.37291534  0.37529444  1
  Fe  Fe71  1  0.62693815  0.87604833  0.12615547  1
  Fe  Fe72  1  0.37219863  0.37681526  0.62394619  1
  Fe  Fe73  1  0.62679149  0.37252714  0.87550909  1
  Fe  Fe74  1  0.00333173  0.00058433  -0.00015506  1
  Fe  Fe75  1  0.62472281  0.87535062  0.37486566  1
  Fe  Fe76  1  0.62647455  0.37381113  0.37550672  1
  Fe  Fe77  1  0.12348002  0.62996152  0.37397645  1
  Fe  Fe78  1  0.87419913  0.37464138  0.37860904  1
  Fe  Fe79  1  0.74940214  0.74923394  0.00088219  1
  Fe  Fe80  1  0.25118328  0.25008615  0.25106753  1
  Fe  Fe81  1  0.75073812  0.74818277  0.50325286  1
  Fe  Fe82  1  0.74819624  0.50371132  0.50213543  1
  Fe  Fe83  1  0.49779025  0.75150774  0.24852244  1
  Fe  Fe84  1  0.00042976  0.24919616  -0.00048102  1
  Fe  Fe85  1  0.87556230  0.87631663  0.37648771  1
  Fe  Fe86  1  0.87649995  0.12332982  0.12527684  1
  Fe  Fe87  1  0.00077235  0.50053778  0.25177031  1
  Fe  Fe88  1  -0.00077210  0.25064726  0.25107808  1
  Fe  Fe89  1  0.00131183  0.75085378  0.00199888  1
  Co  Co90  1  0.88052921  0.62177387  0.62260759  1
  Co  Co91  1  0.37343863  0.62037146  0.62207512  1
  Co  Co92  1  0.62155761  0.62661625  0.62643030  1
  Co  Co93  1  0.12400881  0.62400977  0.12548472  1
  Co  Co94  1  0.37590063  0.12400111  0.87390475  1
  Co  Co95  1  0.50215068  0.49975062  -0.00047323  1
  Co  Co96  1  0.75238505  0.24790635  0.74513894  1
  Co  Co97  1  0.37217241  0.87922685  0.62586814  1
  Co  Co98  1  0.88020843  0.12099114  0.62402450  1
  Co  Co99  1  0.00014925  0.75319522  0.50141425  1
  Co  Co100  1  0.49997983  -0.00235645  0.49929432  1
  Co  Co101  1  0.25342196  0.74698766  0.24935734  1
  Co  Co102  1  0.61970652  0.12549439  0.62536989  1
  Co  Co103  1  0.50001205  -0.00205273  0.24933834  1
  Co  Co104  1  0.87495396  0.62673292  0.87821380  1
  Co  Co105  1  0.25226985  0.24891683  0.74785304  1
  Co  Co106  1  0.75141681  0.24904486  0.00120440  1
  Co  Co107  1  0.25201980  0.74981897  0.50042117  1
  Co  Co108  1  0.24982205  0.74898436  0.00115289  1
  Co  Co109  1  0.62410520  0.62648361  0.12678680  1
  Co  Co110  1  0.00333632  0.49850227  0.49642033  1
  Co  Co111  1  0.12164904  0.12761065  0.86991318  1
  Co  Co112  1  0.87523215  0.38174277  0.62298492  1
  Co  Co113  1  0.75037860  0.00057257  0.25139604  1
  Co  Co114  1  -0.00281655  0.75122446  0.24784729  1
  Co  Co115  1  0.37375182  0.37734542  0.37606061  1
  Co  Co116  1  0.87406801  0.87728459  0.12248325  1
  Co  Co117  1  0.00478868  -0.00401050  0.50032542  1
  Co  Co118  1  0.49915887  0.24879815  -0.00109192  1
  Co  Co119  1  0.24918344  0.00032693  0.25111528  1
  Co  Co120  1  0.00050106  0.50055669  0.75436811  1
  Co  Co121  1  0.25491614  0.74692155  0.74855406  1
  Co  Co122  1  0.37175277  0.87633052  0.87653253  1
  Co  Co123  1  0.12486768  0.12670981  0.12803230  1
  Co  Co124  1  0.37363715  0.62353034  0.87831536  1
  Co  Co125  1  0.00113074  0.25269010  0.50308355  1
  Co  Co126  1  0.49946701  0.25189330  0.25147266  1
  Co  Co127  1  0.12613335  0.37773634  0.62588195  1
