# generated using pymatgen
data_Fe45Co19
_symmetry_space_group_name_H-M   'P 1'
_cell_length_a   11.41573682
_cell_length_b   11.41450905
_cell_length_c   11.41412817
_cell_angle_alpha   89.99991202
_cell_angle_beta   89.99517415
_cell_angle_gamma   90.01417365
_symmetry_Int_Tables_number   1
_chemical_formula_structural   Fe45Co19
_chemical_formula_sum   'Fe90 Co38'
_cell_volume   1487.31827581
_cell_formula_units_Z   2
loop_
 _symmetry_equiv_pos_site_id
 _symmetry_equiv_pos_as_xyz
  1  'x, y, z'
loop_
 _atom_site_type_symbol
 _atom_site_label
 _atom_site_symmetry_multiplicity
 _atom_site_fract_x
 _atom_site_fract_y
 _atom_site_fract_z
 _atom_site_occupancy
  Fe  Fe0  1  0.00176855  0.50000155  0.00203624  1
  Fe  Fe1  1  0.49882061  0.49774666  0.50185786  1
  Fe  Fe2  1  0.87357936  0.62476402  0.37858759  1
  Fe  Fe3  1  0.25143160  0.49807076  0.49923833  1
  Fe  Fe4  1  0.12736928  0.62557720  0.62544681  1
  Fe  Fe5  1  -0.00103221  0.50260480  0.74945590  1
  Fe  Fe6  1  0.00033389  0.75459711  0.50555194  1
  Fe  Fe7  1  0.37492709  0.87149741  0.12656613  1
  Fe  Fe8  1  0.12584336  0.87314379  0.12534341  1
  Fe  Fe9  1  0.37699944  0.62562868  0.37477351  1
  Fe  Fe10  1  0.50054583  0.75225626  0.50030744  1
  Fe  Fe11  1  0.62303978  0.12335950  0.37813945  1
  Fe  Fe12  1  0.87444071  0.87477658  0.12321435  1
  Fe  Fe13  1  0.74876027  -0.00129522  -0.00271665  1
  Fe  Fe14  1  0.75128108  -0.00271605  0.50144738  1
  Fe  Fe15  1  0.49892052  0.50288568  0.24785391  1
  Fe  Fe16  1  0.00233009  0.75116204  -0.00382174  1
  Fe  Fe17  1  0.38164708  0.87666928  0.87344811  1
  Fe  Fe18  1  0.75022394  0.24823462  0.25142355  1
  Fe  Fe19  1  0.24995511  0.75581271  0.49807806  1
  Fe  Fe20  1  0.75053609  -0.00025598  0.24997938  1
  Fe  Fe21  1  0.87267678  0.12386773  0.62608753  1
  Fe  Fe22  1  -0.00034486  0.00007120  0.24860145  1
  Fe  Fe23  1  0.37038939  0.37671684  0.12932715  1
  Fe  Fe24  1  0.25263373  -0.00262690  -0.00181151  1
  Fe  Fe25  1  0.74851308  0.75138897  0.25219356  1
  Fe  Fe26  1  0.25107300  0.00021419  0.25241288  1
  Fe  Fe27  1  0.37843845  0.37701424  0.87334857  1
  Fe  Fe28  1  0.37453844  0.62758831  0.62455567  1
  Fe  Fe29  1  0.87345284  0.62634662  0.12288916  1
  Fe  Fe30  1  0.49812677  0.24961084  0.25135873  1
  Fe  Fe31  1  0.37427467  0.12560398  0.12293937  1
  Fe  Fe32  1  0.00131528  0.24902841  0.24836935  1
  Fe  Fe33  1  0.49977399  0.50030793  0.00325995  1
  Fe  Fe34  1  0.25302426  0.50145899  0.75036596  1
  Fe  Fe35  1  0.12468135  0.37620981  0.62793520  1
  Fe  Fe36  1  0.00192906  -0.00534543  0.50600555  1
  Fe  Fe37  1  0.62142913  0.62064677  0.87595682  1
  Fe  Fe38  1  0.24896853  0.50390608  0.00040582  1
  Fe  Fe39  1  0.00123400  0.25165652  0.50083602  1
  Fe  Fe40  1  0.75181541  0.50048002  0.24997591  1
  Fe  Fe41  1  0.49951351  0.24558142  0.74818243  1
  Fe  Fe42  1  0.62461154  0.87415242  0.12530635  1
  Fe  Fe43  1  0.00191083  0.50062153  0.24724559  1
  Fe  Fe44  1  0.12532855  0.37703322  0.87479588  1
  Fe  Fe45  1  -0.00179753  0.75028883  0.24971055  1
  Fe  Fe46  1  0.25070474  0.74959737  0.25199577  1
  Fe  Fe47  1  0.25091060  0.24950028  0.75248659  1
  Fe  Fe48  1  0.87619484  0.87535352  0.37603952  1
  Fe  Fe49  1  0.62448972  0.37643222  0.37453564  1
  Fe  Fe50  1  0.12689661  0.37496791  0.37082432  1
  Fe  Fe51  1  0.00173303  0.24590031  0.75227043  1
  Fe  Fe52  1  0.37380294  0.12639316  0.38217506  1
  Fe  Fe53  1  0.62536935  0.37397902  0.62683017  1
  Fe  Fe54  1  0.62507470  0.12409206  0.12469804  1
  Fe  Fe55  1  0.12696078  0.12420391  0.12245823  1
  Fe  Fe56  1  0.87254654  0.37260656  0.12241381  1
  Fe  Fe57  1  0.62121386  0.87706125  0.37437742  1
  Fe  Fe58  1  0.75047845  0.25235280  0.49779559  1
  Fe  Fe59  1  0.87685650  0.12414149  0.37673936  1
  Fe  Fe60  1  0.87342793  0.12526487  0.12158576  1
  Fe  Fe61  1  0.12337723  0.62744819  0.37654414  1
  Fe  Fe62  1  0.87419780  0.37366093  0.62669779  1
  Fe  Fe63  1  0.62821740  0.37574328  0.12383820  1
  Fe  Fe64  1  0.50010372  0.74838779  0.00213529  1
  Fe  Fe65  1  -0.00068227  0.49839305  0.50026267  1
  Fe  Fe66  1  0.00265224  0.24856830  -0.00194608  1
  Fe  Fe67  1  0.50002369  0.25191391  0.00162559  1
  Fe  Fe68  1  0.37556580  0.37197618  0.62453850  1
  Fe  Fe69  1  0.74793177  0.75060999  -0.00472539  1
  Fe  Fe70  1  0.87319749  0.37283890  0.87621584  1
  Fe  Fe71  1  0.87078868  0.62742777  0.62332369  1
  Fe  Fe72  1  0.62573157  0.62434566  0.37642897  1
  Fe  Fe73  1  0.74715560  0.24621063  0.75423686  1
  Fe  Fe74  1  0.62761448  0.87483222  0.62916440  1
  Fe  Fe75  1  0.13006483  0.12356017  0.62404559  1
  Fe  Fe76  1  0.49768577  0.00125961  0.24868627  1
  Fe  Fe77  1  0.12425878  0.87679902  0.86983453  1
  Fe  Fe78  1  0.12614486  0.12205489  0.37847684  1
  Fe  Fe79  1  0.87660531  0.62516911  0.87390870  1
  Fe  Fe80  1  0.49545798  -0.00162589  0.50727724  1
  Fe  Fe81  1  0.25678501  0.00311468  0.74944318  1
  Fe  Fe82  1  0.61870643  0.12061793  0.87716856  1
  Fe  Fe83  1  0.50183973  0.74756426  0.75021435  1
  Fe  Fe84  1  0.25077492  0.74655839  0.75568863  1
  Fe  Fe85  1  0.62700613  0.62460307  0.62299925  1
  Fe  Fe86  1  0.74916021  0.50050011  0.75107220  1
  Fe  Fe87  1  0.25105637  0.25018272  -0.00197378  1
  Fe  Fe88  1  0.87545091  0.87624469  0.86688018  1
  Fe  Fe89  1  0.00055530  0.00045240  -0.00342964  1
  Co  Co90  1  0.12876979  0.37333571  0.12545092  1
  Co  Co91  1  0.87655417  0.37484098  0.37333035  1
  Co  Co92  1  0.37898659  0.62305588  0.87586145  1
  Co  Co93  1  0.37017168  0.13004555  0.61903550  1
  Co  Co94  1  0.74856656  0.75405808  0.49819663  1
  Co  Co95  1  0.00048777  0.00423705  0.74753254  1
  Co  Co96  1  0.12936004  0.87445685  0.63237551  1
  Co  Co97  1  0.49760603  0.00482122  0.74213365  1
  Co  Co98  1  0.62154381  0.37688654  0.87353948  1
  Co  Co99  1  0.37354464  0.86952713  0.62997028  1
  Co  Co100  1  0.62871387  0.62549786  0.12404115  1
  Co  Co101  1  0.37905003  0.12409684  0.87746465  1
  Co  Co102  1  0.50178002  0.25326989  0.49934077  1
  Co  Co103  1  0.12354223  0.62294514  0.87463514  1
  Co  Co104  1  0.87098868  0.87421566  0.63163742  1
  Co  Co105  1  0.25103756  0.24492914  0.25120493  1
  Co  Co106  1  0.61889647  0.87813691  0.87366794  1
  Co  Co107  1  0.24633297  0.25614025  0.49884988  1
  Co  Co108  1  0.74996073  0.49610950  0.50102726  1
  Co  Co109  1  0.49894183  0.50131266  0.74506098  1
  Co  Co110  1  0.24742372  0.50578137  0.25027979  1
  Co  Co111  1  0.50231406  0.74775769  0.24877872  1
  Co  Co112  1  0.74520001  0.24785391  -0.00307899  1
  Co  Co113  1  0.74615704  0.00284562  0.75275705  1
  Co  Co114  1  0.74985473  0.50086903  -0.00311377  1
  Co  Co115  1  0.00107842  0.74702107  0.74668048  1
  Co  Co116  1  0.74584348  0.74734454  0.75421620  1
  Co  Co117  1  0.87468490  0.12422621  0.87606921  1
  Co  Co118  1  0.12273053  0.87530306  0.37236772  1
  Co  Co119  1  0.37195560  0.62788823  0.12448832  1
  Co  Co120  1  0.12520857  0.63095137  0.12311284  1
  Co  Co121  1  0.25045728  0.75165465  -0.00564559  1
  Co  Co122  1  0.25151582  -0.00745367  0.50039626  1
  Co  Co123  1  0.12886555  0.12329987  0.87521910  1
  Co  Co124  1  0.37886822  0.87475781  0.37273459  1
  Co  Co125  1  0.62759162  0.12569246  0.62097154  1
  Co  Co126  1  0.37373171  0.37607666  0.37185199  1
  Co  Co127  1  0.49836322  -0.00139134  0.00523488  1
