# generated using pymatgen
data_Fe45Co19
_symmetry_space_group_name_H-M   'P 1'
_cell_length_a   11.41523986
_cell_length_b   11.41639918
_cell_length_c   11.41643988
_cell_angle_alpha   89.99948340
_cell_angle_beta   90.00191560
_cell_angle_gamma   90.00126680
_symmetry_Int_Tables_number   1
_chemical_formula_structural   Fe45Co19
_chemical_formula_sum   'Fe90 Co38'
_cell_volume   1487.80111775
_cell_formula_units_Z   2
loop_
 _symmetry_equiv_pos_site_id
 _symmetry_equiv_pos_as_xyz
  1  'x, y, z'
loop_
 _atom_site_type_symbol
 _atom_site_label
 _atom_site_symmetry_multiplicity
 _atom_site_fract_x
 _atom_site_fract_y
 _atom_site_fract_z
 _atom_site_occupancy
  Fe  Fe0  1  -0.00067375  0.75206365  0.50023386  1
  Fe  Fe1  1  -0.00131941  -0.00094696  0.75279415  1
  Fe  Fe2  1  0.25001753  0.49862889  0.74845910  1
  Fe  Fe3  1  0.49769617  -0.00045799  -0.00095146  1
  Fe  Fe4  1  0.25011743  0.74912483  0.00224215  1
  Fe  Fe5  1  0.74934254  0.00097675  0.49861819  1
  Fe  Fe6  1  0.24944868  0.74837916  0.24896863  1
  Fe  Fe7  1  0.12704262  0.87615419  0.62651157  1
  Fe  Fe8  1  0.12401563  0.37582657  0.37548806  1
  Fe  Fe9  1  0.87307248  0.37260608  0.87240982  1
  Fe  Fe10  1  0.24933108  0.25118521  0.50109929  1
  Fe  Fe11  1  0.12792022  0.12699239  0.87791001  1
  Fe  Fe12  1  0.75059998  0.49746364  -0.00107890  1
  Fe  Fe13  1  0.24835702  0.00212786  0.24792411  1
  Fe  Fe14  1  0.74767848  0.24966564  -0.00135506  1
  Fe  Fe15  1  0.25156654  -0.00075609  0.00099755  1
  Fe  Fe16  1  -0.00317409  0.49909961  -0.00163342  1
  Fe  Fe17  1  0.37739929  0.62690550  0.62447041  1
  Fe  Fe18  1  -0.00149113  -0.00177176  -0.00111046  1
  Fe  Fe19  1  0.62533777  0.62059210  0.12492430  1
  Fe  Fe20  1  0.62499072  0.12398564  0.12404922  1
  Fe  Fe21  1  -0.00161086  0.75157671  0.00191595  1
  Fe  Fe22  1  0.87512930  0.12505381  0.62705168  1
  Fe  Fe23  1  0.12358280  0.62344440  0.62638386  1
  Fe  Fe24  1  -0.00162042  -0.00099395  0.49919935  1
  Fe  Fe25  1  0.74793557  0.25068694  0.25067146  1
  Fe  Fe26  1  0.74980217  0.50170972  0.49793447  1
  Fe  Fe27  1  0.37456287  0.87474851  0.12641633  1
  Fe  Fe28  1  0.00015411  0.25175070  0.00005950  1
  Fe  Fe29  1  0.62156559  0.12193195  0.62447146  1
  Fe  Fe30  1  0.50377003  0.25260133  -0.00228738  1
  Fe  Fe31  1  0.62489756  0.37673763  0.62578680  1
  Fe  Fe32  1  0.37759278  0.37281590  0.62781645  1
  Fe  Fe33  1  0.24826115  0.24865768  0.24879946  1
  Fe  Fe34  1  0.87383408  0.63011026  0.87351294  1
  Fe  Fe35  1  0.50368908  0.50294047  0.75260623  1
  Fe  Fe36  1  0.12273461  0.62429619  0.37383353  1
  Fe  Fe37  1  0.50359020  0.74791414  0.75186074  1
  Fe  Fe38  1  0.37552180  0.37600967  0.37246099  1
  Fe  Fe39  1  0.50228420  0.24955121  0.49945302  1
  Fe  Fe40  1  -0.00596057  0.75159012  0.24854501  1
  Fe  Fe41  1  0.37595978  0.37113884  0.87228564  1
  Fe  Fe42  1  0.37516696  0.62539259  0.87598122  1
  Fe  Fe43  1  0.50328275  0.25045803  0.25095344  1
  Fe  Fe44  1  0.37626390  0.62411187  0.37238188  1
  Fe  Fe45  1  0.87388140  0.12495358  0.37477203  1
  Fe  Fe46  1  0.74862891  0.24822331  0.49973416  1
  Fe  Fe47  1  0.37798828  0.37674809  0.12696589  1
  Fe  Fe48  1  0.74995998  0.75320764  0.00551432  1
  Fe  Fe49  1  0.25166663  0.75067250  0.49897023  1
  Fe  Fe50  1  0.12522462  0.87530755  0.37318955  1
  Fe  Fe51  1  0.50036101  0.74954374  0.00235473  1
  Fe  Fe52  1  0.12689710  0.12315047  0.62335467  1
  Fe  Fe53  1  0.87398110  0.87413717  0.62701183  1
  Fe  Fe54  1  0.75039723  0.49842502  0.25275833  1
  Fe  Fe55  1  0.37677306  0.62091653  0.12654707  1
  Fe  Fe56  1  0.25572550  0.00276746  0.75159430  1
  Fe  Fe57  1  0.25481866  -0.00315164  0.49989159  1
  Fe  Fe58  1  0.50240157  0.74970625  0.24847600  1
  Fe  Fe59  1  0.00101006  0.24850908  0.25068262  1
  Fe  Fe60  1  0.00041928  0.24909832  0.50091591  1
  Fe  Fe61  1  -0.00411934  0.49859750  0.25000398  1
  Fe  Fe62  1  0.25074691  0.50022546  0.49956229  1
  Fe  Fe63  1  0.75200282  -0.00030767  0.75346999  1
  Fe  Fe64  1  0.00017211  0.00095571  0.25018457  1
  Fe  Fe65  1  0.62931329  0.87538021  0.37004825  1
  Fe  Fe66  1  0.75216459  0.00007514  -0.00073611  1
  Fe  Fe67  1  0.62480666  0.87496805  0.87633658  1
  Fe  Fe68  1  0.87332350  0.37466301  0.62627236  1
  Fe  Fe69  1  0.12276657  0.62385210  0.12529244  1
  Fe  Fe70  1  0.50083370  0.50002459  0.49736137  1
  Fe  Fe71  1  0.25134799  0.49824222  0.00169424  1
  Fe  Fe72  1  0.12356571  0.37617321  0.12611722  1
  Fe  Fe73  1  0.49495346  0.00288986  0.75265227  1
  Fe  Fe74  1  0.74790220  0.50500865  0.75039113  1
  Fe  Fe75  1  0.62321765  0.87622881  0.62628695  1
  Fe  Fe76  1  0.74575346  0.24659892  0.75129395  1
  Fe  Fe77  1  0.12667827  0.87400525  0.87564958  1
  Fe  Fe78  1  0.37511610  0.12759231  0.12236067  1
  Fe  Fe79  1  0.00259172  0.25027033  0.74884206  1
  Fe  Fe80  1  0.12625420  0.37546130  0.87345358  1
  Fe  Fe81  1  0.49960818  0.75379359  0.49711375  1
  Fe  Fe82  1  0.75004416  0.74952089  0.49963726  1
  Fe  Fe83  1  0.12358412  0.62402199  0.87404007  1
  Fe  Fe84  1  0.50163211  0.00113938  0.25061527  1
  Fe  Fe85  1  0.87580316  0.12595402  0.12383554  1
  Fe  Fe86  1  0.24988440  0.74959177  0.74952632  1
  Fe  Fe87  1  0.87585066  0.62746942  0.62687889  1
  Fe  Fe88  1  0.37605443  0.12391988  0.37693371  1
  Fe  Fe89  1  -0.00236375  0.49941317  0.50097805  1
  Co  Co90  1  0.87366180  0.62168897  0.12380535  1
  Co  Co91  1  0.24931469  0.25488806  0.00418164  1
  Co  Co92  1  0.87475718  0.87931870  0.12656413  1
  Co  Co93  1  0.74560287  0.74897592  0.74801865  1
  Co  Co94  1  0.62425474  0.12084282  0.87622708  1
  Co  Co95  1  0.62441435  0.12450271  0.37567500  1
  Co  Co96  1  0.00154360  0.75191326  0.74914306  1
  Co  Co97  1  0.87294330  0.87043242  0.87447948  1
  Co  Co98  1  0.87503157  0.62596960  0.37523583  1
  Co  Co99  1  0.37531291  0.87119244  0.87564127  1
  Co  Co100  1  0.62553751  0.62715708  0.37387714  1
  Co  Co101  1  0.87481487  0.37281068  0.37680399  1
  Co  Co102  1  0.62523736  0.37753117  0.12462894  1
  Co  Co103  1  0.12648847  0.12364331  0.37787772  1
  Co  Co104  1  0.24810709  0.24858207  0.74627884  1
  Co  Co105  1  0.62271136  0.62523592  0.62047855  1
  Co  Co106  1  0.62581738  0.37472202  0.37697119  1
  Co  Co107  1  0.50371718  0.24628293  0.75135713  1
  Co  Co108  1  0.75010987  0.00335288  0.24863955  1
  Co  Co109  1  0.87613057  0.12787014  0.87529754  1
  Co  Co110  1  0.12406899  0.12498131  0.12167986  1
  Co  Co111  1  0.37700519  0.12637430  0.62129938  1
  Co  Co112  1  0.37668695  0.87285219  0.62804739  1
  Co  Co113  1  0.87376453  0.37301129  0.12472192  1
  Co  Co114  1  0.50401394  0.49881946  0.25246751  1
  Co  Co115  1  -0.00264018  0.49973960  0.75126469  1
  Co  Co116  1  0.24840722  0.49990436  0.24931357  1
  Co  Co117  1  0.62586850  0.37649540  0.87262208  1
  Co  Co118  1  0.62484624  0.87788155  0.12587153  1
  Co  Co119  1  0.37262715  0.13136298  0.87883764  1
  Co  Co120  1  0.87230201  0.87616288  0.37436593  1
  Co  Co121  1  0.12450089  0.87444242  0.12571653  1
  Co  Co122  1  0.62722528  0.62679514  0.88103713  1
  Co  Co123  1  0.12368245  0.37702578  0.62373501  1
  Co  Co124  1  0.37397316  0.87539037  0.36967882  1
  Co  Co125  1  0.49860393  0.49802130  -0.00285747  1
  Co  Co126  1  0.75236351  0.74819191  0.24618744  1
  Co  Co127  1  0.49990285  -0.00438914  0.49693432  1
