# generated using pymatgen
data_Fe45Co19
_symmetry_space_group_name_H-M   'P 1'
_cell_length_a   11.41410182
_cell_length_b   11.41595499
_cell_length_c   11.41554516
_cell_angle_alpha   90.00019712
_cell_angle_beta   90.00430852
_cell_angle_gamma   90.00291544
_symmetry_Int_Tables_number   1
_chemical_formula_structural   Fe45Co19
_chemical_formula_sum   'Fe90 Co38'
_cell_volume   1487.47832030
_cell_formula_units_Z   2
loop_
 _symmetry_equiv_pos_site_id
 _symmetry_equiv_pos_as_xyz
  1  'x, y, z'
loop_
 _atom_site_type_symbol
 _atom_site_label
 _atom_site_symmetry_multiplicity
 _atom_site_fract_x
 _atom_site_fract_y
 _atom_site_fract_z
 _atom_site_occupancy
  Fe  Fe0  1  0.50003331  0.50056377  0.75228655  1
  Fe  Fe1  1  0.87452981  0.87604188  0.62497565  1
  Fe  Fe2  1  0.49831635  0.50220002  0.49347088  1
  Fe  Fe3  1  0.37747773  0.62856353  0.12515934  1
  Fe  Fe4  1  0.25103041  -0.00457370  0.00070025  1
  Fe  Fe5  1  0.12491686  0.87549136  0.37480506  1
  Fe  Fe6  1  0.25135552  0.75348451  -0.00036579  1
  Fe  Fe7  1  0.00000650  0.24861454  0.49964677  1
  Fe  Fe8  1  0.12494808  0.62433813  0.62553162  1
  Fe  Fe9  1  0.87373921  0.37479163  0.87423242  1
  Fe  Fe10  1  0.12582761  0.37558676  0.87483764  1
  Fe  Fe11  1  -0.00048931  0.50068327  0.49867922  1
  Fe  Fe12  1  0.62535174  0.37410095  0.87846189  1
  Fe  Fe13  1  0.12841621  0.62540598  0.37472477  1
  Fe  Fe14  1  0.24995987  0.25025148  0.00217039  1
  Fe  Fe15  1  0.74645392  0.25084581  0.50072625  1
  Fe  Fe16  1  0.74786645  0.25083654  0.24748918  1
  Fe  Fe17  1  0.25028484  0.75203465  0.50228167  1
  Fe  Fe18  1  0.75075226  0.24851084  0.00123055  1
  Fe  Fe19  1  0.87359990  0.87389228  0.87568200  1
  Fe  Fe20  1  0.49892982  0.75043720  0.75312425  1
  Fe  Fe21  1  0.74589927  0.00159923  0.75097000  1
  Fe  Fe22  1  0.25223973  0.24975989  0.50141135  1
  Fe  Fe23  1  0.37795752  0.12636134  0.37492000  1
  Fe  Fe24  1  0.74793598  0.49952441  0.49781415  1
  Fe  Fe25  1  0.87846414  0.12397626  0.12824236  1
  Fe  Fe26  1  0.62094993  0.87706964  0.62483903  1
  Fe  Fe27  1  0.87535054  0.37572102  0.62636006  1
  Fe  Fe28  1  0.74660885  0.74910328  0.00704923  1
  Fe  Fe29  1  0.74804622  0.75045003  0.74880689  1
  Fe  Fe30  1  0.38383609  0.12348423  0.62434923  1
  Fe  Fe31  1  0.62314110  0.87686715  0.88034049  1
  Fe  Fe32  1  0.50160369  0.74918020  0.49633391  1
  Fe  Fe33  1  0.25035129  0.49909329  0.74862453  1
  Fe  Fe34  1  -0.00103577  0.74872853  0.75146053  1
  Fe  Fe35  1  0.25336817  0.75191625  0.75118327  1
  Fe  Fe36  1  0.37552439  0.37434092  0.87581880  1
  Fe  Fe37  1  0.50013845  0.50212880  0.00090330  1
  Fe  Fe38  1  0.25168452  0.25009587  0.74837988  1
  Fe  Fe39  1  0.12592351  0.12290210  0.62453080  1
  Fe  Fe40  1  0.00016954  0.24823739  -0.00018804  1
  Fe  Fe41  1  0.49942954  0.24717995  -0.00002839  1
  Fe  Fe42  1  0.37878973  0.37444171  0.12748596  1
  Fe  Fe43  1  0.62700082  0.87171009  0.37278399  1
  Fe  Fe44  1  0.87216357  0.87142045  0.37323067  1
  Fe  Fe45  1  0.12691525  0.12270561  0.87630936  1
  Fe  Fe46  1  0.87639260  0.37503735  0.12578592  1
  Fe  Fe47  1  0.00146650  0.24974520  0.74960157  1
  Fe  Fe48  1  0.12743838  0.62487216  0.87470678  1
  Fe  Fe49  1  0.12510334  0.12503892  0.37370752  1
  Fe  Fe50  1  0.25396269  0.50040074  0.25028265  1
  Fe  Fe51  1  0.12185998  0.12109980  0.12573432  1
  Fe  Fe52  1  0.62403911  0.62476971  0.62333374  1
  Fe  Fe53  1  -0.00133620  0.50212743  0.25138312  1
  Fe  Fe54  1  0.00149886  0.75087507  -0.00086023  1
  Fe  Fe55  1  0.25277600  0.49844141  0.49939554  1
  Fe  Fe56  1  0.74954372  0.50168929  0.75153120  1
  Fe  Fe57  1  0.12346129  0.37657917  0.12613283  1
  Fe  Fe58  1  0.37570749  0.12174386  0.12565345  1
  Fe  Fe59  1  0.62379439  0.12191514  0.12384975  1
  Fe  Fe60  1  0.12434158  0.62591663  0.12527123  1
  Fe  Fe61  1  0.74872465  -0.00063192  0.49963908  1
  Fe  Fe62  1  0.62555706  0.62612810  0.87710976  1
  Fe  Fe63  1  0.86775976  0.62839955  0.37152592  1
  Fe  Fe64  1  0.24913999  0.75250447  0.24705089  1
  Fe  Fe65  1  -0.00155299  0.50221949  -0.00218169  1
  Fe  Fe66  1  0.75016042  0.50227398  0.00388058  1
  Fe  Fe67  1  0.87954304  0.87466706  0.12712943  1
  Fe  Fe68  1  0.24997168  0.24942231  0.24775532  1
  Fe  Fe69  1  0.62227166  0.37595868  0.62507332  1
  Fe  Fe70  1  0.12739549  0.37372032  0.37452762  1
  Fe  Fe71  1  0.12436324  0.87612426  0.62550840  1
  Fe  Fe72  1  0.62100314  0.37646368  0.36881081  1
  Fe  Fe73  1  0.87432672  0.37235242  0.37307501  1
  Fe  Fe74  1  0.74988440  -0.00104380  0.24979583  1
  Fe  Fe75  1  0.37576926  0.87299179  0.37330720  1
  Fe  Fe76  1  -0.00084036  0.00020930  0.75254470  1
  Fe  Fe77  1  0.75390068  0.00116353  0.00022133  1
  Fe  Fe78  1  0.87324815  0.62438077  0.62486638  1
  Fe  Fe79  1  -0.00237028  0.00105292  0.49667474  1
  Fe  Fe80  1  0.25546102  -0.00279723  0.74944735  1
  Fe  Fe81  1  0.25199205  0.50007226  0.00145181  1
  Fe  Fe82  1  0.74493526  0.24755310  0.74974523  1
  Fe  Fe83  1  0.62410378  0.12558812  0.37576599  1
  Fe  Fe84  1  0.25335127  -0.00088829  0.50073534  1
  Fe  Fe85  1  0.87154648  0.12453457  0.62468054  1
  Fe  Fe86  1  0.37619060  0.62648387  0.62411919  1
  Fe  Fe87  1  0.25035992  -0.00225080  0.24877266  1
  Fe  Fe88  1  0.37843853  0.37365604  0.62436437  1
  Fe  Fe89  1  -0.00101755  0.74947684  0.49885224  1
  Co  Co90  1  0.74850735  0.75098793  0.50465775  1
  Co  Co91  1  0.62249139  0.62029835  0.12986617  1
  Co  Co92  1  0.12584875  0.87609954  0.87318043  1
  Co  Co93  1  0.37504882  0.37074100  0.37196043  1
  Co  Co94  1  0.12415282  0.37516703  0.62334621  1
  Co  Co95  1  0.37479698  0.62404771  0.87582421  1
  Co  Co96  1  0.63077155  0.62655553  0.37150993  1
  Co  Co97  1  0.50079923  -0.00009646  0.25303704  1
  Co  Co98  1  0.62163290  0.37570970  0.12488102  1
  Co  Co99  1  0.37206422  0.12568033  0.87539800  1
  Co  Co100  1  0.50065858  0.24580914  0.24701229  1
  Co  Co101  1  -0.00120265  -0.00090776  -0.00218486  1
  Co  Co102  1  0.61929057  0.88153810  0.12149076  1
  Co  Co103  1  0.50211636  0.25273611  0.49833145  1
  Co  Co104  1  0.62552958  0.12343185  0.87891774  1
  Co  Co105  1  0.12214689  0.87611535  0.12598319  1
  Co  Co106  1  0.62075131  0.12277801  0.62212807  1
  Co  Co107  1  0.50251067  0.24935447  0.75343656  1
  Co  Co108  1  0.50074097  0.00036560  0.75477228  1
  Co  Co109  1  -0.00091727  -0.00103621  0.25419706  1
  Co  Co110  1  0.87114662  0.62789194  0.87676461  1
  Co  Co111  1  0.37927981  0.87450794  0.62380001  1
  Co  Co112  1  0.87155224  0.12749198  0.37381536  1
  Co  Co113  1  0.74611298  0.75304053  0.24097467  1
  Co  Co114  1  0.37866281  0.87440850  0.87829058  1
  Co  Co115  1  -0.00081878  0.50169538  0.75194316  1
  Co  Co116  1  0.50095561  -0.00384672  0.49508373  1
  Co  Co117  1  0.50314769  0.75073492  0.24936460  1
  Co  Co118  1  0.38041337  0.87470976  0.12540462  1
  Co  Co119  1  0.87437802  0.12582051  0.87297745  1
  Co  Co120  1  0.49561966  0.50383005  0.25307801  1
  Co  Co121  1  0.00166419  0.24984917  0.24961045  1
  Co  Co122  1  0.00198015  0.74868617  0.25238815  1
  Co  Co123  1  0.49619687  0.00377693  -0.00189083  1
  Co  Co124  1  0.87690482  0.62691293  0.12664513  1
  Co  Co125  1  0.75139140  0.49755268  0.24645217  1
  Co  Co126  1  0.37213861  0.63018548  0.37424065  1
  Co  Co127  1  0.50210498  0.74724016  0.00177111  1
