# generated using pymatgen
data_Fe45Co19
_symmetry_space_group_name_H-M   'P 1'
_cell_length_a   11.41609904
_cell_length_b   11.41370286
_cell_length_c   11.41418608
_cell_angle_alpha   89.99790752
_cell_angle_beta   89.99775641
_cell_angle_gamma   89.99956292
_symmetry_Int_Tables_number   1
_chemical_formula_structural   Fe45Co19
_chemical_formula_sum   'Fe90 Co38'
_cell_volume   1487.26801366
_cell_formula_units_Z   2
loop_
 _symmetry_equiv_pos_site_id
 _symmetry_equiv_pos_as_xyz
  1  'x, y, z'
loop_
 _atom_site_type_symbol
 _atom_site_label
 _atom_site_symmetry_multiplicity
 _atom_site_fract_x
 _atom_site_fract_y
 _atom_site_fract_z
 _atom_site_occupancy
  Fe  Fe0  1  0.87517922  0.37259533  0.12577390  1
  Fe  Fe1  1  0.75004158  0.24898464  0.00025376  1
  Fe  Fe2  1  0.49575612  0.49896385  0.00290576  1
  Fe  Fe3  1  0.50041640  0.75205854  0.49991448  1
  Fe  Fe4  1  0.50301705  0.75092755  0.75034023  1
  Fe  Fe5  1  0.87576651  0.12636246  0.37369659  1
  Fe  Fe6  1  0.75387080  0.49920473  0.49799935  1
  Fe  Fe7  1  0.12542530  0.87764726  0.12240709  1
  Fe  Fe8  1  0.62130727  0.12313179  0.87840466  1
  Fe  Fe9  1  0.49904407  0.49790375  0.74886057  1
  Fe  Fe10  1  0.12677246  0.37554193  0.12318503  1
  Fe  Fe11  1  0.87427045  0.37252627  0.87265547  1
  Fe  Fe12  1  -0.00110808  0.00086540  0.24714567  1
  Fe  Fe13  1  0.12627205  0.37541767  0.37484777  1
  Fe  Fe14  1  0.87222157  0.62699645  0.12390763  1
  Fe  Fe15  1  -0.00246988  0.49964624  0.25061605  1
  Fe  Fe16  1  0.24861969  0.74696575  0.00043800  1
  Fe  Fe17  1  0.00196073  0.75240328  0.75096084  1
  Fe  Fe18  1  0.25052286  0.00329818  0.75486755  1
  Fe  Fe19  1  0.37342443  0.87483939  0.62608677  1
  Fe  Fe20  1  0.12559588  0.37549189  0.87573202  1
  Fe  Fe21  1  0.87536771  0.62514527  0.62622627  1
  Fe  Fe22  1  0.62530812  0.87903124  0.62358860  1
  Fe  Fe23  1  0.12477955  0.12253149  0.12095662  1
  Fe  Fe24  1  0.25129614  0.00164153  0.24931674  1
  Fe  Fe25  1  0.74628091  0.74926432  0.24979300  1
  Fe  Fe26  1  0.24880149  0.24682224  0.24976901  1
  Fe  Fe27  1  0.62553635  0.62444108  0.62392570  1
  Fe  Fe28  1  0.37590703  0.12865239  0.62973648  1
  Fe  Fe29  1  0.62448000  0.37545552  0.87674802  1
  Fe  Fe30  1  0.50131978  0.24666554  0.50066655  1
  Fe  Fe31  1  0.49909736  -0.00063769  0.75129354  1
  Fe  Fe32  1  0.74956523  0.75229882  0.49965349  1
  Fe  Fe33  1  0.00183910  0.24963008  0.74970331  1
  Fe  Fe34  1  0.37378614  0.37257399  0.37474888  1
  Fe  Fe35  1  0.50006474  0.24942464  0.24938684  1
  Fe  Fe36  1  -0.00139613  0.50016669  -0.00084274  1
  Fe  Fe37  1  0.37500234  0.87113377  0.12714018  1
  Fe  Fe38  1  0.62558980  0.37708041  0.12429037  1
  Fe  Fe39  1  0.12556429  0.87804813  0.37459047  1
  Fe  Fe40  1  0.74752944  0.24715467  0.74794561  1
  Fe  Fe41  1  0.75157355  0.00164931  0.24785033  1
  Fe  Fe42  1  0.00153871  0.75197507  0.50180499  1
  Fe  Fe43  1  -0.00406150  0.49884549  0.49868485  1
  Fe  Fe44  1  0.49801254  0.50006946  0.24789059  1
  Fe  Fe45  1  0.25214256  0.00197891  0.49941178  1
  Fe  Fe46  1  0.87491608  0.87339343  0.37260929  1
  Fe  Fe47  1  0.75048438  0.49928619  0.75065440  1
  Fe  Fe48  1  0.62560341  0.37566152  0.62284392  1
  Fe  Fe49  1  0.62660530  0.87700358  0.12226829  1
  Fe  Fe50  1  0.24797697  0.75082511  0.49969039  1
  Fe  Fe51  1  0.00224678  0.74976842  0.24801192  1
  Fe  Fe52  1  -0.00079482  0.25070828  0.50103361  1
  Fe  Fe53  1  0.37516656  0.62910571  0.37160531  1
  Fe  Fe54  1  0.37672044  0.87522339  0.37229064  1
  Fe  Fe55  1  0.75207132  0.49976798  0.25109774  1
  Fe  Fe56  1  0.49655792  0.49952631  0.49966598  1
  Fe  Fe57  1  0.25165701  0.49898018  0.75100480  1
  Fe  Fe58  1  0.12593710  0.87803907  0.87875616  1
  Fe  Fe59  1  0.62472791  0.62256319  0.87795758  1
  Fe  Fe60  1  0.74783317  0.75027223  0.75174293  1
  Fe  Fe61  1  0.74928943  0.00206930  0.75111838  1
  Fe  Fe62  1  0.62261239  0.88239123  0.37712437  1
  Fe  Fe63  1  0.24953672  0.24862772  0.50042369  1
  Fe  Fe64  1  0.25121669  0.24718982  -0.00282082  1
  Fe  Fe65  1  -0.00177065  -0.00113393  0.49957787  1
  Fe  Fe66  1  0.37660406  0.36998819  0.87282215  1
  Fe  Fe67  1  0.12415992  0.62379476  0.37488543  1
  Fe  Fe68  1  0.00068659  0.00030786  0.75353753  1
  Fe  Fe69  1  0.62482859  0.62372952  0.37562367  1
  Fe  Fe70  1  0.12642579  0.37764101  0.62446347  1
  Fe  Fe71  1  0.12466300  0.62302914  0.62689722  1
  Fe  Fe72  1  0.74809286  0.24880371  0.24960609  1
  Fe  Fe73  1  0.87417420  0.87696493  0.62650477  1
  Fe  Fe74  1  0.37549203  0.87328884  0.87593599  1
  Fe  Fe75  1  0.62525915  0.37381484  0.37521859  1
  Fe  Fe76  1  0.74994251  0.24544528  0.50134730  1
  Fe  Fe77  1  0.25304796  0.50334835  0.00006241  1
  Fe  Fe78  1  0.37472561  0.62574373  0.62622280  1
  Fe  Fe79  1  0.87169495  0.87713477  0.87836850  1
  Fe  Fe80  1  0.25112329  0.50150024  0.24824519  1
  Fe  Fe81  1  0.87527823  0.62499204  0.87462354  1
  Fe  Fe82  1  0.00001973  0.75037490  0.00032123  1
  Fe  Fe83  1  0.24776281  0.74972257  0.75125489  1
  Fe  Fe84  1  0.00288962  0.24946423  0.24943643  1
  Fe  Fe85  1  0.50325903  0.75013276  0.00008113  1
  Fe  Fe86  1  0.62294135  0.12411405  0.12337595  1
  Fe  Fe87  1  0.12401026  0.12231353  0.62542446  1
  Fe  Fe88  1  -0.00130163  0.24733161  -0.00097167  1
  Fe  Fe89  1  0.37719870  0.12597820  0.12214730  1
  Co  Co90  1  0.37600134  0.63056900  0.12775655  1
  Co  Co91  1  0.75428795  0.00133179  0.49897479  1
  Co  Co92  1  0.25520872  0.00095827  -0.00091252  1
  Co  Co93  1  0.62647692  0.87826913  0.87544771  1
  Co  Co94  1  0.87410243  0.36980727  0.37400668  1
  Co  Co95  1  0.62442941  0.12148741  0.37442510  1
  Co  Co96  1  -0.00541234  0.00062929  0.00171039  1
  Co  Co97  1  0.37995421  0.12838733  0.87431169  1
  Co  Co98  1  0.75370984  0.49692710  -0.00088897  1
  Co  Co99  1  0.75228113  0.00311337  0.00228276  1
  Co  Co100  1  0.50564281  0.25094051  0.74823068  1
  Co  Co101  1  0.12371681  0.12267820  0.87814916  1
  Co  Co102  1  0.12424787  0.62420376  0.87429907  1
  Co  Co103  1  0.49752703  -0.00307689  0.00069601  1
  Co  Co104  1  0.62598185  0.62115162  0.12206511  1
  Co  Co105  1  0.87486463  0.62938397  0.37459191  1
  Co  Co106  1  0.87299963  0.37398415  0.62630244  1
  Co  Co107  1  0.87733215  0.12357501  0.62655813  1
  Co  Co108  1  0.62421673  0.11989814  0.62391589  1
  Co  Co109  1  0.87324259  0.87172889  0.12478648  1
  Co  Co110  1  0.87428672  0.12575484  0.87386853  1
  Co  Co111  1  0.87549125  0.12804791  0.12623563  1
  Co  Co112  1  0.49464190  0.00232499  0.50208054  1
  Co  Co113  1  0.12352412  0.12382941  0.37623089  1
  Co  Co114  1  0.12686617  0.87862097  0.62640068  1
  Co  Co115  1  0.37696754  0.12567642  0.37320636  1
  Co  Co116  1  0.50733032  0.75139155  0.25041344  1
  Co  Co117  1  0.37722153  0.62689298  0.87414254  1
  Co  Co118  1  0.74775282  0.75007762  -0.00180771  1
  Co  Co119  1  0.24467371  0.75106918  0.25086558  1
  Co  Co120  1  0.24579787  0.24956601  0.75126674  1
  Co  Co121  1  0.37488521  0.37204415  0.62497993  1
  Co  Co122  1  -0.00063940  0.49762860  0.75100649  1
  Co  Co123  1  0.50060127  0.25292338  0.00204368  1
  Co  Co124  1  0.12488856  0.62282583  0.12404336  1
  Co  Co125  1  0.25274686  0.50123946  0.49888441  1
  Co  Co126  1  0.49818468  0.00085137  0.24651732  1
  Co  Co127  1  0.37156271  0.37224548  0.12554305  1
