# generated using pymatgen
data_Fe45Co19
_symmetry_space_group_name_H-M   'P 1'
_cell_length_a   11.41651054
_cell_length_b   11.41417825
_cell_length_c   11.41486213
_cell_angle_alpha   90.00009835
_cell_angle_beta   89.99849224
_cell_angle_gamma   90.00254366
_symmetry_Int_Tables_number   1
_chemical_formula_structural   Fe45Co19
_chemical_formula_sum   'Fe90 Co38'
_cell_volume   1487.47166708
_cell_formula_units_Z   2
loop_
 _symmetry_equiv_pos_site_id
 _symmetry_equiv_pos_as_xyz
  1  'x, y, z'
loop_
 _atom_site_type_symbol
 _atom_site_label
 _atom_site_symmetry_multiplicity
 _atom_site_fract_x
 _atom_site_fract_y
 _atom_site_fract_z
 _atom_site_occupancy
  Fe  Fe0  1  0.37429368  0.62588795  0.37251696  1
  Fe  Fe1  1  0.12580313  0.37358423  0.37683463  1
  Fe  Fe2  1  0.50147168  0.25230732  0.24939273  1
  Fe  Fe3  1  0.37747498  0.12180606  0.62945446  1
  Fe  Fe4  1  0.50357099  -0.00562631  0.25181856  1
  Fe  Fe5  1  0.62629561  0.37392215  0.62662747  1
  Fe  Fe6  1  0.24753023  0.75248962  0.25192227  1
  Fe  Fe7  1  0.00151938  -0.00051617  0.75088289  1
  Fe  Fe8  1  0.37457083  0.37375044  0.37434671  1
  Fe  Fe9  1  0.49725318  0.75298068  0.49766302  1
  Fe  Fe10  1  0.50120814  0.50011881  0.74976819  1
  Fe  Fe11  1  0.50132069  0.49868104  0.49792642  1
  Fe  Fe12  1  0.37573578  0.87739223  0.62701867  1
  Fe  Fe13  1  0.37302089  0.62295187  0.12785129  1
  Fe  Fe14  1  0.37605921  0.12365725  0.37280586  1
  Fe  Fe15  1  0.74968737  0.24982444  0.24977471  1
  Fe  Fe16  1  0.00146555  0.50078068  0.25092532  1
  Fe  Fe17  1  0.50206669  0.75010659  0.74906617  1
  Fe  Fe18  1  0.74808407  0.50899023  0.75141155  1
  Fe  Fe19  1  0.12700885  0.87268005  0.87567419  1
  Fe  Fe20  1  0.25018146  0.24878230  0.74916581  1
  Fe  Fe21  1  0.87339164  0.87208145  0.87206753  1
  Fe  Fe22  1  0.12655061  0.87473100  0.62279968  1
  Fe  Fe23  1  0.74960819  0.00133495  0.49985936  1
  Fe  Fe24  1  0.37676783  0.62414480  0.62395994  1
  Fe  Fe25  1  0.24939628  0.25001340  0.24860812  1
  Fe  Fe26  1  0.62423691  0.87540549  0.62329246  1
  Fe  Fe27  1  0.37405825  0.87528424  0.12704191  1
  Fe  Fe28  1  -0.00059105  0.74791131  0.74895517  1
  Fe  Fe29  1  0.62277185  0.62601985  0.37289372  1
  Fe  Fe30  1  0.24998321  -0.00129701  -0.00053380  1
  Fe  Fe31  1  0.00024185  0.75048537  0.00116736  1
  Fe  Fe32  1  0.87277419  0.87294452  0.62697953  1
  Fe  Fe33  1  0.37249222  0.37567678  0.62487214  1
  Fe  Fe34  1  0.12670910  0.62590278  0.87786205  1
  Fe  Fe35  1  0.12842039  0.62429259  0.12371984  1
  Fe  Fe36  1  0.00047007  0.25050167  0.24810672  1
  Fe  Fe37  1  0.62654236  0.37714087  0.12690363  1
  Fe  Fe38  1  0.74954395  -0.00161917  0.25142832  1
  Fe  Fe39  1  0.37668788  0.12442385  0.12560012  1
  Fe  Fe40  1  0.00034670  0.75118247  0.49858151  1
  Fe  Fe41  1  0.62585162  0.37350543  0.87267138  1
  Fe  Fe42  1  0.25043222  0.74858961  0.74745618  1
  Fe  Fe43  1  0.37610678  0.62549151  0.87502351  1
  Fe  Fe44  1  0.49882352  0.49867169  0.00166186  1
  Fe  Fe45  1  0.75094492  0.00200760  -0.00293231  1
  Fe  Fe46  1  0.87593110  0.87681145  0.12559232  1
  Fe  Fe47  1  0.37454621  0.37373125  0.87534494  1
  Fe  Fe48  1  0.12506069  0.12639903  0.62373005  1
  Fe  Fe49  1  0.75263801  0.24981238  -0.00115644  1
  Fe  Fe50  1  -0.00290873  -0.00139019  0.49881850  1
  Fe  Fe51  1  0.49939446  0.24930133  -0.00026171  1
  Fe  Fe52  1  0.74786930  0.75154270  0.24876835  1
  Fe  Fe53  1  0.87375718  0.37962029  0.62588063  1
  Fe  Fe54  1  0.00024489  0.50237731  0.74990415  1
  Fe  Fe55  1  0.87447339  0.12448515  0.62734618  1
  Fe  Fe56  1  0.24811514  0.50064377  0.49894829  1
  Fe  Fe57  1  0.87712961  0.62570107  0.37508771  1
  Fe  Fe58  1  0.50001672  0.00082896  -0.00317597  1
  Fe  Fe59  1  0.37345179  0.87591107  0.87197158  1
  Fe  Fe60  1  0.87648302  0.12544535  0.37354883  1
  Fe  Fe61  1  -0.00101756  0.25269454  0.50256592  1
  Fe  Fe62  1  0.49704690  0.75062744  0.00346267  1
  Fe  Fe63  1  0.62478493  0.12328221  0.12395200  1
  Fe  Fe64  1  0.75051178  0.74686812  -0.00017685  1
  Fe  Fe65  1  0.62449474  0.62296902  0.12580350  1
  Fe  Fe66  1  0.24996667  0.50183794  0.75056450  1
  Fe  Fe67  1  0.12322126  0.12501851  0.87725586  1
  Fe  Fe68  1  0.87515498  0.37882528  0.87606389  1
  Fe  Fe69  1  0.74910339  0.50211042  0.49785586  1
  Fe  Fe70  1  0.49939213  0.24893288  0.50199014  1
  Fe  Fe71  1  0.87390684  0.37842720  0.12426189  1
  Fe  Fe72  1  0.25319469  0.00045731  0.50067978  1
  Fe  Fe73  1  0.74967572  0.24966753  0.50104891  1
  Fe  Fe74  1  0.24653059  -0.00055996  0.24986493  1
  Fe  Fe75  1  0.87869698  0.12261241  0.12421262  1
  Fe  Fe76  1  0.00249393  0.75348710  0.25124134  1
  Fe  Fe77  1  0.12370870  0.62401956  0.62198093  1
  Fe  Fe78  1  0.75007244  0.74799767  0.50179265  1
  Fe  Fe79  1  0.12463426  0.37594319  0.87576820  1
  Fe  Fe80  1  0.74667061  0.00205059  0.75126591  1
  Fe  Fe81  1  0.12056377  0.12178462  0.12284819  1
  Fe  Fe82  1  0.62588369  0.87111923  0.87672214  1
  Fe  Fe83  1  0.87468378  0.37520770  0.37428127  1
  Fe  Fe84  1  0.12382816  0.12496171  0.37666132  1
  Fe  Fe85  1  0.25091408  0.24949674  0.00112325  1
  Fe  Fe86  1  -0.00148416  0.25098522  0.74982346  1
  Fe  Fe87  1  0.12653532  0.37724403  0.12311150  1
  Fe  Fe88  1  0.87462609  0.62223461  0.12455260  1
  Fe  Fe89  1  0.62408232  0.12490769  0.37600742  1
  Co  Co90  1  0.00141463  0.50183135  0.00127831  1
  Co  Co91  1  -0.00113236  -0.00438871  -0.00378054  1
  Co  Co92  1  0.25281720  0.75095504  0.00033409  1
  Co  Co93  1  0.87751514  0.62492677  0.62261500  1
  Co  Co94  1  0.24602681  0.00000518  0.74975324  1
  Co  Co95  1  0.62722251  0.87333822  0.37753429  1
  Co  Co96  1  0.00025946  -0.00351593  0.25344401  1
  Co  Co97  1  0.49896916  0.00020466  0.49876493  1
  Co  Co98  1  0.62012814  0.62707796  0.87817955  1
  Co  Co99  1  0.74684569  0.74450578  0.74877880  1
  Co  Co100  1  0.12442651  0.87596821  0.12326396  1
  Co  Co101  1  0.37439014  0.37418118  0.12520322  1
  Co  Co102  1  0.74998957  0.50054373  0.25316513  1
  Co  Co103  1  0.00110919  0.49785623  0.49857917  1
  Co  Co104  1  0.49687803  0.25000273  0.74877020  1
  Co  Co105  1  -0.00213648  0.25276878  0.00025358  1
  Co  Co106  1  0.50529256  -0.00015786  0.75388649  1
  Co  Co107  1  0.75450140  0.24944128  0.75049111  1
  Co  Co108  1  0.24957702  0.49748157  0.25197067  1
  Co  Co109  1  0.62650564  0.87575171  0.12108137  1
  Co  Co110  1  0.87737558  0.12445881  0.87496120  1
  Co  Co111  1  0.12684526  0.37517919  0.62541935  1
  Co  Co112  1  0.50152289  0.75247487  0.24868270  1
  Co  Co113  1  0.37225930  0.87501025  0.37312704  1
  Co  Co114  1  0.25193029  0.74918927  0.50163980  1
  Co  Co115  1  0.87686133  0.62630572  0.87650390  1
  Co  Co116  1  0.62433132  0.12706417  0.62617912  1
  Co  Co117  1  0.25182724  0.49970694  -0.00150764  1
  Co  Co118  1  0.74796945  0.50141417  -0.00264556  1
  Co  Co119  1  0.25294302  0.24755323  0.50071091  1
  Co  Co120  1  0.62075735  0.62520247  0.62197172  1
  Co  Co121  1  0.49951893  0.49811034  0.25018531  1
  Co  Co122  1  0.87288967  0.87315061  0.37532177  1
  Co  Co123  1  0.12710814  0.87678554  0.37915510  1
  Co  Co124  1  0.37340572  0.12412068  0.87408765  1
  Co  Co125  1  0.12509708  0.62570108  0.37584787  1
  Co  Co126  1  0.62516513  0.37358220  0.37528409  1
  Co  Co127  1  0.62532858  0.13040261  0.87368206  1
