# generated using pymatgen
data_Fe45Co19
_symmetry_space_group_name_H-M   'P 1'
_cell_length_a   11.41488805
_cell_length_b   11.41421011
_cell_length_c   11.41539247
_cell_angle_alpha   90.00303244
_cell_angle_beta   90.00280986
_cell_angle_gamma   90.00673447
_symmetry_Int_Tables_number   1
_chemical_formula_structural   Fe45Co19
_chemical_formula_sum   'Fe90 Co38'
_cell_volume   1487.33350859
_cell_formula_units_Z   2
loop_
 _symmetry_equiv_pos_site_id
 _symmetry_equiv_pos_as_xyz
  1  'x, y, z'
loop_
 _atom_site_type_symbol
 _atom_site_label
 _atom_site_symmetry_multiplicity
 _atom_site_fract_x
 _atom_site_fract_y
 _atom_site_fract_z
 _atom_site_occupancy
  Fe  Fe0  1  0.00054222  0.25015055  -0.00191921  1
  Fe  Fe1  1  0.87426288  0.12402105  0.12737404  1
  Fe  Fe2  1  0.25112378  0.00137071  -0.00137867  1
  Fe  Fe3  1  0.50305203  0.25125159  0.74857711  1
  Fe  Fe4  1  0.37405394  0.87485533  0.37759594  1
  Fe  Fe5  1  0.75190025  -0.00588537  0.75054861  1
  Fe  Fe6  1  0.12324608  0.37494331  0.62281897  1
  Fe  Fe7  1  0.87361957  0.37197364  0.37776009  1
  Fe  Fe8  1  0.24626433  0.75150599  0.24835980  1
  Fe  Fe9  1  0.00065994  0.75265013  0.75069988  1
  Fe  Fe10  1  0.37473147  0.37424801  0.37803484  1
  Fe  Fe11  1  0.12538553  0.87765974  0.87589253  1
  Fe  Fe12  1  0.62546028  0.12207138  0.87349185  1
  Fe  Fe13  1  0.74749504  0.74918356  -0.00340898  1
  Fe  Fe14  1  0.49837828  0.50008917  0.50184570  1
  Fe  Fe15  1  0.50267773  -0.00004919  0.00239407  1
  Fe  Fe16  1  0.75355846  0.50493694  0.49751375  1
  Fe  Fe17  1  0.75193442  0.50189259  0.25185023  1
  Fe  Fe18  1  0.49825318  0.50014955  0.00079560  1
  Fe  Fe19  1  0.25201261  0.50139318  0.00125218  1
  Fe  Fe20  1  0.50308375  0.24875937  0.50139153  1
  Fe  Fe21  1  0.37768002  0.12648035  0.12499404  1
  Fe  Fe22  1  0.37512307  0.62556909  0.37680524  1
  Fe  Fe23  1  0.12261989  0.62294770  0.62647612  1
  Fe  Fe24  1  0.12223933  0.12437179  0.86964146  1
  Fe  Fe25  1  0.24830371  0.74931969  0.00128203  1
  Fe  Fe26  1  0.50092535  -0.00163570  0.50169494  1
  Fe  Fe27  1  -0.00140335  0.49944923  -0.00259797  1
  Fe  Fe28  1  0.37558700  0.87442152  0.12556989  1
  Fe  Fe29  1  0.75627017  0.00198460  0.50270015  1
  Fe  Fe30  1  0.12361701  0.62549551  0.37518339  1
  Fe  Fe31  1  0.24737338  0.00177331  0.49997341  1
  Fe  Fe32  1  0.24790936  0.75013366  0.50250467  1
  Fe  Fe33  1  0.37534582  0.37337760  0.87437837  1
  Fe  Fe34  1  0.62598305  0.37425346  0.12375367  1
  Fe  Fe35  1  0.37564466  0.62701990  0.62447835  1
  Fe  Fe36  1  0.37613005  0.62606576  0.87177836  1
  Fe  Fe37  1  0.87409498  0.62916537  0.62710934  1
  Fe  Fe38  1  0.12056366  0.88248919  0.62387154  1
  Fe  Fe39  1  0.87454949  0.87395057  0.37420608  1
  Fe  Fe40  1  0.50070950  0.49907057  0.74749649  1
  Fe  Fe41  1  0.50238621  -0.00203769  0.24959232  1
  Fe  Fe42  1  0.00285442  0.75296463  0.24692085  1
  Fe  Fe43  1  0.24926557  0.49868395  0.25135158  1
  Fe  Fe44  1  0.24799527  0.24945623  0.74769923  1
  Fe  Fe45  1  0.74747469  0.24561823  0.00114725  1
  Fe  Fe46  1  0.25019426  0.24988082  0.24910930  1
  Fe  Fe47  1  0.87383328  0.37412252  0.12228921  1
  Fe  Fe48  1  -0.00106316  0.49875361  0.25061420  1
  Fe  Fe49  1  0.50147390  0.74988225  -0.00182558  1
  Fe  Fe50  1  0.63004544  0.37610523  0.62265962  1
  Fe  Fe51  1  0.62756223  0.62927527  0.62322688  1
  Fe  Fe52  1  -0.00175926  0.24925220  0.25078724  1
  Fe  Fe53  1  0.00201668  -0.00124613  0.25275071  1
  Fe  Fe54  1  0.87334565  0.87156686  0.87709381  1
  Fe  Fe55  1  0.62524955  0.62679505  0.12644375  1
  Fe  Fe56  1  0.50049868  -0.00438884  0.74634545  1
  Fe  Fe57  1  0.37606064  0.87529422  0.87434459  1
  Fe  Fe58  1  0.75142596  0.50453782  -0.00213515  1
  Fe  Fe59  1  0.75294262  0.50258846  0.75306982  1
  Fe  Fe60  1  0.74789668  -0.00367341  0.24479053  1
  Fe  Fe61  1  -0.00599249  0.24153210  0.50297084  1
  Fe  Fe62  1  0.00290127  0.75093373  0.00209137  1
  Fe  Fe63  1  0.12411903  0.62313662  0.87390909  1
  Fe  Fe64  1  0.37791790  0.12539026  0.87338413  1
  Fe  Fe65  1  0.24843591  0.75377864  0.74839339  1
  Fe  Fe66  1  0.62906726  0.12455609  0.37322483  1
  Fe  Fe67  1  0.62873056  0.12321709  0.62660430  1
  Fe  Fe68  1  -0.00388148  0.00018061  -0.00156822  1
  Fe  Fe69  1  0.12462646  0.37587254  0.12396593  1
  Fe  Fe70  1  -0.00430689  0.49456813  0.75284216  1
  Fe  Fe71  1  0.24900327  0.24775094  0.50280694  1
  Fe  Fe72  1  0.25070791  0.49835566  0.74698874  1
  Fe  Fe73  1  0.87487638  0.62846143  0.12614309  1
  Fe  Fe74  1  0.12357389  0.12235896  0.12578656  1
  Fe  Fe75  1  0.24949720  0.24878891  0.00012968  1
  Fe  Fe76  1  0.50534660  0.75303135  0.25508080  1
  Fe  Fe77  1  0.12307885  0.37157394  0.37847364  1
  Fe  Fe78  1  0.87420311  0.12947748  0.86934176  1
  Fe  Fe79  1  0.37579164  0.12530157  0.37564239  1
  Fe  Fe80  1  0.24880796  0.00002294  0.25141461  1
  Fe  Fe81  1  0.50340877  0.75404095  0.74730601  1
  Fe  Fe82  1  0.49979263  0.49832378  0.24941464  1
  Fe  Fe83  1  -0.00064995  0.75140729  0.50032994  1
  Fe  Fe84  1  0.37597164  0.62690490  0.12771601  1
  Fe  Fe85  1  0.37476605  0.12379096  0.62602032  1
  Fe  Fe86  1  0.62805789  0.37429979  0.37730585  1
  Fe  Fe87  1  0.62681403  0.37656212  0.87577604  1
  Fe  Fe88  1  0.50182675  0.25093227  0.24972397  1
  Fe  Fe89  1  -0.00236105  0.50160210  0.49989874  1
  Co  Co90  1  0.12774290  0.37614436  0.87597898  1
  Co  Co91  1  0.74757305  0.25246743  0.74848517  1
  Co  Co92  1  0.12526174  0.88080685  0.12259160  1
  Co  Co93  1  0.87589888  0.12432609  0.63406247  1
  Co  Co94  1  0.62148897  0.62348722  0.87355430  1
  Co  Co95  1  0.37482245  0.37311691  0.12405966  1
  Co  Co96  1  0.00078033  0.25690999  0.74844984  1
  Co  Co97  1  0.25207695  -0.00111821  0.75100853  1
  Co  Co98  1  0.87044584  0.37114909  0.87761176  1
  Co  Co99  1  0.75254662  0.00266712  -0.00024608  1
  Co  Co100  1  0.37548736  0.37286710  0.62440453  1
  Co  Co101  1  0.87398294  0.87116588  0.62407566  1
  Co  Co102  1  0.63103077  0.87195745  0.62069552  1
  Co  Co103  1  0.62839590  0.88013918  0.38024060  1
  Co  Co104  1  0.12040180  0.12002295  0.62918835  1
  Co  Co105  1  0.87320913  0.87229631  0.12492188  1
  Co  Co106  1  0.24962811  0.50121056  0.50008081  1
  Co  Co107  1  0.87172121  0.37523691  0.62237498  1
  Co  Co108  1  0.74980648  0.25324355  0.24811509  1
  Co  Co109  1  0.62173375  0.62108527  0.37678327  1
  Co  Co110  1  0.62687875  0.87168305  0.12192104  1
  Co  Co111  1  0.12419481  0.87474556  0.37780902  1
  Co  Co112  1  0.12361742  0.62177873  0.12528681  1
  Co  Co113  1  0.62426203  0.12517581  0.12681546  1
  Co  Co114  1  0.50279482  0.25024104  -0.00144874  1
  Co  Co115  1  -0.00547066  0.00518637  0.49644741  1
  Co  Co116  1  0.75267605  0.24442175  0.50162699  1
  Co  Co117  1  -0.00534848  -0.00420155  0.75283554  1
  Co  Co118  1  0.86870412  0.12399531  0.36808306  1
  Co  Co119  1  0.62432252  0.87826544  0.87690832  1
  Co  Co120  1  0.12554666  0.12714682  0.37527010  1
  Co  Co121  1  0.37400876  0.87597518  0.62237644  1
  Co  Co122  1  0.74576762  0.74860868  0.25544199  1
  Co  Co123  1  0.87872020  0.62870332  0.87516412  1
  Co  Co124  1  0.74778984  0.75039345  0.75444081  1
  Co  Co125  1  0.88047862  0.62793872  0.37196281  1
  Co  Co126  1  0.75151105  0.74661288  0.49369968  1
  Co  Co127  1  0.50071842  0.75168861  0.49873968  1
