# generated using pymatgen
data_Fe45Co19
_symmetry_space_group_name_H-M   'P 1'
_cell_length_a   11.41531005
_cell_length_b   11.41573330
_cell_length_c   11.41550670
_cell_angle_alpha   89.99397137
_cell_angle_beta   89.99156821
_cell_angle_gamma   89.99881335
_symmetry_Int_Tables_number   1
_chemical_formula_structural   Fe45Co19
_chemical_formula_sum   'Fe90 Co38'
_cell_volume   1487.60185688
_cell_formula_units_Z   2
loop_
 _symmetry_equiv_pos_site_id
 _symmetry_equiv_pos_as_xyz
  1  'x, y, z'
loop_
 _atom_site_type_symbol
 _atom_site_label
 _atom_site_symmetry_multiplicity
 _atom_site_fract_x
 _atom_site_fract_y
 _atom_site_fract_z
 _atom_site_occupancy
  Fe  Fe0  1  0.24743560  0.49793550  -0.00135927  1
  Fe  Fe1  1  0.25238205  0.49977324  0.25046696  1
  Fe  Fe2  1  0.74785550  0.49952221  -0.00156158  1
  Fe  Fe3  1  0.62412276  0.62457814  0.62384660  1
  Fe  Fe4  1  0.12484359  0.12063909  0.62727692  1
  Fe  Fe5  1  0.49922565  0.49923064  0.49748222  1
  Fe  Fe6  1  0.50010566  0.49997160  0.75187559  1
  Fe  Fe7  1  0.50195692  0.25139126  0.49957242  1
  Fe  Fe8  1  0.50470772  0.24843394  -0.00238224  1
  Fe  Fe9  1  0.62521562  0.87668963  0.37127518  1
  Fe  Fe10  1  0.62363767  0.12283777  0.62508074  1
  Fe  Fe11  1  0.62585400  0.62580909  0.12467765  1
  Fe  Fe12  1  0.62583916  0.37405841  0.12607082  1
  Fe  Fe13  1  0.12476319  0.87831086  0.12630967  1
  Fe  Fe14  1  0.87832667  0.62304057  0.62443472  1
  Fe  Fe15  1  0.49795431  0.50018463  0.25089826  1
  Fe  Fe16  1  0.24921690  0.74964954  0.00122832  1
  Fe  Fe17  1  0.37609890  0.62591390  0.87695258  1
  Fe  Fe18  1  0.24848116  0.50018178  0.50078862  1
  Fe  Fe19  1  0.12822892  0.87386827  0.37423869  1
  Fe  Fe20  1  0.49560553  0.74875390  0.24931774  1
  Fe  Fe21  1  0.87525490  0.37396824  0.12601438  1
  Fe  Fe22  1  0.25044881  0.50478254  0.74912921  1
  Fe  Fe23  1  0.37184780  0.62743987  0.37733993  1
  Fe  Fe24  1  0.50225944  0.49851789  -0.00096879  1
  Fe  Fe25  1  0.00115798  0.75271505  -0.00006173  1
  Fe  Fe26  1  0.74979864  0.75108216  0.50108298  1
  Fe  Fe27  1  0.50050392  0.75117034  0.00145394  1
  Fe  Fe28  1  0.24356755  0.25196489  0.00254167  1
  Fe  Fe29  1  0.74497768  -0.00320692  0.00517349  1
  Fe  Fe30  1  0.00273171  -0.00036625  -0.00322105  1
  Fe  Fe31  1  0.37401724  0.12603011  0.37821330  1
  Fe  Fe32  1  0.62610359  0.37451305  0.37411940  1
  Fe  Fe33  1  0.37437452  0.37512395  0.12380747  1
  Fe  Fe34  1  0.00490152  0.25145167  0.00249107  1
  Fe  Fe35  1  0.12220174  0.62571532  0.87269942  1
  Fe  Fe36  1  0.12613382  0.62789305  0.37595861  1
  Fe  Fe37  1  0.25093403  -0.00033433  -0.00524722  1
  Fe  Fe38  1  0.25118625  0.24636661  0.74879366  1
  Fe  Fe39  1  0.37456855  0.12541115  0.12050222  1
  Fe  Fe40  1  0.37237420  0.87384444  0.62838669  1
  Fe  Fe41  1  0.12379628  0.37883660  0.62951658  1
  Fe  Fe42  1  0.62701976  0.62735838  0.37435006  1
  Fe  Fe43  1  0.75065667  0.24781204  0.74803954  1
  Fe  Fe44  1  0.00108108  0.75064554  0.24869368  1
  Fe  Fe45  1  0.87838528  0.13086891  0.38116018  1
  Fe  Fe46  1  0.37428121  0.87601240  0.12401567  1
  Fe  Fe47  1  -0.00025832  0.00398083  0.25222159  1
  Fe  Fe48  1  0.49825729  -0.00230191  0.49987817  1
  Fe  Fe49  1  0.12546238  0.62311185  0.12613363  1
  Fe  Fe50  1  0.75333476  0.49975784  0.25236066  1
  Fe  Fe51  1  0.24760805  0.25070732  0.50078779  1
  Fe  Fe52  1  0.49986844  0.24788824  0.75150427  1
  Fe  Fe53  1  0.37328149  0.37289760  0.87499901  1
  Fe  Fe54  1  0.00221870  -0.00049697  0.50091812  1
  Fe  Fe55  1  -0.00184509  0.24794491  0.74760537  1
  Fe  Fe56  1  0.75057728  0.74975177  0.75030776  1
  Fe  Fe57  1  0.37515006  0.37533865  0.62450107  1
  Fe  Fe58  1  0.74990927  0.24637833  0.25183749  1
  Fe  Fe59  1  0.75021955  0.50113329  0.75228004  1
  Fe  Fe60  1  0.87518177  0.87677989  0.62440387  1
  Fe  Fe61  1  0.49307775  0.00368443  0.75439078  1
  Fe  Fe62  1  0.75315609  0.75268305  0.24644056  1
  Fe  Fe63  1  0.87521089  0.87509317  0.37427216  1
  Fe  Fe64  1  0.00088965  0.75172004  0.50128858  1
  Fe  Fe65  1  0.87579998  0.37373029  0.87416623  1
  Fe  Fe66  1  0.62316930  0.87626968  0.87492708  1
  Fe  Fe67  1  0.74880212  0.00175192  0.49789091  1
  Fe  Fe68  1  0.74768827  0.24964578  -0.00167976  1
  Fe  Fe69  1  0.87559184  0.12346314  0.87631314  1
  Fe  Fe70  1  0.87586578  0.62623192  0.12239684  1
  Fe  Fe71  1  -0.00180703  0.49582384  0.49646607  1
  Fe  Fe72  1  0.75276134  0.00093754  0.74866257  1
  Fe  Fe73  1  0.49812167  0.75278709  0.49876240  1
  Fe  Fe74  1  0.12359678  0.36948366  0.36902400  1
  Fe  Fe75  1  0.49960895  0.74851411  0.75015872  1
  Fe  Fe76  1  0.12814116  0.87510209  0.86818761  1
  Fe  Fe77  1  0.75362296  0.49817429  0.49658519  1
  Fe  Fe78  1  0.50022155  0.00240482  0.24778481  1
  Fe  Fe79  1  0.49749035  0.25003301  0.25126833  1
  Fe  Fe80  1  0.62600355  0.37677120  0.62622001  1
  Fe  Fe81  1  0.87509448  0.62696047  0.87707650  1
  Fe  Fe82  1  0.25093577  -0.00165987  0.50039705  1
  Fe  Fe83  1  0.25031916  0.00273716  0.25152215  1
  Fe  Fe84  1  -0.00379881  0.50016091  0.25227388  1
  Fe  Fe85  1  0.12761229  0.87487461  0.63077404  1
  Fe  Fe86  1  0.87414096  0.87544983  0.87655466  1
  Fe  Fe87  1  0.62406804  0.87688917  0.62650286  1
  Fe  Fe88  1  0.87479263  0.12294631  0.12290807  1
  Fe  Fe89  1  0.00245371  0.49609848  -0.00102771  1
  Co  Co90  1  0.11857454  0.62389524  0.62345194  1
  Co  Co91  1  0.37887630  0.62409160  0.62213605  1
  Co  Co92  1  0.50139562  0.00037434  -0.00045049  1
  Co  Co93  1  0.62733187  0.12106455  0.87353124  1
  Co  Co94  1  0.62606309  0.37369553  0.87297946  1
  Co  Co95  1  0.25035746  0.75072732  0.50365720  1
  Co  Co96  1  0.62459792  0.62764775  0.87641875  1
  Co  Co97  1  0.62219480  0.12358941  0.37547967  1
  Co  Co98  1  0.25012932  0.75059506  0.24695338  1
  Co  Co99  1  0.12478857  0.12707941  0.37722265  1
  Co  Co100  1  0.12470321  0.37833079  0.13139894  1
  Co  Co101  1  0.87542899  0.12398302  0.62072037  1
  Co  Co102  1  0.37243906  0.37351713  0.37647195  1
  Co  Co103  1  0.62224767  0.87394519  0.12898766  1
  Co  Co104  1  0.12552135  0.37292331  0.86979043  1
  Co  Co105  1  0.37365161  0.62295975  0.12311915  1
  Co  Co106  1  0.87530238  0.62945103  0.37576467  1
  Co  Co107  1  0.74964877  0.75373469  0.00152747  1
  Co  Co108  1  0.74549253  0.24995574  0.50242821  1
  Co  Co109  1  0.87362708  0.37620456  0.62520610  1
  Co  Co110  1  0.75291426  0.00314532  0.25121490  1
  Co  Co111  1  -0.00263846  -0.00005491  0.75025555  1
  Co  Co112  1  0.25175364  0.24622719  0.24751087  1
  Co  Co113  1  0.37557013  0.12626363  0.62045164  1
  Co  Co114  1  0.37385280  0.87100286  0.87423293  1
  Co  Co115  1  0.25050323  0.74303317  0.74738939  1
  Co  Co116  1  0.87747145  0.36590745  0.37434934  1
  Co  Co117  1  -0.00272676  0.75200864  0.75025381  1
  Co  Co118  1  0.62542623  0.12687538  0.12587981  1
  Co  Co119  1  0.00526757  0.25289267  0.50660105  1
  Co  Co120  1  0.87948847  0.87774099  0.12561208  1
  Co  Co121  1  0.00186072  0.24394588  0.24344202  1
  Co  Co122  1  0.12654959  0.11953611  0.12286771  1
  Co  Co123  1  0.37282070  0.12990997  0.88063899  1
  Co  Co124  1  0.12387773  0.12577743  0.87313370  1
  Co  Co125  1  0.25560997  0.00447892  0.75281024  1
  Co  Co126  1  0.37358925  0.87585387  0.37275250  1
  Co  Co127  1  -0.00158109  0.49966554  0.75308706  1
