# generated using pymatgen
data_Fe45Co19
_symmetry_space_group_name_H-M   'P 1'
_cell_length_a   11.41540972
_cell_length_b   11.41519215
_cell_length_c   11.41516649
_cell_angle_alpha   90.00086761
_cell_angle_beta   90.00225049
_cell_angle_gamma   89.99492241
_symmetry_Int_Tables_number   1
_chemical_formula_structural   Fe45Co19
_chemical_formula_sum   'Fe90 Co38'
_cell_volume   1487.50001228
_cell_formula_units_Z   2
loop_
 _symmetry_equiv_pos_site_id
 _symmetry_equiv_pos_as_xyz
  1  'x, y, z'
loop_
 _atom_site_type_symbol
 _atom_site_label
 _atom_site_symmetry_multiplicity
 _atom_site_fract_x
 _atom_site_fract_y
 _atom_site_fract_z
 _atom_site_occupancy
  Fe  Fe0  1  -0.00230682  0.50175054  0.50017851  1
  Fe  Fe1  1  0.74643335  0.24930765  0.25092989  1
  Fe  Fe2  1  0.74724182  0.25018107  -0.00391769  1
  Fe  Fe3  1  0.87525992  0.12469636  0.87485630  1
  Fe  Fe4  1  0.37495869  0.12717387  0.62598231  1
  Fe  Fe5  1  0.49734702  0.49898135  0.00099563  1
  Fe  Fe6  1  0.62416121  0.62328955  0.37631273  1
  Fe  Fe7  1  0.74942173  0.74636322  0.50259433  1
  Fe  Fe8  1  0.62337516  0.12430569  0.37546476  1
  Fe  Fe9  1  0.12671025  0.37630575  0.62505711  1
  Fe  Fe10  1  0.74886295  0.75011456  0.24907533  1
  Fe  Fe11  1  0.12486857  0.12440085  0.62504954  1
  Fe  Fe12  1  0.37692381  0.87428339  0.37281861  1
  Fe  Fe13  1  0.24872424  0.24911833  0.49938243  1
  Fe  Fe14  1  0.50095879  0.75147265  0.74775452  1
  Fe  Fe15  1  0.37103691  0.87359714  0.62494881  1
  Fe  Fe16  1  0.87762790  0.62285553  0.12662549  1
  Fe  Fe17  1  0.00264343  0.75098229  0.50525191  1
  Fe  Fe18  1  0.25083671  0.50050667  0.24825532  1
  Fe  Fe19  1  0.87404485  0.87307888  0.87396021  1
  Fe  Fe20  1  0.12382523  0.62073021  0.12152820  1
  Fe  Fe21  1  0.62297281  0.12146125  0.12000920  1
  Fe  Fe22  1  0.50171390  -0.00251513  0.75071718  1
  Fe  Fe23  1  0.50163940  0.75313527  0.00297754  1
  Fe  Fe24  1  0.12524574  0.37572993  0.37442645  1
  Fe  Fe25  1  0.12385627  0.37817602  0.12326422  1
  Fe  Fe26  1  0.00099835  0.25003258  -0.00032764  1
  Fe  Fe27  1  0.37515147  0.12385243  0.12676827  1
  Fe  Fe28  1  0.37601176  0.87676327  0.12886771  1
  Fe  Fe29  1  0.37525675  0.37033970  0.37189473  1
  Fe  Fe30  1  0.12331020  0.12274773  0.37408423  1
  Fe  Fe31  1  0.25063285  0.00006429  0.49760005  1
  Fe  Fe32  1  0.37729501  0.12621696  0.87536645  1
  Fe  Fe33  1  0.87558984  0.37501009  0.12490423  1
  Fe  Fe34  1  0.74840767  0.50151952  0.74811110  1
  Fe  Fe35  1  0.12645794  0.12022529  0.12571127  1
  Fe  Fe36  1  0.74611929  0.74955414  0.74718257  1
  Fe  Fe37  1  0.00236880  0.50346892  0.75105733  1
  Fe  Fe38  1  0.75158139  0.50175094  -0.00036833  1
  Fe  Fe39  1  0.62814546  0.37570082  0.62236226  1
  Fe  Fe40  1  0.49912439  0.49989474  0.74937860  1
  Fe  Fe41  1  0.87508037  0.87589927  0.12533046  1
  Fe  Fe42  1  0.12206213  0.87766121  0.37351693  1
  Fe  Fe43  1  0.62308989  0.62529705  0.87500503  1
  Fe  Fe44  1  0.62343446  0.62431073  0.12601137  1
  Fe  Fe45  1  0.37278070  0.37212585  0.62696737  1
  Fe  Fe46  1  0.00123930  -0.00217851  0.74835601  1
  Fe  Fe47  1  0.62570071  0.12483643  0.62574693  1
  Fe  Fe48  1  0.74806479  -0.00000639  0.75183463  1
  Fe  Fe49  1  0.49795482  0.00043406  0.49992834  1
  Fe  Fe50  1  0.87453867  0.12530862  0.12349947  1
  Fe  Fe51  1  0.87347779  0.37470439  0.87348540  1
  Fe  Fe52  1  0.12650817  0.37560169  0.87664604  1
  Fe  Fe53  1  0.00141317  0.25048734  0.74974274  1
  Fe  Fe54  1  0.87855926  0.12517209  0.37599150  1
  Fe  Fe55  1  0.74844158  0.75079180  0.00215589  1
  Fe  Fe56  1  0.37209256  0.62763386  0.62322397  1
  Fe  Fe57  1  0.87297502  0.37303250  0.62380614  1
  Fe  Fe58  1  0.62500609  0.87539220  0.37502080  1
  Fe  Fe59  1  0.75097033  -0.00005300  0.24938878  1
  Fe  Fe60  1  0.62468042  0.37523905  0.12440327  1
  Fe  Fe61  1  0.37387562  0.87426108  0.87407667  1
  Fe  Fe62  1  0.37457070  0.37169588  0.12628820  1
  Fe  Fe63  1  0.49837119  0.49994408  0.24942807  1
  Fe  Fe64  1  0.87677105  0.87399779  0.37551516  1
  Fe  Fe65  1  0.00002901  0.74991070  -0.00007615  1
  Fe  Fe66  1  0.00180810  0.25060243  0.24971917  1
  Fe  Fe67  1  0.50146100  0.25062567  0.49856429  1
  Fe  Fe68  1  0.37402518  0.37274771  0.87460656  1
  Fe  Fe69  1  0.24816482  0.75013940  0.24907338  1
  Fe  Fe70  1  0.50017076  0.75084187  0.50098699  1
  Fe  Fe71  1  -0.00034130  -0.00095712  0.00008527  1
  Fe  Fe72  1  0.87558659  0.62750435  0.87221216  1
  Fe  Fe73  1  0.87407727  0.87450460  0.62556165  1
  Fe  Fe74  1  0.87482743  0.12762619  0.62441736  1
  Fe  Fe75  1  0.24987786  0.00248077  0.75206923  1
  Fe  Fe76  1  0.24950136  0.24747711  -0.00071728  1
  Fe  Fe77  1  0.25029954  0.50341753  0.75265719  1
  Fe  Fe78  1  0.75215299  0.50083869  0.25287151  1
  Fe  Fe79  1  0.12396402  0.62418260  0.37545847  1
  Fe  Fe80  1  0.12593906  0.87458223  0.87497631  1
  Fe  Fe81  1  0.87362688  0.37297696  0.37651982  1
  Fe  Fe82  1  0.24984438  0.75105405  0.00225384  1
  Fe  Fe83  1  0.75142422  0.00117332  0.49993330  1
  Fe  Fe84  1  0.25202365  0.50019330  0.49879796  1
  Fe  Fe85  1  0.00134200  0.74968430  0.24749390  1
  Fe  Fe86  1  0.37514299  0.62700765  0.37344594  1
  Fe  Fe87  1  0.50510523  0.25149797  0.75283332  1
  Fe  Fe88  1  0.37541389  0.62692852  0.87753719  1
  Fe  Fe89  1  0.49810282  0.49862187  0.50023390  1
  Co  Co90  1  0.25132684  -0.00168960  0.25317102  1
  Co  Co91  1  0.74849035  0.24808091  0.49793751  1
  Co  Co92  1  0.24895164  0.74656448  0.75239182  1
  Co  Co93  1  0.74739731  0.24893432  0.75282954  1
  Co  Co94  1  0.12277722  0.12369988  0.87544892  1
  Co  Co95  1  0.12895494  0.62495960  0.62297617  1
  Co  Co96  1  0.62389884  0.12119731  0.87754476  1
  Co  Co97  1  0.75184931  -0.00236000  -0.00072266  1
  Co  Co98  1  0.50236715  0.74982102  0.24971220  1
  Co  Co99  1  0.50356589  0.24810835  0.24931374  1
  Co  Co100  1  0.62533766  0.87663567  0.62283558  1
  Co  Co101  1  0.37436159  0.12831768  0.37366619  1
  Co  Co102  1  0.24751081  0.24838718  0.75143766  1
  Co  Co103  1  -0.00190199  0.49882217  0.25229584  1
  Co  Co104  1  0.24657129  0.24940941  0.24943820  1
  Co  Co105  1  0.24854873  0.75220583  0.49540945  1
  Co  Co106  1  0.25160503  -0.00018791  -0.00169374  1
  Co  Co107  1  0.49998564  0.25105640  -0.00143059  1
  Co  Co108  1  0.62426590  0.87849187  0.12650174  1
  Co  Co109  1  0.13117501  0.87559474  0.62730987  1
  Co  Co110  1  0.62492613  0.37771078  0.37546357  1
  Co  Co111  1  0.00015959  -0.00193480  0.50348076  1
  Co  Co112  1  0.12583964  0.62571880  0.87960651  1
  Co  Co113  1  0.62184687  0.62316832  0.62360738  1
  Co  Co114  1  -0.00312926  0.00017264  0.24807788  1
  Co  Co115  1  -0.00405668  0.49987786  -0.00395833  1
  Co  Co116  1  0.25414504  0.49928418  -0.00024136  1
  Co  Co117  1  0.49737493  -0.00354117  -0.00119202  1
  Co  Co118  1  0.37510544  0.62712954  0.12559507  1
  Co  Co119  1  0.62646505  0.87399424  0.87602287  1
  Co  Co120  1  0.00207408  0.25049805  0.50018836  1
  Co  Co121  1  0.50046899  0.00183182  0.25158252  1
  Co  Co122  1  0.87723433  0.62925329  0.37514068  1
  Co  Co123  1  0.00391562  0.75034659  0.74800862  1
  Co  Co124  1  0.62530467  0.37908524  0.87664330  1
  Co  Co125  1  0.12489145  0.87836597  0.12459926  1
  Co  Co126  1  0.87700205  0.62588808  0.62754854  1
  Co  Co127  1  0.75332943  0.50322522  0.49947703  1
