# generated using pymatgen
data_Fe45Co19
_symmetry_space_group_name_H-M   'P 1'
_cell_length_a   11.41442688
_cell_length_b   11.41438338
_cell_length_c   11.41435196
_cell_angle_alpha   90.00730767
_cell_angle_beta   89.99136906
_cell_angle_gamma   90.00073571
_symmetry_Int_Tables_number   1
_chemical_formula_structural   Fe45Co19
_chemical_formula_sum   'Fe90 Co38'
_cell_volume   1487.16041571
_cell_formula_units_Z   2
loop_
 _symmetry_equiv_pos_site_id
 _symmetry_equiv_pos_as_xyz
  1  'x, y, z'
loop_
 _atom_site_type_symbol
 _atom_site_label
 _atom_site_symmetry_multiplicity
 _atom_site_fract_x
 _atom_site_fract_y
 _atom_site_fract_z
 _atom_site_occupancy
  Fe  Fe0  1  0.25065015  -0.00175656  0.50158847  1
  Fe  Fe1  1  0.62435340  0.37834887  0.87619744  1
  Fe  Fe2  1  0.24828997  0.50093227  0.74546858  1
  Fe  Fe3  1  0.37419356  0.62604929  0.12620934  1
  Fe  Fe4  1  0.12490406  0.87565472  0.87367325  1
  Fe  Fe5  1  0.37368678  0.12332945  0.87470530  1
  Fe  Fe6  1  0.37685720  0.87529888  0.87380088  1
  Fe  Fe7  1  0.00008708  0.24966575  0.25493243  1
  Fe  Fe8  1  0.12027763  0.87086647  0.62625430  1
  Fe  Fe9  1  0.74940247  0.49996543  0.74683245  1
  Fe  Fe10  1  0.87120239  0.87415869  0.87708265  1
  Fe  Fe11  1  0.49873638  -0.00170040  0.00438225  1
  Fe  Fe12  1  0.87753922  0.62642328  0.12643469  1
  Fe  Fe13  1  0.75179826  0.00114486  0.00418029  1
  Fe  Fe14  1  0.00514733  0.49948268  0.24800402  1
  Fe  Fe15  1  0.00299844  0.49809934  0.00134346  1
  Fe  Fe16  1  0.87597459  0.37586650  0.87399985  1
  Fe  Fe17  1  0.87439739  0.37336711  0.62376018  1
  Fe  Fe18  1  0.37467250  0.12359239  0.37575947  1
  Fe  Fe19  1  0.37583098  0.87304358  0.37213667  1
  Fe  Fe20  1  0.75115012  0.25055615  0.49785003  1
  Fe  Fe21  1  0.24704907  0.74949206  0.49990387  1
  Fe  Fe22  1  0.12156296  0.87773129  0.37535361  1
  Fe  Fe23  1  0.37714310  0.37251097  0.62153270  1
  Fe  Fe24  1  0.62798145  0.12350560  0.37294512  1
  Fe  Fe25  1  0.62652410  0.62616780  0.62163793  1
  Fe  Fe26  1  0.74691045  0.25220484  0.75105934  1
  Fe  Fe27  1  0.37424947  0.37624573  0.12695164  1
  Fe  Fe28  1  0.00235732  0.25163535  -0.00211086  1
  Fe  Fe29  1  0.25066898  0.75220439  -0.00137170  1
  Fe  Fe30  1  0.62495803  0.62431160  0.12718315  1
  Fe  Fe31  1  0.62682057  0.87590019  0.37229454  1
  Fe  Fe32  1  0.62562816  0.87438127  0.12767597  1
  Fe  Fe33  1  0.62572449  0.37800118  0.37714242  1
  Fe  Fe34  1  0.50163375  -0.00037446  0.49762083  1
  Fe  Fe35  1  0.50080632  0.74882428  0.49512830  1
  Fe  Fe36  1  0.49919939  0.50280184  0.49886993  1
  Fe  Fe37  1  0.87452423  0.12619491  0.87423867  1
  Fe  Fe38  1  0.37073371  0.37774930  0.37691648  1
  Fe  Fe39  1  0.37615251  0.12533558  0.62274292  1
  Fe  Fe40  1  0.74896315  0.25085531  0.00175440  1
  Fe  Fe41  1  0.50009667  0.25091192  0.00063850  1
  Fe  Fe42  1  0.87455466  0.62356476  0.87637485  1
  Fe  Fe43  1  0.87661789  0.37322859  0.12588519  1
  Fe  Fe44  1  0.12463713  0.62056822  0.37665070  1
  Fe  Fe45  1  0.24702778  0.49809975  0.00265762  1
  Fe  Fe46  1  0.62549522  0.12677699  0.62257967  1
  Fe  Fe47  1  0.24825684  0.25110527  -0.00102055  1
  Fe  Fe48  1  0.00192106  0.24873900  0.74706839  1
  Fe  Fe49  1  0.12565840  0.62467670  0.87291769  1
  Fe  Fe50  1  0.12311325  0.12247571  0.37956813  1
  Fe  Fe51  1  0.50079021  0.24951809  0.25218507  1
  Fe  Fe52  1  0.87766596  0.37804861  0.37704993  1
  Fe  Fe53  1  0.75077160  0.49979612  0.25146264  1
  Fe  Fe54  1  0.24705569  0.25068669  0.25427213  1
  Fe  Fe55  1  0.75061295  0.50000750  0.00220467  1
  Fe  Fe56  1  0.50238567  -0.00185458  0.74830441  1
  Fe  Fe57  1  0.12509254  0.12592744  0.12445035  1
  Fe  Fe58  1  0.25013042  -0.00240017  0.74731619  1
  Fe  Fe59  1  0.24890023  0.24962234  0.74692255  1
  Fe  Fe60  1  0.37534044  0.62421409  0.87359231  1
  Fe  Fe61  1  0.37501454  0.62887632  0.62538098  1
  Fe  Fe62  1  0.50182766  0.75104963  0.00093925  1
  Fe  Fe63  1  0.62641473  0.87185992  0.62299777  1
  Fe  Fe64  1  0.49837554  0.50373584  0.25323785  1
  Fe  Fe65  1  -0.00284075  0.00081876  0.24672838  1
  Fe  Fe66  1  0.12466816  0.87368798  0.12527930  1
  Fe  Fe67  1  0.62460029  0.12257747  0.87705242  1
  Fe  Fe68  1  -0.00697938  0.00060690  0.50459443  1
  Fe  Fe69  1  0.74948467  0.74975931  0.75257199  1
  Fe  Fe70  1  0.75381786  0.74815960  0.25173854  1
  Fe  Fe71  1  0.12515245  0.37410631  0.61918534  1
  Fe  Fe72  1  0.74997547  -0.00195971  0.74736817  1
  Fe  Fe73  1  0.50198524  0.50025229  0.74744925  1
  Fe  Fe74  1  0.00095054  0.50074606  0.74723487  1
  Fe  Fe75  1  0.75440923  0.00287586  0.24634826  1
  Fe  Fe76  1  -0.00439753  -0.00097039  0.74765551  1
  Fe  Fe77  1  0.50155108  0.25081749  0.75052689  1
  Fe  Fe78  1  -0.00120343  -0.00018152  0.00178990  1
  Fe  Fe79  1  0.75536471  0.74956861  0.49361876  1
  Fe  Fe80  1  0.62464820  0.62403634  0.87626041  1
  Fe  Fe81  1  0.37374525  0.12446365  0.12583986  1
  Fe  Fe82  1  0.87814659  0.62939487  0.62353130  1
  Fe  Fe83  1  0.12620522  0.12297256  0.87285040  1
  Fe  Fe84  1  0.62384846  0.37589586  0.12687149  1
  Fe  Fe85  1  0.25002434  -0.00010050  0.24936360  1
  Fe  Fe86  1  -0.00097210  0.75015183  -0.00082146  1
  Fe  Fe87  1  0.24717319  0.74837842  0.25111969  1
  Fe  Fe88  1  0.37725021  0.87202865  0.62439775  1
  Fe  Fe89  1  0.37432112  0.37688105  0.87436581  1
  Co  Co90  1  0.62420651  0.12595911  0.12658578  1
  Co  Co91  1  0.74873854  0.74805165  0.00157196  1
  Co  Co92  1  -0.00041718  0.50205354  0.50360482  1
  Co  Co93  1  0.12547487  0.12191888  0.62354952  1
  Co  Co94  1  0.12516639  0.37131597  0.12728451  1
  Co  Co95  1  0.75102115  0.25177398  0.25145074  1
  Co  Co96  1  0.12186821  0.63091356  0.62600628  1
  Co  Co97  1  -0.00304132  0.75089352  0.75528655  1
  Co  Co98  1  0.24789656  0.50098439  0.24767799  1
  Co  Co99  1  0.49814149  0.00061010  0.25009256  1
  Co  Co100  1  0.62668282  0.87621600  0.87645415  1
  Co  Co101  1  0.50245326  0.74985314  0.75167327  1
  Co  Co102  1  0.49961215  0.50069959  0.00100464  1
  Co  Co103  1  0.87723255  0.13066645  0.12414465  1
  Co  Co104  1  0.50062169  0.24837386  0.49568408  1
  Co  Co105  1  0.24871466  0.24748636  0.49870903  1
  Co  Co106  1  0.37119527  0.62605871  0.37484279  1
  Co  Co107  1  0.37328740  0.87290667  0.12947829  1
  Co  Co108  1  0.62430737  0.37494211  0.62075156  1
  Co  Co109  1  0.25055300  0.75147674  0.75053068  1
  Co  Co110  1  0.87394071  0.86917073  0.62430223  1
  Co  Co111  1  0.75096549  -0.00090649  0.50227330  1
  Co  Co112  1  0.00076848  0.75013181  0.25386849  1
  Co  Co113  1  0.12610808  0.37798620  0.37922188  1
  Co  Co114  1  -0.00122421  0.74973582  0.49322742  1
  Co  Co115  1  0.50085255  0.74742708  0.25127937  1
  Co  Co116  1  -0.00099907  0.24760930  0.49941523  1
  Co  Co117  1  0.87594301  0.87092639  0.12586275  1
  Co  Co118  1  0.25011563  -0.00146874  0.00118876  1
  Co  Co119  1  0.25025739  0.50334140  0.50400685  1
  Co  Co120  1  0.87057734  0.12811357  0.62647030  1
  Co  Co121  1  0.87322119  0.12246101  0.37611360  1
  Co  Co122  1  0.87571834  0.87945991  0.37300328  1
  Co  Co123  1  0.62755208  0.62423487  0.37612608  1
  Co  Co124  1  0.12463203  0.62862834  0.12350262  1
  Co  Co125  1  0.12572790  0.37630391  0.87171836  1
  Co  Co126  1  0.87839077  0.62031779  0.37226940  1
  Co  Co127  1  0.75330957  0.50110248  0.50114392  1
