# generated using pymatgen
data_Fe45Co19
_symmetry_space_group_name_H-M   'P 1'
_cell_length_a   11.41553751
_cell_length_b   11.41522205
_cell_length_c   11.41408247
_cell_angle_alpha   89.99427485
_cell_angle_beta   89.99912239
_cell_angle_gamma   90.00247023
_symmetry_Int_Tables_number   1
_chemical_formula_structural   Fe45Co19
_chemical_formula_sum   'Fe90 Co38'
_cell_volume   1487.37929971
_cell_formula_units_Z   2
loop_
 _symmetry_equiv_pos_site_id
 _symmetry_equiv_pos_as_xyz
  1  'x, y, z'
loop_
 _atom_site_type_symbol
 _atom_site_label
 _atom_site_symmetry_multiplicity
 _atom_site_fract_x
 _atom_site_fract_y
 _atom_site_fract_z
 _atom_site_occupancy
  Fe  Fe0  1  0.37278512  0.12512462  0.37869813  1
  Fe  Fe1  1  -0.00046004  0.25315439  0.00013899  1
  Fe  Fe2  1  0.75119864  0.50234962  0.00066670  1
  Fe  Fe3  1  0.87462268  0.37490083  0.12651549  1
  Fe  Fe4  1  0.62350045  0.12337627  0.12862830  1
  Fe  Fe5  1  0.00470367  0.50117608  0.24907258  1
  Fe  Fe6  1  0.87251704  0.37779810  0.37420397  1
  Fe  Fe7  1  0.74946602  0.25026128  0.74810388  1
  Fe  Fe8  1  0.00030655  0.25216026  0.49759931  1
  Fe  Fe9  1  0.62628287  0.62627317  0.87648525  1
  Fe  Fe10  1  0.25081528  0.75050561  -0.00118403  1
  Fe  Fe11  1  0.50060634  0.75344028  0.75150980  1
  Fe  Fe12  1  0.37694521  0.87411467  0.12810815  1
  Fe  Fe13  1  0.25042602  0.00129970  0.00329957  1
  Fe  Fe14  1  0.87590593  0.87438582  0.62370277  1
  Fe  Fe15  1  0.50261894  -0.00233986  0.75007169  1
  Fe  Fe16  1  0.12250868  0.62085806  0.87351450  1
  Fe  Fe17  1  0.62476370  0.87804357  0.37058152  1
  Fe  Fe18  1  0.12347275  0.87465238  0.12595086  1
  Fe  Fe19  1  -0.00172828  0.74891212  -0.00453180  1
  Fe  Fe20  1  0.37171649  0.62348865  0.37612663  1
  Fe  Fe21  1  0.74924111  0.50168820  0.25091144  1
  Fe  Fe22  1  0.62234897  0.62649692  0.12550788  1
  Fe  Fe23  1  0.24821914  0.74695711  0.24965833  1
  Fe  Fe24  1  0.87661759  0.12636966  0.12434309  1
  Fe  Fe25  1  -0.00081113  0.25141144  0.75104974  1
  Fe  Fe26  1  0.37720537  0.37490316  0.62287141  1
  Fe  Fe27  1  0.12533572  0.37457783  0.62575543  1
  Fe  Fe28  1  0.50100193  0.49872805  0.74896041  1
  Fe  Fe29  1  0.87683515  0.87440591  0.37381526  1
  Fe  Fe30  1  0.37607221  0.62287987  0.87505190  1
  Fe  Fe31  1  0.74936006  0.75086341  0.74961822  1
  Fe  Fe32  1  0.25098058  0.24924072  0.74870688  1
  Fe  Fe33  1  0.62586577  0.37471531  0.12721616  1
  Fe  Fe34  1  0.87232110  0.37765147  0.87557791  1
  Fe  Fe35  1  0.62396729  0.62479777  0.62271325  1
  Fe  Fe36  1  0.00006963  -0.00146549  0.74996662  1
  Fe  Fe37  1  0.00068630  0.00182155  0.25050455  1
  Fe  Fe38  1  0.50024477  0.25096778  0.25575808  1
  Fe  Fe39  1  -0.00072074  0.50006210  0.49797084  1
  Fe  Fe40  1  0.50123299  0.25065863  0.00097651  1
  Fe  Fe41  1  0.50043172  0.75420850  -0.00163713  1
  Fe  Fe42  1  0.62604834  0.37572308  0.61683821  1
  Fe  Fe43  1  0.87798597  0.12527668  0.62320676  1
  Fe  Fe44  1  0.37149020  0.87619938  0.37364972  1
  Fe  Fe45  1  0.12594790  0.37743559  0.87567621  1
  Fe  Fe46  1  0.12670577  0.87567943  0.87373096  1
  Fe  Fe47  1  0.49954062  -0.00087500  0.49876675  1
  Fe  Fe48  1  0.24860409  0.00232132  0.74625245  1
  Fe  Fe49  1  0.24794419  0.50031828  0.00438675  1
  Fe  Fe50  1  0.74920657  -0.00053004  0.74695412  1
  Fe  Fe51  1  0.25014629  0.49949617  0.50034849  1
  Fe  Fe52  1  0.00207123  0.75053371  0.49865492  1
  Fe  Fe53  1  0.87631771  0.62420606  0.62786455  1
  Fe  Fe54  1  0.37701486  0.62611369  0.12482611  1
  Fe  Fe55  1  0.49805414  0.49839402  0.25504931  1
  Fe  Fe56  1  0.62663580  0.62367471  0.37496809  1
  Fe  Fe57  1  0.37608244  0.62513808  0.62420840  1
  Fe  Fe58  1  0.49969328  0.49814541  0.00113001  1
  Fe  Fe59  1  0.24975018  0.74837047  0.75101583  1
  Fe  Fe60  1  0.37582762  0.12435202  0.87487063  1
  Fe  Fe61  1  0.74972300  0.75304980  0.24732582  1
  Fe  Fe62  1  0.25023084  0.24646139  0.50233058  1
  Fe  Fe63  1  0.24940175  0.24752146  0.00356095  1
  Fe  Fe64  1  0.49993142  0.75113308  0.49642560  1
  Fe  Fe65  1  0.13005767  0.37219475  0.36905128  1
  Fe  Fe66  1  0.00399645  0.74802895  0.25298438  1
  Fe  Fe67  1  0.24913992  0.00532770  0.24749955  1
  Fe  Fe68  1  0.87731537  0.62633998  0.12533281  1
  Fe  Fe69  1  0.62703096  0.37470713  0.87663293  1
  Fe  Fe70  1  0.24718407  0.75298494  0.49937854  1
  Fe  Fe71  1  0.74989801  0.24752324  0.25336955  1
  Fe  Fe72  1  0.74973148  -0.00055642  0.49934953  1
  Fe  Fe73  1  0.62720779  0.12416646  0.87681297  1
  Fe  Fe74  1  0.12475239  0.12556400  0.87515444  1
  Fe  Fe75  1  0.49978572  -0.00308813  -0.00071008  1
  Fe  Fe76  1  0.37362163  0.37564156  0.87593660  1
  Fe  Fe77  1  0.87081682  0.87407164  0.87576273  1
  Fe  Fe78  1  0.87632500  0.12327403  0.37655939  1
  Fe  Fe79  1  0.00650369  -0.00243923  0.50021267  1
  Fe  Fe80  1  0.50097867  0.25080121  0.74938425  1
  Fe  Fe81  1  0.87217186  0.12512448  0.87634372  1
  Fe  Fe82  1  0.62334962  0.12660551  0.62099856  1
  Fe  Fe83  1  0.37239317  0.37404315  0.12904910  1
  Fe  Fe84  1  0.12322530  0.62475435  0.62617525  1
  Fe  Fe85  1  0.37394880  0.87601849  0.62516815  1
  Fe  Fe86  1  0.87201747  0.37600526  0.62321197  1
  Fe  Fe87  1  0.75100447  0.74948947  0.49770670  1
  Fe  Fe88  1  0.74955027  -0.00448921  0.00706584  1
  Fe  Fe89  1  -0.00045098  -0.00118043  -0.00078588  1
  Co  Co90  1  -0.00048995  0.49801457  0.00295484  1
  Co  Co91  1  0.87570081  0.62593987  0.37167365  1
  Co  Co92  1  -0.00023636  0.49663551  0.74863724  1
  Co  Co93  1  0.12673617  0.87667145  0.37105246  1
  Co  Co94  1  0.75013712  0.75079226  0.00543870  1
  Co  Co95  1  0.12632766  0.62339576  0.37853175  1
  Co  Co96  1  0.75508353  -0.00112687  0.24758646  1
  Co  Co97  1  0.12442388  0.12760059  0.37505023  1
  Co  Co98  1  0.24847654  0.50564067  0.24679595  1
  Co  Co99  1  0.75341842  0.50506860  0.49948125  1
  Co  Co100  1  0.62660336  0.12162083  0.37460684  1
  Co  Co101  1  0.38069254  0.12573242  0.12188764  1
  Co  Co102  1  0.74676667  0.49856196  0.74878463  1
  Co  Co103  1  0.49765186  0.50113287  0.49602425  1
  Co  Co104  1  0.11910505  0.12681468  0.12406495  1
  Co  Co105  1  0.49847117  0.74664814  0.25428312  1
  Co  Co106  1  0.62499370  0.87377511  0.62192326  1
  Co  Co107  1  0.87390699  0.62293899  0.87269036  1
  Co  Co108  1  0.24660642  0.00121183  0.50143603  1
  Co  Co109  1  0.61843150  0.87589630  0.13060750  1
  Co  Co110  1  -0.00072140  0.75224448  0.75183109  1
  Co  Co111  1  0.49883410  0.25029012  0.49498419  1
  Co  Co112  1  0.62912904  0.37667393  0.37963531  1
  Co  Co113  1  0.49495766  0.00368233  0.25283311  1
  Co  Co114  1  0.75231714  0.24701280  0.49748734  1
  Co  Co115  1  0.74976630  0.24990928  0.00257308  1
  Co  Co116  1  0.36769086  0.37412732  0.37303714  1
  Co  Co117  1  0.12601062  0.87325566  0.62726843  1
  Co  Co118  1  0.88211536  0.87179256  0.12701003  1
  Co  Co119  1  0.37808423  0.12374499  0.62521109  1
  Co  Co120  1  0.62984026  0.87504471  0.87631499  1
  Co  Co121  1  0.12672104  0.37050558  0.12974056  1
  Co  Co122  1  -0.00386558  0.24923209  0.25167764  1
  Co  Co123  1  0.25282448  0.24135411  0.24654859  1
  Co  Co124  1  0.12283985  0.62845434  0.12176183  1
  Co  Co125  1  0.12142401  0.12723682  0.62543192  1
  Co  Co126  1  0.25124149  0.49996340  0.74822861  1
  Co  Co127  1  0.37259404  0.87758274  0.87266873  1
