# generated using pymatgen
data_Fe45Co19
_symmetry_space_group_name_H-M   'P 1'
_cell_length_a   11.41568771
_cell_length_b   11.41516972
_cell_length_c   11.41516543
_cell_angle_alpha   90.00003561
_cell_angle_beta   89.99298945
_cell_angle_gamma   89.99939896
_symmetry_Int_Tables_number   1
_chemical_formula_structural   Fe45Co19
_chemical_formula_sum   'Fe90 Co38'
_cell_volume   1487.53317125
_cell_formula_units_Z   2
loop_
 _symmetry_equiv_pos_site_id
 _symmetry_equiv_pos_as_xyz
  1  'x, y, z'
loop_
 _atom_site_type_symbol
 _atom_site_label
 _atom_site_symmetry_multiplicity
 _atom_site_fract_x
 _atom_site_fract_y
 _atom_site_fract_z
 _atom_site_occupancy
  Fe  Fe0  1  0.74880921  0.75214181  0.25052545  1
  Fe  Fe1  1  0.00008436  0.25017319  0.00012881  1
  Fe  Fe2  1  0.12886272  0.12691999  0.87597265  1
  Fe  Fe3  1  0.87275738  0.12322550  0.87605907  1
  Fe  Fe4  1  0.62406200  0.37535709  0.37793109  1
  Fe  Fe5  1  0.24785325  -0.00293514  0.24879067  1
  Fe  Fe6  1  0.75150212  0.24980482  0.49979699  1
  Fe  Fe7  1  0.62488642  0.12390557  0.37435281  1
  Fe  Fe8  1  0.24873102  0.00039480  0.50196428  1
  Fe  Fe9  1  0.87278228  0.12571874  0.12321847  1
  Fe  Fe10  1  0.12521061  0.37509065  0.12301936  1
  Fe  Fe11  1  0.49945976  -0.00049847  0.00018609  1
  Fe  Fe12  1  0.37583329  0.38040743  0.12287150  1
  Fe  Fe13  1  0.37438999  0.12433556  0.62730172  1
  Fe  Fe14  1  0.75041006  0.49958989  0.74814044  1
  Fe  Fe15  1  0.00206916  -0.00028559  0.49790964  1
  Fe  Fe16  1  0.74850774  0.49950532  0.24908082  1
  Fe  Fe17  1  0.12850441  0.12399758  0.12407498  1
  Fe  Fe18  1  0.62232747  0.37469739  0.12359807  1
  Fe  Fe19  1  0.49892235  -0.00095311  0.50241728  1
  Fe  Fe20  1  0.87492196  0.62656448  0.62562263  1
  Fe  Fe21  1  0.12598185  0.37194455  0.37915080  1
  Fe  Fe22  1  0.62270994  0.37441971  0.62362677  1
  Fe  Fe23  1  0.12542595  0.87373096  0.87923421  1
  Fe  Fe24  1  0.62705790  0.12474913  0.87770544  1
  Fe  Fe25  1  0.12614916  0.87271681  0.62367569  1
  Fe  Fe26  1  0.12602139  0.62612724  0.87619304  1
  Fe  Fe27  1  0.25434719  0.74919669  0.00132276  1
  Fe  Fe28  1  0.87545346  0.37625810  0.37321609  1
  Fe  Fe29  1  0.00201659  0.25105899  0.74931591  1
  Fe  Fe30  1  0.25106246  0.25054376  0.24832937  1
  Fe  Fe31  1  0.75077108  0.24989039  0.75016210  1
  Fe  Fe32  1  0.49871394  0.50271312  0.50087941  1
  Fe  Fe33  1  0.37143405  0.12389102  0.87358776  1
  Fe  Fe34  1  0.62083601  0.62553684  0.12473338  1
  Fe  Fe35  1  0.87706875  0.12279287  0.62545746  1
  Fe  Fe36  1  0.87681577  0.37514211  0.62394746  1
  Fe  Fe37  1  0.00179189  0.75255016  0.25137792  1
  Fe  Fe38  1  -0.00133572  0.75218346  0.49711765  1
  Fe  Fe39  1  0.37120916  0.37793839  0.87616272  1
  Fe  Fe40  1  0.74974335  0.25063561  0.24756404  1
  Fe  Fe41  1  0.00187962  0.49958403  0.75131007  1
  Fe  Fe42  1  0.00332574  -0.00129772  0.75095880  1
  Fe  Fe43  1  0.37463770  0.37362427  0.37909840  1
  Fe  Fe44  1  0.12456802  0.62713035  0.12492833  1
  Fe  Fe45  1  0.37420343  0.87666364  0.86926096  1
  Fe  Fe46  1  0.50294351  -0.00221727  0.24769677  1
  Fe  Fe47  1  0.00161858  0.50059446  -0.00014334  1
  Fe  Fe48  1  0.37536716  0.63069976  0.62945085  1
  Fe  Fe49  1  0.37359414  0.12566670  0.37536820  1
  Fe  Fe50  1  0.74936003  -0.00202363  0.74991141  1
  Fe  Fe51  1  0.62156847  0.87284848  0.62539713  1
  Fe  Fe52  1  0.49932214  0.24888023  0.75077501  1
  Fe  Fe53  1  -0.00197392  0.75112545  0.75341690  1
  Fe  Fe54  1  0.00330804  -0.00150199  0.24928347  1
  Fe  Fe55  1  0.74573693  -0.00291343  0.24451552  1
  Fe  Fe56  1  0.62578942  0.62696673  0.62475636  1
  Fe  Fe57  1  0.24832264  0.49932969  0.24997606  1
  Fe  Fe58  1  0.75135241  0.75276900  0.49833257  1
  Fe  Fe59  1  0.12620225  0.62656652  0.37576682  1
  Fe  Fe60  1  0.75046449  -0.00290669  0.50079713  1
  Fe  Fe61  1  0.75010617  0.49916836  0.00138352  1
  Fe  Fe62  1  0.49514394  0.74673294  -0.00279337  1
  Fe  Fe63  1  0.87532936  0.37578706  0.87614188  1
  Fe  Fe64  1  0.25167993  0.50186836  0.50287495  1
  Fe  Fe65  1  0.62460152  0.37485858  0.87509885  1
  Fe  Fe66  1  0.62525540  0.12610914  0.62499802  1
  Fe  Fe67  1  0.49749463  0.24974211  -0.00094485  1
  Fe  Fe68  1  0.37488946  0.12240341  0.12486202  1
  Fe  Fe69  1  0.00040391  0.24979307  0.24962933  1
  Fe  Fe70  1  -0.00168044  0.50095382  0.49785801  1
  Fe  Fe71  1  0.49896475  0.25041744  0.25061536  1
  Fe  Fe72  1  0.24746781  0.25259940  0.74600313  1
  Fe  Fe73  1  0.25009691  0.75223654  0.24864183  1
  Fe  Fe74  1  0.37456378  0.62551089  0.37265958  1
  Fe  Fe75  1  0.75279336  0.75216985  0.75199961  1
  Fe  Fe76  1  0.00110808  0.00022332  0.00032450  1
  Fe  Fe77  1  0.87435300  0.62477541  0.37295326  1
  Fe  Fe78  1  0.75478403  0.74922720  -0.00118196  1
  Fe  Fe79  1  0.87475541  0.12169586  0.37322713  1
  Fe  Fe80  1  0.12369666  0.62653173  0.62432093  1
  Fe  Fe81  1  0.49965788  0.50169581  0.75110743  1
  Fe  Fe82  1  0.62501373  0.62460176  0.37620755  1
  Fe  Fe83  1  0.24742345  0.49897842  0.74806119  1
  Fe  Fe84  1  0.37424813  0.87479226  0.37703087  1
  Fe  Fe85  1  0.87787174  0.62280850  0.12691362  1
  Fe  Fe86  1  0.49981571  0.75141037  0.25179901  1
  Fe  Fe87  1  0.62671012  0.62466986  0.87466315  1
  Fe  Fe88  1  0.87669116  0.87426589  0.12361729  1
  Fe  Fe89  1  0.62584961  0.87546012  0.87705456  1
  Co  Co90  1  0.12472141  0.87320914  0.12119994  1
  Co  Co91  1  0.12742386  0.37392020  0.87679781  1
  Co  Co92  1  0.12657680  0.12716301  0.37369291  1
  Co  Co93  1  0.87726328  0.37730647  0.12511230  1
  Co  Co94  1  0.37647058  0.87551341  0.12621323  1
  Co  Co95  1  0.50205913  0.00104427  0.74990614  1
  Co  Co96  1  0.50019414  0.24708668  0.49998208  1
  Co  Co97  1  0.12696923  0.87458686  0.37630851  1
  Co  Co98  1  0.62416253  0.87658121  0.37631717  1
  Co  Co99  1  0.50177880  0.74952141  0.75339267  1
  Co  Co100  1  0.75111196  0.50023403  0.50037517  1
  Co  Co101  1  0.49970037  0.50281468  -0.00324924  1
  Co  Co102  1  0.12241654  0.37638936  0.62069208  1
  Co  Co103  1  0.25183215  0.24933562  0.00286021  1
  Co  Co104  1  0.37687218  0.62204187  0.12858113  1
  Co  Co105  1  0.00380473  0.49968307  0.25161554  1
  Co  Co106  1  0.75082591  0.25220820  0.00072498  1
  Co  Co107  1  0.87481035  0.62062780  0.87357233  1
  Co  Co108  1  0.25174629  0.74917441  0.50037559  1
  Co  Co109  1  0.37498279  0.87316163  0.62755314  1
  Co  Co110  1  0.37139233  0.62238039  0.87157614  1
  Co  Co111  1  0.62296946  0.12796381  0.12332516  1
  Co  Co112  1  0.50102544  0.49835332  0.25337267  1
  Co  Co113  1  0.24826602  0.50394667  0.00184593  1
  Co  Co114  1  0.74847710  -0.00132026  0.00350972  1
  Co  Co115  1  0.25008606  0.24814493  0.50411084  1
  Co  Co116  1  0.25161334  -0.00189775  -0.00061874  1
  Co  Co117  1  0.87459166  0.87761028  0.37229856  1
  Co  Co118  1  0.87506898  0.87913246  0.87619801  1
  Co  Co119  1  0.37757302  0.37451955  0.62480970  1
  Co  Co120  1  0.24617003  -0.00081161  0.74852613  1
  Co  Co121  1  0.62241234  0.86943840  0.12088071  1
  Co  Co122  1  0.24676993  0.75145140  0.75134021  1
  Co  Co123  1  -0.00360314  0.74845537  -0.00193688  1
  Co  Co124  1  0.12300388  0.12604660  0.62407616  1
  Co  Co125  1  -0.00225095  0.24794662  0.49837544  1
  Co  Co126  1  0.87733040  0.87531776  0.62588705  1
  Co  Co127  1  0.49853930  0.74946527  0.49869287  1
