# generated using pymatgen
data_Fe45Co19
_symmetry_space_group_name_H-M   'P 1'
_cell_length_a   11.41575179
_cell_length_b   11.41572623
_cell_length_c   11.41673254
_cell_angle_alpha   90.00306651
_cell_angle_beta   89.99882895
_cell_angle_gamma   90.00479325
_symmetry_Int_Tables_number   1
_chemical_formula_structural   Fe45Co19
_chemical_formula_sum   'Fe90 Co38'
_cell_volume   1487.81826988
_cell_formula_units_Z   2
loop_
 _symmetry_equiv_pos_site_id
 _symmetry_equiv_pos_as_xyz
  1  'x, y, z'
loop_
 _atom_site_type_symbol
 _atom_site_label
 _atom_site_symmetry_multiplicity
 _atom_site_fract_x
 _atom_site_fract_y
 _atom_site_fract_z
 _atom_site_occupancy
  Fe  Fe0  1  0.50017550  0.25095253  0.24853037  1
  Fe  Fe1  1  0.00025263  0.74972141  0.25319398  1
  Fe  Fe2  1  0.87663681  0.12646236  0.37742473  1
  Fe  Fe3  1  0.37769937  0.37344957  0.12225054  1
  Fe  Fe4  1  0.87606911  0.62283641  0.62449941  1
  Fe  Fe5  1  0.00108551  0.00046955  0.50037150  1
  Fe  Fe6  1  0.49780896  0.49911245  0.75000869  1
  Fe  Fe7  1  0.50549467  0.50188688  0.00353010  1
  Fe  Fe8  1  0.00424720  0.25466658  0.50213395  1
  Fe  Fe9  1  0.37516447  0.37349513  0.87775307  1
  Fe  Fe10  1  0.49957151  0.24951643  0.75111548  1
  Fe  Fe11  1  0.75043939  0.75199003  0.25131229  1
  Fe  Fe12  1  0.50023298  -0.00298529  0.24956998  1
  Fe  Fe13  1  0.87345188  0.37329780  0.87648546  1
  Fe  Fe14  1  -0.00043616  0.50204913  0.25198668  1
  Fe  Fe15  1  0.24557373  0.49564634  0.49908873  1
  Fe  Fe16  1  0.37423643  0.12553924  0.62411156  1
  Fe  Fe17  1  0.12264264  0.12400403  0.12536520  1
  Fe  Fe18  1  0.12138182  0.12640442  0.87517486  1
  Fe  Fe19  1  0.37477791  0.12403502  0.12198514  1
  Fe  Fe20  1  0.74993453  0.75135021  0.74986168  1
  Fe  Fe21  1  0.87573050  0.12350747  0.12156078  1
  Fe  Fe22  1  0.24829907  0.75200986  0.49879318  1
  Fe  Fe23  1  0.37318334  0.62676885  0.37423345  1
  Fe  Fe24  1  0.49899657  0.49940697  0.49818765  1
  Fe  Fe25  1  0.37401480  0.37294673  0.37431076  1
  Fe  Fe26  1  0.62566283  0.37525204  0.62504350  1
  Fe  Fe27  1  0.62744495  0.12258913  0.87144815  1
  Fe  Fe28  1  0.87684067  0.12341432  0.87539282  1
  Fe  Fe29  1  0.49944698  -0.00226627  0.50059507  1
  Fe  Fe30  1  0.12311416  0.87609460  0.12748174  1
  Fe  Fe31  1  0.74700577  0.49984054  0.24728820  1
  Fe  Fe32  1  0.37505514  0.12435714  0.87761606  1
  Fe  Fe33  1  -0.00007670  0.74557387  0.49668585  1
  Fe  Fe34  1  0.12438947  0.62546235  0.87532161  1
  Fe  Fe35  1  0.62560637  0.37366150  0.37395479  1
  Fe  Fe36  1  0.24596395  -0.00147871  -0.00032970  1
  Fe  Fe37  1  0.50403261  0.75183219  0.00047769  1
  Fe  Fe38  1  0.87465374  0.87520960  0.62280180  1
  Fe  Fe39  1  0.12449548  0.62561951  0.12574709  1
  Fe  Fe40  1  0.87516943  0.37564527  0.37474696  1
  Fe  Fe41  1  0.37537325  0.87596719  0.87529073  1
  Fe  Fe42  1  0.12592546  0.12745156  0.62640456  1
  Fe  Fe43  1  0.49941596  0.25021786  0.50062357  1
  Fe  Fe44  1  0.74570469  0.75010519  -0.00114038  1
  Fe  Fe45  1  0.87465531  0.12537317  0.62566784  1
  Fe  Fe46  1  0.25025510  -0.00133425  0.49854139  1
  Fe  Fe47  1  0.62697823  0.37469796  0.87799568  1
  Fe  Fe48  1  0.75198073  0.00116505  0.25160017  1
  Fe  Fe49  1  -0.00078433  0.75055974  0.75104768  1
  Fe  Fe50  1  0.24908177  0.49930710  -0.00029496  1
  Fe  Fe51  1  0.62775122  0.12702490  0.12581150  1
  Fe  Fe52  1  0.25118041  0.74811739  0.74992652  1
  Fe  Fe53  1  0.25137276  -0.00338734  0.25084059  1
  Fe  Fe54  1  0.25146617  0.24869135  0.24772069  1
  Fe  Fe55  1  0.62717898  0.87809118  0.62576203  1
  Fe  Fe56  1  0.37758181  0.62547788  0.87716270  1
  Fe  Fe57  1  0.75063125  0.50009897  0.75202992  1
  Fe  Fe58  1  0.12292104  0.62061101  0.62650053  1
  Fe  Fe59  1  0.87127512  0.37413274  0.12274780  1
  Fe  Fe60  1  0.25148506  0.50030130  0.24905250  1
  Fe  Fe61  1  0.62453039  0.12483730  0.37539103  1
  Fe  Fe62  1  0.87378862  0.87561532  0.37856243  1
  Fe  Fe63  1  0.87536641  0.87812284  0.87610333  1
  Fe  Fe64  1  0.87710474  0.37724645  0.62560204  1
  Fe  Fe65  1  0.62575010  0.12415053  0.62699329  1
  Fe  Fe66  1  0.12416185  0.12563243  0.37328107  1
  Fe  Fe67  1  0.24967942  -0.00008009  0.75055581  1
  Fe  Fe68  1  0.49851343  0.75430345  0.24954003  1
  Fe  Fe69  1  0.37510627  0.12503151  0.37564985  1
  Fe  Fe70  1  0.87457351  0.62573069  0.12391664  1
  Fe  Fe71  1  -0.00275879  0.24903407  0.24801839  1
  Fe  Fe72  1  0.12416165  0.87490872  0.62615812  1
  Fe  Fe73  1  0.75027691  0.50220046  0.49899143  1
  Fe  Fe74  1  0.74942859  0.24957578  0.50040433  1
  Fe  Fe75  1  0.37443941  0.62426429  0.62306709  1
  Fe  Fe76  1  0.87384671  0.62521783  0.87678482  1
  Fe  Fe77  1  0.62482497  0.62325803  0.62699492  1
  Fe  Fe78  1  0.37613452  0.62613189  0.12572864  1
  Fe  Fe79  1  0.00147195  0.75268062  -0.00048431  1
  Fe  Fe80  1  0.62466794  0.62605130  0.37337610  1
  Fe  Fe81  1  0.50433876  -0.00075711  0.00048572  1
  Fe  Fe82  1  0.87444191  0.87636564  0.12350440  1
  Fe  Fe83  1  0.37127755  0.37275718  0.62623534  1
  Fe  Fe84  1  0.12397933  0.37417440  0.12615765  1
  Fe  Fe85  1  0.24928673  0.75158417  0.00181577  1
  Fe  Fe86  1  0.49970441  0.75180628  0.74888626  1
  Fe  Fe87  1  0.50180477  0.75231883  0.50090203  1
  Fe  Fe88  1  0.12526063  0.37296141  0.87046947  1
  Fe  Fe89  1  -0.00044654  0.49907114  -0.00115852  1
  Co  Co90  1  0.24750492  0.25023809  0.00071513  1
  Co  Co91  1  0.75047295  0.24636046  -0.00186907  1
  Co  Co92  1  0.25036256  0.75317534  0.24783068  1
  Co  Co93  1  0.75022364  0.00272212  0.49990015  1
  Co  Co94  1  0.75043876  0.25054196  0.74950281  1
  Co  Co95  1  0.00024230  -0.00068619  0.74841879  1
  Co  Co96  1  -0.00233035  0.50143442  0.75387709  1
  Co  Co97  1  0.12332509  0.87638200  0.37474392  1
  Co  Co98  1  0.62702501  0.87628233  0.37592466  1
  Co  Co99  1  0.74878666  0.00073636  0.00000771  1
  Co  Co100  1  0.12861217  0.62508129  0.37297326  1
  Co  Co101  1  -0.00385960  -0.00067031  0.25090745  1
  Co  Co102  1  0.00013437  0.25160938  0.00068373  1
  Co  Co103  1  0.25345382  0.50335097  0.75257250  1
  Co  Co104  1  0.24731472  0.25144494  0.49929861  1
  Co  Co105  1  0.00185589  -0.00230448  -0.00052181  1
  Co  Co106  1  0.12567652  0.87359911  0.87228705  1
  Co  Co107  1  0.12387153  0.37214638  0.36963765  1
  Co  Co108  1  0.37499929  0.87439548  0.37639948  1
  Co  Co109  1  0.62500143  0.62787183  0.12856892  1
  Co  Co110  1  0.25243902  0.24682812  0.75250465  1
  Co  Co111  1  -0.00228683  0.24916519  0.74914596  1
  Co  Co112  1  0.37309671  0.87538307  0.62588120  1
  Co  Co113  1  0.50251076  0.24665400  -0.00064892  1
  Co  Co114  1  0.62746741  0.87592959  0.12576907  1
  Co  Co115  1  0.62445920  0.62486309  0.87156044  1
  Co  Co116  1  0.50026671  0.49821065  0.24983466  1
  Co  Co117  1  0.49717019  0.00036085  0.74899975  1
  Co  Co118  1  0.62477846  0.87739048  0.87208728  1
  Co  Co119  1  0.12597423  0.37666784  0.63177312  1
  Co  Co120  1  0.87193340  0.62359374  0.37383807  1
  Co  Co121  1  0.62693536  0.37064273  0.12353417  1
  Co  Co122  1  0.00258262  0.49921202  0.49690961  1
  Co  Co123  1  0.74873438  0.74739168  0.50147191  1
  Co  Co124  1  0.75150058  0.24775661  0.25136033  1
  Co  Co125  1  0.74772572  0.50353804  0.00160456  1
  Co  Co126  1  0.75424043  -0.00061585  0.74896670  1
  Co  Co127  1  0.37574380  0.87710421  0.12121366  1
