# generated using pymatgen
data_Fe45Co19
_symmetry_space_group_name_H-M   'P 1'
_cell_length_a   11.41507930
_cell_length_b   11.41452687
_cell_length_c   11.41450574
_cell_angle_alpha   89.99991594
_cell_angle_beta   90.00654761
_cell_angle_gamma   89.99895302
_symmetry_Int_Tables_number   1
_chemical_formula_structural   Fe45Co19
_chemical_formula_sum   'Fe90 Co38'
_cell_volume   1487.28416882
_cell_formula_units_Z   2
loop_
 _symmetry_equiv_pos_site_id
 _symmetry_equiv_pos_as_xyz
  1  'x, y, z'
loop_
 _atom_site_type_symbol
 _atom_site_label
 _atom_site_symmetry_multiplicity
 _atom_site_fract_x
 _atom_site_fract_y
 _atom_site_fract_z
 _atom_site_occupancy
  Fe  Fe0  1  0.37705078  0.87402042  0.12359335  1
  Fe  Fe1  1  0.24758835  0.50280505  0.50214143  1
  Fe  Fe2  1  0.25191791  0.00021865  0.24761810  1
  Fe  Fe3  1  0.37693291  0.12225304  0.37484873  1
  Fe  Fe4  1  0.00048433  0.24529874  0.00221048  1
  Fe  Fe5  1  0.12495074  0.62712716  0.37383758  1
  Fe  Fe6  1  0.50057267  0.25142476  0.49681355  1
  Fe  Fe7  1  0.12453994  0.12370784  0.87511845  1
  Fe  Fe8  1  0.37451905  0.87353187  0.62538573  1
  Fe  Fe9  1  0.12487862  0.87248391  0.62661928  1
  Fe  Fe10  1  0.74741981  -0.00084933  0.24675882  1
  Fe  Fe11  1  0.37392221  0.87414292  0.37627800  1
  Fe  Fe12  1  0.74914055  0.75381836  -0.00179653  1
  Fe  Fe13  1  0.62365382  0.37354554  0.62534494  1
  Fe  Fe14  1  -0.00374492  0.00173804  0.74539397  1
  Fe  Fe15  1  0.87096437  0.87726518  0.37829303  1
  Fe  Fe16  1  0.12374613  0.37367427  0.87710223  1
  Fe  Fe17  1  0.74969340  0.24972937  0.25117111  1
  Fe  Fe18  1  0.24863624  0.00104916  0.00194927  1
  Fe  Fe19  1  -0.00086967  0.24825116  0.25108788  1
  Fe  Fe20  1  0.50545669  -0.00006385  0.00060866  1
  Fe  Fe21  1  0.87671652  0.62783465  0.12431458  1
  Fe  Fe22  1  -0.00486166  0.75191039  0.75275313  1
  Fe  Fe23  1  0.87379671  0.37704127  0.37500965  1
  Fe  Fe24  1  0.62660714  0.11993571  0.87111270  1
  Fe  Fe25  1  0.63011907  0.87271137  0.63289794  1
  Fe  Fe26  1  0.75189840  0.49891099  0.75020439  1
  Fe  Fe27  1  -0.00252641  0.24598144  0.74783486  1
  Fe  Fe28  1  0.62616143  0.87485605  0.37211439  1
  Fe  Fe29  1  0.12853257  0.87332188  0.37414675  1
  Fe  Fe30  1  0.24866642  0.50332853  0.00358858  1
  Fe  Fe31  1  0.37882867  0.37347390  0.12014388  1
  Fe  Fe32  1  0.37374372  0.37874516  0.37687045  1
  Fe  Fe33  1  0.50007650  0.75230296  0.25053809  1
  Fe  Fe34  1  0.37618223  0.37599429  0.62454330  1
  Fe  Fe35  1  0.62738511  0.62388916  0.37208785  1
  Fe  Fe36  1  0.24904462  0.24901215  0.50026144  1
  Fe  Fe37  1  0.50145924  0.75109759  -0.00295521  1
  Fe  Fe38  1  0.87010213  0.88415787  0.87642715  1
  Fe  Fe39  1  0.25050868  0.74931914  0.75211927  1
  Fe  Fe40  1  0.37963134  0.12731419  0.12305889  1
  Fe  Fe41  1  0.87180587  0.62544426  0.37295948  1
  Fe  Fe42  1  0.12469191  0.37331426  0.12479497  1
  Fe  Fe43  1  0.74825824  0.24798538  0.49829624  1
  Fe  Fe44  1  0.87444433  0.37242189  0.12444139  1
  Fe  Fe45  1  -0.00024756  0.49966426  0.75108089  1
  Fe  Fe46  1  0.25071604  0.74780682  0.24582509  1
  Fe  Fe47  1  0.62356924  0.37163578  0.12419868  1
  Fe  Fe48  1  0.24755122  0.50152402  0.75046156  1
  Fe  Fe49  1  0.12327515  0.87155434  0.12266456  1
  Fe  Fe50  1  0.12608970  0.37544951  0.37370013  1
  Fe  Fe51  1  0.62163865  0.12352503  0.37131461  1
  Fe  Fe52  1  -0.00032845  0.50180023  0.24721844  1
  Fe  Fe53  1  0.24838916  -0.00053160  0.50162430  1
  Fe  Fe54  1  0.37486469  0.37605493  0.87914200  1
  Fe  Fe55  1  0.74859863  0.24289321  0.00150055  1
  Fe  Fe56  1  0.50141833  0.49683846  0.25012787  1
  Fe  Fe57  1  0.62647674  0.62635907  0.87305772  1
  Fe  Fe58  1  0.00076249  0.50007155  0.50040424  1
  Fe  Fe59  1  0.75334793  0.24438456  0.74770535  1
  Fe  Fe60  1  0.62488161  0.62730950  0.12602336  1
  Fe  Fe61  1  0.37551846  0.62434710  0.87652985  1
  Fe  Fe62  1  0.12239946  0.62700675  0.87951375  1
  Fe  Fe63  1  0.49748684  0.24810783  0.75430893  1
  Fe  Fe64  1  0.74831209  0.50040263  0.50120867  1
  Fe  Fe65  1  0.62732013  0.37462258  0.87449666  1
  Fe  Fe66  1  0.87613407  0.12126924  0.37847898  1
  Fe  Fe67  1  0.37696052  0.87745038  0.87449243  1
  Fe  Fe68  1  0.37515591  0.62616291  0.62415207  1
  Fe  Fe69  1  0.87492017  0.62743000  0.62440828  1
  Fe  Fe70  1  0.87472114  0.37182811  0.87675595  1
  Fe  Fe71  1  0.87502742  0.62199979  0.87805281  1
  Fe  Fe72  1  0.25294464  0.24934056  0.24843758  1
  Fe  Fe73  1  0.00159231  -0.00182321  0.24989258  1
  Fe  Fe74  1  -0.00057523  0.75219846  0.49862029  1
  Fe  Fe75  1  0.50024763  0.50004712  0.75092047  1
  Fe  Fe76  1  0.37705364  0.12469356  0.62453029  1
  Fe  Fe77  1  0.12467967  0.87588022  0.87668060  1
  Fe  Fe78  1  0.37544489  0.62551881  0.37554819  1
  Fe  Fe79  1  0.50317685  -0.00249825  0.50243149  1
  Fe  Fe80  1  0.74974600  0.49905410  0.00226310  1
  Fe  Fe81  1  0.62685391  0.62693904  0.62859188  1
  Fe  Fe82  1  0.87493571  0.37303526  0.62346908  1
  Fe  Fe83  1  0.12513904  0.12447098  0.37537921  1
  Fe  Fe84  1  0.24945465  0.50351997  0.24491010  1
  Fe  Fe85  1  0.50349065  0.75037428  0.50152086  1
  Fe  Fe86  1  0.12486199  0.37354146  0.62581817  1
  Fe  Fe87  1  0.25201463  0.24782088  0.75242356  1
  Fe  Fe88  1  0.25118824  0.00163581  0.74892283  1
  Fe  Fe89  1  0.87457035  0.87724370  0.12355701  1
  Co  Co90  1  0.11907602  0.63100281  0.12106247  1
  Co  Co91  1  0.75030744  0.49864459  0.24565921  1
  Co  Co92  1  0.75450195  0.00573174  0.74423842  1
  Co  Co93  1  0.62748435  0.87758950  0.86950123  1
  Co  Co94  1  0.75146588  0.75275680  0.24856299  1
  Co  Co95  1  0.75645146  0.74943827  0.75444595  1
  Co  Co96  1  0.50239002  0.50226039  0.50038278  1
  Co  Co97  1  0.74461377  0.00234799  0.00470091  1
  Co  Co98  1  0.87143536  0.87476078  0.62170633  1
  Co  Co99  1  0.74742274  0.74971826  0.49852679  1
  Co  Co100  1  0.62043534  0.12745091  0.13110888  1
  Co  Co101  1  0.00425542  -0.00416194  0.50021370  1
  Co  Co102  1  0.24878790  0.24785765  -0.00026127  1
  Co  Co103  1  0.24932738  0.74958232  0.50117791  1
  Co  Co104  1  0.87505058  0.12258531  0.12746600  1
  Co  Co105  1  0.50384616  0.24682799  -0.00609289  1
  Co  Co106  1  0.49753132  0.75000343  0.75095194  1
  Co  Co107  1  0.49795205  -0.00341694  0.24952609  1
  Co  Co108  1  0.12504589  0.12475311  0.12751378  1
  Co  Co109  1  0.00117346  0.25190876  0.49798964  1
  Co  Co110  1  0.25354682  0.74994752  -0.00016556  1
  Co  Co111  1  0.87731323  0.12360790  0.61613315  1
  Co  Co112  1  -0.00525485  0.75483639  -0.00451277  1
  Co  Co113  1  0.50347655  0.50142635  -0.00166245  1
  Co  Co114  1  0.37468045  0.12061789  0.87796940  1
  Co  Co115  1  0.00183624  0.00226653  0.00250915  1
  Co  Co116  1  0.74283767  0.00094458  0.50252555  1
  Co  Co117  1  0.62417825  0.87298077  0.12542329  1
  Co  Co118  1  0.12487491  0.12582890  0.62449533  1
  Co  Co119  1  0.87544865  0.12259084  0.87840214  1
  Co  Co120  1  -0.00161773  0.49666593  0.00139049  1
  Co  Co121  1  0.38054008  0.62536478  0.12533648  1
  Co  Co122  1  -0.00227201  0.75295910  0.25290011  1
  Co  Co123  1  0.62732855  0.37722123  0.37564769  1
  Co  Co124  1  0.49893650  0.00007880  0.74776223  1
  Co  Co125  1  0.49761292  0.25479467  0.25422151  1
  Co  Co126  1  0.12185435  0.62831337  0.62675044  1
  Co  Co127  1  0.62161892  0.12847633  0.62618570  1
