# generated using pymatgen
data_Fe45Co19
_symmetry_space_group_name_H-M   'P 1'
_cell_length_a   11.41347679
_cell_length_b   11.41451070
_cell_length_c   11.41414182
_cell_angle_alpha   90.00526456
_cell_angle_beta   89.99925020
_cell_angle_gamma   90.00499623
_symmetry_Int_Tables_number   1
_chemical_formula_structural   Fe45Co19
_chemical_formula_sum   'Fe90 Co38'
_cell_volume   1487.02585815
_cell_formula_units_Z   2
loop_
 _symmetry_equiv_pos_site_id
 _symmetry_equiv_pos_as_xyz
  1  'x, y, z'
loop_
 _atom_site_type_symbol
 _atom_site_label
 _atom_site_symmetry_multiplicity
 _atom_site_fract_x
 _atom_site_fract_y
 _atom_site_fract_z
 _atom_site_occupancy
  Fe  Fe0  1  0.87375209  0.12220998  0.87206306  1
  Fe  Fe1  1  0.24871694  0.49908716  0.75243744  1
  Fe  Fe2  1  0.87008944  0.87843731  0.63046604  1
  Fe  Fe3  1  -0.00131883  0.25070930  0.49951605  1
  Fe  Fe4  1  -0.00053321  0.50185344  0.25146368  1
  Fe  Fe5  1  0.37573202  0.87215175  0.37572512  1
  Fe  Fe6  1  0.00128382  0.50199058  -0.00569409  1
  Fe  Fe7  1  0.25094545  0.24880729  0.00049456  1
  Fe  Fe8  1  0.12409290  0.12512138  0.87556036  1
  Fe  Fe9  1  0.50315873  0.00114052  0.00024796  1
  Fe  Fe10  1  0.24807208  -0.00057673  0.74988728  1
  Fe  Fe11  1  -0.00115302  0.74956363  0.24851386  1
  Fe  Fe12  1  0.62701380  0.62545993  0.37817350  1
  Fe  Fe13  1  0.12293475  0.37492633  0.12315276  1
  Fe  Fe14  1  0.24971194  -0.00186813  0.50003691  1
  Fe  Fe15  1  0.12505980  0.37632883  0.62508168  1
  Fe  Fe16  1  -0.00354945  0.75098727  0.50304777  1
  Fe  Fe17  1  0.87722037  0.37678159  0.12441246  1
  Fe  Fe18  1  0.62353181  0.37729129  0.37857453  1
  Fe  Fe19  1  0.62783102  0.12620640  0.37700873  1
  Fe  Fe20  1  0.37720614  0.87710349  0.62592636  1
  Fe  Fe21  1  0.62647650  0.87351775  0.12388325  1
  Fe  Fe22  1  0.62707692  0.62252669  0.87128843  1
  Fe  Fe23  1  0.37527736  0.62768216  0.87529778  1
  Fe  Fe24  1  0.24899636  0.50070230  -0.00262849  1
  Fe  Fe25  1  -0.00000689  0.25027439  0.74969970  1
  Fe  Fe26  1  0.12439235  0.87621905  0.37325451  1
  Fe  Fe27  1  0.12339337  0.87778244  0.12678233  1
  Fe  Fe28  1  0.87578757  0.37420420  0.87547357  1
  Fe  Fe29  1  0.37678557  0.87565633  0.87510540  1
  Fe  Fe30  1  0.25317802  0.50134692  0.49820469  1
  Fe  Fe31  1  0.50357560  0.74745712  0.50483204  1
  Fe  Fe32  1  0.50054485  0.00045848  0.49923264  1
  Fe  Fe33  1  0.25132723  0.24802919  0.74944456  1
  Fe  Fe34  1  0.62268974  0.38050373  0.62295279  1
  Fe  Fe35  1  0.75029396  0.25264264  0.25025023  1
  Fe  Fe36  1  0.87188228  0.62727306  0.37518848  1
  Fe  Fe37  1  0.37509835  0.12685779  0.37613056  1
  Fe  Fe38  1  0.87338968  0.12482799  0.12598504  1
  Fe  Fe39  1  0.50099849  -0.00050151  0.25051641  1
  Fe  Fe40  1  0.24891466  0.75306455  0.74952536  1
  Fe  Fe41  1  0.12492625  0.37608351  0.37512478  1
  Fe  Fe42  1  0.62483369  0.12757148  0.87816344  1
  Fe  Fe43  1  0.62733727  0.87201902  0.37748963  1
  Fe  Fe44  1  0.62507855  0.62361951  0.12382607  1
  Fe  Fe45  1  0.75056890  0.24944170  0.00125919  1
  Fe  Fe46  1  0.25355407  0.50226480  0.25153110  1
  Fe  Fe47  1  0.25071807  0.74975785  0.24839521  1
  Fe  Fe48  1  0.75069351  0.50060120  0.25071948  1
  Fe  Fe49  1  -0.00069992  0.75459309  0.75284779  1
  Fe  Fe50  1  0.62369830  0.37552696  0.12436633  1
  Fe  Fe51  1  0.74899522  -0.00098614  0.24970320  1
  Fe  Fe52  1  0.75191367  0.74728958  -0.00225116  1
  Fe  Fe53  1  0.87232233  0.87367301  0.12448254  1
  Fe  Fe54  1  0.37724279  0.37684322  0.12627778  1
  Fe  Fe55  1  0.12389439  0.12101362  0.37360870  1
  Fe  Fe56  1  0.50162318  0.25118846  0.25117390  1
  Fe  Fe57  1  0.37630041  0.37186101  0.87471131  1
  Fe  Fe58  1  0.50247517  0.00241869  0.74985815  1
  Fe  Fe59  1  -0.00011575  0.24942072  0.25054621  1
  Fe  Fe60  1  -0.00259945  0.50162294  0.49986205  1
  Fe  Fe61  1  0.37649384  0.62445274  0.62691765  1
  Fe  Fe62  1  0.74925320  0.25094524  0.74708882  1
  Fe  Fe63  1  0.12492548  0.62693345  0.37648161  1
  Fe  Fe64  1  -0.00298571  0.75054203  -0.00359968  1
  Fe  Fe65  1  -0.00350454  -0.00171965  0.50080086  1
  Fe  Fe66  1  0.37813351  0.87258055  0.12340235  1
  Fe  Fe67  1  0.87221403  0.12689688  0.37745925  1
  Fe  Fe68  1  0.25147219  0.00009956  0.00110140  1
  Fe  Fe69  1  0.75147669  0.50045003  -0.00208657  1
  Fe  Fe70  1  0.24865988  0.24903871  0.24976394  1
  Fe  Fe71  1  0.12280947  0.12282719  0.62443696  1
  Fe  Fe72  1  0.87545477  0.37691188  0.62482088  1
  Fe  Fe73  1  0.49942345  0.50065358  -0.00210898  1
  Fe  Fe74  1  0.50515605  0.74958748  0.74851224  1
  Fe  Fe75  1  0.25028284  0.24940940  0.50029073  1
  Fe  Fe76  1  0.24915327  0.75064681  0.50221422  1
  Fe  Fe77  1  0.49935026  0.24779270  0.74717269  1
  Fe  Fe78  1  0.87063821  0.87113055  0.37445880  1
  Fe  Fe79  1  0.50110482  0.74686949  0.24850365  1
  Fe  Fe80  1  0.12268205  0.12183489  0.12626746  1
  Fe  Fe81  1  0.37686674  0.37516330  0.62335852  1
  Fe  Fe82  1  0.62382614  0.37374904  0.87454595  1
  Fe  Fe83  1  0.62834024  0.12467531  0.62018185  1
  Fe  Fe84  1  -0.00318458  -0.00179182  -0.00243549  1
  Fe  Fe85  1  0.12405105  0.62460207  0.12369180  1
  Fe  Fe86  1  0.37882521  0.12554819  0.12493909  1
  Fe  Fe87  1  0.62971669  0.87606561  0.87385393  1
  Fe  Fe88  1  0.24891073  0.75010675  0.00039278  1
  Fe  Fe89  1  0.12216394  0.62522566  0.62796099  1
  Co  Co90  1  0.74898584  0.74824641  0.24709763  1
  Co  Co91  1  0.37508326  0.63007802  0.37530001  1
  Co  Co92  1  0.87471668  0.62511679  0.86926129  1
  Co  Co93  1  0.12477009  0.62804869  0.87194674  1
  Co  Co94  1  0.74549262  0.74798884  0.74561839  1
  Co  Co95  1  0.50037154  0.24936562  0.50231420  1
  Co  Co96  1  0.12423204  0.87501333  0.62391632  1
  Co  Co97  1  0.12679666  0.87539922  0.87748509  1
  Co  Co98  1  0.74555358  0.00484604  0.74931643  1
  Co  Co99  1  0.75405570  0.50073101  0.49970754  1
  Co  Co100  1  0.49946794  0.25086153  0.00030730  1
  Co  Co101  1  0.12543681  0.37032492  0.87596947  1
  Co  Co102  1  0.62484767  0.12745231  0.12593495  1
  Co  Co103  1  0.75067980  0.25485766  0.50167742  1
  Co  Co104  1  0.62606150  0.87930396  0.62472370  1
  Co  Co105  1  0.37662660  0.62553180  0.12218577  1
  Co  Co106  1  0.74931113  0.74842925  0.50829841  1
  Co  Co107  1  0.25438003  -0.00072770  0.24939248  1
  Co  Co108  1  0.87547125  0.62336289  0.12421359  1
  Co  Co109  1  0.87459547  0.12466552  0.62562348  1
  Co  Co110  1  -0.00191446  0.24720264  -0.00009023  1
  Co  Co111  1  -0.00542475  -0.00088055  0.25112323  1
  Co  Co112  1  0.86823339  0.87738836  0.87176778  1
  Co  Co113  1  0.75117642  0.49642271  0.75064955  1
  Co  Co114  1  0.00221039  0.49592346  0.75305965  1
  Co  Co115  1  0.62563836  0.61571417  0.62599185  1
  Co  Co116  1  0.87653566  0.62273698  0.63143486  1
  Co  Co117  1  0.37577209  0.37174857  0.37510797  1
  Co  Co118  1  0.49741039  0.50020049  0.75305832  1
  Co  Co119  1  0.37399993  0.12215644  0.62399954  1
  Co  Co120  1  0.49538950  0.50258728  0.49714800  1
  Co  Co121  1  0.37628135  0.12379949  0.87504624  1
  Co  Co122  1  0.49949689  0.50294934  0.25194464  1
  Co  Co123  1  0.87609515  0.37523566  0.37359746  1
  Co  Co124  1  0.00222490  -0.00225416  0.75115177  1
  Co  Co125  1  0.50448431  0.74892082  -0.00331169  1
  Co  Co126  1  0.74872646  0.00215642  0.00232180  1
  Co  Co127  1  0.75238668  -0.00219395  0.49911035  1
