# generated using pymatgen
data_Fe45Co19
_symmetry_space_group_name_H-M   'P 1'
_cell_length_a   11.41541063
_cell_length_b   11.41521156
_cell_length_c   11.41484743
_cell_angle_alpha   90.00344819
_cell_angle_beta   90.00087408
_cell_angle_gamma   89.99704498
_symmetry_Int_Tables_number   1
_chemical_formula_structural   Fe45Co19
_chemical_formula_sum   'Fe90 Co38'
_cell_volume   1487.46108614
_cell_formula_units_Z   2
loop_
 _symmetry_equiv_pos_site_id
 _symmetry_equiv_pos_as_xyz
  1  'x, y, z'
loop_
 _atom_site_type_symbol
 _atom_site_label
 _atom_site_symmetry_multiplicity
 _atom_site_fract_x
 _atom_site_fract_y
 _atom_site_fract_z
 _atom_site_occupancy
  Fe  Fe0  1  0.00114071  0.25157397  0.24753514  1
  Fe  Fe1  1  0.00061301  -0.00186741  0.25156703  1
  Fe  Fe2  1  0.25088732  0.49979340  0.25241982  1
  Fe  Fe3  1  0.37428052  0.62514822  0.62251565  1
  Fe  Fe4  1  0.49967340  0.49965971  0.75141038  1
  Fe  Fe5  1  0.00120703  0.50217770  0.00064509  1
  Fe  Fe6  1  0.24844026  0.24790400  0.00495089  1
  Fe  Fe7  1  0.62599308  0.12504818  0.62501926  1
  Fe  Fe8  1  0.00095273  0.25073048  0.74870698  1
  Fe  Fe9  1  0.62440814  0.12011141  0.12514440  1
  Fe  Fe10  1  0.25087862  0.49989132  0.75051525  1
  Fe  Fe11  1  0.24911139  0.00128140  0.00080538  1
  Fe  Fe12  1  0.37669996  0.37439988  0.37156512  1
  Fe  Fe13  1  0.62468646  0.62866531  0.12788974  1
  Fe  Fe14  1  0.12656495  0.12466499  0.62414221  1
  Fe  Fe15  1  0.74910833  0.50122423  0.24967021  1
  Fe  Fe16  1  0.00026282  0.49815733  0.74875973  1
  Fe  Fe17  1  0.87318576  0.62377182  0.62412389  1
  Fe  Fe18  1  0.87285248  0.12413757  0.62395457  1
  Fe  Fe19  1  0.87251241  0.37488673  0.87821983  1
  Fe  Fe20  1  0.37587320  0.12647510  0.87770775  1
  Fe  Fe21  1  0.12734844  0.62675646  0.12642267  1
  Fe  Fe22  1  0.74889305  -0.00092869  0.49668984  1
  Fe  Fe23  1  0.62447473  0.37261437  0.87872605  1
  Fe  Fe24  1  0.62415211  0.37463995  0.37260589  1
  Fe  Fe25  1  0.87425331  0.62842267  0.12429738  1
  Fe  Fe26  1  0.12497756  0.87402893  0.87484176  1
  Fe  Fe27  1  0.37412820  0.62465205  0.12597890  1
  Fe  Fe28  1  0.75008700  0.24862140  0.24651883  1
  Fe  Fe29  1  0.75162921  0.25269463  0.49906306  1
  Fe  Fe30  1  0.37799489  0.87623044  0.62032735  1
  Fe  Fe31  1  0.49943729  0.50206609  0.00103458  1
  Fe  Fe32  1  0.62281162  0.62808293  0.87499265  1
  Fe  Fe33  1  0.37653469  0.37312177  0.87789092  1
  Fe  Fe34  1  0.87597471  0.62819487  0.87696369  1
  Fe  Fe35  1  0.12443906  0.62647353  0.37854104  1
  Fe  Fe36  1  0.87438352  0.87355549  0.12555227  1
  Fe  Fe37  1  0.37681155  0.62795886  0.37653197  1
  Fe  Fe38  1  0.62529140  0.12624720  0.37319997  1
  Fe  Fe39  1  0.74917983  0.49965822  0.75339544  1
  Fe  Fe40  1  0.62536870  0.37670904  0.12385032  1
  Fe  Fe41  1  0.75189609  0.75258612  0.75121801  1
  Fe  Fe42  1  0.12248332  0.87510673  0.62062367  1
  Fe  Fe43  1  0.25098812  0.75545350  0.25501151  1
  Fe  Fe44  1  -0.00111770  -0.00106700  0.74928552  1
  Fe  Fe45  1  0.00229135  -0.00131286  -0.00071173  1
  Fe  Fe46  1  -0.00163560  0.25424307  0.50155116  1
  Fe  Fe47  1  0.00191039  0.24881538  0.00194173  1
  Fe  Fe48  1  0.87541919  0.12191540  0.12516476  1
  Fe  Fe49  1  0.12470443  0.87471352  0.12650701  1
  Fe  Fe50  1  0.25085988  0.75059594  0.74753545  1
  Fe  Fe51  1  0.25051787  -0.00035275  0.74986930  1
  Fe  Fe52  1  0.87388606  0.37625961  0.12376261  1
  Fe  Fe53  1  0.25161770  0.75056854  -0.00024984  1
  Fe  Fe54  1  0.62102653  0.87402982  0.37090797  1
  Fe  Fe55  1  0.25111082  0.24885348  0.74916994  1
  Fe  Fe56  1  0.74614102  -0.00373541  -0.00114595  1
  Fe  Fe57  1  0.37755639  0.87363430  0.87582047  1
  Fe  Fe58  1  0.74620028  0.75365709  -0.00058069  1
  Fe  Fe59  1  0.62230654  0.12662623  0.87622651  1
  Fe  Fe60  1  0.75180148  0.49621632  0.49780516  1
  Fe  Fe61  1  0.87466051  0.62499700  0.37489961  1
  Fe  Fe62  1  0.49870937  0.24703444  0.50141319  1
  Fe  Fe63  1  0.37462236  0.12201018  0.37283729  1
  Fe  Fe64  1  0.25134370  0.25060252  0.49966106  1
  Fe  Fe65  1  0.49787291  0.74800456  0.74849696  1
  Fe  Fe66  1  0.12471559  0.12426536  0.37330643  1
  Fe  Fe67  1  0.00056754  0.50140324  0.24971086  1
  Fe  Fe68  1  0.49873239  0.24873063  0.24520323  1
  Fe  Fe69  1  0.87513987  0.12659166  0.37404042  1
  Fe  Fe70  1  0.74863595  0.75133334  0.49817477  1
  Fe  Fe71  1  0.49825293  0.00332995  0.74923141  1
  Fe  Fe72  1  0.62486030  0.37457138  0.62522168  1
  Fe  Fe73  1  0.62445146  0.87550406  0.62659335  1
  Fe  Fe74  1  0.62648907  0.62428476  0.62349883  1
  Fe  Fe75  1  0.75131347  -0.00234947  0.75246569  1
  Fe  Fe76  1  0.37981869  0.87810544  0.12672070  1
  Fe  Fe77  1  0.24946450  0.50072998  -0.00107411  1
  Fe  Fe78  1  0.12576177  0.62802108  0.87403380  1
  Fe  Fe79  1  0.87878424  0.87384900  0.37639582  1
  Fe  Fe80  1  0.12573607  0.37324372  0.87596920  1
  Fe  Fe81  1  0.12487116  0.37655551  0.37589852  1
  Fe  Fe82  1  -0.00161298  0.75207073  0.74766959  1
  Fe  Fe83  1  0.87585527  0.12364138  0.87679670  1
  Fe  Fe84  1  0.74933107  0.24978462  0.75201240  1
  Fe  Fe85  1  0.12620411  0.62233225  0.62087885  1
  Fe  Fe86  1  0.24985236  0.24896029  0.24535558  1
  Fe  Fe87  1  0.49986449  0.50038565  0.49792787  1
  Fe  Fe88  1  0.37508865  0.37490614  0.62474065  1
  Fe  Fe89  1  0.24938233  -0.00284202  0.49591035  1
  Co  Co90  1  0.74879554  0.50421160  -0.00003691  1
  Co  Co91  1  0.87402432  0.37415999  0.36940790  1
  Co  Co92  1  -0.00169918  0.74691598  0.50196694  1
  Co  Co93  1  0.12573922  0.37816106  0.12576227  1
  Co  Co94  1  0.87664659  0.87415252  0.87767732  1
  Co  Co95  1  0.37431998  0.62649531  0.87517092  1
  Co  Co96  1  0.49957659  0.24959690  0.00544825  1
  Co  Co97  1  0.25061556  0.75312328  0.49866758  1
  Co  Co98  1  0.38137150  0.87627046  0.37704152  1
  Co  Co99  1  0.50336058  0.74891678  0.50015559  1
  Co  Co100  1  0.24895576  -0.00439448  0.25288428  1
  Co  Co101  1  0.00075962  0.74905681  0.24979764  1
  Co  Co102  1  0.50050757  0.50195984  0.24987203  1
  Co  Co103  1  0.49993916  0.74980275  0.00177827  1
  Co  Co104  1  0.62233631  0.87520546  0.13015067  1
  Co  Co105  1  0.12541448  0.12426972  0.87407377  1
  Co  Co106  1  0.12848315  0.37608692  0.62306704  1
  Co  Co107  1  0.50255461  -0.00132067  -0.00143818  1
  Co  Co108  1  0.49903665  0.24878276  0.74796635  1
  Co  Co109  1  0.87228045  0.37502046  0.62885478  1
  Co  Co110  1  0.87333306  0.87684137  0.62166556  1
  Co  Co111  1  0.37371462  0.37822749  0.12542642  1
  Co  Co112  1  0.00265622  0.75011983  0.00115832  1
  Co  Co113  1  0.11970476  0.87368977  0.37751287  1
  Co  Co114  1  0.37260329  0.12247241  0.62292921  1
  Co  Co115  1  0.62599658  0.62354075  0.37480681  1
  Co  Co116  1  0.37469629  0.12005631  0.12524346  1
  Co  Co117  1  0.49812006  0.74780912  0.25029895  1
  Co  Co118  1  0.75158708  -0.00102494  0.25227571  1
  Co  Co119  1  -0.00338671  0.49670462  0.50018363  1
  Co  Co120  1  0.25366049  0.49958911  0.49769361  1
  Co  Co121  1  0.62019840  0.87295602  0.87081097  1
  Co  Co122  1  0.74989707  0.24605448  0.00202120  1
  Co  Co123  1  0.75108856  0.75132209  0.25208522  1
  Co  Co124  1  0.12428992  0.12163645  0.12791963  1
  Co  Co125  1  0.50338978  0.00275060  0.49949343  1
  Co  Co126  1  -0.00064445  0.00379058  0.49983452  1
  Co  Co127  1  0.49983977  0.00249053  0.25197632  1
