# generated using pymatgen
data_Fe45Co19
_symmetry_space_group_name_H-M   'P 1'
_cell_length_a   11.41640784
_cell_length_b   11.41488702
_cell_length_c   11.41489103
_cell_angle_alpha   89.99849695
_cell_angle_beta   89.99759900
_cell_angle_gamma   89.99231248
_symmetry_Int_Tables_number   1
_chemical_formula_structural   Fe45Co19
_chemical_formula_sum   'Fe90 Co38'
_cell_volume   1487.55440441
_cell_formula_units_Z   2
loop_
 _symmetry_equiv_pos_site_id
 _symmetry_equiv_pos_as_xyz
  1  'x, y, z'
loop_
 _atom_site_type_symbol
 _atom_site_label
 _atom_site_symmetry_multiplicity
 _atom_site_fract_x
 _atom_site_fract_y
 _atom_site_fract_z
 _atom_site_occupancy
  Fe  Fe0  1  0.12466465  0.37563084  0.12281063  1
  Fe  Fe1  1  0.24961210  0.75208674  0.74825727  1
  Fe  Fe2  1  0.74697090  0.75024129  0.00422858  1
  Fe  Fe3  1  0.37493134  0.87234796  0.87635651  1
  Fe  Fe4  1  0.87435728  0.87432185  0.87414651  1
  Fe  Fe5  1  0.88083621  0.37182548  0.62756580  1
  Fe  Fe6  1  0.87407326  0.87166303  0.13104481  1
  Fe  Fe7  1  0.63110669  0.12763408  0.37600495  1
  Fe  Fe8  1  -0.00323585  -0.00092056  0.00116257  1
  Fe  Fe9  1  0.37596950  0.87892165  0.62527640  1
  Fe  Fe10  1  0.62604609  0.62283427  0.62254934  1
  Fe  Fe11  1  0.62482840  0.87929970  0.62390952  1
  Fe  Fe12  1  0.62453698  0.37490381  0.37830870  1
  Fe  Fe13  1  0.75106376  0.49946667  0.74841280  1
  Fe  Fe14  1  0.37708461  0.87463978  0.37310043  1
  Fe  Fe15  1  0.12325600  0.87737650  0.12600432  1
  Fe  Fe16  1  0.87394425  0.62758060  0.37438029  1
  Fe  Fe17  1  0.12477379  0.12288523  0.12535865  1
  Fe  Fe18  1  0.25105589  -0.00076007  0.25068108  1
  Fe  Fe19  1  0.25106647  0.50065401  0.50011358  1
  Fe  Fe20  1  0.12291001  0.12277940  0.87599506  1
  Fe  Fe21  1  0.49851056  0.00038502  -0.00065684  1
  Fe  Fe22  1  0.62640164  0.12313611  0.12429629  1
  Fe  Fe23  1  -0.00522621  0.00345281  0.25488669  1
  Fe  Fe24  1  0.75023528  0.25180430  0.00139477  1
  Fe  Fe25  1  0.12369534  0.12378289  0.62563689  1
  Fe  Fe26  1  0.50137495  0.00244388  0.25120350  1
  Fe  Fe27  1  0.25254633  0.50059208  -0.00153844  1
  Fe  Fe28  1  0.87365792  0.12994653  0.12897469  1
  Fe  Fe29  1  0.25052173  0.49840260  0.74883728  1
  Fe  Fe30  1  0.87672744  0.36792934  0.37304610  1
  Fe  Fe31  1  0.37536416  0.62542347  0.12717610  1
  Fe  Fe32  1  0.87507007  0.12482248  0.87193618  1
  Fe  Fe33  1  0.37558363  0.37122599  0.62420167  1
  Fe  Fe34  1  0.49634511  0.50151103  0.49768240  1
  Fe  Fe35  1  0.37467249  0.12752891  0.12563469  1
  Fe  Fe36  1  0.25115715  0.75057692  0.49810420  1
  Fe  Fe37  1  0.75422493  0.49639473  0.50135430  1
  Fe  Fe38  1  0.00109131  0.74976661  0.00235374  1
  Fe  Fe39  1  0.74964344  0.75123492  0.49988294  1
  Fe  Fe40  1  0.24915313  0.24906816  0.75025106  1
  Fe  Fe41  1  -0.00039654  0.74950184  0.50115372  1
  Fe  Fe42  1  0.87518173  0.62604791  0.87262358  1
  Fe  Fe43  1  0.87414245  0.62496706  0.12745744  1
  Fe  Fe44  1  0.37437752  0.62647307  0.62499068  1
  Fe  Fe45  1  -0.00183525  0.50016856  -0.00075580  1
  Fe  Fe46  1  0.12551044  0.62571478  0.87312137  1
  Fe  Fe47  1  0.50101836  0.75037082  0.74985637  1
  Fe  Fe48  1  0.49856244  0.00376641  0.49755645  1
  Fe  Fe49  1  0.12439180  0.37363755  0.37815175  1
  Fe  Fe50  1  0.50728401  0.74484484  0.25032592  1
  Fe  Fe51  1  0.25184392  -0.00013487  -0.00038718  1
  Fe  Fe52  1  0.49524057  0.49980081  -0.00353211  1
  Fe  Fe53  1  0.37527638  0.37343082  0.37355999  1
  Fe  Fe54  1  0.62446023  0.12309594  0.62428981  1
  Fe  Fe55  1  0.37435028  0.37297713  0.12503319  1
  Fe  Fe56  1  0.12571080  0.62306907  0.12580423  1
  Fe  Fe57  1  0.12428097  0.37581520  0.87423560  1
  Fe  Fe58  1  0.50291269  0.25067044  0.25041648  1
  Fe  Fe59  1  0.50037000  0.74845320  0.49814002  1
  Fe  Fe60  1  0.12607704  0.62365148  0.37628747  1
  Fe  Fe61  1  0.87725460  0.37454004  0.87230287  1
  Fe  Fe62  1  0.62823224  0.87754868  0.37401561  1
  Fe  Fe63  1  0.00045329  0.50053297  0.50373941  1
  Fe  Fe64  1  0.62490307  0.87579788  0.87716814  1
  Fe  Fe65  1  0.12501696  0.87556746  0.87619332  1
  Fe  Fe66  1  0.24696934  0.75064751  0.25085893  1
  Fe  Fe67  1  0.62491541  0.62422422  0.87568645  1
  Fe  Fe68  1  0.12249602  0.87810367  0.37579796  1
  Fe  Fe69  1  0.75212119  -0.00094911  0.00158907  1
  Fe  Fe70  1  0.24640226  0.25024764  0.24998514  1
  Fe  Fe71  1  0.37711179  0.12925981  0.87435447  1
  Fe  Fe72  1  0.12497676  0.87930106  0.62282539  1
  Fe  Fe73  1  0.49717122  0.49906500  0.75130553  1
  Fe  Fe74  1  0.62411476  0.12589296  0.87546435  1
  Fe  Fe75  1  0.74818574  0.25013790  0.74810686  1
  Fe  Fe76  1  -0.00777507  0.00597651  0.49593114  1
  Fe  Fe77  1  0.25121513  0.24629602  0.49926460  1
  Fe  Fe78  1  -0.00046595  0.25076975  0.00070048  1
  Fe  Fe79  1  0.62149740  0.37617396  0.62307122  1
  Fe  Fe80  1  0.87373961  0.87881919  0.62545325  1
  Fe  Fe81  1  0.25340861  0.00296282  0.49837564  1
  Fe  Fe82  1  0.75328006  0.49839585  -0.00129358  1
  Fe  Fe83  1  0.37798772  0.87225426  0.12554104  1
  Fe  Fe84  1  0.00014455  0.74981991  0.74652686  1
  Fe  Fe85  1  0.74932216  0.49907745  0.25127257  1
  Fe  Fe86  1  0.74844150  0.75082976  0.74769289  1
  Fe  Fe87  1  0.62333194  0.37387134  0.87523859  1
  Fe  Fe88  1  0.62343741  0.37939152  0.12254924  1
  Fe  Fe89  1  0.00066658  0.49858781  0.25063319  1
  Co  Co90  1  0.24820614  0.75002025  0.00279501  1
  Co  Co91  1  0.00174580  0.50222216  0.74707093  1
  Co  Co92  1  0.87454767  0.12490813  0.63007242  1
  Co  Co93  1  0.50229359  0.25070902  0.00244412  1
  Co  Co94  1  0.12687083  0.12347435  0.37423392  1
  Co  Co95  1  0.75309474  -0.00032784  0.25111733  1
  Co  Co96  1  0.87377968  0.86983494  0.37202436  1
  Co  Co97  1  0.87265170  0.62500629  0.62466132  1
  Co  Co98  1  0.24697487  0.24844810  -0.00023228  1
  Co  Co99  1  0.37337933  0.62793120  0.87391475  1
  Co  Co100  1  0.37395022  0.12617459  0.37106192  1
  Co  Co101  1  0.00000258  -0.00194438  0.75042537  1
  Co  Co102  1  0.37367863  0.62645450  0.37221762  1
  Co  Co103  1  0.00435572  0.74826833  0.25083674  1
  Co  Co104  1  0.12794906  0.62569798  0.62413070  1
  Co  Co105  1  0.37438571  0.36970550  0.87545385  1
  Co  Co106  1  0.24917130  0.49803179  0.25039395  1
  Co  Co107  1  -0.00089783  0.24462669  0.49926733  1
  Co  Co108  1  0.74381011  0.25576579  0.24567538  1
  Co  Co109  1  0.25081716  0.00083228  0.75238489  1
  Co  Co110  1  0.50170486  0.25105391  0.74793574  1
  Co  Co111  1  0.50053324  0.49999301  0.25213259  1
  Co  Co112  1  0.86812224  0.13562962  0.37060265  1
  Co  Co113  1  0.49971595  -0.00052600  0.75256157  1
  Co  Co114  1  0.12520373  0.37204657  0.62311674  1
  Co  Co115  1  0.49929763  0.24681835  0.49799149  1
  Co  Co116  1  0.62494448  0.61787209  0.12088137  1
  Co  Co117  1  0.75098007  0.25203949  0.50638527  1
  Co  Co118  1  0.00252820  0.24891316  0.75129292  1
  Co  Co119  1  0.50213588  0.74834994  0.00096580  1
  Co  Co120  1  0.37688480  0.12465302  0.62719092  1
  Co  Co121  1  0.87624929  0.37453799  0.12666335  1
  Co  Co122  1  0.74257432  0.74684394  0.24880674  1
  Co  Co123  1  0.00536184  0.25017201  0.24945735  1
  Co  Co124  1  0.62846444  0.62071411  0.38076619  1
  Co  Co125  1  0.62355856  0.87935812  0.12538803  1
  Co  Co126  1  0.75476703  0.00159832  0.49753616  1
  Co  Co127  1  0.74828747  -0.00021426  0.75136989  1
