# generated using pymatgen
data_Fe45Co19
_symmetry_space_group_name_H-M   'P 1'
_cell_length_a   11.41589439
_cell_length_b   11.41617475
_cell_length_c   11.41550981
_cell_angle_alpha   90.00012109
_cell_angle_beta   90.00238019
_cell_angle_gamma   90.00469099
_symmetry_Int_Tables_number   1
_chemical_formula_structural   Fe45Co19
_chemical_formula_sum   'Fe90 Co38'
_cell_volume   1487.73595952
_cell_formula_units_Z   2
loop_
 _symmetry_equiv_pos_site_id
 _symmetry_equiv_pos_as_xyz
  1  'x, y, z'
loop_
 _atom_site_type_symbol
 _atom_site_label
 _atom_site_symmetry_multiplicity
 _atom_site_fract_x
 _atom_site_fract_y
 _atom_site_fract_z
 _atom_site_occupancy
  Fe  Fe0  1  0.12809865  0.87638275  0.37415174  1
  Fe  Fe1  1  0.75124522  -0.00046928  0.00216406  1
  Fe  Fe2  1  0.00145402  0.74949674  0.25210467  1
  Fe  Fe3  1  0.00000160  0.00109305  0.75056687  1
  Fe  Fe4  1  0.63072852  0.38026131  0.87519303  1
  Fe  Fe5  1  0.37342920  0.37801220  0.12528372  1
  Fe  Fe6  1  0.12525484  0.12610152  0.62515319  1
  Fe  Fe7  1  -0.00355757  0.50139797  -0.00371572  1
  Fe  Fe8  1  0.50192703  0.24974975  0.75320202  1
  Fe  Fe9  1  0.37378870  0.62486475  0.37409942  1
  Fe  Fe10  1  0.12625073  0.12516136  0.87535539  1
  Fe  Fe11  1  -0.00239148  0.74904920  -0.00168705  1
  Fe  Fe12  1  0.74636218  0.00120350  0.50049210  1
  Fe  Fe13  1  0.12120050  0.62624071  0.62195222  1
  Fe  Fe14  1  0.62468909  0.37378586  0.37425565  1
  Fe  Fe15  1  0.25137118  0.74554981  0.75225866  1
  Fe  Fe16  1  0.25160727  -0.00183440  0.00124804  1
  Fe  Fe17  1  0.87659245  0.62631634  0.62398480  1
  Fe  Fe18  1  -0.00084111  0.24889092  0.25049810  1
  Fe  Fe19  1  0.50052215  0.49984610  0.49893234  1
  Fe  Fe20  1  0.50245217  -0.00272074  0.24879295  1
  Fe  Fe21  1  0.25020687  0.50143782  0.50127543  1
  Fe  Fe22  1  0.75003241  0.49977666  0.50239372  1
  Fe  Fe23  1  0.37442412  0.62344790  0.12263060  1
  Fe  Fe24  1  0.87248560  0.87689149  0.62672241  1
  Fe  Fe25  1  0.37136212  0.38120763  0.87254859  1
  Fe  Fe26  1  0.50164718  0.75208983  0.50039791  1
  Fe  Fe27  1  0.37208045  0.87523988  0.37241279  1
  Fe  Fe28  1  0.75009473  0.24892918  0.24916596  1
  Fe  Fe29  1  0.62332516  0.12641313  0.12340005  1
  Fe  Fe30  1  0.74943340  0.50218157  0.24912029  1
  Fe  Fe31  1  0.87763655  0.62471175  0.37820764  1
  Fe  Fe32  1  0.62447665  0.37509355  0.62574253  1
  Fe  Fe33  1  0.49955890  0.25446049  -0.00182930  1
  Fe  Fe34  1  -0.00169314  0.25088521  -0.00294662  1
  Fe  Fe35  1  0.12662546  0.12353927  0.37632813  1
  Fe  Fe36  1  0.00035396  -0.00185534  0.50194504  1
  Fe  Fe37  1  0.74622936  0.00363678  0.75004171  1
  Fe  Fe38  1  0.24935366  0.75027068  0.49934895  1
  Fe  Fe39  1  0.87374793  0.12397794  0.37560295  1
  Fe  Fe40  1  -0.00175719  0.75106478  0.75088598  1
  Fe  Fe41  1  0.37581981  0.12372121  0.87492605  1
  Fe  Fe42  1  0.74836928  0.24760663  0.50219788  1
  Fe  Fe43  1  0.37682427  0.12487790  0.12401896  1
  Fe  Fe44  1  0.12611020  0.37583843  0.37737677  1
  Fe  Fe45  1  0.12658983  0.87388448  0.62658726  1
  Fe  Fe46  1  -0.00265309  -0.00031690  -0.00053137  1
  Fe  Fe47  1  0.25155329  0.25181465  -0.00220998  1
  Fe  Fe48  1  -0.00095192  0.00094840  0.24775543  1
  Fe  Fe49  1  0.12451161  0.12616098  0.12314726  1
  Fe  Fe50  1  0.50013317  -0.00534867  -0.00176984  1
  Fe  Fe51  1  0.62495569  0.62565603  0.37707649  1
  Fe  Fe52  1  0.37535509  0.37615577  0.62838405  1
  Fe  Fe53  1  0.25200149  0.74895906  -0.00230828  1
  Fe  Fe54  1  0.12675976  0.37643991  0.87196214  1
  Fe  Fe55  1  0.49766754  0.75233962  -0.00672695  1
  Fe  Fe56  1  0.37492383  0.12314720  0.37380753  1
  Fe  Fe57  1  0.87615515  0.37613592  0.12504457  1
  Fe  Fe58  1  -0.00194641  0.25000431  0.50205479  1
  Fe  Fe59  1  0.12636884  0.87434556  0.87482162  1
  Fe  Fe60  1  0.12557597  0.62392811  0.12478735  1
  Fe  Fe61  1  0.37883323  0.62588586  0.62658380  1
  Fe  Fe62  1  0.50052651  0.50001048  0.24930135  1
  Fe  Fe63  1  0.50015420  0.24844367  0.49942930  1
  Fe  Fe64  1  0.62557349  0.37573186  0.12529807  1
  Fe  Fe65  1  0.62284784  0.62500897  0.12080798  1
  Fe  Fe66  1  -0.00147676  0.50052342  0.75062053  1
  Fe  Fe67  1  0.50407923  0.50473554  0.75178790  1
  Fe  Fe68  1  0.87303843  0.37086381  0.63045101  1
  Fe  Fe69  1  0.37678106  0.87471994  0.62801622  1
  Fe  Fe70  1  0.87410399  0.37536978  0.37555814  1
  Fe  Fe71  1  0.25379216  0.24771109  0.50321417  1
  Fe  Fe72  1  0.25018902  0.00234645  0.74855516  1
  Fe  Fe73  1  0.12507498  0.37595772  0.12441116  1
  Fe  Fe74  1  0.87312766  0.87499808  0.37382197  1
  Fe  Fe75  1  0.75327299  0.74763525  0.00231618  1
  Fe  Fe76  1  0.74969350  0.74891887  0.24801712  1
  Fe  Fe77  1  0.37511514  0.37554282  0.37385662  1
  Fe  Fe78  1  0.74880927  0.75108172  0.50284244  1
  Fe  Fe79  1  0.74806560  -0.00122295  0.24675766  1
  Fe  Fe80  1  0.50161543  -0.00112772  0.49809398  1
  Fe  Fe81  1  0.12516967  0.87430785  0.12440992  1
  Fe  Fe82  1  0.50387999  -0.00276014  0.75372538  1
  Fe  Fe83  1  0.00144670  0.50045236  0.25273557  1
  Fe  Fe84  1  0.50016668  0.75100473  0.24943826  1
  Fe  Fe85  1  0.25083586  0.24946599  0.24940822  1
  Fe  Fe86  1  0.87421467  0.12788801  0.87299131  1
  Fe  Fe87  1  0.87162522  0.87331517  0.87356651  1
  Fe  Fe88  1  0.75091197  0.25142019  -0.00062629  1
  Fe  Fe89  1  0.12715468  0.37376619  0.62751761  1
  Co  Co90  1  0.24869805  0.74777095  0.24996791  1
  Co  Co91  1  0.38007967  0.12302977  0.62749667  1
  Co  Co92  1  0.50130567  0.49741640  -0.00073396  1
  Co  Co93  1  0.75435758  0.50197104  0.00242919  1
  Co  Co94  1  0.25108260  -0.00037696  0.50327197  1
  Co  Co95  1  0.50271858  0.74923719  0.75469592  1
  Co  Co96  1  0.00163547  0.24831881  0.75103761  1
  Co  Co97  1  0.87224671  0.37414562  0.87173895  1
  Co  Co98  1  0.62888215  0.62484674  0.87817227  1
  Co  Co99  1  0.87470174  0.12482863  0.62610554  1
  Co  Co100  1  0.75042216  0.50346829  0.74683898  1
  Co  Co101  1  0.24942029  0.50105002  0.25126691  1
  Co  Co102  1  0.74574095  0.74716897  0.74500459  1
  Co  Co103  1  0.25217563  0.24717700  0.75047962  1
  Co  Co104  1  0.62401992  0.12441260  0.87964442  1
  Co  Co105  1  0.62640208  0.87239607  0.37451550  1
  Co  Co106  1  0.87837285  0.62412895  0.12790297  1
  Co  Co107  1  0.62483857  0.87198411  0.12199379  1
  Co  Co108  1  0.37650567  0.62033883  0.87548759  1
  Co  Co109  1  0.74479438  0.24653870  0.75064597  1
  Co  Co110  1  0.37474309  0.87299921  0.12584001  1
  Co  Co111  1  0.62100151  0.12472940  0.62464405  1
  Co  Co112  1  0.37133505  0.87589645  0.87108267  1
  Co  Co113  1  0.12298231  0.62603022  0.87509936  1
  Co  Co114  1  0.87488835  0.12668000  0.12416698  1
  Co  Co115  1  0.62483681  0.12633133  0.37307284  1
  Co  Co116  1  0.24730439  0.50115856  -0.00115037  1
  Co  Co117  1  0.49848352  0.25102333  0.24888916  1
  Co  Co118  1  0.25010913  0.00076990  0.24637841  1
  Co  Co119  1  -0.00053781  0.75625688  0.49994323  1
  Co  Co120  1  -0.00177277  0.49525470  0.50295451  1
  Co  Co121  1  0.12260432  0.62355718  0.37952985  1
  Co  Co122  1  0.62223405  0.62484731  0.62267032  1
  Co  Co123  1  0.24773835  0.50580213  0.74765167  1
  Co  Co124  1  0.62326276  0.87616461  0.62579432  1
  Co  Co125  1  0.63149000  0.87222813  0.87629411  1
  Co  Co126  1  0.87157780  0.62671645  0.87211178  1
  Co  Co127  1  0.87676297  0.87362924  0.12607476  1
