# generated using pymatgen
data_Fe45Co19
_symmetry_space_group_name_H-M   'P 1'
_cell_length_a   11.41520064
_cell_length_b   11.41542913
_cell_length_c   11.41519105
_cell_angle_alpha   90.00794812
_cell_angle_beta   90.01139638
_cell_angle_gamma   89.99642504
_symmetry_Int_Tables_number   1
_chemical_formula_structural   Fe45Co19
_chemical_formula_sum   'Fe90 Co38'
_cell_volume   1487.50680905
_cell_formula_units_Z   2
loop_
 _symmetry_equiv_pos_site_id
 _symmetry_equiv_pos_as_xyz
  1  'x, y, z'
loop_
 _atom_site_type_symbol
 _atom_site_label
 _atom_site_symmetry_multiplicity
 _atom_site_fract_x
 _atom_site_fract_y
 _atom_site_fract_z
 _atom_site_occupancy
  Fe  Fe0  1  0.87667771  0.62884667  0.62416628  1
  Fe  Fe1  1  0.25124390  0.24821313  -0.00256103  1
  Fe  Fe2  1  0.37697553  0.37331501  0.62745327  1
  Fe  Fe3  1  0.87647716  0.37450347  0.87296623  1
  Fe  Fe4  1  0.12348404  0.12281365  0.37593990  1
  Fe  Fe5  1  0.12621690  0.37684627  0.37659363  1
  Fe  Fe6  1  0.62372076  0.37327327  0.62456440  1
  Fe  Fe7  1  0.74754348  0.50279983  0.74793547  1
  Fe  Fe8  1  0.12556649  0.62669700  0.87432235  1
  Fe  Fe9  1  0.75013533  0.75265816  0.49961465  1
  Fe  Fe10  1  0.75058581  0.50103066  0.50200272  1
  Fe  Fe11  1  0.37494207  0.87359184  0.62661355  1
  Fe  Fe12  1  0.12543767  0.62805566  0.62277238  1
  Fe  Fe13  1  0.87456705  0.87954526  0.37573869  1
  Fe  Fe14  1  0.37922166  0.37647749  0.87286913  1
  Fe  Fe15  1  0.62525618  0.37117203  0.12665505  1
  Fe  Fe16  1  0.75158058  -0.00208927  0.00053554  1
  Fe  Fe17  1  -0.00007414  0.50006818  0.74698057  1
  Fe  Fe18  1  0.62152030  0.37763943  0.87356744  1
  Fe  Fe19  1  0.74666467  0.24529207  0.49380121  1
  Fe  Fe20  1  0.62527898  0.62396623  0.37602580  1
  Fe  Fe21  1  0.50104188  0.75068335  0.25042010  1
  Fe  Fe22  1  0.12303394  0.12024244  0.87686490  1
  Fe  Fe23  1  -0.00143156  0.00024628  0.24621750  1
  Fe  Fe24  1  0.87558728  0.62433889  0.37573579  1
  Fe  Fe25  1  0.12292117  0.87485113  0.12200535  1
  Fe  Fe26  1  0.25096253  0.24929705  0.49869072  1
  Fe  Fe27  1  0.87467688  0.12436469  0.62396270  1
  Fe  Fe28  1  0.12527474  0.12562458  0.12261153  1
  Fe  Fe29  1  0.62415137  0.12534921  0.62520300  1
  Fe  Fe30  1  0.62494202  0.87412419  0.62706110  1
  Fe  Fe31  1  0.75081744  0.75207659  0.24980693  1
  Fe  Fe32  1  0.74820044  0.24872276  0.75127022  1
  Fe  Fe33  1  0.37431726  0.62800576  0.62503641  1
  Fe  Fe34  1  0.62501273  0.87482393  0.12301274  1
  Fe  Fe35  1  0.00040949  0.25017461  0.50020100  1
  Fe  Fe36  1  0.00179808  0.75594217  0.75032181  1
  Fe  Fe37  1  0.62497499  0.62676858  0.12158331  1
  Fe  Fe38  1  0.25012880  -0.00292037  0.49885951  1
  Fe  Fe39  1  0.37721386  0.12448893  0.37348085  1
  Fe  Fe40  1  0.37590801  0.87370831  0.12374518  1
  Fe  Fe41  1  0.75154326  0.49867852  0.00067272  1
  Fe  Fe42  1  0.49926009  0.50014517  0.50168759  1
  Fe  Fe43  1  0.00185069  -0.00401637  0.50605975  1
  Fe  Fe44  1  0.37515627  0.62622326  0.37447660  1
  Fe  Fe45  1  0.50030058  0.50036607  0.24789193  1
  Fe  Fe46  1  0.12647757  0.37519282  0.62389171  1
  Fe  Fe47  1  0.50144723  0.74625428  0.75579632  1
  Fe  Fe48  1  0.24924625  0.75345804  0.49645470  1
  Fe  Fe49  1  -0.00182546  0.75011109  0.24976630  1
  Fe  Fe50  1  0.37540394  0.62718243  0.12279365  1
  Fe  Fe51  1  -0.00003733  0.50045466  0.24913986  1
  Fe  Fe52  1  0.12292861  0.37475050  0.87540290  1
  Fe  Fe53  1  0.24664373  -0.00204350  0.75001569  1
  Fe  Fe54  1  0.75028987  0.25106104  -0.00250830  1
  Fe  Fe55  1  0.37548079  0.87826571  0.87637073  1
  Fe  Fe56  1  0.25077394  0.50254460  0.74888154  1
  Fe  Fe57  1  0.25032618  0.50014095  0.25031966  1
  Fe  Fe58  1  0.24979767  -0.00091019  0.24920983  1
  Fe  Fe59  1  0.12534160  0.62615643  0.12477237  1
  Fe  Fe60  1  0.62334353  0.12322674  0.87638889  1
  Fe  Fe61  1  0.37415800  0.37155665  0.12592952  1
  Fe  Fe62  1  0.24894696  0.24824912  0.75225224  1
  Fe  Fe63  1  0.25009765  0.75148921  -0.00289597  1
  Fe  Fe64  1  0.37359313  0.12566792  0.62664139  1
  Fe  Fe65  1  0.75234499  0.75232212  -0.00158324  1
  Fe  Fe66  1  0.25042403  0.49939701  -0.00021716  1
  Fe  Fe67  1  0.87309524  0.37215118  0.62539511  1
  Fe  Fe68  1  0.62535936  0.87871612  0.37439607  1
  Fe  Fe69  1  0.74694079  0.74955791  0.75248223  1
  Fe  Fe70  1  0.24930046  0.75249903  0.25195258  1
  Fe  Fe71  1  0.62618059  0.12691811  0.12670346  1
  Fe  Fe72  1  0.87472259  0.62541220  0.87462372  1
  Fe  Fe73  1  0.87407389  0.37566994  0.37554366  1
  Fe  Fe74  1  0.87729859  0.12340926  0.87394161  1
  Fe  Fe75  1  -0.00053642  0.50212536  0.00039978  1
  Fe  Fe76  1  0.12528653  0.37297545  0.12416500  1
  Fe  Fe77  1  0.12366861  0.62400643  0.37754577  1
  Fe  Fe78  1  0.87530266  0.37331216  0.12563888  1
  Fe  Fe79  1  0.87256679  0.12730945  0.12575441  1
  Fe  Fe80  1  0.37590859  0.37401383  0.37423623  1
  Fe  Fe81  1  0.50016966  -0.00000677  0.50125565  1
  Fe  Fe82  1  -0.00032279  0.24916249  0.25101818  1
  Fe  Fe83  1  0.37562418  0.12732965  0.12507303  1
  Fe  Fe84  1  0.50065832  0.00127842  0.75130230  1
  Fe  Fe85  1  0.50001707  -0.00110349  0.24738270  1
  Fe  Fe86  1  0.50050813  0.75231188  0.49836119  1
  Fe  Fe87  1  0.00181359  0.24743940  0.74896213  1
  Fe  Fe88  1  0.74904847  0.49972392  0.24913619  1
  Fe  Fe89  1  0.75136268  -0.00139962  0.74952617  1
  Co  Co90  1  -0.00169792  0.49918089  0.50256712  1
  Co  Co91  1  0.37663403  0.87662789  0.37339992  1
  Co  Co92  1  0.50121522  0.24685647  0.75130644  1
  Co  Co93  1  0.74696280  0.00122775  0.50131400  1
  Co  Co94  1  0.87360041  0.62485139  0.12520223  1
  Co  Co95  1  0.75085677  0.24818129  0.25588012  1
  Co  Co96  1  0.12268216  0.87762202  0.37222428  1
  Co  Co97  1  -0.00448453  -0.00002196  0.00227321  1
  Co  Co98  1  0.25250153  0.00008943  0.00220350  1
  Co  Co99  1  -0.00091329  0.24896211  -0.00045269  1
  Co  Co100  1  0.62545869  0.62169509  0.88122631  1
  Co  Co101  1  0.49912751  0.49774272  0.00441405  1
  Co  Co102  1  0.62499334  0.87764934  0.87514105  1
  Co  Co103  1  0.49958814  0.75221826  -0.00380802  1
  Co  Co104  1  0.25233898  0.50069475  0.50122520  1
  Co  Co105  1  0.75094790  -0.00002117  0.24866736  1
  Co  Co106  1  0.87531861  0.87379143  0.12514407  1
  Co  Co107  1  0.25159492  0.75075020  0.75428184  1
  Co  Co108  1  0.12769150  0.12501211  0.62379618  1
  Co  Co109  1  0.50223921  0.50549450  0.74707237  1
  Co  Co110  1  0.12941050  0.87157692  0.62546953  1
  Co  Co111  1  0.50197560  0.25028850  0.25166696  1
  Co  Co112  1  0.37453215  0.12224169  0.87367508  1
  Co  Co113  1  0.50084884  0.24785536  0.49963333  1
  Co  Co114  1  0.24784342  0.24836331  0.25202714  1
  Co  Co115  1  -0.00134511  0.74825332  0.00009691  1
  Co  Co116  1  0.62446619  0.62800754  0.62181596  1
  Co  Co117  1  0.87693354  0.87637053  0.87405376  1
  Co  Co118  1  0.49991610  0.24849800  -0.00181438  1
  Co  Co119  1  -0.00030956  0.75414499  0.49879260  1
  Co  Co120  1  0.50058870  0.00165802  0.00148590  1
  Co  Co121  1  0.87831284  0.11947897  0.37711395  1
  Co  Co122  1  0.62395899  0.37778381  0.37577948  1
  Co  Co123  1  0.12308265  0.87806881  0.87911042  1
  Co  Co124  1  0.00102448  -0.00171787  0.74535017  1
  Co  Co125  1  0.87100118  0.87460699  0.62578009  1
  Co  Co126  1  0.62127684  0.12017702  0.37148114  1
  Co  Co127  1  0.37550188  0.62137385  0.87834828  1
