# generated using pymatgen
data_Fe45Co19
_symmetry_space_group_name_H-M   'P 1'
_cell_length_a   11.41522591
_cell_length_b   11.41478393
_cell_length_c   11.41394881
_cell_angle_alpha   90.01026662
_cell_angle_beta   89.99759728
_cell_angle_gamma   90.00146376
_symmetry_Int_Tables_number   1
_chemical_formula_structural   Fe45Co19
_chemical_formula_sum   'Fe90 Co38'
_cell_volume   1487.26418121
_cell_formula_units_Z   2
loop_
 _symmetry_equiv_pos_site_id
 _symmetry_equiv_pos_as_xyz
  1  'x, y, z'
loop_
 _atom_site_type_symbol
 _atom_site_label
 _atom_site_symmetry_multiplicity
 _atom_site_fract_x
 _atom_site_fract_y
 _atom_site_fract_z
 _atom_site_occupancy
  Fe  Fe0  1  0.50141434  0.75475904  0.50383087  1
  Fe  Fe1  1  0.75604026  0.24870291  0.24873920  1
  Fe  Fe2  1  0.37616150  0.12490703  0.37692413  1
  Fe  Fe3  1  0.12610122  0.37257541  0.87498090  1
  Fe  Fe4  1  0.24907352  0.24711624  0.24970317  1
  Fe  Fe5  1  0.24851284  0.49980053  0.50177670  1
  Fe  Fe6  1  0.12524777  0.62832972  0.87578888  1
  Fe  Fe7  1  0.74969263  0.50515824  0.50449502  1
  Fe  Fe8  1  0.00251007  0.49985846  0.49834951  1
  Fe  Fe9  1  0.12381448  0.12723198  0.62606947  1
  Fe  Fe10  1  0.50013627  0.24997904  0.25049410  1
  Fe  Fe11  1  0.62372776  0.62801734  0.12788285  1
  Fe  Fe12  1  -0.00244736  -0.00401906  -0.00879277  1
  Fe  Fe13  1  0.87213790  0.37854326  0.87311771  1
  Fe  Fe14  1  0.87648277  0.37992656  0.62686974  1
  Fe  Fe15  1  0.37346993  0.87611185  0.37625011  1
  Fe  Fe16  1  0.49980090  0.50100123  0.00204647  1
  Fe  Fe17  1  0.87554361  0.12379585  0.62617112  1
  Fe  Fe18  1  0.25062149  0.24549969  -0.00259872  1
  Fe  Fe19  1  0.37487871  0.62757266  0.37598600  1
  Fe  Fe20  1  0.00120738  0.75132812  0.49938735  1
  Fe  Fe21  1  0.00103436  0.50044425  -0.00280423  1
  Fe  Fe22  1  0.62356661  0.62537219  0.87227788  1
  Fe  Fe23  1  0.62546577  0.87285129  0.12637706  1
  Fe  Fe24  1  0.75139213  0.74217386  0.74520598  1
  Fe  Fe25  1  -0.00054603  0.25123494  0.49959989  1
  Fe  Fe26  1  0.12235387  0.62523813  0.62660595  1
  Fe  Fe27  1  0.75257378  0.50023023  0.24885741  1
  Fe  Fe28  1  0.49766342  0.75010215  -0.00025499  1
  Fe  Fe29  1  0.75297297  0.24584405  -0.00020908  1
  Fe  Fe30  1  0.87534194  0.87628518  0.12307327  1
  Fe  Fe31  1  0.62697417  0.37322957  0.12482003  1
  Fe  Fe32  1  0.37629694  0.12862067  0.62587717  1
  Fe  Fe33  1  0.50364903  -0.00142975  0.50366729  1
  Fe  Fe34  1  0.87598849  0.62523725  0.37522886  1
  Fe  Fe35  1  0.62971409  0.87205475  0.37582941  1
  Fe  Fe36  1  0.25000605  0.50125247  0.24969635  1
  Fe  Fe37  1  0.12494242  0.37537531  0.12397388  1
  Fe  Fe38  1  0.00101298  0.75061705  0.25068073  1
  Fe  Fe39  1  0.62840822  0.37468845  0.37490408  1
  Fe  Fe40  1  0.62697488  0.12469322  0.12382853  1
  Fe  Fe41  1  0.25192012  0.75134727  0.00199772  1
  Fe  Fe42  1  0.75263292  0.74995990  0.00070686  1
  Fe  Fe43  1  0.00002868  -0.00105508  0.50145171  1
  Fe  Fe44  1  0.50263111  -0.00029946  0.74864984  1
  Fe  Fe45  1  0.62858552  0.87307358  0.87245813  1
  Fe  Fe46  1  -0.00401579  0.25072711  -0.00075722  1
  Fe  Fe47  1  0.62645765  0.37502791  0.87565351  1
  Fe  Fe48  1  0.74798214  0.24934989  0.75010371  1
  Fe  Fe49  1  0.62690670  0.12551342  0.37641108  1
  Fe  Fe50  1  0.37361242  0.37448744  0.87503913  1
  Fe  Fe51  1  0.37575585  0.12191193  0.12333375  1
  Fe  Fe52  1  -0.00115990  -0.00154029  0.25198792  1
  Fe  Fe53  1  0.12048552  0.12342530  0.12207220  1
  Fe  Fe54  1  0.12190495  0.12471076  0.37466048  1
  Fe  Fe55  1  0.25255032  0.74972114  0.74906237  1
  Fe  Fe56  1  0.37831195  0.62539874  0.62570807  1
  Fe  Fe57  1  0.75186443  0.24838999  0.50029429  1
  Fe  Fe58  1  0.12422936  0.87641833  0.12154218  1
  Fe  Fe59  1  0.37471431  0.62281006  0.87478909  1
  Fe  Fe60  1  0.25023222  0.75212122  0.24887641  1
  Fe  Fe61  1  0.87773979  0.62389076  0.12348777  1
  Fe  Fe62  1  0.24917565  0.00001698  0.24876794  1
  Fe  Fe63  1  0.50233586  -0.00140400  -0.00080810  1
  Fe  Fe64  1  0.12573604  0.87518569  0.62742332  1
  Fe  Fe65  1  0.37353810  0.37569241  0.12372921  1
  Fe  Fe66  1  0.49929432  0.24897323  -0.00164446  1
  Fe  Fe67  1  0.12497922  0.37535404  0.37471378  1
  Fe  Fe68  1  0.37365327  0.37255475  0.37558480  1
  Fe  Fe69  1  0.49956161  0.50023380  0.24973968  1
  Fe  Fe70  1  0.74964509  0.00361283  0.75047028  1
  Fe  Fe71  1  0.24701200  0.49832046  0.74922692  1
  Fe  Fe72  1  0.24831057  0.00159302  0.50114092  1
  Fe  Fe73  1  0.37284102  0.87815471  0.87487137  1
  Fe  Fe74  1  0.50052131  0.49702975  0.75002392  1
  Fe  Fe75  1  0.37354221  0.36987388  0.62490206  1
  Fe  Fe76  1  -0.00243963  0.75204910  0.75340880  1
  Fe  Fe77  1  0.62403933  0.37390193  0.62428912  1
  Fe  Fe78  1  0.12403038  0.62438194  0.12442404  1
  Fe  Fe79  1  0.75228536  0.00052620  0.25000895  1
  Fe  Fe80  1  0.00039381  0.25139106  0.74999206  1
  Fe  Fe81  1  0.74890749  0.50246372  0.00017533  1
  Fe  Fe82  1  -0.00492289  0.25307509  0.24929015  1
  Fe  Fe83  1  0.62560634  0.62833554  0.37445828  1
  Fe  Fe84  1  0.87230506  0.87533839  0.62547096  1
  Fe  Fe85  1  0.24652726  0.00408834  0.75315842  1
  Fe  Fe86  1  0.24845713  0.75071910  0.50180693  1
  Fe  Fe87  1  0.50118586  -0.00193862  0.25052335  1
  Fe  Fe88  1  0.87273650  0.87454946  0.37815708  1
  Fe  Fe89  1  0.49996888  0.49799549  0.49855531  1
  Co  Co90  1  0.37177071  0.87783462  0.62666946  1
  Co  Co91  1  0.63044007  0.87371460  0.62819423  1
  Co  Co92  1  0.62495620  0.12473177  0.87639272  1
  Co  Co93  1  0.00048700  -0.00262441  0.75153136  1
  Co  Co94  1  0.87336788  0.37737441  0.37823667  1
  Co  Co95  1  0.24796800  0.50006507  -0.00140863  1
  Co  Co96  1  0.12845299  0.87205232  0.87392337  1
  Co  Co97  1  0.87585078  0.12531948  0.87276273  1
  Co  Co98  1  0.24774466  0.24878095  0.49849818  1
  Co  Co99  1  0.11989242  0.12658854  0.87546868  1
  Co  Co100  1  0.74943418  0.00141131  0.50091433  1
  Co  Co101  1  0.12432216  0.37436458  0.62431895  1
  Co  Co102  1  0.62439633  0.12703006  0.62420713  1
  Co  Co103  1  0.50145582  0.25000691  0.49821871  1
  Co  Co104  1  0.50248139  0.25046185  0.75210859  1
  Co  Co105  1  0.24853027  0.24898458  0.75231762  1
  Co  Co106  1  0.87384131  0.37784104  0.12143253  1
  Co  Co107  1  0.61612631  0.62586021  0.62632821  1
  Co  Co108  1  0.12554274  0.62502407  0.37430694  1
  Co  Co109  1  0.00438513  0.49906784  0.75503993  1
  Co  Co110  1  0.49709215  0.75382859  0.75094268  1
  Co  Co111  1  0.12648193  0.87632601  0.37593856  1
  Co  Co112  1  0.87775920  0.12072965  0.12276491  1
  Co  Co113  1  -0.00280881  0.75161285  -0.00256053  1
  Co  Co114  1  0.75471724  0.75075421  0.24819221  1
  Co  Co115  1  0.37425445  0.62415800  0.12538864  1
  Co  Co116  1  0.88304036  0.62131097  0.62648162  1
  Co  Co117  1  0.75080079  0.74475725  0.50525306  1
  Co  Co118  1  0.37550134  0.87742914  0.12402055  1
  Co  Co119  1  -0.00129952  0.49830626  0.24966963  1
  Co  Co120  1  0.49722095  0.75132615  0.25082238  1
  Co  Co121  1  0.87671067  0.12371596  0.37653300  1
  Co  Co122  1  0.86880242  0.87350375  0.87091207  1
  Co  Co123  1  0.74720928  0.50326468  0.74667626  1
  Co  Co124  1  0.75037369  -0.00064395  -0.00063710  1
  Co  Co125  1  0.24784353  0.00238945  -0.00210818  1
  Co  Co126  1  0.37804348  0.12297450  0.87349203  1
  Co  Co127  1  0.87429898  0.62259718  0.87465979  1
