# generated using pymatgen
data_Fe45Co19
_symmetry_space_group_name_H-M   'P 1'
_cell_length_a   11.41522161
_cell_length_b   11.41615503
_cell_length_c   11.41464414
_cell_angle_alpha   89.99475825
_cell_angle_beta   90.00300046
_cell_angle_gamma   90.00945439
_symmetry_Int_Tables_number   1
_chemical_formula_structural   Fe45Co19
_chemical_formula_sum   'Fe90 Co38'
_cell_volume   1487.53287681
_cell_formula_units_Z   2
loop_
 _symmetry_equiv_pos_site_id
 _symmetry_equiv_pos_as_xyz
  1  'x, y, z'
loop_
 _atom_site_type_symbol
 _atom_site_label
 _atom_site_symmetry_multiplicity
 _atom_site_fract_x
 _atom_site_fract_y
 _atom_site_fract_z
 _atom_site_occupancy
  Fe  Fe0  1  0.62497695  0.12490827  0.87849518  1
  Fe  Fe1  1  0.24892618  -0.00097297  0.74945805  1
  Fe  Fe2  1  0.00290170  -0.00172313  0.74986305  1
  Fe  Fe3  1  0.75308633  0.49915817  0.49855508  1
  Fe  Fe4  1  0.12994309  0.12535328  0.12745320  1
  Fe  Fe5  1  0.87381941  0.37526321  0.37033977  1
  Fe  Fe6  1  0.74980845  0.75234827  -0.00040096  1
  Fe  Fe7  1  0.62532399  0.37622898  0.37222921  1
  Fe  Fe8  1  0.75301353  -0.00250462  0.49855955  1
  Fe  Fe9  1  0.74846249  0.00100727  0.75097346  1
  Fe  Fe10  1  0.25190960  0.25096390  0.49310820  1
  Fe  Fe11  1  0.87644188  0.12403931  0.62505103  1
  Fe  Fe12  1  0.25032565  0.25210341  0.00204304  1
  Fe  Fe13  1  0.75022543  0.25223516  0.00578760  1
  Fe  Fe14  1  0.75233337  0.75400468  0.49913522  1
  Fe  Fe15  1  0.87690053  0.12406019  0.37289201  1
  Fe  Fe16  1  0.62319583  0.87522386  0.62424047  1
  Fe  Fe17  1  0.87661782  0.87436529  0.87360077  1
  Fe  Fe18  1  0.00271296  0.75036130  0.74972957  1
  Fe  Fe19  1  0.25106424  0.74772000  0.00008717  1
  Fe  Fe20  1  0.25137072  -0.00160511  0.00053513  1
  Fe  Fe21  1  0.12223850  0.62455590  0.62079358  1
  Fe  Fe22  1  -0.00328554  -0.00604292  0.49949814  1
  Fe  Fe23  1  0.25213947  -0.00134515  0.49649761  1
  Fe  Fe24  1  0.00287875  -0.00227012  0.24989990  1
  Fe  Fe25  1  0.37556845  0.62260292  0.86920823  1
  Fe  Fe26  1  0.87340100  0.87375804  0.12748582  1
  Fe  Fe27  1  0.37342344  0.37676349  0.87208178  1
  Fe  Fe28  1  0.24724964  0.25191620  0.74893687  1
  Fe  Fe29  1  0.37529023  0.87442136  0.87281811  1
  Fe  Fe30  1  0.50013966  0.00044627  0.24709661  1
  Fe  Fe31  1  0.12447642  0.62264174  0.87722243  1
  Fe  Fe32  1  0.37412763  0.12661529  0.62470154  1
  Fe  Fe33  1  0.87347554  0.62803602  0.37366131  1
  Fe  Fe34  1  0.00047404  0.50091905  0.25118269  1
  Fe  Fe35  1  0.37392299  0.12601275  0.87458984  1
  Fe  Fe36  1  0.49883679  0.25148005  0.49840496  1
  Fe  Fe37  1  0.00327892  0.74898394  0.24950166  1
  Fe  Fe38  1  -0.00053823  0.75056334  0.00080042  1
  Fe  Fe39  1  0.12644139  0.87170938  0.37753190  1
  Fe  Fe40  1  -0.00549303  0.49762466  -0.00026037  1
  Fe  Fe41  1  0.74666333  0.00001593  0.24941027  1
  Fe  Fe42  1  0.87664241  0.37616691  0.62650838  1
  Fe  Fe43  1  0.62290610  0.87800795  0.87731039  1
  Fe  Fe44  1  0.49865604  0.74876322  0.00055625  1
  Fe  Fe45  1  0.87693499  0.62599012  0.62589305  1
  Fe  Fe46  1  0.37547675  0.86951377  0.36938409  1
  Fe  Fe47  1  0.50112681  0.24964815  0.74998916  1
  Fe  Fe48  1  0.12547223  0.62701101  0.37953166  1
  Fe  Fe49  1  0.62349657  0.62465079  0.62369188  1
  Fe  Fe50  1  0.62413356  0.12399697  0.62286808  1
  Fe  Fe51  1  0.12479583  0.37814605  0.87858685  1
  Fe  Fe52  1  0.62536701  0.37645923  0.62393217  1
  Fe  Fe53  1  0.75199561  0.50068101  0.75194868  1
  Fe  Fe54  1  0.12351358  0.37853549  0.62010928  1
  Fe  Fe55  1  0.12490901  0.62150337  0.12136892  1
  Fe  Fe56  1  0.37580979  0.87298796  0.62845634  1
  Fe  Fe57  1  0.87271423  0.62647616  0.12584824  1
  Fe  Fe58  1  0.75129157  0.25019157  0.49808785  1
  Fe  Fe59  1  0.50505584  0.50649679  0.25049001  1
  Fe  Fe60  1  0.37453677  0.87141087  0.12860651  1
  Fe  Fe61  1  0.87576700  0.12812593  0.87632476  1
  Fe  Fe62  1  0.62364765  0.12388927  0.37614047  1
  Fe  Fe63  1  -0.00097567  0.00059634  0.00087737  1
  Fe  Fe64  1  0.62587413  0.37520591  0.87619674  1
  Fe  Fe65  1  0.74927053  0.24958198  0.74839843  1
  Fe  Fe66  1  0.37472128  0.62682186  0.12939776  1
  Fe  Fe67  1  0.24736282  0.74896790  0.74873838  1
  Fe  Fe68  1  0.87518177  0.12647769  0.12652939  1
  Fe  Fe69  1  0.49967451  0.24662881  0.24850105  1
  Fe  Fe70  1  0.74155522  0.74923628  0.25000961  1
  Fe  Fe71  1  0.37339450  0.37526806  0.12969599  1
  Fe  Fe72  1  0.49640184  0.74670470  0.49800629  1
  Fe  Fe73  1  0.49705376  0.00197158  0.00238000  1
  Fe  Fe74  1  0.49686236  0.50247780  0.49882163  1
  Fe  Fe75  1  0.12712166  0.87502187  0.12242297  1
  Fe  Fe76  1  0.12540808  0.12365096  0.62030273  1
  Fe  Fe77  1  0.00268238  0.25198125  0.74981135  1
  Fe  Fe78  1  -0.00132690  0.25136578  0.49759305  1
  Fe  Fe79  1  0.49726831  0.49884175  0.00123772  1
  Fe  Fe80  1  0.12561300  0.12449481  0.87639378  1
  Fe  Fe81  1  0.75356480  0.49658468  0.00280493  1
  Fe  Fe82  1  0.24684551  0.49949000  0.25117730  1
  Fe  Fe83  1  0.62457568  0.62237411  0.87811644  1
  Fe  Fe84  1  0.49875426  0.25072761  0.00348145  1
  Fe  Fe85  1  0.37541905  0.37632146  0.62644540  1
  Fe  Fe86  1  0.49691920  -0.00072004  0.50015075  1
  Fe  Fe87  1  0.74673332  0.74902805  0.75170789  1
  Fe  Fe88  1  0.00584295  0.25240345  0.24984643  1
  Fe  Fe89  1  0.25469138  0.50250871  0.49881024  1
  Co  Co90  1  0.24779875  0.25180545  0.25476912  1
  Co  Co91  1  0.75394434  -0.00031595  0.00074587  1
  Co  Co92  1  0.24962738  -0.00156867  0.25313992  1
  Co  Co93  1  0.24381447  0.74835880  0.24739051  1
  Co  Co94  1  0.12670665  0.87421337  0.62113246  1
  Co  Co95  1  0.12531866  0.87413948  0.87767453  1
  Co  Co96  1  0.50351673  0.49813869  0.75008608  1
  Co  Co97  1  0.24586205  0.50012220  0.74746133  1
  Co  Co98  1  0.87511846  0.62756712  0.87563756  1
  Co  Co99  1  0.62381032  0.87580272  0.12182001  1
  Co  Co100  1  0.12268237  0.12267685  0.37680211  1
  Co  Co101  1  0.37250857  0.62754020  0.36853679  1
  Co  Co102  1  0.00222349  0.24925342  0.00275197  1
  Co  Co103  1  0.87380876  0.87313924  0.36816209  1
  Co  Co104  1  -0.00035125  0.49979176  0.75212521  1
  Co  Co105  1  0.74813941  0.24762636  0.25027059  1
  Co  Co106  1  0.62611859  0.12399069  0.12283231  1
  Co  Co107  1  0.62244337  0.87636829  0.37722114  1
  Co  Co108  1  0.50360561  0.74981457  0.75183112  1
  Co  Co109  1  0.37666493  0.12413743  0.37324089  1
  Co  Co110  1  0.62314965  0.37620155  0.12851653  1
  Co  Co111  1  0.50813949  0.74697816  0.24979313  1
  Co  Co112  1  0.87363193  0.87418659  0.63089601  1
  Co  Co113  1  0.12649027  0.37778600  0.12255456  1
  Co  Co114  1  0.25585375  0.74740631  0.50214852  1
  Co  Co115  1  0.87499655  0.37024421  0.87492973  1
  Co  Co116  1  0.87633554  0.37389777  0.13001628  1
  Co  Co117  1  0.12470696  0.37809674  0.37802709  1
  Co  Co118  1  0.36957724  0.12579072  0.12668033  1
  Co  Co119  1  0.62685021  0.62408129  0.11826148  1
  Co  Co120  1  0.74883193  0.50314455  0.24891944  1
  Co  Co121  1  -0.00481797  0.75379194  0.49933397  1
  Co  Co122  1  0.62749325  0.62429832  0.38085426  1
  Co  Co123  1  0.37758126  0.62374139  0.63086026  1
  Co  Co124  1  0.25506392  0.50161187  0.00085466  1
  Co  Co125  1  0.37855020  0.37796831  0.37085368  1
  Co  Co126  1  -0.00483086  0.50095819  0.49641243  1
  Co  Co127  1  0.50022644  0.00260128  0.75016885  1
