# generated using pymatgen
data_Fe45Co19
_symmetry_space_group_name_H-M   'P 1'
_cell_length_a   11.41499193
_cell_length_b   11.41537992
_cell_length_c   11.41383224
_cell_angle_alpha   89.99364353
_cell_angle_beta   90.00637156
_cell_angle_gamma   90.00351161
_symmetry_Int_Tables_number   1
_chemical_formula_structural   Fe45Co19
_chemical_formula_sum   'Fe90 Co38'
_cell_volume   1487.29616377
_cell_formula_units_Z   2
loop_
 _symmetry_equiv_pos_site_id
 _symmetry_equiv_pos_as_xyz
  1  'x, y, z'
loop_
 _atom_site_type_symbol
 _atom_site_label
 _atom_site_symmetry_multiplicity
 _atom_site_fract_x
 _atom_site_fract_y
 _atom_site_fract_z
 _atom_site_occupancy
  Fe  Fe0  1  0.62306015  0.87740900  0.12727595  1
  Fe  Fe1  1  0.87728644  0.62645762  0.12563015  1
  Fe  Fe2  1  0.24619692  0.24855400  -0.00091428  1
  Fe  Fe3  1  0.62141449  0.12424143  0.12828830  1
  Fe  Fe4  1  0.25060922  0.00128070  0.24931032  1
  Fe  Fe5  1  0.25082235  0.50001773  0.50226427  1
  Fe  Fe6  1  0.12892842  0.87521571  0.62120579  1
  Fe  Fe7  1  0.24947231  0.00083417  0.00108153  1
  Fe  Fe8  1  0.24743667  0.25398213  0.74696994  1
  Fe  Fe9  1  0.62886750  0.37314721  0.87628348  1
  Fe  Fe10  1  0.37505221  0.87266380  0.12481189  1
  Fe  Fe11  1  0.12326236  0.12297212  0.87105574  1
  Fe  Fe12  1  0.25273984  0.50839454  0.00150671  1
  Fe  Fe13  1  0.75078420  0.49981154  0.50074805  1
  Fe  Fe14  1  0.50006107  -0.00148023  0.75189799  1
  Fe  Fe15  1  0.37592501  0.12627704  0.62536015  1
  Fe  Fe16  1  0.74933942  0.50130327  0.00112054  1
  Fe  Fe17  1  0.87247339  0.87248544  0.87642131  1
  Fe  Fe18  1  0.87370813  0.62822031  0.62443814  1
  Fe  Fe19  1  0.75181844  0.24918917  0.24882136  1
  Fe  Fe20  1  0.87870578  0.12644722  0.12447537  1
  Fe  Fe21  1  0.61882456  0.62082139  0.13073159  1
  Fe  Fe22  1  0.00311447  0.75025932  0.49808699  1
  Fe  Fe23  1  0.87428701  0.87437570  0.37429260  1
  Fe  Fe24  1  0.37535993  0.12754609  0.12496892  1
  Fe  Fe25  1  -0.00216141  0.50333019  -0.00419789  1
  Fe  Fe26  1  0.37883572  0.62300943  0.62495044  1
  Fe  Fe27  1  0.12509224  0.38232557  0.87177573  1
  Fe  Fe28  1  0.87560251  0.87428763  0.12504700  1
  Fe  Fe29  1  0.00165622  0.25048718  -0.00338543  1
  Fe  Fe30  1  0.25090209  -0.00017677  0.74864590  1
  Fe  Fe31  1  0.50240940  0.25302654  0.49715140  1
  Fe  Fe32  1  0.37449491  0.12640686  0.87482273  1
  Fe  Fe33  1  0.12481474  0.87397096  0.12607806  1
  Fe  Fe34  1  0.00087171  0.24950618  0.50203557  1
  Fe  Fe35  1  0.24803994  0.74637195  0.24620908  1
  Fe  Fe36  1  0.50060696  0.49602575  0.49587809  1
  Fe  Fe37  1  0.74655502  0.74859928  0.49914514  1
  Fe  Fe38  1  0.00328793  0.74752502  -0.00123356  1
  Fe  Fe39  1  0.24637105  0.25024292  0.50630900  1
  Fe  Fe40  1  0.00283445  -0.00076706  0.49816599  1
  Fe  Fe41  1  0.25166273  0.74727943  0.74907432  1
  Fe  Fe42  1  0.62412975  0.12471266  0.37117393  1
  Fe  Fe43  1  0.62563635  0.87615618  0.62365517  1
  Fe  Fe44  1  0.87586101  0.37394409  0.12258982  1
  Fe  Fe45  1  0.37471170  0.12918343  0.37339391  1
  Fe  Fe46  1  0.75209752  0.00364778  0.49893965  1
  Fe  Fe47  1  0.12428598  0.62103008  0.62864764  1
  Fe  Fe48  1  0.75162954  0.24723252  0.50050292  1
  Fe  Fe49  1  0.12466139  0.62362940  0.37233305  1
  Fe  Fe50  1  0.37264622  0.87436470  0.62071847  1
  Fe  Fe51  1  0.24862557  0.25414422  0.24555336  1
  Fe  Fe52  1  0.74829211  -0.00003335  0.75456871  1
  Fe  Fe53  1  0.12500616  0.37868433  0.12219548  1
  Fe  Fe54  1  0.00004891  -0.00059077  0.25137404  1
  Fe  Fe55  1  0.75312754  0.50212853  0.75067601  1
  Fe  Fe56  1  0.00191912  -0.00005964  -0.00072789  1
  Fe  Fe57  1  -0.00171930  0.50077192  0.50011118  1
  Fe  Fe58  1  0.37381418  0.87218658  0.87729052  1
  Fe  Fe59  1  0.49913421  0.74728227  0.00084762  1
  Fe  Fe60  1  0.87435983  0.37331603  0.37470676  1
  Fe  Fe61  1  0.62530945  0.62019656  0.37116379  1
  Fe  Fe62  1  0.74941632  0.74966892  0.24915563  1
  Fe  Fe63  1  0.12586625  0.37574092  0.37627759  1
  Fe  Fe64  1  0.62489642  0.37706406  0.12725288  1
  Fe  Fe65  1  0.49743456  0.00018724  0.49795482  1
  Fe  Fe66  1  0.87738944  0.37462988  0.62707597  1
  Fe  Fe67  1  0.75305650  0.24711399  0.75315302  1
  Fe  Fe68  1  0.88055476  0.12245426  0.62974715  1
  Fe  Fe69  1  0.62586869  0.62681786  0.87335413  1
  Fe  Fe70  1  0.74820728  0.00336396  -0.00125742  1
  Fe  Fe71  1  0.87335615  0.87431781  0.62450794  1
  Fe  Fe72  1  0.37317328  0.37592397  0.87831986  1
  Fe  Fe73  1  0.87459541  0.62597782  0.37355586  1
  Fe  Fe74  1  0.62324043  0.12505841  0.62658575  1
  Fe  Fe75  1  -0.00098642  0.49831516  0.25004916  1
  Fe  Fe76  1  0.62607006  0.37522312  0.62520418  1
  Fe  Fe77  1  0.50163668  0.74880842  0.49801166  1
  Fe  Fe78  1  0.50191714  0.75125474  0.74845047  1
  Fe  Fe79  1  0.62634460  0.87850895  0.37286434  1
  Fe  Fe80  1  0.49887646  0.25263176  0.75128406  1
  Fe  Fe81  1  0.37445490  0.62407107  0.37128356  1
  Fe  Fe82  1  0.49908389  0.49778696  0.75282684  1
  Fe  Fe83  1  -0.00002666  0.74970008  0.75110647  1
  Fe  Fe84  1  0.12461300  0.12694174  0.37293938  1
  Fe  Fe85  1  0.50147117  0.25212145  0.00155435  1
  Fe  Fe86  1  0.37010421  0.87297087  0.37668062  1
  Fe  Fe87  1  0.74658598  0.74884130  0.00310493  1
  Fe  Fe88  1  0.49936657  0.00056793  -0.00140850  1
  Fe  Fe89  1  0.12882385  0.87206185  0.87673810  1
  Co  Co90  1  0.62333873  0.62171099  0.62491872  1
  Co  Co91  1  0.12896199  0.87431571  0.37435566  1
  Co  Co92  1  0.37625892  0.62696383  0.87405212  1
  Co  Co93  1  0.75499571  0.50002425  0.24788467  1
  Co  Co94  1  0.62190167  0.12739035  0.87546017  1
  Co  Co95  1  0.63183486  0.37517280  0.37395537  1
  Co  Co96  1  0.24992700  0.49871049  0.24791594  1
  Co  Co97  1  0.50088414  0.75271578  0.25303077  1
  Co  Co98  1  0.24869835  0.74331992  0.50061299  1
  Co  Co99  1  0.36790269  0.37138055  0.37822709  1
  Co  Co100  1  0.49837309  0.25668871  0.25020822  1
  Co  Co101  1  0.75309114  0.00119344  0.24868313  1
  Co  Co102  1  0.00002753  0.75071501  0.25162810  1
  Co  Co103  1  0.50156778  0.49980288  -0.00322570  1
  Co  Co104  1  0.00201010  0.25409652  0.24852418  1
  Co  Co105  1  0.00165336  0.25451683  0.75283379  1
  Co  Co106  1  0.49492760  -0.00165229  0.25163588  1
  Co  Co107  1  0.87923260  0.12346815  0.87493321  1
  Co  Co108  1  0.62437241  0.87255657  0.87706734  1
  Co  Co109  1  0.12081199  0.38135832  0.62695110  1
  Co  Co110  1  0.12084659  0.62371850  0.12621079  1
  Co  Co111  1  0.12339861  0.12497272  0.12590505  1
  Co  Co112  1  0.49488391  0.49054814  0.25438435  1
  Co  Co113  1  0.37806021  0.37510627  0.62236930  1
  Co  Co114  1  0.25567355  0.49869206  0.74807825  1
  Co  Co115  1  0.87800045  0.12703780  0.37305854  1
  Co  Co116  1  0.74785644  0.75060622  0.74790586  1
  Co  Co117  1  0.37267791  0.37732821  0.11942751  1
  Co  Co118  1  -0.00713124  0.50322071  0.75331142  1
  Co  Co119  1  0.38121544  0.62252560  0.12924428  1
  Co  Co120  1  0.74904580  0.24721683  0.00223049  1
  Co  Co121  1  0.12165512  0.12308332  0.62837349  1
  Co  Co122  1  0.12745744  0.62334372  0.87163711  1
  Co  Co123  1  0.87244115  0.37410126  0.87802731  1
  Co  Co124  1  0.87127285  0.62977387  0.87750395  1
  Co  Co125  1  0.00171948  -0.00763172  0.75075341  1
  Co  Co126  1  0.24957987  0.00521202  0.49908563  1
  Co  Co127  1  0.25018006  0.74476617  0.00414916  1
