# generated using pymatgen
data_Fe45Co19
_symmetry_space_group_name_H-M   'P 1'
_cell_length_a   11.41498890
_cell_length_b   11.41734620
_cell_length_c   11.41472947
_cell_angle_alpha   90.00505896
_cell_angle_beta   90.00667072
_cell_angle_gamma   90.00228163
_symmetry_Int_Tables_number   1
_chemical_formula_structural   Fe45Co19
_chemical_formula_sum   'Fe90 Co38'
_cell_volume   1487.66889312
_cell_formula_units_Z   2
loop_
 _symmetry_equiv_pos_site_id
 _symmetry_equiv_pos_as_xyz
  1  'x, y, z'
loop_
 _atom_site_type_symbol
 _atom_site_label
 _atom_site_symmetry_multiplicity
 _atom_site_fract_x
 _atom_site_fract_y
 _atom_site_fract_z
 _atom_site_occupancy
  Fe  Fe0  1  0.12590296  0.62432745  0.37561935  1
  Fe  Fe1  1  0.62451274  0.62359161  0.37527419  1
  Fe  Fe2  1  0.00142084  -0.00024102  0.75190376  1
  Fe  Fe3  1  0.37598406  0.37617368  0.62804709  1
  Fe  Fe4  1  0.50061657  0.24327611  -0.00151492  1
  Fe  Fe5  1  0.75019367  0.00115323  0.24815731  1
  Fe  Fe6  1  0.74948572  0.49894599  0.49980683  1
  Fe  Fe7  1  0.87384534  0.62703100  0.12166735  1
  Fe  Fe8  1  0.75182339  0.25106698  0.50143115  1
  Fe  Fe9  1  0.62609899  0.12508205  0.62511568  1
  Fe  Fe10  1  0.87553756  0.37591065  0.37524366  1
  Fe  Fe11  1  0.87037041  0.37199671  0.87640222  1
  Fe  Fe12  1  0.50189648  0.24822939  0.75051302  1
  Fe  Fe13  1  0.75155385  0.75126582  0.49781709  1
  Fe  Fe14  1  0.87356913  0.62420872  0.62537908  1
  Fe  Fe15  1  0.25522956  0.75350428  0.00065801  1
  Fe  Fe16  1  0.62349425  0.62631512  0.62366140  1
  Fe  Fe17  1  0.75141532  -0.00128950  0.49832505  1
  Fe  Fe18  1  0.12696785  0.62662836  0.12323919  1
  Fe  Fe19  1  0.74885523  0.75095705  0.24917186  1
  Fe  Fe20  1  0.37858870  0.87841250  0.87031920  1
  Fe  Fe21  1  0.12630839  0.12311228  0.37680643  1
  Fe  Fe22  1  0.24959828  0.24819578  -0.00278249  1
  Fe  Fe23  1  0.75201234  0.24772212  0.24711583  1
  Fe  Fe24  1  0.25416301  0.75311048  0.49919220  1
  Fe  Fe25  1  0.00017349  0.24812446  0.75333330  1
  Fe  Fe26  1  0.12701746  0.12504117  0.62838058  1
  Fe  Fe27  1  0.87472601  0.87555748  0.87697610  1
  Fe  Fe28  1  0.25311197  0.75235182  0.25245746  1
  Fe  Fe29  1  0.24947119  0.24816934  0.24901076  1
  Fe  Fe30  1  0.12544372  0.37563034  0.62774807  1
  Fe  Fe31  1  0.12337867  0.87366107  0.12391399  1
  Fe  Fe32  1  -0.00120961  0.75027496  0.75246267  1
  Fe  Fe33  1  0.74634302  0.75069942  0.75252118  1
  Fe  Fe34  1  -0.00083303  0.24743950  0.24932209  1
  Fe  Fe35  1  0.62780913  0.12668438  0.37544067  1
  Fe  Fe36  1  -0.00336691  0.74964692  0.49762356  1
  Fe  Fe37  1  0.87519092  0.37326556  0.12153340  1
  Fe  Fe38  1  0.49696956  0.75077291  0.49513511  1
  Fe  Fe39  1  0.62087045  0.87558176  0.87761081  1
  Fe  Fe40  1  0.74810357  -0.00099417  0.74992658  1
  Fe  Fe41  1  0.74396475  0.50101224  0.75443477  1
  Fe  Fe42  1  -0.00089882  0.50153341  0.24993325  1
  Fe  Fe43  1  0.37855617  0.62468274  0.62641493  1
  Fe  Fe44  1  0.25049945  0.49959460  0.50158209  1
  Fe  Fe45  1  0.50030564  0.50084163  0.24797540  1
  Fe  Fe46  1  -0.00024093  0.50057428  -0.00068301  1
  Fe  Fe47  1  0.38136506  0.88060071  0.13102127  1
  Fe  Fe48  1  0.12428075  0.37535002  0.37518353  1
  Fe  Fe49  1  0.37720208  0.37621938  0.87339589  1
  Fe  Fe50  1  0.37149669  0.12122875  0.37389955  1
  Fe  Fe51  1  0.49780340  0.24586961  0.25061624  1
  Fe  Fe52  1  0.62266393  0.37262501  0.12187189  1
  Fe  Fe53  1  0.25125888  -0.00119604  0.00141550  1
  Fe  Fe54  1  -0.00053544  0.24864376  0.50117477  1
  Fe  Fe55  1  0.37518326  0.37207737  0.12346481  1
  Fe  Fe56  1  -0.00131923  0.00215435  0.25081802  1
  Fe  Fe57  1  0.00013239  0.50158321  0.75171217  1
  Fe  Fe58  1  0.12583049  0.37511603  0.12362313  1
  Fe  Fe59  1  0.37567969  0.62547634  0.12601557  1
  Fe  Fe60  1  0.87408592  0.12305562  0.62502998  1
  Fe  Fe61  1  0.12613369  0.87446004  0.87498193  1
  Fe  Fe62  1  0.12466935  0.87681346  0.37676208  1
  Fe  Fe63  1  0.87292800  0.12579471  0.87900361  1
  Fe  Fe64  1  0.25175053  -0.00376581  0.50662242  1
  Fe  Fe65  1  0.62279085  0.87586826  0.37167130  1
  Fe  Fe66  1  0.62480454  0.37396934  0.62603803  1
  Fe  Fe67  1  -0.00119156  0.74934174  0.25102960  1
  Fe  Fe68  1  0.25271069  0.50049868  -0.00085371  1
  Fe  Fe69  1  0.62282338  0.87401753  0.62420208  1
  Fe  Fe70  1  0.87609718  0.87527727  0.62483258  1
  Fe  Fe71  1  0.12370175  0.12498150  0.12067632  1
  Fe  Fe72  1  0.62439840  0.37442115  0.37378329  1
  Fe  Fe73  1  0.74562100  0.00020041  0.00327435  1
  Fe  Fe74  1  0.49806570  0.24874369  0.49984631  1
  Fe  Fe75  1  0.25122390  0.75188224  0.74799557  1
  Fe  Fe76  1  0.12418022  0.62654134  0.62482194  1
  Fe  Fe77  1  0.87596640  0.87498003  0.12370951  1
  Fe  Fe78  1  0.37264488  0.12065887  0.86967360  1
  Fe  Fe79  1  0.12717473  0.62716135  0.87685836  1
  Fe  Fe80  1  0.87497713  0.37696335  0.62710170  1
  Fe  Fe81  1  0.37920463  0.62440693  0.87306888  1
  Fe  Fe82  1  0.62313486  0.62891785  0.11833751  1
  Fe  Fe83  1  0.12708912  0.37628875  0.87392613  1
  Fe  Fe84  1  0.37571144  0.37686159  0.37437576  1
  Fe  Fe85  1  0.74903554  0.50084141  0.24682725  1
  Fe  Fe86  1  0.25183200  0.24987141  0.50188983  1
  Fe  Fe87  1  0.87177336  0.62677230  0.87771680  1
  Fe  Fe88  1  0.49852763  0.00098911  0.50086778  1
  Fe  Fe89  1  0.25088799  0.49898260  0.24921095  1
  Co  Co90  1  0.38114716  0.87251896  0.62858405  1
  Co  Co91  1  0.75004236  0.24885729  0.74834254  1
  Co  Co92  1  0.00158596  -0.00206999  -0.00165378  1
  Co  Co93  1  0.62398439  0.12487719  0.12667846  1
  Co  Co94  1  0.50065564  0.00404026  -0.00054547  1
  Co  Co95  1  0.50359727  0.00650879  0.25148165  1
  Co  Co96  1  0.12864450  0.12126953  0.87455657  1
  Co  Co97  1  0.50412685  0.00151406  0.74749912  1
  Co  Co98  1  -0.00018728  0.00169242  0.50017555  1
  Co  Co99  1  0.49503797  0.75418542  0.00069697  1
  Co  Co100  1  0.24550008  0.00005517  0.24667759  1
  Co  Co101  1  0.00309172  0.25163808  -0.00295642  1
  Co  Co102  1  0.49930952  0.74693121  0.25205215  1
  Co  Co103  1  0.87729663  0.12480997  0.11980500  1
  Co  Co104  1  0.49935834  0.49924147  0.00017426  1
  Co  Co105  1  0.37435389  0.12504772  0.62927653  1
  Co  Co106  1  0.12019146  0.87179635  0.62449082  1
  Co  Co107  1  0.00006873  0.75030454  -0.00097914  1
  Co  Co108  1  0.25042650  0.25124043  0.75201222  1
  Co  Co109  1  0.74872495  0.75519750  -0.00026069  1
  Co  Co110  1  0.74620872  0.24705873  0.00305508  1
  Co  Co111  1  0.62557914  0.37098628  0.87802383  1
  Co  Co112  1  0.87315333  0.12563473  0.37614657  1
  Co  Co113  1  0.25037490  0.50209722  0.74971533  1
  Co  Co114  1  0.62255995  0.62795395  0.88225914  1
  Co  Co115  1  0.74887184  0.49868287  -0.00083427  1
  Co  Co116  1  0.37581699  0.88091127  0.37096581  1
  Co  Co117  1  0.50106635  0.49851187  0.50065638  1
  Co  Co118  1  0.24782577  -0.00532433  0.74495070  1
  Co  Co119  1  0.00041525  0.50003660  0.50029358  1
  Co  Co120  1  0.37463011  0.62120375  0.37475917  1
  Co  Co121  1  0.61954346  0.87459980  0.12672935  1
  Co  Co122  1  0.50548589  0.50008433  0.75159886  1
  Co  Co123  1  0.50438723  0.74906724  0.75171113  1
  Co  Co124  1  0.87487534  0.87605580  0.37399871  1
  Co  Co125  1  0.37307467  0.12384846  0.12567190  1
  Co  Co126  1  0.87264203  0.62352617  0.37476497  1
  Co  Co127  1  0.62790669  0.12503109  0.87230848  1
