# generated using pymatgen
data_Fe45Co19
_symmetry_space_group_name_H-M   'P 1'
_cell_length_a   11.42269641
_cell_length_b   11.42286315
_cell_length_c   11.42268462
_cell_angle_alpha   90.00634193
_cell_angle_beta   90.00363460
_cell_angle_gamma   90.00282503
_symmetry_Int_Tables_number   1
_chemical_formula_structural   Fe45Co19
_chemical_formula_sum   'Fe90 Co38'
_cell_volume   1490.43070937
_cell_formula_units_Z   2
loop_
 _symmetry_equiv_pos_site_id
 _symmetry_equiv_pos_as_xyz
  1  'x, y, z'
loop_
 _atom_site_type_symbol
 _atom_site_label
 _atom_site_symmetry_multiplicity
 _atom_site_fract_x
 _atom_site_fract_y
 _atom_site_fract_z
 _atom_site_occupancy
  Fe  Fe0  1  0.00003618  0.75042975  0.75007703  1
  Fe  Fe1  1  0.12610435  0.87400136  0.87650695  1
  Fe  Fe2  1  0.62311399  0.12576160  0.12501027  1
  Fe  Fe3  1  0.12775947  0.12265028  0.12729007  1
  Fe  Fe4  1  0.49936962  0.49866655  0.24816504  1
  Fe  Fe5  1  0.62449221  0.37435655  0.37451570  1
  Fe  Fe6  1  0.87413015  0.87571430  0.12519539  1
  Fe  Fe7  1  0.62434620  0.37240208  0.12603698  1
  Fe  Fe8  1  0.00093450  0.24925675  0.25077439  1
  Fe  Fe9  1  0.49622381  0.25090156  -0.00032983  1
  Fe  Fe10  1  0.75117552  0.25036219  -0.00339573  1
  Fe  Fe11  1  0.87451124  0.37243462  0.62532009  1
  Fe  Fe12  1  0.12496691  0.37477071  0.37471165  1
  Fe  Fe13  1  0.00172322  0.49944901  -0.00031376  1
  Fe  Fe14  1  0.12515147  0.12634696  0.62514263  1
  Fe  Fe15  1  0.62214611  0.87713449  0.12591341  1
  Fe  Fe16  1  0.37670169  0.62024899  0.87675013  1
  Fe  Fe17  1  0.00071903  0.00051144  0.00101568  1
  Fe  Fe18  1  0.24791298  0.24974367  0.49905087  1
  Fe  Fe19  1  0.74800793  0.49853985  0.74908802  1
  Fe  Fe20  1  0.37352384  0.62264428  0.62416944  1
  Fe  Fe21  1  -0.00022515  0.74925950  0.00183622  1
  Fe  Fe22  1  0.62662204  0.62368872  0.37323740  1
  Fe  Fe23  1  0.00029344  0.24809423  0.49784384  1
  Fe  Fe24  1  0.25080221  0.74983137  0.75067805  1
  Fe  Fe25  1  0.00105556  0.00143018  0.75151322  1
  Fe  Fe26  1  0.62315516  0.87646126  0.87412724  1
  Fe  Fe27  1  -0.00136968  0.24963026  0.75157977  1
  Fe  Fe28  1  0.37544901  0.62561113  0.37530696  1
  Fe  Fe29  1  0.50109264  0.74714771  0.74833474  1
  Fe  Fe30  1  0.00009612  0.75170665  0.24993987  1
  Fe  Fe31  1  0.12803869  0.87684972  0.12587367  1
  Fe  Fe32  1  0.12833579  0.62332613  0.12600304  1
  Fe  Fe33  1  0.62080568  0.37295943  0.87120615  1
  Fe  Fe34  1  0.87227610  0.62339112  0.12685902  1
  Fe  Fe35  1  0.87263019  0.62482462  0.37386996  1
  Fe  Fe36  1  0.62425768  0.37228225  0.62612394  1
  Fe  Fe37  1  0.25290118  0.25298992  0.00067606  1
  Fe  Fe38  1  0.50073789  0.24879528  0.49919465  1
  Fe  Fe39  1  0.50272949  0.74933012  0.50221791  1
  Fe  Fe40  1  0.25381347  -0.00015010  0.00027285  1
  Fe  Fe41  1  0.49427861  0.00337139  0.25190825  1
  Fe  Fe42  1  0.12532548  0.62509163  0.62394483  1
  Fe  Fe43  1  0.74734243  0.75286438  0.50084605  1
  Fe  Fe44  1  0.25016313  0.49771742  0.49844793  1
  Fe  Fe45  1  0.37504690  0.37121488  0.37168543  1
  Fe  Fe46  1  0.74901599  0.75074636  0.00062981  1
  Fe  Fe47  1  -0.00035178  0.00315649  0.49898549  1
  Fe  Fe48  1  0.12409440  0.87515133  0.62321020  1
  Fe  Fe49  1  0.74907922  0.00184533  -0.00014096  1
  Fe  Fe50  1  0.12488076  0.62470658  0.37504473  1
  Fe  Fe51  1  0.49852239  0.00323472  0.49825995  1
  Fe  Fe52  1  0.25145260  0.25215456  0.75101033  1
  Fe  Fe53  1  0.37298560  0.12603279  0.62393833  1
  Fe  Fe54  1  -0.00067740  0.24982216  0.00072122  1
  Fe  Fe55  1  0.87532682  0.62560984  0.62401956  1
  Fe  Fe56  1  0.12688750  0.12644453  0.87645979  1
  Fe  Fe57  1  0.24980279  -0.00057463  0.74969363  1
  Fe  Fe58  1  0.12710745  0.37661731  0.12608216  1
  Fe  Fe59  1  0.87494510  0.87628934  0.87617876  1
  Fe  Fe60  1  0.25236675  0.74911643  -0.00039909  1
  Fe  Fe61  1  0.12685357  0.87955263  0.37443600  1
  Fe  Fe62  1  0.75068880  0.24714275  0.49803562  1
  Fe  Fe63  1  0.49845223  0.75004820  0.24908245  1
  Fe  Fe64  1  0.62338189  0.87754023  0.37456127  1
  Fe  Fe65  1  0.24703872  0.49705069  0.75245693  1
  Fe  Fe66  1  0.49962438  0.49934693  0.50005657  1
  Fe  Fe67  1  0.24910467  0.75144567  0.50003304  1
  Fe  Fe68  1  0.87478412  0.12619740  0.12554663  1
  Fe  Fe69  1  0.49942361  0.74871796  0.00095405  1
  Fe  Fe70  1  0.74828876  0.49698924  0.00030590  1
  Fe  Fe71  1  0.87500896  0.87710751  0.62364536  1
  Fe  Fe72  1  0.87458467  0.87672225  0.37494280  1
  Fe  Fe73  1  0.62426038  0.62311896  0.87542317  1
  Fe  Fe74  1  0.00032289  0.49933347  0.50054777  1
  Fe  Fe75  1  0.74972718  0.49842812  0.49972545  1
  Fe  Fe76  1  0.62648880  0.12502256  0.62456011  1
  Fe  Fe77  1  -0.00149606  0.49838710  0.25004985  1
  Fe  Fe78  1  0.00307386  0.49812118  0.75018310  1
  Fe  Fe79  1  0.62693644  0.62505630  0.12735737  1
  Fe  Fe80  1  0.37714431  0.87541994  0.62471271  1
  Fe  Fe81  1  0.37608676  0.37485999  0.62591085  1
  Fe  Fe82  1  0.49836865  0.00445922  0.75215153  1
  Fe  Fe83  1  0.75058894  0.00373860  0.75135758  1
  Fe  Fe84  1  0.75035153  0.25109641  0.25133913  1
  Fe  Fe85  1  0.25240702  0.75139116  0.25063046  1
  Fe  Fe86  1  0.87502091  0.62314949  0.87471776  1
  Fe  Fe87  1  0.49698054  0.00247991  -0.00170120  1
  Fe  Fe88  1  0.74796409  0.75086747  0.74831699  1
  Fe  Fe89  1  0.74982463  0.00124430  0.25001511  1
  Co  Co90  1  0.50124689  0.50142098  0.74628398  1
  Co  Co91  1  0.50130855  0.24903787  0.25019069  1
  Co  Co92  1  -0.00106403  -0.00035868  0.24848276  1
  Co  Co93  1  0.87565045  0.12564305  0.62486846  1
  Co  Co94  1  0.37288156  0.37634038  0.12790451  1
  Co  Co95  1  0.74997760  0.00143663  0.49889304  1
  Co  Co96  1  0.00025426  0.75073050  0.49787279  1
  Co  Co97  1  0.62289948  0.88054956  0.62655393  1
  Co  Co98  1  0.87568063  0.37370427  0.12395236  1
  Co  Co99  1  0.87698638  0.12455549  0.87706045  1
  Co  Co100  1  0.37598622  0.87346641  0.37847823  1
  Co  Co101  1  0.37953408  0.37772792  0.87301869  1
  Co  Co102  1  0.74958813  0.49517833  0.24908399  1
  Co  Co103  1  0.62361649  0.12709854  0.87681699  1
  Co  Co104  1  0.37541556  0.12854262  0.12597925  1
  Co  Co105  1  0.12713905  0.12223691  0.37299719  1
  Co  Co106  1  0.87593965  0.37650183  0.87419761  1
  Co  Co107  1  0.75061484  0.24798432  0.75207789  1
  Co  Co108  1  0.62664792  0.62300178  0.62278394  1
  Co  Co109  1  0.62489685  0.12496658  0.37338206  1
  Co  Co110  1  0.25084896  0.49972892  0.25342791  1
  Co  Co111  1  0.25115543  0.00096621  0.50151130  1
  Co  Co112  1  0.74954761  0.75354814  0.25008801  1
  Co  Co113  1  0.87558474  0.37444164  0.37623144  1
  Co  Co114  1  0.25724395  0.00019318  0.25072771  1
  Co  Co115  1  0.37202773  0.12976213  0.37555440  1
  Co  Co116  1  0.24765317  0.24900145  0.24872139  1
  Co  Co117  1  0.87520153  0.12493140  0.37232751  1
  Co  Co118  1  0.37668503  0.87408034  0.87350122  1
  Co  Co119  1  0.50267133  0.49772440  0.00482943  1
  Co  Co120  1  0.37267519  0.62248183  0.12451155  1
  Co  Co121  1  0.12352840  0.37094373  0.87725729  1
  Co  Co122  1  0.24905103  0.49685337  -0.00299513  1
  Co  Co123  1  0.12447751  0.37306937  0.62372638  1
  Co  Co124  1  0.37631752  0.87461311  0.12359454  1
  Co  Co125  1  0.49831805  0.24576094  0.74829736  1
  Co  Co126  1  0.37167933  0.12663584  0.87497383  1
  Co  Co127  1  0.12470511  0.62706376  0.87556533  1
