# generated using pymatgen
data_Fe45Co19
_symmetry_space_group_name_H-M   'P 1'
_cell_length_a   11.41439885
_cell_length_b   11.41478394
_cell_length_c   11.41567452
_cell_angle_alpha   89.99756742
_cell_angle_beta   90.00324816
_cell_angle_gamma   89.99681238
_symmetry_Int_Tables_number   1
_chemical_formula_structural   Fe45Co19
_chemical_formula_sum   'Fe90 Co38'
_cell_volume   1487.38129422
_cell_formula_units_Z   2
loop_
 _symmetry_equiv_pos_site_id
 _symmetry_equiv_pos_as_xyz
  1  'x, y, z'
loop_
 _atom_site_type_symbol
 _atom_site_label
 _atom_site_symmetry_multiplicity
 _atom_site_fract_x
 _atom_site_fract_y
 _atom_site_fract_z
 _atom_site_occupancy
  Fe  Fe0  1  0.12056696  0.62818669  0.62597960  1
  Fe  Fe1  1  0.50355159  0.49722617  0.25157411  1
  Fe  Fe2  1  0.75367496  0.74741967  0.50092819  1
  Fe  Fe3  1  0.37520292  0.37586432  0.62523257  1
  Fe  Fe4  1  0.25132597  0.24826825  0.74849942  1
  Fe  Fe5  1  0.12409719  0.12375944  0.62426600  1
  Fe  Fe6  1  0.37700024  0.12338352  0.62462693  1
  Fe  Fe7  1  0.50211641  0.00018846  0.75280375  1
  Fe  Fe8  1  0.49907569  0.75088983  0.00174629  1
  Fe  Fe9  1  0.37176997  0.87458265  0.87778064  1
  Fe  Fe10  1  0.87490807  0.87772900  0.12275273  1
  Fe  Fe11  1  0.12178096  0.62978036  0.37343169  1
  Fe  Fe12  1  0.12710352  0.37504182  0.37364610  1
  Fe  Fe13  1  0.37470832  0.87472414  0.37398925  1
  Fe  Fe14  1  0.37293368  0.37586471  0.12852836  1
  Fe  Fe15  1  0.25053580  0.24690789  0.24819523  1
  Fe  Fe16  1  0.87566976  0.12127104  0.62305530  1
  Fe  Fe17  1  0.49875521  0.25324234  0.49636045  1
  Fe  Fe18  1  0.62618714  0.12702315  0.37537517  1
  Fe  Fe19  1  0.87015865  0.37719223  0.37063838  1
  Fe  Fe20  1  0.50239046  -0.00229686  0.49828772  1
  Fe  Fe21  1  0.12365217  0.12339353  0.37525070  1
  Fe  Fe22  1  0.75101137  0.50310353  0.49940914  1
  Fe  Fe23  1  0.00230314  0.00193976  -0.00319378  1
  Fe  Fe24  1  0.62551172  0.37204181  0.87434330  1
  Fe  Fe25  1  0.37413450  0.37415593  0.87444722  1
  Fe  Fe26  1  0.87430532  0.87317919  0.37386801  1
  Fe  Fe27  1  0.37768438  0.62208666  0.12591998  1
  Fe  Fe28  1  0.62542712  0.62530065  0.87855205  1
  Fe  Fe29  1  -0.00227402  0.25137928  0.49907600  1
  Fe  Fe30  1  0.62063363  0.12716785  0.12401781  1
  Fe  Fe31  1  0.50123420  0.49613515  0.00124330  1
  Fe  Fe32  1  0.24849634  0.50097510  0.00063633  1
  Fe  Fe33  1  0.75426200  0.74954447  0.00007911  1
  Fe  Fe34  1  0.24942194  0.75087722  0.49976811  1
  Fe  Fe35  1  0.24984283  0.24593919  0.00411538  1
  Fe  Fe36  1  -0.00268878  0.24917947  0.75061256  1
  Fe  Fe37  1  0.75145602  0.24917221  0.74985007  1
  Fe  Fe38  1  0.24853267  0.00224689  0.24714143  1
  Fe  Fe39  1  0.37615065  0.12365143  0.37336233  1
  Fe  Fe40  1  0.37534519  0.87593568  0.62433440  1
  Fe  Fe41  1  0.12661943  0.87075750  0.87795424  1
  Fe  Fe42  1  0.87587677  0.12463110  0.12260665  1
  Fe  Fe43  1  -0.00198047  0.50100971  0.49812646  1
  Fe  Fe44  1  0.12378335  0.87430828  0.12257110  1
  Fe  Fe45  1  -0.00036272  -0.00117605  0.25101620  1
  Fe  Fe46  1  0.62491512  0.37367424  0.62434142  1
  Fe  Fe47  1  -0.00414667  0.25112851  -0.00221394  1
  Fe  Fe48  1  -0.00036912  0.49759839  -0.00207184  1
  Fe  Fe49  1  0.12452515  0.63054671  0.87597611  1
  Fe  Fe50  1  0.75523951  0.74782768  0.75209043  1
  Fe  Fe51  1  0.49974929  0.75066969  0.75085302  1
  Fe  Fe52  1  0.62452759  0.87439089  0.12519961  1
  Fe  Fe53  1  0.12625076  0.37140413  0.87481487  1
  Fe  Fe54  1  0.75358253  0.24937131  0.49916326  1
  Fe  Fe55  1  0.87413355  0.87631551  0.62462455  1
  Fe  Fe56  1  0.12472371  0.37481524  0.62471777  1
  Fe  Fe57  1  0.62486443  0.12514171  0.62295139  1
  Fe  Fe58  1  0.50199526  0.49923600  0.75022562  1
  Fe  Fe59  1  0.74946914  0.00108927  0.75105428  1
  Fe  Fe60  1  -0.00326879  0.24897154  0.25227267  1
  Fe  Fe61  1  0.62556763  0.87116550  0.37398440  1
  Fe  Fe62  1  0.37636261  0.87990379  0.12389958  1
  Fe  Fe63  1  0.25051841  0.24904410  0.49933282  1
  Fe  Fe64  1  0.24920949  0.00079379  0.75230219  1
  Fe  Fe65  1  0.37495542  0.62566370  0.87539879  1
  Fe  Fe66  1  0.62937874  0.37180364  0.12992083  1
  Fe  Fe67  1  0.62464061  0.62666461  0.62530594  1
  Fe  Fe68  1  0.62604940  0.87373233  0.62477312  1
  Fe  Fe69  1  0.37684217  0.12519960  0.87942437  1
  Fe  Fe70  1  0.37629822  0.62493560  0.37272051  1
  Fe  Fe71  1  0.12244589  0.62676129  0.12382735  1
  Fe  Fe72  1  0.00107452  -0.00331255  0.49741161  1
  Fe  Fe73  1  0.24853160  0.50189519  0.49896495  1
  Fe  Fe74  1  0.12574888  0.87444116  0.62501709  1
  Fe  Fe75  1  0.24983132  0.74986272  0.24669189  1
  Fe  Fe76  1  0.87480163  0.38038277  0.62916366  1
  Fe  Fe77  1  0.62427414  0.62703127  0.37365721  1
  Fe  Fe78  1  0.75112461  0.74677023  0.24677347  1
  Fe  Fe79  1  0.62644209  0.12801189  0.87907804  1
  Fe  Fe80  1  0.75159852  0.49595298  0.00061534  1
  Fe  Fe81  1  0.24746972  0.50153778  0.75028436  1
  Fe  Fe82  1  -0.00012843  -0.00086545  0.75349490  1
  Fe  Fe83  1  0.87593385  0.62235380  0.12453503  1
  Fe  Fe84  1  0.37624846  0.62552430  0.62571659  1
  Fe  Fe85  1  -0.00026238  0.50081398  0.25028894  1
  Fe  Fe86  1  0.62821138  0.87362990  0.87645406  1
  Fe  Fe87  1  0.50111368  0.49782692  0.49730770  1
  Fe  Fe88  1  0.12371925  0.37359806  0.12635245  1
  Fe  Fe89  1  0.74932193  0.00268500  0.24993885  1
  Co  Co90  1  0.50313414  -0.00287009  -0.00268963  1
  Co  Co91  1  0.12616606  0.87448933  0.37302582  1
  Co  Co92  1  0.87468207  0.61947243  0.87359420  1
  Co  Co93  1  0.87618961  0.12180095  0.37726799  1
  Co  Co94  1  0.24975250  0.00060001  0.49937676  1
  Co  Co95  1  0.24599834  0.50316395  0.24909331  1
  Co  Co96  1  0.25036491  0.75008842  0.74779298  1
  Co  Co97  1  0.87419596  0.37741738  0.87028932  1
  Co  Co98  1  0.87549377  0.37562143  0.12965205  1
  Co  Co99  1  0.37015427  0.37766020  0.37279441  1
  Co  Co100  1  0.62445887  0.62503579  0.12175684  1
  Co  Co101  1  -0.00216176  0.75185788  0.50131090  1
  Co  Co102  1  0.50336144  -0.00076947  0.25234962  1
  Co  Co103  1  0.87338994  0.87980410  0.87834009  1
  Co  Co104  1  0.38106709  0.12234180  0.12393216  1
  Co  Co105  1  0.74835919  -0.00168419  0.49731516  1
  Co  Co106  1  0.11947286  0.12613830  0.12624115  1
  Co  Co107  1  0.25276783  0.74807021  0.00527003  1
  Co  Co108  1  0.74438729  0.50059600  0.75054353  1
  Co  Co109  1  0.87212066  0.12295016  0.87659527  1
  Co  Co110  1  0.49943842  0.25415726  0.00232650  1
  Co  Co111  1  0.24637759  0.00414142  0.00144024  1
  Co  Co112  1  -0.00555039  0.74946452  -0.00116163  1
  Co  Co113  1  -0.00457389  0.75284180  0.75242903  1
  Co  Co114  1  0.50047502  0.24896731  0.75040423  1
  Co  Co115  1  -0.00111758  0.75204545  0.24654978  1
  Co  Co116  1  0.49907547  0.25346149  0.25243073  1
  Co  Co117  1  0.75288899  0.24356038  0.24923609  1
  Co  Co118  1  0.12462799  0.12801236  0.87360379  1
  Co  Co119  1  0.63181856  0.37368549  0.37344001  1
  Co  Co120  1  0.74883812  0.50511880  0.24901678  1
  Co  Co121  1  0.49931921  0.75087626  0.50034752  1
  Co  Co122  1  0.49942063  0.75016032  0.24686212  1
  Co  Co123  1  0.74659908  0.00117899  0.00310705  1
  Co  Co124  1  0.87738137  0.62131990  0.62943429  1
  Co  Co125  1  0.75329639  0.25291022  0.00157298  1
  Co  Co126  1  0.87692649  0.62698625  0.37244323  1
  Co  Co127  1  0.00599651  0.50015407  0.75322406  1
