# generated using pymatgen
data_Fe45Co19
_symmetry_space_group_name_H-M   'P 1'
_cell_length_a   11.41524156
_cell_length_b   11.41530322
_cell_length_c   11.41588534
_cell_angle_alpha   89.99454590
_cell_angle_beta   89.99763270
_cell_angle_gamma   89.99823898
_symmetry_Int_Tables_number   1
_chemical_formula_structural   Fe45Co19
_chemical_formula_sum   'Fe90 Co38'
_cell_volume   1487.58624443
_cell_formula_units_Z   2
loop_
 _symmetry_equiv_pos_site_id
 _symmetry_equiv_pos_as_xyz
  1  'x, y, z'
loop_
 _atom_site_type_symbol
 _atom_site_label
 _atom_site_symmetry_multiplicity
 _atom_site_fract_x
 _atom_site_fract_y
 _atom_site_fract_z
 _atom_site_occupancy
  Fe  Fe0  1  0.62593591  0.12483927  0.37640576  1
  Fe  Fe1  1  0.49871364  -0.00074642  0.00110369  1
  Fe  Fe2  1  0.74869325  0.75012680  0.74992606  1
  Fe  Fe3  1  0.75258677  0.49960679  0.25018063  1
  Fe  Fe4  1  0.37402019  0.62573985  0.12196901  1
  Fe  Fe5  1  0.62500929  0.12477189  0.12613774  1
  Fe  Fe6  1  0.00278948  0.24975928  0.24953672  1
  Fe  Fe7  1  0.37378670  0.62855403  0.62426513  1
  Fe  Fe8  1  0.37571365  0.12756980  0.12356367  1
  Fe  Fe9  1  0.87643151  0.12556031  0.12505049  1
  Fe  Fe10  1  0.00104531  0.50213612  0.00090845  1
  Fe  Fe11  1  0.87494550  0.62552651  0.62434137  1
  Fe  Fe12  1  0.62445499  0.37701418  0.12463545  1
  Fe  Fe13  1  0.62258856  0.62079579  0.12349256  1
  Fe  Fe14  1  0.75019310  0.50100522  0.75242100  1
  Fe  Fe15  1  0.74844586  0.74740090  0.00287784  1
  Fe  Fe16  1  0.12320220  0.11866800  0.62889426  1
  Fe  Fe17  1  0.00465160  0.75060166  0.00109624  1
  Fe  Fe18  1  0.25300645  0.49981952  -0.00530034  1
  Fe  Fe19  1  0.75276068  -0.00133293  0.25248193  1
  Fe  Fe20  1  0.49885028  0.00010079  0.74929164  1
  Fe  Fe21  1  0.24694160  0.75268354  0.75137880  1
  Fe  Fe22  1  0.87708523  0.87561536  0.62192908  1
  Fe  Fe23  1  0.75078368  -0.00139941  0.74842344  1
  Fe  Fe24  1  0.50038688  0.25360427  -0.00104993  1
  Fe  Fe25  1  0.12582593  0.37765372  0.62640766  1
  Fe  Fe26  1  0.62461748  0.12397490  0.87596125  1
  Fe  Fe27  1  0.37529167  0.37280856  0.62799922  1
  Fe  Fe28  1  0.62337546  0.62331715  0.37390555  1
  Fe  Fe29  1  0.24711106  0.24830186  -0.00251656  1
  Fe  Fe30  1  0.37531994  0.12529300  0.62406826  1
  Fe  Fe31  1  0.87705373  0.62604103  0.87614466  1
  Fe  Fe32  1  0.87645109  0.37533445  0.12482418  1
  Fe  Fe33  1  0.00219526  0.24900617  0.75207500  1
  Fe  Fe34  1  0.12498230  0.87614911  0.37305451  1
  Fe  Fe35  1  0.62441625  0.87576836  0.87608039  1
  Fe  Fe36  1  0.24578619  0.75160228  -0.00120142  1
  Fe  Fe37  1  0.75132519  0.49629331  0.49757644  1
  Fe  Fe38  1  0.00318566  0.25091785  0.50108548  1
  Fe  Fe39  1  0.74843887  0.24959410  0.75063971  1
  Fe  Fe40  1  0.12674157  0.12582765  0.37422455  1
  Fe  Fe41  1  0.50162730  0.74904680  0.75087682  1
  Fe  Fe42  1  0.50120287  0.25099793  0.50019194  1
  Fe  Fe43  1  -0.00021569  0.49975815  0.49852566  1
  Fe  Fe44  1  0.37563988  0.87315540  0.62279540  1
  Fe  Fe45  1  0.49637481  0.49825680  0.49910729  1
  Fe  Fe46  1  0.00343697  0.75001253  0.50053938  1
  Fe  Fe47  1  0.87391702  0.62763824  0.37394100  1
  Fe  Fe48  1  0.24685239  0.24802362  0.75104830  1
  Fe  Fe49  1  0.37367255  0.87427853  0.12501841  1
  Fe  Fe50  1  0.87612011  0.87349058  0.12763615  1
  Fe  Fe51  1  0.24921112  -0.00098710  0.50120487  1
  Fe  Fe52  1  0.12633740  0.62494948  0.62576796  1
  Fe  Fe53  1  0.00012801  0.50067681  0.75009821  1
  Fe  Fe54  1  0.37375746  0.87384354  0.37472025  1
  Fe  Fe55  1  0.50073464  0.74991854  0.24783889  1
  Fe  Fe56  1  0.00263072  0.74729923  0.24777987  1
  Fe  Fe57  1  0.62359080  0.37578119  0.62814200  1
  Fe  Fe58  1  0.49172959  0.49679643  0.25124497  1
  Fe  Fe59  1  0.50051472  0.75074305  0.49912836  1
  Fe  Fe60  1  0.62495902  0.87769253  0.12542396  1
  Fe  Fe61  1  0.87438310  0.12514445  0.62168104  1
  Fe  Fe62  1  0.12814190  0.62411028  0.37506144  1
  Fe  Fe63  1  0.87660654  0.12382380  0.87611889  1
  Fe  Fe64  1  0.87581724  0.37523519  0.87533416  1
  Fe  Fe65  1  0.00301825  0.75265185  0.75044826  1
  Fe  Fe66  1  0.87559919  0.37390033  0.62485368  1
  Fe  Fe67  1  0.87552989  0.87464690  0.87724868  1
  Fe  Fe68  1  0.37242641  0.12819438  0.37685416  1
  Fe  Fe69  1  0.12967990  0.37755244  0.12584745  1
  Fe  Fe70  1  0.74865782  0.25246136  -0.00093495  1
  Fe  Fe71  1  0.75034832  0.25258467  0.25170800  1
  Fe  Fe72  1  0.24948860  0.00331142  0.24644362  1
  Fe  Fe73  1  0.25285376  0.50112553  0.49838729  1
  Fe  Fe74  1  0.62652466  0.12194377  0.62104881  1
  Fe  Fe75  1  0.62549255  0.62425846  0.62368270  1
  Fe  Fe76  1  0.49769660  0.00155940  0.25079240  1
  Fe  Fe77  1  0.13008131  0.37402650  0.37372607  1
  Fe  Fe78  1  0.37445497  0.87462986  0.87710111  1
  Fe  Fe79  1  0.00399613  0.24855161  -0.00223926  1
  Fe  Fe80  1  0.74889617  0.75261585  0.49910261  1
  Fe  Fe81  1  0.75126116  0.00057238  0.00142861  1
  Fe  Fe82  1  0.00083787  0.50126946  0.24995616  1
  Fe  Fe83  1  0.25263966  0.50197423  0.75327898  1
  Fe  Fe84  1  0.37398223  0.12472371  0.87500504  1
  Fe  Fe85  1  0.49761109  0.25207240  0.25057744  1
  Fe  Fe86  1  0.87434277  0.12668774  0.37791978  1
  Fe  Fe87  1  0.24979134  0.74676642  0.25020776  1
  Fe  Fe88  1  0.62141267  0.62208342  0.87889777  1
  Fe  Fe89  1  0.62369672  0.87658156  0.37479617  1
  Co  Co90  1  0.75157067  -0.00442166  0.49863755  1
  Co  Co91  1  0.50141555  0.75222370  0.00292474  1
  Co  Co92  1  0.12578219  0.88291792  0.87473356  1
  Co  Co93  1  0.50219930  0.24499850  0.74883452  1
  Co  Co94  1  0.36902377  0.37369877  0.12437470  1
  Co  Co95  1  0.25578129  0.50201387  0.25406620  1
  Co  Co96  1  0.37658220  0.62951307  0.37675594  1
  Co  Co97  1  0.37653931  0.37040030  0.86927310  1
  Co  Co98  1  0.00164362  0.00082641  0.49705423  1
  Co  Co99  1  -0.00541795  -0.00196985  0.75054889  1
  Co  Co100  1  0.62245609  0.37640203  0.37264925  1
  Co  Co101  1  0.49714236  -0.00010111  0.49869333  1
  Co  Co102  1  0.12511909  0.87648156  0.12747540  1
  Co  Co103  1  0.24948818  0.24690694  0.24633479  1
  Co  Co104  1  0.49384782  0.49527117  -0.00132665  1
  Co  Co105  1  0.24605093  0.24839901  0.50616805  1
  Co  Co106  1  0.37590000  0.63007846  0.87698471  1
  Co  Co107  1  0.36982253  0.36823281  0.37748826  1
  Co  Co108  1  0.12933924  0.62162857  0.12472765  1
  Co  Co109  1  0.74630630  0.74994976  0.24873116  1
  Co  Co110  1  0.62250156  0.37655284  0.87260171  1
  Co  Co111  1  0.12459230  0.37698586  0.87402295  1
  Co  Co112  1  -0.00094820  0.00247667  0.25096693  1
  Co  Co113  1  0.87847045  0.87147743  0.37349567  1
  Co  Co114  1  0.12366173  0.62481016  0.87335262  1
  Co  Co115  1  0.25126509  0.00103189  0.00473002  1
  Co  Co116  1  0.75213225  0.49962112  -0.00086951  1
  Co  Co117  1  0.12533873  0.11657224  0.87310631  1
  Co  Co118  1  0.62243212  0.87581165  0.62521175  1
  Co  Co119  1  0.25521765  -0.00210154  0.74732010  1
  Co  Co120  1  -0.00063587  -0.00162292  0.00311584  1
  Co  Co121  1  0.87528442  0.62641186  0.12565369  1
  Co  Co122  1  0.12394325  0.87801675  0.62576128  1
  Co  Co123  1  0.24698946  0.75136661  0.49972294  1
  Co  Co124  1  0.49692582  0.50448417  0.75021678  1
  Co  Co125  1  0.74858554  0.25473438  0.49930996  1
  Co  Co126  1  0.87832963  0.37332940  0.37422289  1
  Co  Co127  1  0.12269108  0.12425491  0.12327558  1
