# generated using pymatgen
data_Fe45Co19
_symmetry_space_group_name_H-M   'P 1'
_cell_length_a   11.41628425
_cell_length_b   11.41458211
_cell_length_c   11.41572107
_cell_angle_alpha   90.00970880
_cell_angle_beta   89.99966085
_cell_angle_gamma   89.99114452
_symmetry_Int_Tables_number   1
_chemical_formula_structural   Fe45Co19
_chemical_formula_sum   'Fe90 Co38'
_cell_volume   1487.60670596
_cell_formula_units_Z   2
loop_
 _symmetry_equiv_pos_site_id
 _symmetry_equiv_pos_as_xyz
  1  'x, y, z'
loop_
 _atom_site_type_symbol
 _atom_site_label
 _atom_site_symmetry_multiplicity
 _atom_site_fract_x
 _atom_site_fract_y
 _atom_site_fract_z
 _atom_site_occupancy
  Fe  Fe0  1  0.12412312  0.37171872  0.62027314  1
  Fe  Fe1  1  0.00257913  -0.00002739  0.49983478  1
  Fe  Fe2  1  0.74908184  0.00090824  0.24856677  1
  Fe  Fe3  1  0.25308920  0.74800484  0.25033296  1
  Fe  Fe4  1  0.74902787  0.49982764  0.50175755  1
  Fe  Fe5  1  0.62531524  0.12853585  0.62530053  1
  Fe  Fe6  1  0.62658952  0.37448663  0.37289109  1
  Fe  Fe7  1  0.12375443  0.37721112  0.87384750  1
  Fe  Fe8  1  -0.00386461  0.25255648  0.75289054  1
  Fe  Fe9  1  0.49636514  0.74831788  0.25081228  1
  Fe  Fe10  1  0.62588603  0.87295498  0.12280790  1
  Fe  Fe11  1  0.87311819  0.87626135  0.37590812  1
  Fe  Fe12  1  0.50019933  0.74760408  -0.00172469  1
  Fe  Fe13  1  -0.00165542  0.74715137  0.00035361  1
  Fe  Fe14  1  0.37425827  0.37401128  0.62538729  1
  Fe  Fe15  1  0.62713423  0.12773908  0.87325966  1
  Fe  Fe16  1  0.12399916  0.87570829  0.87540860  1
  Fe  Fe17  1  0.75065607  0.74966034  0.24947540  1
  Fe  Fe18  1  0.50224477  0.49833153  0.74997592  1
  Fe  Fe19  1  0.12280260  0.62315886  0.87467098  1
  Fe  Fe20  1  0.37266440  0.37684477  0.87244302  1
  Fe  Fe21  1  0.37166645  0.11790842  0.37592916  1
  Fe  Fe22  1  0.75323063  0.25067532  0.00089950  1
  Fe  Fe23  1  0.24563048  0.50247455  0.74430598  1
  Fe  Fe24  1  0.87495476  0.87952806  0.87855298  1
  Fe  Fe25  1  0.62390687  0.62695368  0.62531169  1
  Fe  Fe26  1  0.24937849  0.24934925  0.25314090  1
  Fe  Fe27  1  0.50013894  -0.00158023  0.24992095  1
  Fe  Fe28  1  0.37491584  0.62426408  0.87110002  1
  Fe  Fe29  1  -0.00123577  0.74876299  0.75191716  1
  Fe  Fe30  1  0.87508455  0.12341627  0.37551849  1
  Fe  Fe31  1  0.37488376  0.12619169  0.12478780  1
  Fe  Fe32  1  0.49619354  0.75110534  0.49981102  1
  Fe  Fe33  1  0.49974661  0.00112670  -0.00142228  1
  Fe  Fe34  1  0.25058113  0.74741530  -0.00131454  1
  Fe  Fe35  1  0.37165943  0.12663520  0.87316195  1
  Fe  Fe36  1  0.24811241  0.25177766  -0.00088322  1
  Fe  Fe37  1  0.24813399  0.50088663  0.00181410  1
  Fe  Fe38  1  0.50153211  0.00075532  0.74914136  1
  Fe  Fe39  1  -0.00047343  0.49669987  0.49692518  1
  Fe  Fe40  1  0.87744603  0.62424685  0.62392237  1
  Fe  Fe41  1  0.50126041  0.49959369  0.00217403  1
  Fe  Fe42  1  0.62476987  0.87409933  0.37674124  1
  Fe  Fe43  1  0.49927667  0.50020965  0.50002675  1
  Fe  Fe44  1  0.62303829  0.12846890  0.12594538  1
  Fe  Fe45  1  0.12408031  0.87115288  0.62527740  1
  Fe  Fe46  1  0.37345727  0.87376593  0.87044463  1
  Fe  Fe47  1  0.00181990  -0.00220333  0.24990303  1
  Fe  Fe48  1  0.12153109  0.37674544  0.12775910  1
  Fe  Fe49  1  0.12839456  0.62339485  0.37755558  1
  Fe  Fe50  1  0.74870192  -0.00035615  0.50023199  1
  Fe  Fe51  1  0.62802604  0.87513242  0.87695577  1
  Fe  Fe52  1  0.49737775  0.25125948  0.25307415  1
  Fe  Fe53  1  0.00067463  0.25305262  0.25811963  1
  Fe  Fe54  1  0.62527183  0.37132236  0.62556541  1
  Fe  Fe55  1  0.75112605  0.00090475  0.74934304  1
  Fe  Fe56  1  0.12528801  0.87219324  0.12416679  1
  Fe  Fe57  1  0.87744374  0.12585657  0.12515354  1
  Fe  Fe58  1  0.37461805  0.87463248  0.12426635  1
  Fe  Fe59  1  0.62409641  0.62429646  0.37300295  1
  Fe  Fe60  1  0.62757310  0.37319700  0.87491312  1
  Fe  Fe61  1  0.87623038  0.12763994  0.62368705  1
  Fe  Fe62  1  0.24761516  0.00133579  0.00100581  1
  Fe  Fe63  1  0.75169888  0.49732681  0.74703092  1
  Fe  Fe64  1  0.24669252  0.00069609  0.74810417  1
  Fe  Fe65  1  0.75199374  0.74920106  0.75073739  1
  Fe  Fe66  1  0.00030259  0.74788977  0.25150866  1
  Fe  Fe67  1  0.37196153  0.37989957  0.37543932  1
  Fe  Fe68  1  0.12977471  0.87681233  0.37563399  1
  Fe  Fe69  1  0.24915528  0.50263923  0.24833367  1
  Fe  Fe70  1  0.87603247  0.61957088  0.87506982  1
  Fe  Fe71  1  0.74995195  0.49668170  0.24428143  1
  Fe  Fe72  1  0.49717031  0.24999881  0.49822925  1
  Fe  Fe73  1  0.25474924  0.74837917  0.50406357  1
  Fe  Fe74  1  0.37580525  0.37622135  0.12571846  1
  Fe  Fe75  1  0.62516846  0.12557665  0.37532714  1
  Fe  Fe76  1  0.87416184  0.87465527  0.12270915  1
  Fe  Fe77  1  0.49756018  0.25162066  -0.00294499  1
  Fe  Fe78  1  0.75278586  0.25127158  0.49895121  1
  Fe  Fe79  1  -0.00201915  0.75073826  0.49656598  1
  Fe  Fe80  1  0.75155297  0.49845019  0.00649245  1
  Fe  Fe81  1  0.00025099  0.25016388  -0.00375946  1
  Fe  Fe82  1  0.87256266  0.62280125  0.37453777  1
  Fe  Fe83  1  0.87492247  0.87388471  0.62343090  1
  Fe  Fe84  1  0.62764279  0.62351509  0.87587439  1
  Fe  Fe85  1  0.00048711  0.00166750  0.75004973  1
  Fe  Fe86  1  0.37429232  0.12615589  0.62548478  1
  Fe  Fe87  1  0.12346682  0.12688282  0.12645232  1
  Fe  Fe88  1  0.12365637  0.13056276  0.62295739  1
  Fe  Fe89  1  0.62554200  0.87308152  0.62412062  1
  Co  Co90  1  0.62172765  0.37040408  0.12552608  1
  Co  Co91  1  0.50124755  0.49929530  0.24880619  1
  Co  Co92  1  0.88140817  0.37301840  0.12582159  1
  Co  Co93  1  0.75054303  0.74817921  0.49997459  1
  Co  Co94  1  0.12541592  0.12563163  0.87359147  1
  Co  Co95  1  0.24545141  0.74578126  0.74857404  1
  Co  Co96  1  0.37580757  0.62325159  0.12369560  1
  Co  Co97  1  0.11861669  0.62733057  0.62075715  1
  Co  Co98  1  0.37979816  0.62598410  0.62995188  1
  Co  Co99  1  0.24806929  0.00027964  0.24493710  1
  Co  Co100  1  0.00228120  0.49777998  0.74607843  1
  Co  Co101  1  0.87097705  0.37784818  0.37385245  1
  Co  Co102  1  0.75480631  0.25192124  0.75127855  1
  Co  Co103  1  0.74825923  0.00334181  0.00292558  1
  Co  Co104  1  0.37193011  0.87924782  0.37535736  1
  Co  Co105  1  0.12531314  0.62633611  0.12560232  1
  Co  Co106  1  0.87617118  0.37449297  0.62306194  1
  Co  Co107  1  0.50023481  -0.00134724  0.50217598  1
  Co  Co108  1  0.00059803  0.50181940  0.00370649  1
  Co  Co109  1  0.87645719  0.62560816  0.12682878  1
  Co  Co110  1  0.37477896  0.62109201  0.37515824  1
  Co  Co111  1  0.75230781  0.74704930  -0.00120273  1
  Co  Co112  1  0.25145171  0.24851980  0.49591549  1
  Co  Co113  1  0.00096847  0.50194311  0.25299460  1
  Co  Co114  1  0.37524958  0.87364548  0.63017934  1
  Co  Co115  1  -0.00091747  0.25249898  0.49323728  1
  Co  Co116  1  0.13011315  0.37951005  0.37661377  1
  Co  Co117  1  0.12652012  0.12109925  0.37565700  1
  Co  Co118  1  0.24802433  -0.00068287  0.50607548  1
  Co  Co119  1  0.00342475  0.00114167  0.00209257  1
  Co  Co120  1  0.75194456  0.24984804  0.24879711  1
  Co  Co121  1  0.25182519  0.50325394  0.50664783  1
  Co  Co122  1  0.50492354  0.75036283  0.75257285  1
  Co  Co123  1  0.62402297  0.62696094  0.12575960  1
  Co  Co124  1  0.24876286  0.25242818  0.75053899  1
  Co  Co125  1  0.87581275  0.38030155  0.87675936  1
  Co  Co126  1  0.49858322  0.25138937  0.75101142  1
  Co  Co127  1  0.87524091  0.12183615  0.87596193  1
