# generated using pymatgen
data_Fe45Co19
_symmetry_space_group_name_H-M   'P 1'
_cell_length_a   11.41502578
_cell_length_b   11.41492746
_cell_length_c   11.41565509
_cell_angle_alpha   90.00381689
_cell_angle_beta   90.00408867
_cell_angle_gamma   89.99466811
_symmetry_Int_Tables_number   1
_chemical_formula_structural   Fe45Co19
_chemical_formula_sum   'Fe90 Co38'
_cell_volume   1487.47915179
_cell_formula_units_Z   2
loop_
 _symmetry_equiv_pos_site_id
 _symmetry_equiv_pos_as_xyz
  1  'x, y, z'
loop_
 _atom_site_type_symbol
 _atom_site_label
 _atom_site_symmetry_multiplicity
 _atom_site_fract_x
 _atom_site_fract_y
 _atom_site_fract_z
 _atom_site_occupancy
  Fe  Fe0  1  0.74771411  0.74814309  0.49890275  1
  Fe  Fe1  1  0.62369040  0.12441478  0.37509782  1
  Fe  Fe2  1  0.62379184  0.12400702  0.12329306  1
  Fe  Fe3  1  0.87354780  0.62534453  0.62691508  1
  Fe  Fe4  1  0.74831517  0.25312908  0.75034187  1
  Fe  Fe5  1  0.87632314  0.37502105  0.87727678  1
  Fe  Fe6  1  0.12685515  0.62432066  0.87637986  1
  Fe  Fe7  1  0.37569090  0.37560885  0.62649957  1
  Fe  Fe8  1  0.62600646  0.62240174  0.62674520  1
  Fe  Fe9  1  0.49948597  -0.00163689  0.75099371  1
  Fe  Fe10  1  0.00019696  0.74985175  0.50038993  1
  Fe  Fe11  1  0.25081451  0.74824786  0.74813260  1
  Fe  Fe12  1  0.37366716  0.37517370  0.37394289  1
  Fe  Fe13  1  0.12426238  0.37655800  0.87923856  1
  Fe  Fe14  1  0.25198453  0.75079573  0.50009003  1
  Fe  Fe15  1  0.62445164  0.87688403  0.62399665  1
  Fe  Fe16  1  0.37611169  0.12444521  0.37391250  1
  Fe  Fe17  1  0.37359512  0.12454977  0.87526082  1
  Fe  Fe18  1  0.87572307  0.87235506  0.62715288  1
  Fe  Fe19  1  0.50237134  0.75098341  0.75234079  1
  Fe  Fe20  1  0.62649168  0.37674892  0.37525398  1
  Fe  Fe21  1  -0.00245405  0.49810630  0.49564687  1
  Fe  Fe22  1  0.75144231  0.24955382  0.00209929  1
  Fe  Fe23  1  0.49862871  0.25005530  0.49960631  1
  Fe  Fe24  1  0.12394534  0.87402879  0.62584795  1
  Fe  Fe25  1  0.24825922  0.25188194  0.74871426  1
  Fe  Fe26  1  -0.00040193  -0.00120167  -0.00116785  1
  Fe  Fe27  1  0.25337939  0.50152213  0.50156797  1
  Fe  Fe28  1  0.75092161  -0.00123220  0.75038860  1
  Fe  Fe29  1  0.12437260  0.37483386  0.62112064  1
  Fe  Fe30  1  0.50063446  0.75020227  -0.00376242  1
  Fe  Fe31  1  0.50153794  0.49951553  0.74923804  1
  Fe  Fe32  1  0.50031718  0.75078536  0.49972276  1
  Fe  Fe33  1  0.74931526  -0.00081924  0.24985476  1
  Fe  Fe34  1  0.24919536  -0.00030085  0.75017143  1
  Fe  Fe35  1  0.00017633  0.50079836  0.75159415  1
  Fe  Fe36  1  0.62501414  0.62448959  0.12274087  1
  Fe  Fe37  1  0.12530057  0.12612857  0.37774306  1
  Fe  Fe38  1  0.00194621  -0.00306902  0.25069328  1
  Fe  Fe39  1  0.87305881  0.87226487  0.12414703  1
  Fe  Fe40  1  0.75077095  0.25069302  0.50025915  1
  Fe  Fe41  1  0.37564180  0.12445816  0.12567978  1
  Fe  Fe42  1  0.50169751  0.25134652  0.75143410  1
  Fe  Fe43  1  0.37340181  0.37749790  0.87559348  1
  Fe  Fe44  1  0.87758716  0.12532608  0.12692852  1
  Fe  Fe45  1  0.62775403  0.87557014  0.12202659  1
  Fe  Fe46  1  0.37444854  0.62842524  0.12578832  1
  Fe  Fe47  1  0.37418254  0.62207815  0.87297579  1
  Fe  Fe48  1  0.37616648  0.12402258  0.62652901  1
  Fe  Fe49  1  0.12850765  0.87188357  0.12230365  1
  Fe  Fe50  1  0.49936199  0.49994403  0.24890023  1
  Fe  Fe51  1  0.87446509  0.87301679  0.37373514  1
  Fe  Fe52  1  -0.00100916  -0.00065361  0.50030777  1
  Fe  Fe53  1  0.87063589  0.62710585  0.87371580  1
  Fe  Fe54  1  0.50281718  0.75278031  0.25113055  1
  Fe  Fe55  1  0.87385430  0.62561617  0.37301916  1
  Fe  Fe56  1  0.87676288  0.12626479  0.87310161  1
  Fe  Fe57  1  0.24752807  0.50028751  0.24740688  1
  Fe  Fe58  1  0.37526500  0.37436608  0.12427331  1
  Fe  Fe59  1  0.74785318  0.25005901  0.24807338  1
  Fe  Fe60  1  0.62653565  0.12301739  0.87707145  1
  Fe  Fe61  1  0.37578319  0.62695585  0.37352101  1
  Fe  Fe62  1  0.00325885  0.25459211  0.25413287  1
  Fe  Fe63  1  0.88002883  0.37708691  0.12566651  1
  Fe  Fe64  1  0.12436480  0.62497207  0.12229755  1
  Fe  Fe65  1  0.62414375  0.12505198  0.62522786  1
  Fe  Fe66  1  0.87335737  0.87154011  0.87446509  1
  Fe  Fe67  1  0.49975656  -0.00332704  0.25046271  1
  Fe  Fe68  1  0.62582128  0.37918911  0.87838972  1
  Fe  Fe69  1  0.12182139  0.12671075  0.62474662  1
  Fe  Fe70  1  0.12427231  0.62354207  0.62443403  1
  Fe  Fe71  1  0.75132149  0.00057473  0.49971975  1
  Fe  Fe72  1  0.25182987  -0.00208445  0.49993617  1
  Fe  Fe73  1  0.87434015  0.37612715  0.62411195  1
  Fe  Fe74  1  0.12682162  0.87276524  0.87590507  1
  Fe  Fe75  1  0.62364331  0.37640793  0.12330183  1
  Fe  Fe76  1  0.12265089  0.12592654  0.87435452  1
  Fe  Fe77  1  0.74957717  0.50235326  0.24922008  1
  Fe  Fe78  1  0.50014657  0.50089898  0.50031021  1
  Fe  Fe79  1  0.12558743  0.62505605  0.37562113  1
  Fe  Fe80  1  0.00214885  0.74993920  0.25006588  1
  Fe  Fe81  1  0.87578174  0.62639550  0.12470558  1
  Fe  Fe82  1  0.49939669  0.25044892  -0.00020919  1
  Fe  Fe83  1  0.87583382  0.12613916  0.37301084  1
  Fe  Fe84  1  0.12378968  0.12496021  0.12473064  1
  Fe  Fe85  1  0.49607098  -0.00303023  -0.00038423  1
  Fe  Fe86  1  0.87777942  0.12661263  0.62806104  1
  Fe  Fe87  1  0.24997307  -0.00367830  0.25055970  1
  Fe  Fe88  1  0.24885944  0.24960210  0.00187096  1
  Fe  Fe89  1  0.24844020  0.25190161  0.24945942  1
  Co  Co90  1  0.24962461  0.00129661  0.00031485  1
  Co  Co91  1  0.75115074  0.49780449  0.74982368  1
  Co  Co92  1  0.24767780  0.74937101  0.25194286  1
  Co  Co93  1  0.75453979  0.00148265  0.00022428  1
  Co  Co94  1  0.74540047  0.75090493  0.74961531  1
  Co  Co95  1  0.49715925  0.50175828  0.00141459  1
  Co  Co96  1  0.62466648  0.37588410  0.62345237  1
  Co  Co97  1  0.12943052  0.37577619  0.37844258  1
  Co  Co98  1  0.74773642  0.74892713  0.24993980  1
  Co  Co99  1  0.25347600  0.74721956  -0.00242949  1
  Co  Co100  1  -0.00055211  0.24747161  0.00072535  1
  Co  Co101  1  -0.00008584  -0.00305120  0.75102877  1
  Co  Co102  1  0.00231345  0.50049346  0.25290380  1
  Co  Co103  1  0.37232411  0.87187261  0.12500942  1
  Co  Co104  1  0.62675519  0.62022138  0.87474989  1
  Co  Co105  1  0.37523704  0.87279424  0.37408546  1
  Co  Co106  1  0.24783736  0.49928688  0.74830041  1
  Co  Co107  1  -0.00289949  0.25121677  0.49770458  1
  Co  Co108  1  0.25371716  0.24850091  0.50185396  1
  Co  Co109  1  0.00134894  0.25418360  0.74925138  1
  Co  Co110  1  0.75260102  0.50064399  0.00243426  1
  Co  Co111  1  0.62366371  0.62343821  0.37406490  1
  Co  Co112  1  -0.00199470  0.50470844  -0.00281291  1
  Co  Co113  1  0.00176560  0.74781968  0.75058676  1
  Co  Co114  1  0.37550845  0.87468428  0.62688185  1
  Co  Co115  1  0.12389762  0.87378057  0.37645913  1
  Co  Co116  1  0.75017780  0.50246203  0.49960605  1
  Co  Co117  1  0.37213861  0.87511282  0.87369469  1
  Co  Co118  1  -0.00055740  0.74984832  -0.00095020  1
  Co  Co119  1  0.87069880  0.37591421  0.37236344  1
  Co  Co120  1  0.49855894  -0.00080183  0.49900438  1
  Co  Co121  1  0.25169806  0.50107010  0.00306901  1
  Co  Co122  1  0.62668846  0.87862378  0.87672217  1
  Co  Co123  1  0.62721919  0.87585395  0.37621641  1
  Co  Co124  1  0.12085794  0.37697744  0.12173316  1
  Co  Co125  1  0.50053768  0.25090073  0.25038758  1
  Co  Co126  1  0.74674998  0.74858182  -0.00103302  1
  Co  Co127  1  0.37642261  0.62533934  0.62714521  1
