# generated using pymatgen
data_Fe45Co19
_symmetry_space_group_name_H-M   'P 1'
_cell_length_a   11.41507119
_cell_length_b   11.41598531
_cell_length_c   11.41528755
_cell_angle_alpha   89.99611067
_cell_angle_beta   89.99829355
_cell_angle_gamma   89.99745832
_symmetry_Int_Tables_number   1
_chemical_formula_structural   Fe45Co19
_chemical_formula_sum   'Fe90 Co38'
_cell_volume   1487.57502995
_cell_formula_units_Z   2
loop_
 _symmetry_equiv_pos_site_id
 _symmetry_equiv_pos_as_xyz
  1  'x, y, z'
loop_
 _atom_site_type_symbol
 _atom_site_label
 _atom_site_symmetry_multiplicity
 _atom_site_fract_x
 _atom_site_fract_y
 _atom_site_fract_z
 _atom_site_occupancy
  Fe  Fe0  1  0.37461076  0.62428099  0.62645112  1
  Fe  Fe1  1  0.87475781  0.12362055  0.12713834  1
  Fe  Fe2  1  0.12647935  0.12556492  0.37477984  1
  Fe  Fe3  1  -0.00215557  0.50264047  0.00095882  1
  Fe  Fe4  1  0.24971802  0.74759560  0.49648727  1
  Fe  Fe5  1  0.00078823  0.75025106  0.25027147  1
  Fe  Fe6  1  0.50297390  0.00246600  0.25246721  1
  Fe  Fe7  1  0.75209719  0.75231070  0.49762578  1
  Fe  Fe8  1  0.12548748  0.12480302  0.12456048  1
  Fe  Fe9  1  0.12765329  0.37366762  0.37484226  1
  Fe  Fe10  1  0.75293470  0.50217743  -0.00023885  1
  Fe  Fe11  1  0.12535307  0.87371025  0.87632635  1
  Fe  Fe12  1  0.12488926  0.87594589  0.12395130  1
  Fe  Fe13  1  0.37384869  0.62443773  0.87400171  1
  Fe  Fe14  1  0.75109544  0.24904299  0.00115691  1
  Fe  Fe15  1  0.87647977  0.37749823  0.62465159  1
  Fe  Fe16  1  0.62568315  0.62549331  0.87588851  1
  Fe  Fe17  1  0.49895432  0.25093409  -0.00111838  1
  Fe  Fe18  1  0.12383341  0.62328764  0.62331139  1
  Fe  Fe19  1  0.87302569  0.12302177  0.37628577  1
  Fe  Fe20  1  0.50000770  0.75181142  0.24831619  1
  Fe  Fe21  1  0.12504098  0.37606481  0.12771047  1
  Fe  Fe22  1  0.12283712  0.12864938  0.87198265  1
  Fe  Fe23  1  0.74781076  0.24833882  0.25058984  1
  Fe  Fe24  1  0.62549760  0.37395938  0.12383865  1
  Fe  Fe25  1  0.24955496  0.49978076  -0.00012735  1
  Fe  Fe26  1  0.50064601  0.00116336  0.49872302  1
  Fe  Fe27  1  0.25187258  0.75150600  0.00218683  1
  Fe  Fe28  1  0.62661036  0.12607377  0.62216349  1
  Fe  Fe29  1  0.24828766  0.75018105  0.74808953  1
  Fe  Fe30  1  0.62465188  0.62497467  0.12468482  1
  Fe  Fe31  1  0.75040022  -0.00123612  0.75016761  1
  Fe  Fe32  1  0.37252694  0.37505363  0.12791222  1
  Fe  Fe33  1  0.00173868  0.50017113  0.49826066  1
  Fe  Fe34  1  0.87773847  0.87179907  0.87582212  1
  Fe  Fe35  1  0.74811139  0.49965333  0.25041205  1
  Fe  Fe36  1  0.87559946  0.37542627  0.12643075  1
  Fe  Fe37  1  0.87737921  0.37404144  0.87472123  1
  Fe  Fe38  1  0.12538431  0.62352448  0.12919447  1
  Fe  Fe39  1  0.25033588  0.00237978  0.50127508  1
  Fe  Fe40  1  0.75104568  0.00034334  -0.00061991  1
  Fe  Fe41  1  0.49647113  0.24913108  0.49970264  1
  Fe  Fe42  1  0.62635912  0.12579078  0.87630477  1
  Fe  Fe43  1  0.24828235  0.00156626  0.74911813  1
  Fe  Fe44  1  0.37332452  0.62496665  0.12915819  1
  Fe  Fe45  1  0.37291454  0.37613331  0.62556524  1
  Fe  Fe46  1  0.62486246  0.87651870  0.12318222  1
  Fe  Fe47  1  0.62527713  0.87447882  0.62368433  1
  Fe  Fe48  1  0.00063305  0.24882984  0.24967161  1
  Fe  Fe49  1  0.87846697  0.12776622  0.87328194  1
  Fe  Fe50  1  0.50191797  -0.00225257  0.75190171  1
  Fe  Fe51  1  0.87554330  0.12196401  0.62342488  1
  Fe  Fe52  1  0.87885320  0.87666453  0.62125335  1
  Fe  Fe53  1  0.50069758  0.24757460  0.25105187  1
  Fe  Fe54  1  0.62431452  0.62472358  0.62381261  1
  Fe  Fe55  1  0.25171116  0.24617844  0.50349821  1
  Fe  Fe56  1  0.87606221  0.87597710  0.12760951  1
  Fe  Fe57  1  0.25013432  0.24993420  -0.00005604  1
  Fe  Fe58  1  0.50207451  0.49740053  0.75029141  1
  Fe  Fe59  1  0.49792307  0.74924612  0.50093414  1
  Fe  Fe60  1  0.12180980  0.87552101  0.37652638  1
  Fe  Fe61  1  0.62148037  0.62396487  0.37658979  1
  Fe  Fe62  1  0.49950127  0.75209565  0.75231068  1
  Fe  Fe63  1  0.75288750  0.74782805  0.00104987  1
  Fe  Fe64  1  0.87707332  0.62437193  0.37333606  1
  Fe  Fe65  1  0.37510590  0.87539545  0.37379099  1
  Fe  Fe66  1  0.74978202  0.25200101  0.74795731  1
  Fe  Fe67  1  0.12280842  0.37193925  0.87413316  1
  Fe  Fe68  1  0.49659263  0.75332026  -0.00186158  1
  Fe  Fe69  1  0.37287100  0.12546498  0.87287866  1
  Fe  Fe70  1  0.12166053  0.62755543  0.87496599  1
  Fe  Fe71  1  0.00047493  0.00137296  -0.00085023  1
  Fe  Fe72  1  0.74833021  0.49865660  0.75057910  1
  Fe  Fe73  1  0.74947025  0.75133390  0.25261948  1
  Fe  Fe74  1  0.25394835  0.50303577  0.49351881  1
  Fe  Fe75  1  0.87558346  0.37459349  0.37454858  1
  Fe  Fe76  1  0.49782229  -0.00269335  -0.00289164  1
  Fe  Fe77  1  0.37438792  0.12285039  0.12554367  1
  Fe  Fe78  1  0.62341792  0.37393154  0.37818170  1
  Fe  Fe79  1  0.24731285  0.49832606  0.75152939  1
  Fe  Fe80  1  0.75139929  0.75084650  0.74947692  1
  Fe  Fe81  1  0.74821694  0.49905158  0.50018361  1
  Fe  Fe82  1  0.50013789  0.25293556  0.75139276  1
  Fe  Fe83  1  0.24907510  -0.00059586  0.24958651  1
  Fe  Fe84  1  0.49880001  0.49867800  0.00038749  1
  Fe  Fe85  1  0.74634747  -0.00038203  0.25395582  1
  Fe  Fe86  1  0.37423939  0.87598969  0.62568300  1
  Fe  Fe87  1  0.00094783  0.24852394  0.50231058  1
  Fe  Fe88  1  0.12221685  0.87656913  0.62251708  1
  Fe  Fe89  1  0.87739338  0.62389661  0.62647777  1
  Co  Co90  1  0.12284338  0.12348246  0.62748340  1
  Co  Co91  1  0.37220926  0.12358686  0.37331912  1
  Co  Co92  1  0.37252287  0.37578063  0.87476361  1
  Co  Co93  1  0.87541828  0.62517917  0.12999701  1
  Co  Co94  1  0.75382221  0.25203157  0.50180885  1
  Co  Co95  1  0.00209014  0.00262650  0.24955821  1
  Co  Co96  1  0.25198800  0.50097498  0.25428125  1
  Co  Co97  1  -0.00024009  0.49766307  0.25080595  1
  Co  Co98  1  0.37915300  0.62822297  0.37089747  1
  Co  Co99  1  -0.00034318  0.24944452  0.00400517  1
  Co  Co100  1  0.62730218  0.37495237  0.87816333  1
  Co  Co101  1  0.12873827  0.37742943  0.62072770  1
  Co  Co102  1  0.24873578  0.00178547  -0.00083433  1
  Co  Co103  1  0.87958890  0.87656026  0.37429909  1
  Co  Co104  1  0.50033423  0.49766333  0.24979350  1
  Co  Co105  1  0.37445281  0.87795863  0.12752236  1
  Co  Co106  1  -0.00014736  0.74858072  0.00370699  1
  Co  Co107  1  0.62432033  0.12382802  0.12189888  1
  Co  Co108  1  0.74852713  -0.00447827  0.49746687  1
  Co  Co109  1  0.87738366  0.62634195  0.87107064  1
  Co  Co110  1  0.37746582  0.12340947  0.62770255  1
  Co  Co111  1  0.49602454  0.49958193  0.50020627  1
  Co  Co112  1  0.36967758  0.87542155  0.87234634  1
  Co  Co113  1  0.00160508  0.75132055  0.74697355  1
  Co  Co114  1  0.00284684  0.49870763  0.74998169  1
  Co  Co115  1  0.62371297  0.37329890  0.62167964  1
  Co  Co116  1  0.24823540  0.75208397  0.25189239  1
  Co  Co117  1  -0.00025691  0.74731666  0.49980072  1
  Co  Co118  1  -0.00025377  -0.00192735  0.75195152  1
  Co  Co119  1  0.24969939  0.25041137  0.74743777  1
  Co  Co120  1  0.00146262  0.00382587  0.49858755  1
  Co  Co121  1  0.62850886  0.87361737  0.87671464  1
  Co  Co122  1  0.62191471  0.87260956  0.37621556  1
  Co  Co123  1  0.62759984  0.12837814  0.38056181  1
  Co  Co124  1  0.37359119  0.37139223  0.37305359  1
  Co  Co125  1  0.12211920  0.62433782  0.37184498  1
  Co  Co126  1  0.24897770  0.24853909  0.24772901  1
  Co  Co127  1  -0.00013490  0.25267997  0.74323356  1
