# generated using pymatgen
data_Fe45Co19
_symmetry_space_group_name_H-M   'P 1'
_cell_length_a   11.41613258
_cell_length_b   11.41560537
_cell_length_c   11.41462068
_cell_angle_alpha   89.99656067
_cell_angle_beta   89.99846479
_cell_angle_gamma   89.99720591
_symmetry_Int_Tables_number   1
_chemical_formula_structural   Fe45Co19
_chemical_formula_sum   'Fe90 Co38'
_cell_volume   1487.57692586
_cell_formula_units_Z   2
loop_
 _symmetry_equiv_pos_site_id
 _symmetry_equiv_pos_as_xyz
  1  'x, y, z'
loop_
 _atom_site_type_symbol
 _atom_site_label
 _atom_site_symmetry_multiplicity
 _atom_site_fract_x
 _atom_site_fract_y
 _atom_site_fract_z
 _atom_site_occupancy
  Fe  Fe0  1  0.49593147  0.00044839  0.75175697  1
  Fe  Fe1  1  0.62115446  0.12490600  0.87669683  1
  Fe  Fe2  1  0.49730974  0.49896651  0.74929502  1
  Fe  Fe3  1  0.25032967  0.49998260  0.25119373  1
  Fe  Fe4  1  0.37429120  0.12747853  0.12532834  1
  Fe  Fe5  1  0.00105321  0.25172472  -0.00340784  1
  Fe  Fe6  1  0.12679495  0.63332063  0.87325893  1
  Fe  Fe7  1  0.25149062  0.49997934  0.50094539  1
  Fe  Fe8  1  0.00408853  0.25030474  0.50098324  1
  Fe  Fe9  1  0.87459464  0.87422685  0.12371769  1
  Fe  Fe10  1  0.00263087  0.75059716  0.50440263  1
  Fe  Fe11  1  -0.00037356  0.50127173  -0.00306619  1
  Fe  Fe12  1  0.37319997  0.37487874  0.87540118  1
  Fe  Fe13  1  0.37556819  0.87328984  0.37737067  1
  Fe  Fe14  1  0.24804663  0.75007160  0.50687434  1
  Fe  Fe15  1  0.74871157  0.24866208  0.50251122  1
  Fe  Fe16  1  0.50179381  0.49662898  0.50334866  1
  Fe  Fe17  1  0.12601078  0.37516529  0.87401309  1
  Fe  Fe18  1  0.87398684  0.62685645  0.62822066  1
  Fe  Fe19  1  0.74742706  0.75203531  -0.00459220  1
  Fe  Fe20  1  0.74681394  0.74854618  0.24957733  1
  Fe  Fe21  1  0.75006755  0.00114356  0.50104800  1
  Fe  Fe22  1  0.25127154  0.74852625  0.24842724  1
  Fe  Fe23  1  0.12663567  0.37779272  0.62691264  1
  Fe  Fe24  1  0.12422592  0.62617183  0.12380046  1
  Fe  Fe25  1  0.87323741  0.87249772  0.37540662  1
  Fe  Fe26  1  0.75168367  0.00254011  0.75269396  1
  Fe  Fe27  1  -0.00251442  0.49935969  0.50137878  1
  Fe  Fe28  1  0.75005062  -0.00087270  -0.00445013  1
  Fe  Fe29  1  0.00040386  0.49996933  0.24990792  1
  Fe  Fe30  1  0.49597209  0.74877847  0.74959843  1
  Fe  Fe31  1  0.25204655  0.00054399  0.25116321  1
  Fe  Fe32  1  0.37812594  0.62257770  0.12058828  1
  Fe  Fe33  1  0.12488592  0.62445374  0.37741293  1
  Fe  Fe34  1  0.87520426  0.62661270  0.37489677  1
  Fe  Fe35  1  -0.00096426  0.50193327  0.75242734  1
  Fe  Fe36  1  0.87618790  0.12601521  0.37571573  1
  Fe  Fe37  1  0.12489243  0.12154134  0.62608337  1
  Fe  Fe38  1  0.37616427  0.13008166  0.37570187  1
  Fe  Fe39  1  0.00453963  0.25035546  0.25132583  1
  Fe  Fe40  1  0.74604421  0.74712169  0.50140285  1
  Fe  Fe41  1  0.87348884  0.37045315  0.63040299  1
  Fe  Fe42  1  0.24832952  0.24885022  0.74912784  1
  Fe  Fe43  1  0.49925929  0.49440915  0.24732485  1
  Fe  Fe44  1  0.25027974  -0.00123340  -0.00223873  1
  Fe  Fe45  1  0.50299872  0.74886634  0.50199241  1
  Fe  Fe46  1  0.62198054  0.12677726  0.37265964  1
  Fe  Fe47  1  0.62163028  0.87863419  0.12286230  1
  Fe  Fe48  1  0.87511358  0.62672290  0.12143162  1
  Fe  Fe49  1  0.50024654  0.25287460  0.74650656  1
  Fe  Fe50  1  0.50037885  0.75009793  0.24881257  1
  Fe  Fe51  1  0.12827583  0.37486783  0.12362565  1
  Fe  Fe52  1  0.00316231  -0.00663018  -0.00277423  1
  Fe  Fe53  1  0.62156910  0.12343965  0.12402659  1
  Fe  Fe54  1  0.62511066  0.37375109  0.37531220  1
  Fe  Fe55  1  0.87728036  0.12419748  0.12230368  1
  Fe  Fe56  1  0.62139667  0.62567026  0.87407961  1
  Fe  Fe57  1  0.25007196  0.50252055  -0.00262544  1
  Fe  Fe58  1  0.62576871  0.37369523  0.87390210  1
  Fe  Fe59  1  0.62438708  0.87585627  0.37417486  1
  Fe  Fe60  1  0.12635433  0.12415846  0.12420122  1
  Fe  Fe61  1  0.37331832  0.36981946  0.37734111  1
  Fe  Fe62  1  0.75178201  0.24891384  -0.00297010  1
  Fe  Fe63  1  0.00122758  0.75029550  0.24905704  1
  Fe  Fe64  1  0.50052615  0.00118860  0.49952288  1
  Fe  Fe65  1  0.37453891  0.12726070  0.62395480  1
  Fe  Fe66  1  0.75089087  0.50151892  0.75165118  1
  Fe  Fe67  1  0.87570130  0.37375984  0.37493843  1
  Fe  Fe68  1  0.74968368  0.24908398  0.24842762  1
  Fe  Fe69  1  0.25332725  0.50478851  0.75013272  1
  Fe  Fe70  1  0.37718273  0.62574024  0.37721123  1
  Fe  Fe71  1  -0.00167653  -0.00127715  0.75145694  1
  Fe  Fe72  1  0.74996072  0.00059131  0.25007909  1
  Fe  Fe73  1  0.62267545  0.62230931  0.12254601  1
  Fe  Fe74  1  0.49853526  0.25491816  0.00368164  1
  Fe  Fe75  1  0.25170571  -0.00013294  0.50185319  1
  Fe  Fe76  1  0.62426588  0.87522167  0.62917823  1
  Fe  Fe77  1  0.37615607  0.87588778  0.12365749  1
  Fe  Fe78  1  0.12514310  0.12294049  0.87436712  1
  Fe  Fe79  1  0.75136537  0.50010230  -0.00393347  1
  Fe  Fe80  1  0.87502477  0.37478371  0.12319201  1
  Fe  Fe81  1  0.75064723  0.50082761  0.25055626  1
  Fe  Fe82  1  0.37545590  0.12860376  0.87590173  1
  Fe  Fe83  1  0.87274224  0.87371277  0.62757564  1
  Fe  Fe84  1  -0.00060677  -0.00117688  0.25103447  1
  Fe  Fe85  1  0.74936332  0.50153468  0.50119250  1
  Fe  Fe86  1  0.62461119  0.12486526  0.62707465  1
  Fe  Fe87  1  -0.00229519  -0.00098135  0.50059178  1
  Fe  Fe88  1  0.37059019  0.87073149  0.87385285  1
  Fe  Fe89  1  0.12649165  0.87570705  0.37516043  1
  Co  Co90  1  0.12576554  0.37933646  0.37688771  1
  Co  Co91  1  0.13104171  0.87070664  0.86921721  1
  Co  Co92  1  0.50237241  0.25114491  0.50463619  1
  Co  Co93  1  0.63026625  0.37621176  0.12313866  1
  Co  Co94  1  0.87498317  0.37355210  0.87258519  1
  Co  Co95  1  0.62212470  0.62183267  0.37350501  1
  Co  Co96  1  0.62173938  0.87665370  0.87121779  1
  Co  Co97  1  0.37437193  0.62781836  0.87777535  1
  Co  Co98  1  0.00215030  0.75402869  -0.00023556  1
  Co  Co99  1  0.49748065  0.00016543  0.25184223  1
  Co  Co100  1  0.87619453  0.87279586  0.87305225  1
  Co  Co101  1  0.24875663  0.24897916  -0.00317328  1
  Co  Co102  1  0.62335083  0.62439442  0.62889785  1
  Co  Co103  1  0.87737810  0.62860215  0.87558655  1
  Co  Co104  1  0.24646859  0.25016686  0.25246666  1
  Co  Co105  1  0.49928390  0.25402717  0.24529910  1
  Co  Co106  1  0.49545667  -0.00097331  -0.00300163  1
  Co  Co107  1  0.36738422  0.37538075  0.12204415  1
  Co  Co108  1  0.00160783  0.75022403  0.74696275  1
  Co  Co109  1  0.12410970  0.62004908  0.62517617  1
  Co  Co110  1  0.37781601  0.87687005  0.62394690  1
  Co  Co111  1  0.25251507  0.74722426  0.74041804  1
  Co  Co112  1  0.24959291  0.75077253  0.00457183  1
  Co  Co113  1  0.74935287  0.24485749  0.75329511  1
  Co  Co114  1  0.25463200  0.00213338  0.75124373  1
  Co  Co115  1  0.12582484  0.88032340  0.62931900  1
  Co  Co116  1  0.12502438  0.11993466  0.37622766  1
  Co  Co117  1  0.87864685  0.12480297  0.87640386  1
  Co  Co118  1  0.37098920  0.37407726  0.62532958  1
  Co  Co119  1  0.12672143  0.87652909  0.12764274  1
  Co  Co120  1  0.50123073  0.75201015  -0.00119798  1
  Co  Co121  1  0.49980527  0.49571399  -0.00154934  1
  Co  Co122  1  0.37788554  0.62285484  0.62185778  1
  Co  Co123  1  0.87632783  0.12772176  0.62606457  1
  Co  Co124  1  0.74939422  0.74989379  0.75316937  1
  Co  Co125  1  0.00367530  0.24910213  0.75150043  1
  Co  Co126  1  0.62906528  0.37538047  0.62771542  1
  Co  Co127  1  0.24478061  0.24869782  0.50149546  1
