# generated using pymatgen
data_Fe45Co19
_symmetry_space_group_name_H-M   'P 1'
_cell_length_a   11.41645567
_cell_length_b   11.41490546
_cell_length_c   11.41595964
_cell_angle_alpha   89.98605123
_cell_angle_beta   90.00485408
_cell_angle_gamma   89.99434178
_symmetry_Int_Tables_number   1
_chemical_formula_structural   Fe45Co19
_chemical_formula_sum   'Fe90 Co38'
_cell_volume   1487.70225541
_cell_formula_units_Z   2
loop_
 _symmetry_equiv_pos_site_id
 _symmetry_equiv_pos_as_xyz
  1  'x, y, z'
loop_
 _atom_site_type_symbol
 _atom_site_label
 _atom_site_symmetry_multiplicity
 _atom_site_fract_x
 _atom_site_fract_y
 _atom_site_fract_z
 _atom_site_occupancy
  Fe  Fe0  1  0.87768001  0.37489109  0.87353701  1
  Fe  Fe1  1  0.24834042  0.00264253  -0.00397355  1
  Fe  Fe2  1  0.37484733  0.62604043  0.87535455  1
  Fe  Fe3  1  0.74763309  0.50237621  0.75233791  1
  Fe  Fe4  1  0.87668943  0.12474312  0.37432505  1
  Fe  Fe5  1  0.37152318  0.12498561  0.62667970  1
  Fe  Fe6  1  0.12279934  0.12580385  0.37696023  1
  Fe  Fe7  1  0.12357486  0.62708460  0.87376047  1
  Fe  Fe8  1  0.12248273  0.63042886  0.37133185  1
  Fe  Fe9  1  0.00192127  0.75097123  0.00335861  1
  Fe  Fe10  1  0.49771232  0.25130297  0.75030175  1
  Fe  Fe11  1  -0.00086113  0.25340993  0.24583612  1
  Fe  Fe12  1  0.12459999  0.37135023  0.37756903  1
  Fe  Fe13  1  0.74961439  0.50074587  0.25017268  1
  Fe  Fe14  1  0.49980884  0.50073743  0.24926759  1
  Fe  Fe15  1  0.37457755  0.37748248  0.37610714  1
  Fe  Fe16  1  0.62604940  0.37649607  0.12344318  1
  Fe  Fe17  1  0.62260600  0.12700169  0.87439982  1
  Fe  Fe18  1  0.37071142  0.87376184  0.12277751  1
  Fe  Fe19  1  0.24942116  0.24964806  0.24868357  1
  Fe  Fe20  1  0.75233897  0.75044560  0.24983937  1
  Fe  Fe21  1  0.87611174  0.37568840  0.37541761  1
  Fe  Fe22  1  0.50000434  -0.00044371  0.74959506  1
  Fe  Fe23  1  0.00074535  0.24630448  0.74576863  1
  Fe  Fe24  1  0.87791257  0.87547583  0.37483280  1
  Fe  Fe25  1  0.12375380  0.36983357  0.87745687  1
  Fe  Fe26  1  0.62341770  0.87111589  0.87646821  1
  Fe  Fe27  1  0.75036313  -0.00170545  -0.00276750  1
  Fe  Fe28  1  0.12762118  0.87463020  0.62514643  1
  Fe  Fe29  1  0.50073559  -0.00101812  0.00116962  1
  Fe  Fe30  1  0.12782161  0.37050550  0.62263072  1
  Fe  Fe31  1  0.24852670  0.00292526  0.75408125  1
  Fe  Fe32  1  0.75069827  -0.00049618  0.49878576  1
  Fe  Fe33  1  0.25055123  -0.00207498  0.49697872  1
  Fe  Fe34  1  0.37356830  0.62417368  0.37737310  1
  Fe  Fe35  1  -0.00034539  0.75008767  0.50320863  1
  Fe  Fe36  1  0.37238631  0.37486757  0.12343962  1
  Fe  Fe37  1  0.75155791  0.25094024  0.24859487  1
  Fe  Fe38  1  0.24559269  0.50211820  0.00001451  1
  Fe  Fe39  1  0.37549213  0.87402644  0.87547643  1
  Fe  Fe40  1  0.49802284  0.24982980  0.49980055  1
  Fe  Fe41  1  0.49979703  0.50034511  0.00040991  1
  Fe  Fe42  1  0.37445523  0.12397088  0.12383622  1
  Fe  Fe43  1  0.50122128  -0.00269772  0.24686829  1
  Fe  Fe44  1  0.37255507  0.87280257  0.62609205  1
  Fe  Fe45  1  0.00228367  0.50096172  0.50093341  1
  Fe  Fe46  1  0.87241708  0.87294857  0.62827122  1
  Fe  Fe47  1  0.62426682  0.37526109  0.37545666  1
  Fe  Fe48  1  0.62702315  0.12374278  0.12518414  1
  Fe  Fe49  1  0.24822971  -0.00378201  0.25324306  1
  Fe  Fe50  1  0.62432576  0.62641342  0.12257630  1
  Fe  Fe51  1  0.12418989  0.12489611  0.12208378  1
  Fe  Fe52  1  0.37674555  0.12270810  0.37322162  1
  Fe  Fe53  1  0.87847286  0.62453717  0.37322974  1
  Fe  Fe54  1  0.24914367  0.49890422  0.75143481  1
  Fe  Fe55  1  0.49962045  0.25072624  0.24801874  1
  Fe  Fe56  1  0.62505547  0.62569853  0.37642979  1
  Fe  Fe57  1  0.50016746  0.00062329  0.50241540  1
  Fe  Fe58  1  -0.00036832  0.00197845  0.50380027  1
  Fe  Fe59  1  0.62468632  0.12395020  0.37381182  1
  Fe  Fe60  1  0.62591612  0.37484156  0.62632652  1
  Fe  Fe61  1  0.88083713  0.61984318  0.12648861  1
  Fe  Fe62  1  0.13030916  0.62824496  0.62586955  1
  Fe  Fe63  1  0.75051689  -0.00224730  0.75321039  1
  Fe  Fe64  1  0.37529359  0.37298123  0.87814538  1
  Fe  Fe65  1  0.49767609  0.75051954  0.24715652  1
  Fe  Fe66  1  0.62796096  0.12641827  0.62707008  1
  Fe  Fe67  1  0.12232830  0.87465689  0.87533827  1
  Fe  Fe68  1  0.24646183  0.50083025  0.25015829  1
  Fe  Fe69  1  0.87808463  0.62792220  0.87307675  1
  Fe  Fe70  1  0.49834024  0.74728271  0.50253601  1
  Fe  Fe71  1  0.74998058  0.50064091  0.50022396  1
  Fe  Fe72  1  0.00060236  0.00098551  0.74879144  1
  Fe  Fe73  1  0.62754790  0.87170216  0.62484800  1
  Fe  Fe74  1  0.37167323  0.37780768  0.62190719  1
  Fe  Fe75  1  0.50012337  0.74613174  0.74923060  1
  Fe  Fe76  1  0.87214610  0.62725862  0.62685439  1
  Fe  Fe77  1  0.87499240  0.37521275  0.62645341  1
  Fe  Fe78  1  0.00250007  0.50122435  0.74849583  1
  Fe  Fe79  1  0.00093085  -0.00223843  0.24680401  1
  Fe  Fe80  1  0.87350014  0.87784421  0.12371306  1
  Fe  Fe81  1  0.62358369  0.87437721  0.37377590  1
  Fe  Fe82  1  0.87829859  0.12422037  0.87510541  1
  Fe  Fe83  1  0.87410399  0.12326867  0.12376654  1
  Fe  Fe84  1  0.75146683  0.74966630  -0.00004334  1
  Fe  Fe85  1  0.75250323  0.24893533  0.50096162  1
  Fe  Fe86  1  0.37072862  0.62733254  0.12375412  1
  Fe  Fe87  1  0.50098398  0.50276097  0.74833439  1
  Fe  Fe88  1  0.75130122  0.50018007  -0.00321737  1
  Fe  Fe89  1  0.75094058  0.25215208  -0.00213409  1
  Co  Co90  1  -0.00176844  0.75533961  0.24481223  1
  Co  Co91  1  0.62323486  0.62534581  0.87859847  1
  Co  Co92  1  0.24657827  0.74839021  -0.00241440  1
  Co  Co93  1  0.75228970  0.75098112  0.49599574  1
  Co  Co94  1  0.75115523  0.24988890  0.75323005  1
  Co  Co95  1  0.00230893  0.75035973  0.74765445  1
  Co  Co96  1  0.37889107  0.12558501  0.87546179  1
  Co  Co97  1  0.13012953  0.12540301  0.62330046  1
  Co  Co98  1  0.24487295  0.50179246  0.49768045  1
  Co  Co99  1  0.62747378  0.87371706  0.12531291  1
  Co  Co100  1  -0.00303535  0.25156444  0.00402714  1
  Co  Co101  1  0.25118876  0.75353525  0.25310488  1
  Co  Co102  1  0.74721854  0.74934569  0.75411903  1
  Co  Co103  1  0.00251538  0.50004337  -0.00308243  1
  Co  Co104  1  0.25033982  0.75259600  0.49635346  1
  Co  Co105  1  0.87132088  0.12307307  0.62744347  1
  Co  Co106  1  0.50170183  0.50132192  0.50156136  1
  Co  Co107  1  0.49792712  0.75148849  0.00135306  1
  Co  Co108  1  0.12952012  0.87504720  0.12396611  1
  Co  Co109  1  0.00030460  -0.00226054  0.00140424  1
  Co  Co110  1  0.25124970  0.24920302  0.75304375  1
  Co  Co111  1  0.38002566  0.87593780  0.37592906  1
  Co  Co112  1  0.87448172  0.38077974  0.12433150  1
  Co  Co113  1  0.36941329  0.62378507  0.62455451  1
  Co  Co114  1  0.25381923  0.24756128  0.49670905  1
  Co  Co115  1  0.25053708  0.75094064  0.75347224  1
  Co  Co116  1  0.00365266  0.49477553  0.25245204  1
  Co  Co117  1  0.12338131  0.62515676  0.12882204  1
  Co  Co118  1  0.11966073  0.87397525  0.37620653  1
  Co  Co119  1  0.11998619  0.12779916  0.87689991  1
  Co  Co120  1  0.50098859  0.24955861  0.00269828  1
  Co  Co121  1  0.25061861  0.24642500  -0.00060114  1
  Co  Co122  1  -0.00313806  0.24848897  0.50336205  1
  Co  Co123  1  0.62259545  0.37560348  0.87473569  1
  Co  Co124  1  0.12599242  0.37617124  0.12152091  1
  Co  Co125  1  0.75063648  -0.00135220  0.25204237  1
  Co  Co126  1  0.87848377  0.87245683  0.87448686  1
  Co  Co127  1  0.62891819  0.62629678  0.62359173  1
