# generated using pymatgen
data_Fe45Co19
_symmetry_space_group_name_H-M   'P 1'
_cell_length_a   11.41634282
_cell_length_b   11.41488788
_cell_length_c   11.41517688
_cell_angle_alpha   89.98581186
_cell_angle_beta   89.99411524
_cell_angle_gamma   90.00249953
_symmetry_Int_Tables_number   1
_chemical_formula_structural   Fe45Co19
_chemical_formula_sum   'Fe90 Co38'
_cell_volume   1487.58325500
_cell_formula_units_Z   2
loop_
 _symmetry_equiv_pos_site_id
 _symmetry_equiv_pos_as_xyz
  1  'x, y, z'
loop_
 _atom_site_type_symbol
 _atom_site_label
 _atom_site_symmetry_multiplicity
 _atom_site_fract_x
 _atom_site_fract_y
 _atom_site_fract_z
 _atom_site_occupancy
  Fe  Fe0  1  0.62445405  0.87650062  0.37732816  1
  Fe  Fe1  1  0.24783605  0.25124616  0.00413616  1
  Fe  Fe2  1  0.36982574  0.12818456  0.87454730  1
  Fe  Fe3  1  0.87475844  0.12841381  0.37300602  1
  Fe  Fe4  1  0.49803343  0.00423756  0.75174546  1
  Fe  Fe5  1  0.24789605  0.25286404  0.24606832  1
  Fe  Fe6  1  0.75050887  0.00258605  0.00165566  1
  Fe  Fe7  1  0.62444576  0.62244648  0.87603530  1
  Fe  Fe8  1  0.12458574  0.62229158  0.12591339  1
  Fe  Fe9  1  0.87889640  0.37612503  0.62349459  1
  Fe  Fe10  1  0.62285923  0.62202780  0.62557787  1
  Fe  Fe11  1  0.37193883  0.12584257  0.37315925  1
  Fe  Fe12  1  0.50013499  0.24778696  0.24886938  1
  Fe  Fe13  1  0.24844481  0.74940315  0.74817775  1
  Fe  Fe14  1  0.25184940  0.49904994  0.75068752  1
  Fe  Fe15  1  0.87402769  0.87020957  0.37748785  1
  Fe  Fe16  1  0.62296130  0.87889299  0.62436603  1
  Fe  Fe17  1  0.00099053  0.74736431  0.75139290  1
  Fe  Fe18  1  0.37341045  0.62593500  0.37370067  1
  Fe  Fe19  1  0.61992368  0.37126419  0.62576660  1
  Fe  Fe20  1  0.12216878  0.87451015  0.12375371  1
  Fe  Fe21  1  0.62374569  0.37443842  0.37558528  1
  Fe  Fe22  1  0.49928797  0.74791772  0.50121099  1
  Fe  Fe23  1  0.62170532  0.37674685  0.12232948  1
  Fe  Fe24  1  0.24648501  0.25285417  0.74828327  1
  Fe  Fe25  1  0.74765887  0.25053908  0.24593792  1
  Fe  Fe26  1  0.75062919  0.00068865  0.74905903  1
  Fe  Fe27  1  0.37768325  0.62457546  0.62804594  1
  Fe  Fe28  1  0.24984445  0.24946954  0.50160115  1
  Fe  Fe29  1  0.12655740  0.37786918  0.87752545  1
  Fe  Fe30  1  0.87675518  0.87395429  0.12348262  1
  Fe  Fe31  1  0.49843205  0.50015546  0.25028023  1
  Fe  Fe32  1  -0.00000785  -0.00126133  0.25318090  1
  Fe  Fe33  1  0.24952942  0.49686884  0.24874372  1
  Fe  Fe34  1  0.00260939  0.25070768  0.75259780  1
  Fe  Fe35  1  0.00428480  0.25590940  0.24988812  1
  Fe  Fe36  1  0.37328523  0.87418192  0.37857282  1
  Fe  Fe37  1  0.12424485  0.12155890  0.62539645  1
  Fe  Fe38  1  0.49826039  0.49504674  0.75603137  1
  Fe  Fe39  1  0.62583726  0.12307839  0.37445024  1
  Fe  Fe40  1  0.74770852  0.75089560  0.24687174  1
  Fe  Fe41  1  0.74825928  0.74979874  0.74780711  1
  Fe  Fe42  1  0.50216241  0.75088208  0.75044527  1
  Fe  Fe43  1  0.87750973  0.12391457  0.62617341  1
  Fe  Fe44  1  0.12564702  0.87418369  0.87508117  1
  Fe  Fe45  1  0.62099414  0.88045691  0.12299490  1
  Fe  Fe46  1  0.37847302  0.37175410  0.62435696  1
  Fe  Fe47  1  0.87802592  0.12665443  0.12590776  1
  Fe  Fe48  1  0.12351475  0.87699689  0.62185851  1
  Fe  Fe49  1  0.25748137  0.50379854  0.00003166  1
  Fe  Fe50  1  0.00053371  0.00237226  -0.00339418  1
  Fe  Fe51  1  0.25109936  -0.00140291  0.74802856  1
  Fe  Fe52  1  0.50094186  0.75158353  0.24925962  1
  Fe  Fe53  1  0.62989348  0.13054848  0.87394077  1
  Fe  Fe54  1  0.87951571  0.37640665  0.12554135  1
  Fe  Fe55  1  0.74857255  0.25000843  0.50218899  1
  Fe  Fe56  1  0.12706336  0.87299558  0.37917370  1
  Fe  Fe57  1  0.87325900  0.37287445  0.87481119  1
  Fe  Fe58  1  0.62457278  0.87595919  0.87648652  1
  Fe  Fe59  1  0.37564041  0.87113246  0.87664135  1
  Fe  Fe60  1  -0.00013206  0.50255516  0.49166938  1
  Fe  Fe61  1  -0.00240283  0.50384275  -0.00400536  1
  Fe  Fe62  1  0.87828889  0.87442509  0.62438064  1
  Fe  Fe63  1  0.74860684  0.74892539  0.00136038  1
  Fe  Fe64  1  0.75010079  0.49678883  0.74910550  1
  Fe  Fe65  1  0.25105576  0.75223415  0.24645922  1
  Fe  Fe66  1  0.24921777  -0.00113475  0.00095830  1
  Fe  Fe67  1  0.62662170  0.62520305  0.37638096  1
  Fe  Fe68  1  0.12265617  0.37813188  0.62273805  1
  Fe  Fe69  1  0.62274009  0.62204075  0.12331690  1
  Fe  Fe70  1  0.49531903  0.00429379  0.50223678  1
  Fe  Fe71  1  -0.00030491  0.74551750  0.25209297  1
  Fe  Fe72  1  0.75136187  0.49912357  -0.00039580  1
  Fe  Fe73  1  0.87414845  0.87357435  0.87481679  1
  Fe  Fe74  1  0.12360750  0.62185371  0.62543358  1
  Fe  Fe75  1  0.00058313  0.74587290  -0.00262588  1
  Fe  Fe76  1  0.12384065  0.12410292  0.12480612  1
  Fe  Fe77  1  0.75080270  -0.00066463  0.24856874  1
  Fe  Fe78  1  0.87558747  0.62406364  0.62445981  1
  Fe  Fe79  1  0.25326453  0.50089758  0.50032154  1
  Fe  Fe80  1  0.75253365  0.00041594  0.50089985  1
  Fe  Fe81  1  0.00144572  0.24931818  0.49799865  1
  Fe  Fe82  1  0.87376431  0.12775860  0.87415669  1
  Fe  Fe83  1  0.37547417  0.37342796  0.37537304  1
  Fe  Fe84  1  0.37929005  0.87692364  0.12118771  1
  Fe  Fe85  1  0.49936577  0.25048895  -0.00120716  1
  Fe  Fe86  1  0.75246027  0.49932872  0.25048296  1
  Fe  Fe87  1  0.12658746  0.12461548  0.37510447  1
  Fe  Fe88  1  0.25041528  -0.00146536  0.24846985  1
  Fe  Fe89  1  0.74838909  0.49796077  0.50037813  1
  Co  Co90  1  0.37413827  0.12941436  0.62819708  1
  Co  Co91  1  0.37638015  0.62619982  0.12756792  1
  Co  Co92  1  0.00240397  0.74597680  0.49943477  1
  Co  Co93  1  0.00009121  0.50023593  0.25667090  1
  Co  Co94  1  0.62444969  0.12538763  0.62657029  1
  Co  Co95  1  0.49960290  0.00525920  -0.00631615  1
  Co  Co96  1  0.49700300  0.00013032  0.25266096  1
  Co  Co97  1  0.49530496  0.49907136  -0.00350624  1
  Co  Co98  1  0.12286555  0.38104715  0.11989261  1
  Co  Co99  1  0.12848974  0.37514474  0.37780277  1
  Co  Co100  1  -0.00073815  0.00056128  0.49624315  1
  Co  Co101  1  0.49880176  0.50007688  0.49875044  1
  Co  Co102  1  0.00203785  0.24898581  -0.00285287  1
  Co  Co103  1  0.00050429  0.00017868  0.75332449  1
  Co  Co104  1  0.12935377  0.62283752  0.87483336  1
  Co  Co105  1  0.87576347  0.62442035  0.12632792  1
  Co  Co106  1  0.25099574  0.74674681  0.50465424  1
  Co  Co107  1  0.87025119  0.62671079  0.87207880  1
  Co  Co108  1  0.13171044  0.62616555  0.37278142  1
  Co  Co109  1  0.62847392  0.37287256  0.87649961  1
  Co  Co110  1  0.25207354  0.00121712  0.50187807  1
  Co  Co111  1  0.49938474  0.24931800  0.75407426  1
  Co  Co112  1  -0.00064753  0.49968979  0.75370842  1
  Co  Co113  1  0.37708186  0.37408797  0.12602729  1
  Co  Co114  1  0.62200877  0.12248808  0.12502197  1
  Co  Co115  1  0.74685138  0.75021573  0.50494106  1
  Co  Co116  1  0.75281608  0.25298135  0.74487410  1
  Co  Co117  1  0.12925480  0.12484181  0.87410496  1
  Co  Co118  1  0.49987486  0.24690184  0.49750113  1
  Co  Co119  1  0.50155708  0.74731194  0.00135229  1
  Co  Co120  1  0.37130506  0.37117105  0.87527457  1
  Co  Co121  1  0.37483328  0.12421580  0.12396150  1
  Co  Co122  1  0.75102415  0.25073589  0.00601568  1
  Co  Co123  1  0.37650968  0.87348142  0.62631490  1
  Co  Co124  1  0.86848149  0.62786295  0.37570775  1
  Co  Co125  1  0.24927622  0.74891416  0.00239016  1
  Co  Co126  1  0.37577933  0.63038040  0.87234352  1
  Co  Co127  1  0.87231567  0.37204507  0.37469108  1
