# generated using pymatgen
data_Fe45Co19
_symmetry_space_group_name_H-M   'P 1'
_cell_length_a   11.41467446
_cell_length_b   11.41465283
_cell_length_c   11.41459317
_cell_angle_alpha   89.99642209
_cell_angle_beta   89.99502626
_cell_angle_gamma   90.00844116
_symmetry_Int_Tables_number   1
_chemical_formula_structural   Fe45Co19
_chemical_formula_sum   'Fe90 Co38'
_cell_volume   1487.25921151
_cell_formula_units_Z   2
loop_
 _symmetry_equiv_pos_site_id
 _symmetry_equiv_pos_as_xyz
  1  'x, y, z'
loop_
 _atom_site_type_symbol
 _atom_site_label
 _atom_site_symmetry_multiplicity
 _atom_site_fract_x
 _atom_site_fract_y
 _atom_site_fract_z
 _atom_site_occupancy
  Fe  Fe0  1  0.87126365  0.87641829  0.12551415  1
  Fe  Fe1  1  0.62270663  0.87778538  0.87450607  1
  Fe  Fe2  1  0.49438754  -0.00173415  0.75009743  1
  Fe  Fe3  1  0.87357027  0.87666780  0.62572785  1
  Fe  Fe4  1  0.37348004  0.12666030  0.62471130  1
  Fe  Fe5  1  0.74706343  0.75087277  0.25037632  1
  Fe  Fe6  1  0.12380350  0.62503757  0.12287312  1
  Fe  Fe7  1  0.37691659  0.62578185  0.37167928  1
  Fe  Fe8  1  0.74799985  0.75076309  0.75117238  1
  Fe  Fe9  1  0.49728269  0.25060088  0.75449600  1
  Fe  Fe10  1  0.87247060  0.37210776  0.12411865  1
  Fe  Fe11  1  0.74910161  0.49879097  0.49954308  1
  Fe  Fe12  1  0.50579057  -0.00382201  0.24657319  1
  Fe  Fe13  1  0.74951840  0.24566998  0.75287736  1
  Fe  Fe14  1  0.49740031  0.49692732  0.50133458  1
  Fe  Fe15  1  0.37569376  0.62625138  0.62526100  1
  Fe  Fe16  1  0.49746724  -0.00181438  0.49966334  1
  Fe  Fe17  1  0.12567412  0.87427095  0.12709827  1
  Fe  Fe18  1  0.12754295  0.62536960  0.62629974  1
  Fe  Fe19  1  0.37174273  0.87684356  0.12962045  1
  Fe  Fe20  1  0.25203211  0.50061128  0.24899587  1
  Fe  Fe21  1  0.74939122  0.74934163  0.50018665  1
  Fe  Fe22  1  -0.00045385  0.74927945  0.75185768  1
  Fe  Fe23  1  0.12846795  0.87515239  0.37136087  1
  Fe  Fe24  1  0.62242094  0.62553200  0.62561412  1
  Fe  Fe25  1  0.37386708  0.37447607  0.37489760  1
  Fe  Fe26  1  0.74972718  0.49992167  -0.00036509  1
  Fe  Fe27  1  0.62420006  0.87654293  0.62549119  1
  Fe  Fe28  1  0.00146406  0.00321077  0.75029315  1
  Fe  Fe29  1  0.25237918  0.49936595  0.75336124  1
  Fe  Fe30  1  0.12563658  0.62332599  0.37477239  1
  Fe  Fe31  1  0.12856178  0.87787739  0.87383655  1
  Fe  Fe32  1  0.24895951  0.49925618  -0.00298426  1
  Fe  Fe33  1  0.87526392  0.62632418  0.62546695  1
  Fe  Fe34  1  0.87342316  0.37361369  0.62619420  1
  Fe  Fe35  1  0.12997017  0.87693046  0.62801979  1
  Fe  Fe36  1  0.62484577  0.37279769  0.62734155  1
  Fe  Fe37  1  0.12442449  0.37607120  0.12424650  1
  Fe  Fe38  1  0.49993072  0.25187850  0.24550297  1
  Fe  Fe39  1  0.62216875  0.62434572  0.12619517  1
  Fe  Fe40  1  0.24922049  0.24713006  0.75493017  1
  Fe  Fe41  1  0.87297808  0.12513497  0.12432428  1
  Fe  Fe42  1  0.87301098  0.87728916  0.37337630  1
  Fe  Fe43  1  0.62306351  0.12483044  0.62763215  1
  Fe  Fe44  1  0.62392456  0.37362358  0.37466394  1
  Fe  Fe45  1  0.87513034  0.62620210  0.12391802  1
  Fe  Fe46  1  0.74374113  0.24801817  -0.00526244  1
  Fe  Fe47  1  0.25121298  0.75135166  -0.00020957  1
  Fe  Fe48  1  0.37531498  0.12445079  0.88521370  1
  Fe  Fe49  1  0.74832944  0.00489979  0.49745352  1
  Fe  Fe50  1  0.74680412  0.00325385  -0.00232003  1
  Fe  Fe51  1  0.87554366  0.37131538  0.37470486  1
  Fe  Fe52  1  0.00083743  0.25089626  0.50227810  1
  Fe  Fe53  1  0.37779233  0.12320139  0.37057376  1
  Fe  Fe54  1  0.62095271  0.62534864  0.37316045  1
  Fe  Fe55  1  0.25032581  0.24701360  0.24672431  1
  Fe  Fe56  1  0.00193612  0.25007092  -0.00117100  1
  Fe  Fe57  1  0.62141294  0.62457388  0.87444276  1
  Fe  Fe58  1  0.87482476  0.12512982  0.62411068  1
  Fe  Fe59  1  0.87381034  0.87732845  0.87411450  1
  Fe  Fe60  1  0.75118761  0.50164103  0.75016454  1
  Fe  Fe61  1  0.74884861  0.50016489  0.25062918  1
  Fe  Fe62  1  0.12614185  0.12458438  0.12165504  1
  Fe  Fe63  1  0.25186407  0.00069796  0.49914491  1
  Fe  Fe64  1  0.74863172  0.24461673  0.25349754  1
  Fe  Fe65  1  0.00059179  -0.00067264  -0.00056030  1
  Fe  Fe66  1  0.00193680  -0.00086520  0.50103180  1
  Fe  Fe67  1  0.00086193  0.49907842  0.50247056  1
  Fe  Fe68  1  0.49977650  0.25102905  0.50143666  1
  Fe  Fe69  1  0.25147779  0.24909109  0.49913622  1
  Fe  Fe70  1  0.49648020  0.49791791  0.75043241  1
  Fe  Fe71  1  0.12293683  0.12641933  0.37559010  1
  Fe  Fe72  1  0.25584334  0.75015558  0.75449827  1
  Fe  Fe73  1  0.12916616  0.37501995  0.62654539  1
  Fe  Fe74  1  0.12627402  0.37495391  0.37434694  1
  Fe  Fe75  1  0.49764302  0.75383351  0.49865880  1
  Fe  Fe76  1  0.37527640  0.37262179  0.12112037  1
  Fe  Fe77  1  -0.00037899  0.00256135  0.24903630  1
  Fe  Fe78  1  -0.00180885  0.49818457  0.24804545  1
  Fe  Fe79  1  0.00137660  0.75174804  0.50059507  1
  Fe  Fe80  1  0.87746932  0.37649625  0.87463028  1
  Fe  Fe81  1  0.50289041  0.49358609  -0.00014258  1
  Fe  Fe82  1  0.87612682  0.62537019  0.37523069  1
  Fe  Fe83  1  0.74992446  0.74823982  -0.00325548  1
  Fe  Fe84  1  0.49898255  0.75441460  0.00063270  1
  Fe  Fe85  1  -0.00058617  0.74971049  -0.00293546  1
  Fe  Fe86  1  0.37823918  0.62419393  0.12454875  1
  Fe  Fe87  1  0.25204328  0.75111454  0.49784739  1
  Fe  Fe88  1  0.00282654  0.24639834  0.75168063  1
  Fe  Fe89  1  0.00027633  0.75016779  0.24987574  1
  Co  Co90  1  0.12591896  0.62454785  0.87525750  1
  Co  Co91  1  -0.00162730  0.50061707  0.00141351  1
  Co  Co92  1  0.25033903  -0.00301322  0.00329753  1
  Co  Co93  1  0.50096092  -0.00333058  0.00507014  1
  Co  Co94  1  0.49867352  0.49564949  0.24868546  1
  Co  Co95  1  0.74763651  0.00359867  0.25218066  1
  Co  Co96  1  0.25415592  0.00449759  0.75109117  1
  Co  Co97  1  0.63154934  0.87421579  0.12157910  1
  Co  Co98  1  0.75080479  0.00162545  0.75051124  1
  Co  Co99  1  0.25281833  0.50060454  0.50008347  1
  Co  Co100  1  0.24746303  0.00621537  0.24804558  1
  Co  Co101  1  0.87966629  0.12581942  0.37616277  1
  Co  Co102  1  0.37475997  0.87820229  0.87686185  1
  Co  Co103  1  0.25018662  0.74552081  0.24805291  1
  Co  Co104  1  0.74755235  0.24729721  0.49974531  1
  Co  Co105  1  0.61935285  0.11993616  0.87324379  1
  Co  Co106  1  0.12767672  0.12178505  0.87920203  1
  Co  Co107  1  0.62920411  0.37363469  0.12787073  1
  Co  Co108  1  0.62633485  0.37741527  0.87067955  1
  Co  Co109  1  0.37838729  0.12549031  0.12178446  1
  Co  Co110  1  0.37202759  0.87717335  0.36929632  1
  Co  Co111  1  0.12214237  0.37640791  0.87430653  1
  Co  Co112  1  0.61875544  0.12595152  0.37477313  1
  Co  Co113  1  0.37255444  0.87450178  0.62462575  1
  Co  Co114  1  0.87668892  0.12482000  0.87666633  1
  Co  Co115  1  0.87554066  0.62351135  0.87455388  1
  Co  Co116  1  0.12733279  0.12469599  0.62334862  1
  Co  Co117  1  0.37233633  0.37224882  0.62661969  1
  Co  Co118  1  0.49886430  0.75255277  0.75101347  1
  Co  Co119  1  0.37402152  0.37259162  0.87838579  1
  Co  Co120  1  0.50189840  0.75511418  0.24789086  1
  Co  Co121  1  0.50698039  0.25360567  -0.00086222  1
  Co  Co122  1  0.62413918  0.12690478  0.12419351  1
  Co  Co123  1  0.00221748  0.24911945  0.24665531  1
  Co  Co124  1  0.62687674  0.87468056  0.37790362  1
  Co  Co125  1  0.37854079  0.62378295  0.87858496  1
  Co  Co126  1  0.24666729  0.25129309  0.00124313  1
  Co  Co127  1  0.00055717  0.50187431  0.74790755  1
