# generated using pymatgen
data_Fe45Co19
_symmetry_space_group_name_H-M   'P 1'
_cell_length_a   11.41502583
_cell_length_b   11.41453853
_cell_length_c   11.41391079
_cell_angle_alpha   89.99704266
_cell_angle_beta   89.99516422
_cell_angle_gamma   90.00099672
_symmetry_Int_Tables_number   1
_chemical_formula_structural   Fe45Co19
_chemical_formula_sum   'Fe90 Co38'
_cell_volume   1487.20120451
_cell_formula_units_Z   2
loop_
 _symmetry_equiv_pos_site_id
 _symmetry_equiv_pos_as_xyz
  1  'x, y, z'
loop_
 _atom_site_type_symbol
 _atom_site_label
 _atom_site_symmetry_multiplicity
 _atom_site_fract_x
 _atom_site_fract_y
 _atom_site_fract_z
 _atom_site_occupancy
  Fe  Fe0  1  0.37606902  0.12323996  0.87336641  1
  Fe  Fe1  1  0.24997959  0.50095740  0.25030097  1
  Fe  Fe2  1  0.25371830  0.74867769  0.25255091  1
  Fe  Fe3  1  0.50253420  -0.00335692  0.00266404  1
  Fe  Fe4  1  0.24969793  0.00095050  0.25087910  1
  Fe  Fe5  1  0.37551321  0.12309689  0.62556342  1
  Fe  Fe6  1  0.62538290  0.37507809  0.12357329  1
  Fe  Fe7  1  -0.00069221  -0.00371095  0.25368904  1
  Fe  Fe8  1  0.75017628  0.25021164  0.74966646  1
  Fe  Fe9  1  0.37303328  0.87728830  0.37539031  1
  Fe  Fe10  1  0.87278928  0.87388265  0.12581972  1
  Fe  Fe11  1  0.49785341  0.75132018  0.74786128  1
  Fe  Fe12  1  0.62324161  0.87270769  0.62505003  1
  Fe  Fe13  1  0.87418052  0.37742603  0.12773990  1
  Fe  Fe14  1  0.75068538  0.24929080  -0.00017852  1
  Fe  Fe15  1  0.62758891  0.87460862  0.37297350  1
  Fe  Fe16  1  -0.00329756  0.74978599  0.25394867  1
  Fe  Fe17  1  0.62417649  0.12450071  0.87515931  1
  Fe  Fe18  1  0.62341836  0.12411355  0.37440597  1
  Fe  Fe19  1  0.74812633  0.50091089  0.74840739  1
  Fe  Fe20  1  0.87617484  0.12221399  0.87364742  1
  Fe  Fe21  1  0.62324373  0.62596286  0.37456057  1
  Fe  Fe22  1  0.25087228  0.50249145  0.50176868  1
  Fe  Fe23  1  0.62421304  0.37438901  0.37810145  1
  Fe  Fe24  1  0.87736156  0.62519236  0.87564194  1
  Fe  Fe25  1  0.74737289  0.50159532  0.50162327  1
  Fe  Fe26  1  0.37673986  0.37665277  0.37829608  1
  Fe  Fe27  1  0.50059532  0.50207022  0.50467842  1
  Fe  Fe28  1  0.24873427  0.00066480  -0.00168026  1
  Fe  Fe29  1  0.74917531  0.24838060  0.25016938  1
  Fe  Fe30  1  0.24818394  0.49906355  0.74791545  1
  Fe  Fe31  1  0.12581797  0.62874246  0.37773423  1
  Fe  Fe32  1  0.00106508  0.50034786  0.00044409  1
  Fe  Fe33  1  0.12358477  0.12370036  0.37724687  1
  Fe  Fe34  1  0.87532765  0.37736533  0.87313065  1
  Fe  Fe35  1  0.12432677  0.37492373  0.87373554  1
  Fe  Fe36  1  -0.00005218  0.25011705  0.74748309  1
  Fe  Fe37  1  0.87551464  0.87545061  0.62430861  1
  Fe  Fe38  1  0.00218887  0.50129453  0.50286704  1
  Fe  Fe39  1  0.37705083  0.62205011  0.87294358  1
  Fe  Fe40  1  0.12403653  0.12475624  0.12543379  1
  Fe  Fe41  1  0.49935316  0.24911454  0.25130513  1
  Fe  Fe42  1  0.37412388  0.37480802  0.12440391  1
  Fe  Fe43  1  0.12535398  0.37459545  0.12611296  1
  Fe  Fe44  1  0.87545375  0.12344501  0.12477770  1
  Fe  Fe45  1  0.12718268  0.63109567  0.62458954  1
  Fe  Fe46  1  0.50209397  0.49568789  0.74716801  1
  Fe  Fe47  1  0.24886141  0.24925389  -0.00141487  1
  Fe  Fe48  1  0.50148356  -0.00303272  0.24691584  1
  Fe  Fe49  1  -0.00008145  0.50289277  0.25087751  1
  Fe  Fe50  1  -0.00055297  0.75100484  0.75028035  1
  Fe  Fe51  1  0.12234695  0.12406689  0.62011238  1
  Fe  Fe52  1  0.75025704  0.00030105  0.50071731  1
  Fe  Fe53  1  0.49947234  0.75329609  0.00171504  1
  Fe  Fe54  1  0.87521121  0.62673964  0.62386853  1
  Fe  Fe55  1  0.24848927  0.24877256  0.74970048  1
  Fe  Fe56  1  0.37747458  0.62636248  0.12593071  1
  Fe  Fe57  1  0.12567634  0.87510885  0.87198539  1
  Fe  Fe58  1  0.50174326  0.50064305  0.24864429  1
  Fe  Fe59  1  0.74822979  0.50304869  0.00210746  1
  Fe  Fe60  1  0.74715511  -0.00167662  0.75013776  1
  Fe  Fe61  1  0.87543425  0.37612238  0.62478086  1
  Fe  Fe62  1  0.74990132  0.75131865  0.75145177  1
  Fe  Fe63  1  0.75239850  0.74381829  0.25047592  1
  Fe  Fe64  1  0.50143835  0.25327126  0.74939799  1
  Fe  Fe65  1  0.12387433  0.62573345  0.87441733  1
  Fe  Fe66  1  0.12681890  0.87286545  0.12681108  1
  Fe  Fe67  1  -0.00053704  0.25089159  -0.00017539  1
  Fe  Fe68  1  0.00208935  -0.00094525  0.74772984  1
  Fe  Fe69  1  0.75044864  0.74897987  0.50027314  1
  Fe  Fe70  1  0.74978638  0.75055747  -0.00175969  1
  Fe  Fe71  1  0.37564611  0.87940323  0.87068781  1
  Fe  Fe72  1  0.49958085  0.25288452  -0.00255457  1
  Fe  Fe73  1  0.49522669  0.74944009  0.50072342  1
  Fe  Fe74  1  0.12470922  0.37451759  0.37758596  1
  Fe  Fe75  1  -0.00023679  0.25022445  0.25174008  1
  Fe  Fe76  1  0.49919114  -0.00018550  0.50155923  1
  Fe  Fe77  1  0.74717097  -0.00218341  -0.00050736  1
  Fe  Fe78  1  0.62557953  0.12676466  0.62463552  1
  Fe  Fe79  1  0.00108046  -0.00274375  -0.00009050  1
  Fe  Fe80  1  0.25081890  0.50101039  0.00031811  1
  Fe  Fe81  1  0.87691340  0.12242177  0.37732943  1
  Fe  Fe82  1  0.12389114  0.62830511  0.12445599  1
  Fe  Fe83  1  0.37587977  0.12419212  0.12462857  1
  Fe  Fe84  1  0.25310691  0.24775728  0.49847834  1
  Fe  Fe85  1  0.87446847  0.37861065  0.37490503  1
  Fe  Fe86  1  0.25156628  0.24888560  0.25206104  1
  Fe  Fe87  1  0.62264413  0.62496423  0.87457683  1
  Fe  Fe88  1  0.75220095  0.24851353  0.50019018  1
  Fe  Fe89  1  0.25145062  0.75027173  -0.00316590  1
  Co  Co90  1  0.49750685  0.75325507  0.25156062  1
  Co  Co91  1  0.62481533  0.62819147  0.62669619  1
  Co  Co92  1  0.25278635  0.75044823  0.75292428  1
  Co  Co93  1  0.50348125  0.00075949  0.74742651  1
  Co  Co94  1  0.12822600  0.87109260  0.62525243  1
  Co  Co95  1  0.37358434  0.87751864  0.62761435  1
  Co  Co96  1  0.37050898  0.87496547  0.12527286  1
  Co  Co97  1  0.24680873  0.00288835  0.74867284  1
  Co  Co98  1  0.37650755  0.62230701  0.37456757  1
  Co  Co99  1  0.12932559  0.87164772  0.37572879  1
  Co  Co100  1  0.74718704  0.50271636  0.24897611  1
  Co  Co101  1  0.37662751  0.12129494  0.37364955  1
  Co  Co102  1  0.49905964  0.49886484  0.00083741  1
  Co  Co103  1  0.62991516  0.87161355  0.12913016  1
  Co  Co104  1  0.87488448  0.62209711  0.37948939  1
  Co  Co105  1  0.62090652  0.62851394  0.12467484  1
  Co  Co106  1  0.86944357  0.87519194  0.37492039  1
  Co  Co107  1  0.00162451  0.50168428  0.74709091  1
  Co  Co108  1  0.87577052  0.87696007  0.87361316  1
  Co  Co109  1  0.87601558  0.12193927  0.62511182  1
  Co  Co110  1  0.74995311  0.00383981  0.24982771  1
  Co  Co111  1  0.00103474  0.75326663  -0.00152850  1
  Co  Co112  1  0.37219215  0.37579976  0.87298702  1
  Co  Co113  1  0.25663855  0.75052374  0.50045243  1
  Co  Co114  1  0.87742625  0.62559980  0.12247576  1
  Co  Co115  1  0.62714605  0.37681425  0.87615915  1
  Co  Co116  1  0.62238310  0.87333603  0.87278951  1
  Co  Co117  1  0.62643952  0.37187863  0.62219166  1
  Co  Co118  1  0.00113884  -0.00679747  0.49810212  1
  Co  Co119  1  0.24955305  -0.00103522  0.50097491  1
  Co  Co120  1  -0.00288413  0.25113555  0.50014334  1
  Co  Co121  1  0.49839209  0.24667406  0.50067792  1
  Co  Co122  1  -0.00156823  0.75369080  0.49826273  1
  Co  Co123  1  0.37401038  0.37423722  0.62316841  1
  Co  Co124  1  0.12224648  0.12525071  0.87580231  1
  Co  Co125  1  0.62308653  0.12566599  0.12377624  1
  Co  Co126  1  0.37399633  0.62369956  0.62793116  1
  Co  Co127  1  0.12625686  0.37286937  0.62281940  1
