# generated using pymatgen
data_Fe45Co19
_symmetry_space_group_name_H-M   'P 1'
_cell_length_a   11.41331616
_cell_length_b   11.41636268
_cell_length_c   11.41541216
_cell_angle_alpha   90.00264135
_cell_angle_beta   90.00699013
_cell_angle_gamma   89.98887142
_symmetry_Int_Tables_number   1
_chemical_formula_structural   Fe45Co19
_chemical_formula_sum   'Fe90 Co38'
_cell_volume   1487.41168654
_cell_formula_units_Z   2
loop_
 _symmetry_equiv_pos_site_id
 _symmetry_equiv_pos_as_xyz
  1  'x, y, z'
loop_
 _atom_site_type_symbol
 _atom_site_label
 _atom_site_symmetry_multiplicity
 _atom_site_fract_x
 _atom_site_fract_y
 _atom_site_fract_z
 _atom_site_occupancy
  Fe  Fe0  1  0.63152805  0.37939929  0.12296943  1
  Fe  Fe1  1  0.24650622  0.49894876  0.25212022  1
  Fe  Fe2  1  0.75470966  0.24996987  0.49698102  1
  Fe  Fe3  1  0.62723004  0.87427046  0.87507551  1
  Fe  Fe4  1  0.62650522  0.12470486  0.62316303  1
  Fe  Fe5  1  0.50087324  0.25182889  0.74749456  1
  Fe  Fe6  1  0.62542006  0.12653748  0.37541135  1
  Fe  Fe7  1  0.62752065  0.62574437  0.62262963  1
  Fe  Fe8  1  0.50420133  0.49986632  0.25087021  1
  Fe  Fe9  1  0.37133339  0.87389543  0.12581849  1
  Fe  Fe10  1  0.37418227  0.37504640  0.87472624  1
  Fe  Fe11  1  -0.00003930  -0.00001260  0.25003150  1
  Fe  Fe12  1  0.24851792  0.49970627  0.75030047  1
  Fe  Fe13  1  -0.00160973  0.00233170  0.49789742  1
  Fe  Fe14  1  0.12552063  0.12521555  0.12543630  1
  Fe  Fe15  1  0.37668002  0.62484779  0.37442110  1
  Fe  Fe16  1  0.37320329  0.12655930  0.12634344  1
  Fe  Fe17  1  0.62840697  0.37479876  0.62261711  1
  Fe  Fe18  1  0.75477427  0.50128880  0.49375069  1
  Fe  Fe19  1  0.36856284  0.87689040  0.62215134  1
  Fe  Fe20  1  0.62819325  0.12380224  0.12458485  1
  Fe  Fe21  1  0.12253529  0.12830660  0.37368502  1
  Fe  Fe22  1  0.87403595  0.87404525  0.12931585  1
  Fe  Fe23  1  0.62551623  0.62576131  0.87458619  1
  Fe  Fe24  1  0.87963306  0.62525839  0.62720599  1
  Fe  Fe25  1  0.24272655  0.75320985  0.74685266  1
  Fe  Fe26  1  0.75456314  0.50146475  0.75237797  1
  Fe  Fe27  1  0.37413520  0.62674491  0.87243467  1
  Fe  Fe28  1  0.87628430  0.12426610  0.62604527  1
  Fe  Fe29  1  0.75162330  0.74946500  0.74917261  1
  Fe  Fe30  1  0.50032159  0.50195087  -0.00047448  1
  Fe  Fe31  1  0.12000942  0.37304432  0.37758545  1
  Fe  Fe32  1  0.50317631  0.74873167  0.24920589  1
  Fe  Fe33  1  0.12493432  0.12271853  0.62490459  1
  Fe  Fe34  1  0.37457362  0.62411360  0.12675380  1
  Fe  Fe35  1  0.87673171  0.37383860  0.62391870  1
  Fe  Fe36  1  0.49970332  -0.00137036  0.00168556  1
  Fe  Fe37  1  0.12242758  0.37725583  0.62487613  1
  Fe  Fe38  1  0.75105707  -0.00014755  0.75147344  1
  Fe  Fe39  1  0.12423091  0.12289843  0.87620990  1
  Fe  Fe40  1  0.37576651  0.37391095  0.37569323  1
  Fe  Fe41  1  0.87653071  0.87308026  0.87570995  1
  Fe  Fe42  1  0.11913177  0.62582771  0.87165592  1
  Fe  Fe43  1  0.37273513  0.62489633  0.62570556  1
  Fe  Fe44  1  0.50268238  0.25132508  0.00093982  1
  Fe  Fe45  1  0.24699520  0.74875080  0.00121520  1
  Fe  Fe46  1  0.50060922  0.49960354  0.74786694  1
  Fe  Fe47  1  0.24855712  -0.00024812  0.25208282  1
  Fe  Fe48  1  0.49996953  0.49830939  0.50198768  1
  Fe  Fe49  1  0.37309061  0.12403115  0.62469034  1
  Fe  Fe50  1  0.24910134  0.24986168  0.50052507  1
  Fe  Fe51  1  0.75155993  -0.00164374  0.25264286  1
  Fe  Fe52  1  0.50029460  0.74899466  0.00082167  1
  Fe  Fe53  1  -0.00266967  0.25214676  0.24723889  1
  Fe  Fe54  1  0.49998427  0.00005929  0.24970269  1
  Fe  Fe55  1  0.75137979  0.74700606  0.00211820  1
  Fe  Fe56  1  0.12348288  0.37496696  0.12184313  1
  Fe  Fe57  1  0.37091742  0.87531960  0.87578379  1
  Fe  Fe58  1  0.50032267  0.75198208  0.50224714  1
  Fe  Fe59  1  0.50067365  0.75228411  0.74723737  1
  Fe  Fe60  1  0.87228859  0.62023814  0.13270124  1
  Fe  Fe61  1  0.12321902  0.62261744  0.12538460  1
  Fe  Fe62  1  -0.00080210  -0.00090692  0.00168761  1
  Fe  Fe63  1  0.50065390  -0.00272081  0.74793291  1
  Fe  Fe64  1  0.87432884  0.87606896  0.62254878  1
  Fe  Fe65  1  0.24888983  0.24950575  0.00027021  1
  Fe  Fe66  1  0.37345339  0.37657262  0.12588752  1
  Fe  Fe67  1  0.62622309  0.12268396  0.87655538  1
  Fe  Fe68  1  0.75128164  0.24746057  0.75171101  1
  Fe  Fe69  1  0.62879095  0.37661570  0.87507728  1
  Fe  Fe70  1  0.37505731  0.12411742  0.87501326  1
  Fe  Fe71  1  0.75235116  0.25374040  0.25230042  1
  Fe  Fe72  1  0.87365510  0.12660374  0.12285537  1
  Fe  Fe73  1  0.24631265  0.74864218  0.25053265  1
  Fe  Fe74  1  0.50258040  0.25202229  0.24856496  1
  Fe  Fe75  1  -0.00034343  0.25164088  0.75299031  1
  Fe  Fe76  1  0.24982037  0.50149623  -0.00129492  1
  Fe  Fe77  1  0.62708818  0.87404645  0.12643025  1
  Fe  Fe78  1  -0.00036040  0.75007782  0.00458415  1
  Fe  Fe79  1  0.75412596  0.74949419  0.49397577  1
  Fe  Fe80  1  0.00197624  -0.00445322  0.74988091  1
  Fe  Fe81  1  0.12171428  0.87211700  0.37740194  1
  Fe  Fe82  1  0.50104465  -0.00071051  0.50030863  1
  Fe  Fe83  1  0.37584017  0.12888065  0.37385530  1
  Fe  Fe84  1  0.24927960  0.25074451  0.74962083  1
  Fe  Fe85  1  0.37405050  0.87319587  0.37570358  1
  Fe  Fe86  1  -0.00492775  0.49794490  -0.00334275  1
  Fe  Fe87  1  0.24755698  0.50227645  0.49949783  1
  Fe  Fe88  1  0.75149814  -0.00081920  0.49646716  1
  Fe  Fe89  1  0.11830887  0.62650228  0.37584442  1
  Co  Co90  1  -0.00180328  0.74849679  0.50473029  1
  Co  Co91  1  0.24776067  0.25289140  0.25021353  1
  Co  Co92  1  0.37232926  0.37623096  0.62450014  1
  Co  Co93  1  0.75465243  0.50529620  -0.00484613  1
  Co  Co94  1  0.12696523  0.87916591  0.61630418  1
  Co  Co95  1  0.74815662  0.74761626  0.25410981  1
  Co  Co96  1  0.62966081  0.87419667  0.62348011  1
  Co  Co97  1  0.74708026  0.49891154  0.25905230  1
  Co  Co98  1  0.62320001  0.37209476  0.37913797  1
  Co  Co99  1  0.12633717  0.87685682  0.12565168  1
  Co  Co100  1  0.00211956  0.75066646  0.24602961  1
  Co  Co101  1  0.75176143  -0.00211487  0.00016267  1
  Co  Co102  1  0.00345529  0.75698391  0.74459868  1
  Co  Co103  1  0.00326529  0.49635140  0.24898828  1
  Co  Co104  1  0.24917827  0.00428005  0.49382437  1
  Co  Co105  1  0.75006161  0.24809056  -0.00060437  1
  Co  Co106  1  0.12435251  0.87519189  0.87989937  1
  Co  Co107  1  0.12103669  0.62085981  0.62870283  1
  Co  Co108  1  0.62422467  0.87549539  0.37461846  1
  Co  Co109  1  0.49839436  0.24955734  0.50339931  1
  Co  Co110  1  0.88007595  0.63075456  0.87183852  1
  Co  Co111  1  0.88120599  0.37626583  0.37456280  1
  Co  Co112  1  0.87153123  0.37805458  0.12501492  1
  Co  Co113  1  0.87169112  0.37027810  0.87694021  1
  Co  Co114  1  0.88210516  0.62533951  0.36892136  1
  Co  Co115  1  0.87975905  0.87290556  0.37299203  1
  Co  Co116  1  0.62208086  0.62670796  0.37841267  1
  Co  Co117  1  0.12605487  0.37614720  0.87575853  1
  Co  Co118  1  -0.00481197  0.49566029  0.75289682  1
  Co  Co119  1  0.62758928  0.62273710  0.12524432  1
  Co  Co120  1  -0.00218657  0.50266241  0.50131777  1
  Co  Co121  1  0.87675082  0.12317519  0.87560859  1
  Co  Co122  1  0.87548027  0.12565546  0.37334863  1
  Co  Co123  1  0.24784380  -0.00123607  0.75108454  1
  Co  Co124  1  0.25036341  0.00189098  0.00222654  1
  Co  Co125  1  0.24787135  0.74457702  0.49972443  1
  Co  Co126  1  -0.00062219  0.25058150  -0.00105364  1
  Co  Co127  1  -0.00148162  0.24736684  0.50194384  1
