# generated using pymatgen
data_Fe45Co19
_symmetry_space_group_name_H-M   'P 1'
_cell_length_a   11.41504096
_cell_length_b   11.41608461
_cell_length_c   11.41518546
_cell_angle_alpha   90.00357293
_cell_angle_beta   90.01074011
_cell_angle_gamma   89.99849960
_symmetry_Int_Tables_number   1
_chemical_formula_structural   Fe45Co19
_chemical_formula_sum   'Fe90 Co38'
_cell_volume   1487.57070151
_cell_formula_units_Z   2
loop_
 _symmetry_equiv_pos_site_id
 _symmetry_equiv_pos_as_xyz
  1  'x, y, z'
loop_
 _atom_site_type_symbol
 _atom_site_label
 _atom_site_symmetry_multiplicity
 _atom_site_fract_x
 _atom_site_fract_y
 _atom_site_fract_z
 _atom_site_occupancy
  Fe  Fe0  1  0.37162387  0.87723299  0.12922943  1
  Fe  Fe1  1  0.87841170  0.87468840  0.37219147  1
  Fe  Fe2  1  0.37512107  0.87389265  0.87216028  1
  Fe  Fe3  1  0.87522794  0.12369514  0.62461980  1
  Fe  Fe4  1  0.75175946  0.49988727  0.25193686  1
  Fe  Fe5  1  0.50066666  0.24871397  0.24758149  1
  Fe  Fe6  1  0.50101965  -0.00080830  0.49632142  1
  Fe  Fe7  1  0.87897395  0.37368245  0.87468298  1
  Fe  Fe8  1  0.74946737  0.75020982  0.25070416  1
  Fe  Fe9  1  0.75283091  0.75246748  0.50072904  1
  Fe  Fe10  1  0.49715731  0.50088115  -0.00091048  1
  Fe  Fe11  1  0.62581891  0.62381804  0.62224189  1
  Fe  Fe12  1  0.50155524  0.24561361  0.75079999  1
  Fe  Fe13  1  0.25019571  0.75205081  -0.00178062  1
  Fe  Fe14  1  0.62728002  0.87694917  0.62379992  1
  Fe  Fe15  1  -0.00109853  -0.00044873  0.49898791  1
  Fe  Fe16  1  0.75048094  0.00217567  0.75098864  1
  Fe  Fe17  1  0.62367000  0.62606368  0.37782119  1
  Fe  Fe18  1  0.12361765  0.37394463  0.62686217  1
  Fe  Fe19  1  0.12365685  0.62661184  0.87552871  1
  Fe  Fe20  1  0.24877908  0.00160893  0.75056523  1
  Fe  Fe21  1  0.87848669  0.62480695  0.37804654  1
  Fe  Fe22  1  0.87609287  0.37292809  0.12938785  1
  Fe  Fe23  1  0.12011324  0.37841280  0.36844588  1
  Fe  Fe24  1  0.75168491  -0.00170192  0.00212390  1
  Fe  Fe25  1  0.50088438  0.00375338  0.75092499  1
  Fe  Fe26  1  0.62517458  0.37606644  0.12464982  1
  Fe  Fe27  1  0.49762309  0.00137802  -0.00121797  1
  Fe  Fe28  1  0.62472281  0.87493947  0.12614948  1
  Fe  Fe29  1  0.24590616  0.25010645  0.49738293  1
  Fe  Fe30  1  -0.00168257  0.50184458  0.74848652  1
  Fe  Fe31  1  0.74998498  0.00058980  0.49503352  1
  Fe  Fe32  1  -0.00010361  0.25048244  0.49987870  1
  Fe  Fe33  1  0.75271214  0.49558965  0.49895697  1
  Fe  Fe34  1  0.37380140  0.87580312  0.62426404  1
  Fe  Fe35  1  0.75240592  0.49821711  -0.00066383  1
  Fe  Fe36  1  0.87531238  0.87412760  0.12801005  1
  Fe  Fe37  1  -0.00005499  0.00029965  0.00321835  1
  Fe  Fe38  1  0.12193235  0.87844660  0.62545275  1
  Fe  Fe39  1  0.62950199  0.12476744  0.12554533  1
  Fe  Fe40  1  0.87386344  0.62719890  0.12210657  1
  Fe  Fe41  1  0.24795176  0.24777802  0.74922477  1
  Fe  Fe42  1  0.00381360  0.74642243  0.25027592  1
  Fe  Fe43  1  0.24706345  0.74687869  0.25510690  1
  Fe  Fe44  1  0.24695476  0.25249485  0.00008873  1
  Fe  Fe45  1  0.24955587  0.00065505  0.49416231  1
  Fe  Fe46  1  0.62684793  0.62667588  0.87756524  1
  Fe  Fe47  1  0.12364030  0.62503652  0.62201344  1
  Fe  Fe48  1  0.75379425  0.50102364  0.75086898  1
  Fe  Fe49  1  0.75401281  0.74839723  0.74954726  1
  Fe  Fe50  1  0.37541563  0.37254390  0.37315737  1
  Fe  Fe51  1  0.49993350  0.74910850  0.74727782  1
  Fe  Fe52  1  0.00392248  0.49849797  0.00353074  1
  Fe  Fe53  1  0.24928700  0.50105909  0.75214702  1
  Fe  Fe54  1  0.36970451  0.12227231  0.12470036  1
  Fe  Fe55  1  0.24621896  0.75265994  0.49890595  1
  Fe  Fe56  1  0.00138972  0.24544660  0.74863861  1
  Fe  Fe57  1  0.00156294  0.75213183  0.00222605  1
  Fe  Fe58  1  0.49943912  0.24764341  0.00040368  1
  Fe  Fe59  1  0.62359543  0.37417674  0.37419110  1
  Fe  Fe60  1  0.00356065  0.24967482  0.00698026  1
  Fe  Fe61  1  0.37361700  0.12510828  0.62221755  1
  Fe  Fe62  1  0.12364560  0.87478967  0.87203298  1
  Fe  Fe63  1  0.62493333  0.37344306  0.87611340  1
  Fe  Fe64  1  0.87551891  0.87444195  0.87442241  1
  Fe  Fe65  1  0.12895616  0.87854429  0.12934700  1
  Fe  Fe66  1  0.24559201  0.24549851  0.25212899  1
  Fe  Fe67  1  0.49849874  0.75054754  0.00121293  1
  Fe  Fe68  1  0.62637972  0.37429551  0.62570229  1
  Fe  Fe69  1  -0.00278769  0.49647548  0.50207733  1
  Fe  Fe70  1  0.75209314  0.25046081  0.49738613  1
  Fe  Fe71  1  0.74959893  0.24742301  0.75114131  1
  Fe  Fe72  1  0.62522432  0.87455613  0.87574107  1
  Fe  Fe73  1  0.50000146  0.00080573  0.25361950  1
  Fe  Fe74  1  0.37497135  0.37378167  0.62562764  1
  Fe  Fe75  1  0.37018634  0.37735320  0.12613749  1
  Fe  Fe76  1  0.49814323  0.50062456  0.25121472  1
  Fe  Fe77  1  0.37705404  0.62661229  0.37931793  1
  Fe  Fe78  1  0.49953236  0.50140786  0.75030669  1
  Fe  Fe79  1  0.37075724  0.62338751  0.12322577  1
  Fe  Fe80  1  0.37432288  0.37398847  0.87449436  1
  Fe  Fe81  1  0.87655612  0.12681702  0.36759110  1
  Fe  Fe82  1  0.37445516  0.62498597  0.62306079  1
  Fe  Fe83  1  0.62620031  0.62467837  0.12405867  1
  Fe  Fe84  1  0.49997663  0.74945784  0.25049431  1
  Fe  Fe85  1  0.12585901  0.12374857  0.87764264  1
  Fe  Fe86  1  0.25026978  0.49699599  0.49793862  1
  Fe  Fe87  1  -0.00338483  0.74986429  0.74594636  1
  Fe  Fe88  1  0.87507909  0.12590753  0.87918585  1
  Fe  Fe89  1  0.50155397  0.25020933  0.50087050  1
  Co  Co90  1  0.49982282  0.75252459  0.50288241  1
  Co  Co91  1  0.37538751  0.87244925  0.37369213  1
  Co  Co92  1  0.87466578  0.87939929  0.62532462  1
  Co  Co93  1  0.25041424  -0.00455815  -0.00424401  1
  Co  Co94  1  0.11932442  0.12290843  0.37574954  1
  Co  Co95  1  -0.00051371  0.00255239  0.75224863  1
  Co  Co96  1  -0.00144954  0.50617058  0.24492259  1
  Co  Co97  1  0.75028231  0.75280431  0.00064551  1
  Co  Co98  1  0.75131795  0.25282682  0.00079038  1
  Co  Co99  1  0.12143045  0.87735981  0.37240451  1
  Co  Co100  1  0.74862691  0.25346678  0.25093600  1
  Co  Co101  1  0.12956916  0.37961206  0.13159258  1
  Co  Co102  1  0.88118190  0.37407193  0.36975213  1
  Co  Co103  1  0.37155665  0.12616311  0.87539394  1
  Co  Co104  1  0.13099868  0.11858779  0.12319219  1
  Co  Co105  1  0.12199241  0.37378054  0.87214729  1
  Co  Co106  1  0.00530796  0.24540908  0.24335564  1
  Co  Co107  1  0.62413285  0.87219865  0.37524006  1
  Co  Co108  1  0.62589753  0.12378383  0.62217942  1
  Co  Co109  1  0.74904437  -0.00301214  0.25159565  1
  Co  Co110  1  0.25189226  0.50475561  0.25542778  1
  Co  Co111  1  0.49917426  0.49706376  0.50024856  1
  Co  Co112  1  0.24842310  0.74988766  0.74721988  1
  Co  Co113  1  0.86998117  0.12645016  0.12770460  1
  Co  Co114  1  0.12007367  0.62149560  0.37978450  1
  Co  Co115  1  0.25086454  0.00314051  0.25802656  1
  Co  Co116  1  0.62730511  0.12453462  0.87909248  1
  Co  Co117  1  0.87529064  0.37179882  0.62815139  1
  Co  Co118  1  0.87773166  0.62531386  0.87935594  1
  Co  Co119  1  0.12491650  0.12286718  0.62261479  1
  Co  Co120  1  0.37363429  0.62735419  0.87504865  1
  Co  Co121  1  0.62515085  0.12715588  0.37293698  1
  Co  Co122  1  0.00083300  0.75405033  0.50175290  1
  Co  Co123  1  0.37769800  0.12827236  0.37657865  1
  Co  Co124  1  0.00002823  0.00275199  0.24497528  1
  Co  Co125  1  0.87508502  0.62416989  0.62078253  1
  Co  Co126  1  0.24782237  0.49830678  -0.00502616  1
  Co  Co127  1  0.13005775  0.62435674  0.12301076  1
