# generated using pymatgen
data_Fe45Co19
_symmetry_space_group_name_H-M   'P 1'
_cell_length_a   11.41533037
_cell_length_b   11.41570231
_cell_length_c   11.41455536
_cell_angle_alpha   89.99570978
_cell_angle_beta   90.01431558
_cell_angle_gamma   89.99749441
_symmetry_Int_Tables_number   1
_chemical_formula_structural   Fe45Co19
_chemical_formula_sum   'Fe90 Co38'
_cell_volume   1487.47646733
_cell_formula_units_Z   2
loop_
 _symmetry_equiv_pos_site_id
 _symmetry_equiv_pos_as_xyz
  1  'x, y, z'
loop_
 _atom_site_type_symbol
 _atom_site_label
 _atom_site_symmetry_multiplicity
 _atom_site_fract_x
 _atom_site_fract_y
 _atom_site_fract_z
 _atom_site_occupancy
  Fe  Fe0  1  0.49710564  0.50076899  0.49963655  1
  Fe  Fe1  1  0.25129254  -0.00189321  0.24822622  1
  Fe  Fe2  1  0.37304835  0.12295705  0.87419108  1
  Fe  Fe3  1  0.75094551  0.75048935  -0.00056077  1
  Fe  Fe4  1  -0.00129441  -0.00254601  0.50328940  1
  Fe  Fe5  1  0.00428983  0.25257183  -0.00290067  1
  Fe  Fe6  1  0.49736645  -0.00195967  -0.00059264  1
  Fe  Fe7  1  -0.00315964  0.50196324  0.49888809  1
  Fe  Fe8  1  0.62585397  0.37612634  0.37618793  1
  Fe  Fe9  1  0.50002833  0.75239642  -0.00349139  1
  Fe  Fe10  1  0.87647760  0.12813558  0.62831886  1
  Fe  Fe11  1  0.12631174  0.12194956  0.87785002  1
  Fe  Fe12  1  0.12556942  0.12027518  0.37755692  1
  Fe  Fe13  1  0.87620150  0.62462586  0.87399211  1
  Fe  Fe14  1  0.37257331  0.37505383  0.87366130  1
  Fe  Fe15  1  0.37459782  0.62663364  0.87522953  1
  Fe  Fe16  1  0.49947198  -0.00688577  0.74893239  1
  Fe  Fe17  1  0.24360190  0.75612200  0.49492567  1
  Fe  Fe18  1  0.24854884  0.25022841  0.50132240  1
  Fe  Fe19  1  0.24652168  0.24811571  0.74962610  1
  Fe  Fe20  1  -0.00334707  0.00352416  0.24419809  1
  Fe  Fe21  1  0.37198927  0.87084883  0.12389268  1
  Fe  Fe22  1  0.24799823  0.49780684  0.00105303  1
  Fe  Fe23  1  0.87814679  0.87314249  0.37274629  1
  Fe  Fe24  1  0.49657920  0.00136972  0.50026586  1
  Fe  Fe25  1  0.12714753  0.87959053  0.87618250  1
  Fe  Fe26  1  0.37184500  0.63006056  0.62281548  1
  Fe  Fe27  1  0.50268577  0.24936770  0.75199949  1
  Fe  Fe28  1  0.75045944  0.24864234  0.25209405  1
  Fe  Fe29  1  0.37217929  0.37491522  0.37364075  1
  Fe  Fe30  1  0.12334720  0.37797855  0.62903797  1
  Fe  Fe31  1  0.75269450  0.49710416  -0.00036451  1
  Fe  Fe32  1  0.87810053  0.62719030  0.12511922  1
  Fe  Fe33  1  0.49937887  0.74932000  0.25096685  1
  Fe  Fe34  1  0.87990335  0.37198078  0.12904111  1
  Fe  Fe35  1  0.49953336  0.24729589  0.49705499  1
  Fe  Fe36  1  0.12456817  0.12487636  0.12099330  1
  Fe  Fe37  1  0.00219062  0.75182840  -0.00402007  1
  Fe  Fe38  1  0.87419558  0.87457321  0.87243923  1
  Fe  Fe39  1  0.75574322  -0.00202369  0.00293622  1
  Fe  Fe40  1  0.62401042  0.37577308  0.12527673  1
  Fe  Fe41  1  0.24771630  0.75014332  0.75220321  1
  Fe  Fe42  1  0.62555762  0.62423818  0.12388114  1
  Fe  Fe43  1  0.75410371  0.49986958  0.25157612  1
  Fe  Fe44  1  0.62694910  0.62382612  0.37547540  1
  Fe  Fe45  1  0.62702719  0.12064193  0.87471388  1
  Fe  Fe46  1  0.00250026  0.24938400  0.50012650  1
  Fe  Fe47  1  0.37037502  0.62663887  0.37631315  1
  Fe  Fe48  1  0.49834075  0.00129348  0.25121019  1
  Fe  Fe49  1  0.87567420  0.12542344  0.37636851  1
  Fe  Fe50  1  0.62446203  0.87799932  0.37614729  1
  Fe  Fe51  1  0.00606920  0.74548396  0.25461355  1
  Fe  Fe52  1  0.75368836  0.00025935  0.24675452  1
  Fe  Fe53  1  0.24599650  0.50369512  0.24772328  1
  Fe  Fe54  1  0.00035040  0.00133601  0.75006349  1
  Fe  Fe55  1  0.37277808  0.37307792  0.12595588  1
  Fe  Fe56  1  0.87778839  0.63008131  0.62676191  1
  Fe  Fe57  1  0.25231480  -0.00202479  0.50217346  1
  Fe  Fe58  1  0.87504001  0.12715906  0.87415377  1
  Fe  Fe59  1  0.62515822  0.87534419  0.12353288  1
  Fe  Fe60  1  0.74921374  0.24926227  0.50101623  1
  Fe  Fe61  1  0.00103767  0.49662858  0.00039327  1
  Fe  Fe62  1  0.50107072  0.24758420  0.25271125  1
  Fe  Fe63  1  0.37522117  0.37279358  0.62637936  1
  Fe  Fe64  1  0.75288418  -0.00127053  0.50235552  1
  Fe  Fe65  1  0.12429701  0.87328377  0.12305254  1
  Fe  Fe66  1  0.75206448  0.49857610  0.75068484  1
  Fe  Fe67  1  0.62650473  0.12463067  0.12386920  1
  Fe  Fe68  1  0.62515536  0.62608612  0.62710570  1
  Fe  Fe69  1  0.62462388  0.62447533  0.87430477  1
  Fe  Fe70  1  0.62486449  0.12254665  0.62624952  1
  Fe  Fe71  1  0.75072180  0.75141688  0.50072117  1
  Fe  Fe72  1  0.75390116  0.49970574  0.49988385  1
  Fe  Fe73  1  0.25067192  0.00008216  0.74588059  1
  Fe  Fe74  1  0.49951751  0.25001392  -0.00161708  1
  Fe  Fe75  1  0.74859509  0.25390916  -0.00423272  1
  Fe  Fe76  1  0.50183980  0.75075672  0.50030810  1
  Fe  Fe77  1  0.49683133  0.50239290  0.74847966  1
  Fe  Fe78  1  0.87726610  0.37150710  0.62909052  1
  Fe  Fe79  1  0.24586377  0.24829870  0.25022595  1
  Fe  Fe80  1  0.37089340  0.62890682  0.12379517  1
  Fe  Fe81  1  0.12454399  0.62030229  0.87465590  1
  Fe  Fe82  1  0.87783735  0.87078582  0.62899754  1
  Fe  Fe83  1  0.74836365  0.75068389  0.24983114  1
  Fe  Fe84  1  0.62387220  0.37603270  0.62595964  1
  Fe  Fe85  1  0.12449873  0.62580779  0.62346572  1
  Fe  Fe86  1  0.49820914  0.50205944  0.25061681  1
  Fe  Fe87  1  0.12214571  0.37843000  0.37282508  1
  Fe  Fe88  1  0.37380100  0.12730675  0.12463698  1
  Fe  Fe89  1  0.49820268  0.49950901  0.00098477  1
  Co  Co90  1  0.37632058  0.87412444  0.37539184  1
  Co  Co91  1  0.12423775  0.87489319  0.62724827  1
  Co  Co92  1  0.74822293  0.74979438  0.75063350  1
  Co  Co93  1  0.87444848  0.13265288  0.12082386  1
  Co  Co94  1  0.00315401  0.24399448  0.25257356  1
  Co  Co95  1  0.87385129  0.62927962  0.37538363  1
  Co  Co96  1  0.25237928  0.50280999  0.74818267  1
  Co  Co97  1  0.62916678  0.87625909  0.87654061  1
  Co  Co98  1  0.12473225  0.12224843  0.62254159  1
  Co  Co99  1  0.12260116  0.37482480  0.12845213  1
  Co  Co100  1  0.00573703  0.24619711  0.75117177  1
  Co  Co101  1  0.24704804  0.74947189  -0.00369782  1
  Co  Co102  1  0.62795150  0.12152783  0.37548504  1
  Co  Co103  1  -0.00059516  0.50487682  0.25157135  1
  Co  Co104  1  0.87775301  0.37183661  0.37423292  1
  Co  Co105  1  0.37027179  0.87594734  0.87470345  1
  Co  Co106  1  0.87896776  0.37323021  0.87058240  1
  Co  Co107  1  0.37326356  0.87112362  0.62442800  1
  Co  Co108  1  0.50049155  0.75294494  0.75197025  1
  Co  Co109  1  0.62243937  0.37967347  0.87416736  1
  Co  Co110  1  0.62561345  0.87535651  0.62326402  1
  Co  Co111  1  0.37584518  0.12641661  0.62641647  1
  Co  Co112  1  0.00319701  0.75162793  0.49765466  1
  Co  Co113  1  -0.00391323  -0.00110455  0.00130208  1
  Co  Co114  1  0.25235581  0.00035498  0.00369778  1
  Co  Co115  1  0.12342185  0.62704714  0.12073978  1
  Co  Co116  1  -0.00175467  0.50262761  0.74816027  1
  Co  Co117  1  0.24855551  0.25127826  -0.00144283  1
  Co  Co118  1  0.00437476  0.75040753  0.75364869  1
  Co  Co119  1  0.87899816  0.86779906  0.12682587  1
  Co  Co120  1  0.24514040  0.75041206  0.25352346  1
  Co  Co121  1  0.37034223  0.12530291  0.37514658  1
  Co  Co122  1  0.74650949  0.25080880  0.75111844  1
  Co  Co123  1  0.12731636  0.61950155  0.38042264  1
  Co  Co124  1  0.25095912  0.49629571  0.50269404  1
  Co  Co125  1  0.12089813  0.88308981  0.37238750  1
  Co  Co126  1  0.75251072  -0.00030012  0.74772169  1
  Co  Co127  1  0.12608124  0.37869843  0.87029509  1
