# generated using pymatgen
data_Fe45Co19
_symmetry_space_group_name_H-M   'P 1'
_cell_length_a   11.41490041
_cell_length_b   11.41448684
_cell_length_c   11.41310248
_cell_angle_alpha   89.99900927
_cell_angle_beta   89.99570185
_cell_angle_gamma   90.00515660
_symmetry_Int_Tables_number   1
_chemical_formula_structural   Fe45Co19
_chemical_formula_sum   'Fe90 Co38'
_cell_volume   1487.07280713
_cell_formula_units_Z   2
loop_
 _symmetry_equiv_pos_site_id
 _symmetry_equiv_pos_as_xyz
  1  'x, y, z'
loop_
 _atom_site_type_symbol
 _atom_site_label
 _atom_site_symmetry_multiplicity
 _atom_site_fract_x
 _atom_site_fract_y
 _atom_site_fract_z
 _atom_site_occupancy
  Fe  Fe0  1  0.50179840  0.00109519  -0.00216047  1
  Fe  Fe1  1  -0.00038557  0.49962286  0.50072894  1
  Fe  Fe2  1  0.87281405  0.87479691  0.12211653  1
  Fe  Fe3  1  0.49897364  -0.00319035  0.75091452  1
  Fe  Fe4  1  0.62437620  0.37387700  0.12407054  1
  Fe  Fe5  1  0.74357942  0.24767837  -0.00292006  1
  Fe  Fe6  1  0.25004715  0.24601258  0.49909537  1
  Fe  Fe7  1  0.37764150  0.12383604  0.62519242  1
  Fe  Fe8  1  0.37846212  0.12610496  0.12445495  1
  Fe  Fe9  1  0.50092369  0.24906453  0.50102107  1
  Fe  Fe10  1  -0.00229025  -0.00052439  0.75028892  1
  Fe  Fe11  1  0.11951897  0.12681572  0.62472440  1
  Fe  Fe12  1  0.25002567  0.50138183  0.50212176  1
  Fe  Fe13  1  0.74845324  -0.00094002  0.24653252  1
  Fe  Fe14  1  0.50057434  0.50033983  0.25200047  1
  Fe  Fe15  1  0.62613317  0.87404533  0.37746280  1
  Fe  Fe16  1  0.12484754  0.87433703  0.87405725  1
  Fe  Fe17  1  0.74932994  0.50165312  0.24790137  1
  Fe  Fe18  1  0.50205299  0.50089957  -0.00103668  1
  Fe  Fe19  1  0.62268799  0.63067200  0.12698444  1
  Fe  Fe20  1  0.24926253  0.50277217  -0.00048129  1
  Fe  Fe21  1  0.25245932  0.75137064  0.25079140  1
  Fe  Fe22  1  0.25295210  0.24995439  0.75161379  1
  Fe  Fe23  1  -0.00009472  0.74765682  -0.00421679  1
  Fe  Fe24  1  0.62694334  0.37687425  0.37805293  1
  Fe  Fe25  1  0.25164074  -0.00008331  0.74983906  1
  Fe  Fe26  1  0.50249316  0.74691895  0.50494386  1
  Fe  Fe27  1  0.37383746  0.62533819  0.87179208  1
  Fe  Fe28  1  -0.00063347  0.24804755  -0.00307599  1
  Fe  Fe29  1  0.37993832  0.87191794  0.12217818  1
  Fe  Fe30  1  0.87543286  0.12343319  0.37744580  1
  Fe  Fe31  1  -0.00078882  0.24910948  0.24932996  1
  Fe  Fe32  1  0.62662291  0.62283080  0.37846243  1
  Fe  Fe33  1  0.49677380  0.49935638  0.74846243  1
  Fe  Fe34  1  0.12730065  0.12413166  0.87387293  1
  Fe  Fe35  1  0.87314025  0.37414410  0.12169010  1
  Fe  Fe36  1  0.00267864  0.50358807  -0.00131889  1
  Fe  Fe37  1  0.25311415  0.00001851  0.25000060  1
  Fe  Fe38  1  0.25383576  0.24901107  -0.00185283  1
  Fe  Fe39  1  0.50131048  -0.00342174  0.25080927  1
  Fe  Fe40  1  0.37786683  0.62806228  0.12520028  1
  Fe  Fe41  1  0.75115114  0.24960091  0.50368019  1
  Fe  Fe42  1  0.87228860  0.87451067  0.37649380  1
  Fe  Fe43  1  0.12546827  0.87545008  0.62468382  1
  Fe  Fe44  1  0.74759422  0.74829949  0.50522931  1
  Fe  Fe45  1  0.12535755  0.12513755  0.12458515  1
  Fe  Fe46  1  0.25042734  0.50169014  0.24789590  1
  Fe  Fe47  1  0.87037205  0.12454624  0.87158021  1
  Fe  Fe48  1  0.12341785  0.12278415  0.37570166  1
  Fe  Fe49  1  0.12633739  0.62586602  0.62791298  1
  Fe  Fe50  1  0.62416253  0.12478602  0.37475662  1
  Fe  Fe51  1  0.87889923  0.37159663  0.62606678  1
  Fe  Fe52  1  0.12600368  0.37384696  0.12455878  1
  Fe  Fe53  1  -0.00096764  0.00149285  -0.00145987  1
  Fe  Fe54  1  0.00060261  0.75149015  0.50176874  1
  Fe  Fe55  1  0.12794988  0.37540867  0.87462577  1
  Fe  Fe56  1  0.75010426  0.24781467  0.24874437  1
  Fe  Fe57  1  0.12627198  0.87642839  0.37687412  1
  Fe  Fe58  1  0.49979943  0.25108703  0.25051982  1
  Fe  Fe59  1  0.37624927  0.87561270  0.62192297  1
  Fe  Fe60  1  0.37335482  0.37346402  0.37558805  1
  Fe  Fe61  1  0.12465394  0.87367003  0.12421631  1
  Fe  Fe62  1  0.12490183  0.62585844  0.37487808  1
  Fe  Fe63  1  0.00185920  0.50034982  0.75286929  1
  Fe  Fe64  1  0.37590068  0.87701568  0.38167688  1
  Fe  Fe65  1  0.87201019  0.37749794  0.87776966  1
  Fe  Fe66  1  0.62651538  0.62364579  0.86981171  1
  Fe  Fe67  1  0.87453110  0.62577351  0.62854935  1
  Fe  Fe68  1  -0.00150747  0.75078750  0.24984950  1
  Fe  Fe69  1  0.87349100  0.87480788  0.62763701  1
  Fe  Fe70  1  0.74933094  0.00153489  0.50474768  1
  Fe  Fe71  1  0.12386462  0.37246551  0.62602344  1
  Fe  Fe72  1  0.25042467  0.74999539  -0.00128046  1
  Fe  Fe73  1  0.37513213  0.62562362  0.37803953  1
  Fe  Fe74  1  -0.00017091  0.50058770  0.24755009  1
  Fe  Fe75  1  0.74587907  0.00139653  -0.00074535  1
  Fe  Fe76  1  0.62358723  0.37775412  0.62418370  1
  Fe  Fe77  1  0.62438576  0.87471813  0.87194621  1
  Fe  Fe78  1  0.62579846  0.12475359  0.63149958  1
  Fe  Fe79  1  0.87344973  0.62526300  0.37600819  1
  Fe  Fe80  1  0.37429423  0.37593140  0.62397125  1
  Fe  Fe81  1  0.87364793  0.37581754  0.37472145  1
  Fe  Fe82  1  0.12632422  0.37490418  0.37393364  1
  Fe  Fe83  1  0.75134776  0.49676803  0.74926974  1
  Fe  Fe84  1  0.74914883  0.74936847  -0.00354320  1
  Fe  Fe85  1  0.25245990  0.75187999  0.74907755  1
  Fe  Fe86  1  0.25233590  -0.00076899  -0.00124621  1
  Fe  Fe87  1  0.87408384  0.62539457  0.12312998  1
  Fe  Fe88  1  0.37588861  0.37441826  0.12360428  1
  Fe  Fe89  1  -0.00259797  -0.00044621  0.24815910  1
  Co  Co90  1  0.37852622  0.12434133  0.37475988  1
  Co  Co91  1  0.37768821  0.12398689  0.87370829  1
  Co  Co92  1  0.74461221  0.50243993  0.00173428  1
  Co  Co93  1  0.87325902  0.12562263  0.12276622  1
  Co  Co94  1  0.50183757  0.25000607  -0.00312642  1
  Co  Co95  1  -0.00156864  -0.00300621  0.50222848  1
  Co  Co96  1  0.24905109  0.00405866  0.50137394  1
  Co  Co97  1  0.37361748  0.62507561  0.62627583  1
  Co  Co98  1  0.74953658  0.74990919  0.24974341  1
  Co  Co99  1  0.12550283  0.62790392  0.12612761  1
  Co  Co100  1  0.25018068  0.24748361  0.24981794  1
  Co  Co101  1  0.49795728  0.25407463  0.75032080  1
  Co  Co102  1  0.62262254  0.12522183  0.86756430  1
  Co  Co103  1  0.62388252  0.87646420  0.62685838  1
  Co  Co104  1  0.87680443  0.12676399  0.62701931  1
  Co  Co105  1  0.62345762  0.87134329  0.12328324  1
  Co  Co106  1  0.50085825  0.74960374  0.74736007  1
  Co  Co107  1  0.37601597  0.37717743  0.87663902  1
  Co  Co108  1  -0.00080902  0.25137201  0.49660860  1
  Co  Co109  1  0.87513569  0.87559934  0.87591694  1
  Co  Co110  1  0.62186234  0.12498788  0.12688867  1
  Co  Co111  1  0.74981311  0.25454944  0.74948008  1
  Co  Co112  1  0.87218638  0.62279189  0.87316586  1
  Co  Co113  1  0.62616651  0.62006184  0.62684806  1
  Co  Co114  1  0.49701537  0.50005657  0.49957096  1
  Co  Co115  1  -0.00079248  0.25059405  0.75642074  1
  Co  Co116  1  0.37556459  0.87436449  0.87488027  1
  Co  Co117  1  0.75447776  0.49865389  0.50269792  1
  Co  Co118  1  0.75108647  -0.00263216  0.74981437  1
  Co  Co119  1  -0.00162813  0.75063507  0.75163785  1
  Co  Co120  1  0.12817718  0.62721826  0.87130772  1
  Co  Co121  1  0.50414468  0.00202145  0.50187070  1
  Co  Co122  1  0.62338909  0.37624888  0.87316970  1
  Co  Co123  1  0.74843297  0.75151986  0.75019009  1
  Co  Co124  1  0.49983188  0.75169493  0.25573786  1
  Co  Co125  1  0.24915477  0.74954076  0.50143911  1
  Co  Co126  1  0.50144202  0.74828919  -0.00633310  1
  Co  Co127  1  0.25004122  0.49767247  0.74910552  1
