# generated using pymatgen
data_Fe45Co19
_symmetry_space_group_name_H-M   'P 1'
_cell_length_a   11.41426070
_cell_length_b   11.41509916
_cell_length_c   11.41579735
_cell_angle_alpha   90.00357068
_cell_angle_beta   90.00350551
_cell_angle_gamma   90.01003268
_symmetry_Int_Tables_number   1
_chemical_formula_structural   Fe45Co19
_chemical_formula_sum   'Fe90 Co38'
_cell_volume   1487.42034848
_cell_formula_units_Z   2
loop_
 _symmetry_equiv_pos_site_id
 _symmetry_equiv_pos_as_xyz
  1  'x, y, z'
loop_
 _atom_site_type_symbol
 _atom_site_label
 _atom_site_symmetry_multiplicity
 _atom_site_fract_x
 _atom_site_fract_y
 _atom_site_fract_z
 _atom_site_occupancy
  Fe  Fe0  1  0.62905335  0.37516833  0.37748078  1
  Fe  Fe1  1  0.87214279  0.87664233  0.62945467  1
  Fe  Fe2  1  0.87297459  0.12144781  0.62399015  1
  Fe  Fe3  1  0.74922231  -0.00037927  -0.00048530  1
  Fe  Fe4  1  0.12425243  0.62462525  0.37378608  1
  Fe  Fe5  1  0.37645331  0.87523925  0.37087497  1
  Fe  Fe6  1  0.25001983  0.50131517  0.50161185  1
  Fe  Fe7  1  0.87925210  0.12676689  0.12619749  1
  Fe  Fe8  1  0.25082944  -0.00038119  0.75023783  1
  Fe  Fe9  1  0.50128088  0.50002190  0.49951834  1
  Fe  Fe10  1  0.62403410  0.87385120  0.37210524  1
  Fe  Fe11  1  0.12217210  0.62594867  0.87566713  1
  Fe  Fe12  1  0.50157545  0.75144286  0.49980080  1
  Fe  Fe13  1  0.62691163  0.62484570  0.87596610  1
  Fe  Fe14  1  0.24855938  0.50100289  0.00144707  1
  Fe  Fe15  1  0.37710221  0.12378367  0.62525865  1
  Fe  Fe16  1  0.37596845  0.37371986  0.12670251  1
  Fe  Fe17  1  0.00014005  0.50239381  0.50144592  1
  Fe  Fe18  1  0.62613911  0.37501455  0.12516673  1
  Fe  Fe19  1  0.00025527  0.24853578  0.74964004  1
  Fe  Fe20  1  -0.00208568  0.49730008  0.25014000  1
  Fe  Fe21  1  0.37366826  0.37511842  0.37352918  1
  Fe  Fe22  1  0.12398174  0.12380258  0.87690436  1
  Fe  Fe23  1  0.12444692  0.12086089  0.62212913  1
  Fe  Fe24  1  -0.00062730  0.75188724  0.24727953  1
  Fe  Fe25  1  0.74942786  -0.00057260  0.24844655  1
  Fe  Fe26  1  0.24855147  0.24884960  0.74989638  1
  Fe  Fe27  1  0.37517742  0.62482246  0.87501901  1
  Fe  Fe28  1  0.87361805  0.62648633  0.37652296  1
  Fe  Fe29  1  0.75455102  0.25247152  0.25110551  1
  Fe  Fe30  1  0.25220939  -0.00101357  0.00133125  1
  Fe  Fe31  1  0.74733201  0.74764276  0.24825872  1
  Fe  Fe32  1  0.12148875  0.37152896  0.12463755  1
  Fe  Fe33  1  0.62791064  0.12482999  0.37675586  1
  Fe  Fe34  1  0.87509416  0.12497818  0.87535061  1
  Fe  Fe35  1  0.12407065  0.37587252  0.62524917  1
  Fe  Fe36  1  0.62581690  0.62478771  0.62439882  1
  Fe  Fe37  1  0.24880118  0.24996562  0.49901317  1
  Fe  Fe38  1  0.50552438  0.24991905  0.74884890  1
  Fe  Fe39  1  0.25026625  0.74946788  0.24805394  1
  Fe  Fe40  1  0.37823115  0.87394804  0.87779186  1
  Fe  Fe41  1  0.62552276  0.12622899  0.12434554  1
  Fe  Fe42  1  0.62051258  0.87452398  0.12495414  1
  Fe  Fe43  1  0.12564477  0.87294522  0.12204416  1
  Fe  Fe44  1  0.50109105  0.25117015  -0.00066814  1
  Fe  Fe45  1  0.12344123  0.37505388  0.87374642  1
  Fe  Fe46  1  0.50320642  0.25085908  0.50137746  1
  Fe  Fe47  1  0.24729191  0.00181284  0.24805924  1
  Fe  Fe48  1  0.37659494  0.62787396  0.12319047  1
  Fe  Fe49  1  0.37634405  0.37562931  0.87302851  1
  Fe  Fe50  1  0.75045759  0.50104291  0.25026607  1
  Fe  Fe51  1  0.87472068  0.37478110  0.87291576  1
  Fe  Fe52  1  0.75111837  0.49810200  0.00046418  1
  Fe  Fe53  1  0.37685918  0.37575416  0.62739019  1
  Fe  Fe54  1  0.24860317  0.50083944  0.24752598  1
  Fe  Fe55  1  0.37553281  0.87466374  0.62636331  1
  Fe  Fe56  1  0.74891332  0.75137288  -0.00068931  1
  Fe  Fe57  1  0.24888058  0.75097637  0.49927940  1
  Fe  Fe58  1  0.24941686  0.75001873  0.75176106  1
  Fe  Fe59  1  0.87295423  0.87337093  0.87295998  1
  Fe  Fe60  1  -0.00161954  0.49951854  -0.00037373  1
  Fe  Fe61  1  0.12302832  0.87403325  0.87485378  1
  Fe  Fe62  1  0.50286257  0.75001952  0.75149100  1
  Fe  Fe63  1  0.24869288  0.50125896  0.74968049  1
  Fe  Fe64  1  -0.00267744  -0.00279449  0.00073961  1
  Fe  Fe65  1  0.87324719  0.37640090  0.62274973  1
  Fe  Fe66  1  0.62778161  0.87956853  0.62948210  1
  Fe  Fe67  1  0.24379894  0.24754104  0.25187996  1
  Fe  Fe68  1  0.12444416  0.87577689  0.62601385  1
  Fe  Fe69  1  0.37559387  0.62588762  0.37554227  1
  Fe  Fe70  1  0.37739667  0.12545482  0.87415635  1
  Fe  Fe71  1  0.74644318  0.24746884  0.74773228  1
  Fe  Fe72  1  0.87740711  0.12129672  0.37365397  1
  Fe  Fe73  1  -0.00062779  0.25011957  0.49630858  1
  Fe  Fe74  1  0.25012776  0.25045295  -0.00032866  1
  Fe  Fe75  1  0.87496546  0.62639690  0.12298067  1
  Fe  Fe76  1  0.50139361  0.49962797  -0.00067373  1
  Fe  Fe77  1  0.75006272  0.75174733  0.50120088  1
  Fe  Fe78  1  0.37524148  0.62649544  0.62599120  1
  Fe  Fe79  1  0.87482324  0.87546879  0.37171241  1
  Fe  Fe80  1  0.75156747  0.50226450  0.74886758  1
  Fe  Fe81  1  0.37383797  0.12429354  0.37553435  1
  Fe  Fe82  1  0.37611101  0.12493530  0.12594370  1
  Fe  Fe83  1  0.50036263  -0.00099990  0.49827571  1
  Fe  Fe84  1  0.50165680  0.24935455  0.25181215  1
  Fe  Fe85  1  0.75040270  0.25113969  -0.00067595  1
  Fe  Fe86  1  -0.00310501  0.74610299  0.74947592  1
  Fe  Fe87  1  -0.00071903  0.75085688  0.50167908  1
  Fe  Fe88  1  0.50303297  0.50286999  0.25089440  1
  Fe  Fe89  1  0.12405984  0.87856777  0.37637360  1
  Co  Co90  1  0.87232471  0.37737492  0.37927008  1
  Co  Co91  1  0.50212796  0.50154328  0.75079682  1
  Co  Co92  1  0.12207264  0.11918389  0.37928778  1
  Co  Co93  1  0.62670046  0.62681457  0.37795866  1
  Co  Co94  1  0.50169368  0.74904833  -0.00148609  1
  Co  Co95  1  0.12640022  0.37844268  0.37617035  1
  Co  Co96  1  0.00187949  -0.00210002  0.24551309  1
  Co  Co97  1  -0.00221822  0.50143131  0.74883868  1
  Co  Co98  1  0.62561955  0.87653483  0.87364964  1
  Co  Co99  1  0.50164270  0.00366908  0.25066716  1
  Co  Co100  1  0.75099056  0.24703666  0.50164502  1
  Co  Co101  1  0.62378822  0.12431083  0.87656045  1
  Co  Co102  1  0.87321284  0.62527645  0.62258815  1
  Co  Co103  1  -0.00238353  0.75170914  0.00041475  1
  Co  Co104  1  0.87154633  0.87382728  0.12558060  1
  Co  Co105  1  0.12051293  0.12683028  0.12084178  1
  Co  Co106  1  0.87428843  0.62538313  0.87792330  1
  Co  Co107  1  -0.00200206  0.25121125  -0.00372928  1
  Co  Co108  1  0.75113624  -0.00327566  0.49676459  1
  Co  Co109  1  0.62738406  0.37757976  0.62419359  1
  Co  Co110  1  0.12628251  0.62688802  0.62574726  1
  Co  Co111  1  0.62698780  0.37551180  0.87455708  1
  Co  Co112  1  -0.00449913  -0.00417225  0.50171977  1
  Co  Co113  1  0.00123410  0.25127540  0.25549316  1
  Co  Co114  1  0.62664139  0.62446134  0.12193910  1
  Co  Co115  1  0.87663256  0.37319481  0.12432050  1
  Co  Co116  1  0.50113622  0.74531927  0.24965052  1
  Co  Co117  1  0.12131496  0.62645241  0.12479067  1
  Co  Co118  1  0.75006144  0.00408411  0.75439504  1
  Co  Co119  1  0.25319925  -0.00190326  0.50129298  1
  Co  Co120  1  0.74909986  0.50303871  0.49986009  1
  Co  Co121  1  -0.00058179  0.00101623  0.75107750  1
  Co  Co122  1  0.25028752  0.74912597  0.00044678  1
  Co  Co123  1  0.37817688  0.87437810  0.12700087  1
  Co  Co124  1  0.50009184  0.00120523  0.00109060  1
  Co  Co125  1  0.49900186  0.00007617  0.75136678  1
  Co  Co126  1  0.74970935  0.74722312  0.75060097  1
  Co  Co127  1  0.62601228  0.11888858  0.62338374  1
