# generated using pymatgen
data_Fe45Co19
_symmetry_space_group_name_H-M   'P 1'
_cell_length_a   11.41511235
_cell_length_b   11.41618819
_cell_length_c   11.41537771
_cell_angle_alpha   89.99796878
_cell_angle_beta   89.99318012
_cell_angle_gamma   89.99528691
_symmetry_Int_Tables_number   1
_chemical_formula_structural   Fe45Co19
_chemical_formula_sum   'Fe90 Co38'
_cell_volume   1487.61856828
_cell_formula_units_Z   2
loop_
 _symmetry_equiv_pos_site_id
 _symmetry_equiv_pos_as_xyz
  1  'x, y, z'
loop_
 _atom_site_type_symbol
 _atom_site_label
 _atom_site_symmetry_multiplicity
 _atom_site_fract_x
 _atom_site_fract_y
 _atom_site_fract_z
 _atom_site_occupancy
  Fe  Fe0  1  0.12843178  0.62471649  0.37609729  1
  Fe  Fe1  1  0.74874957  -0.00204715  0.00420303  1
  Fe  Fe2  1  0.12334921  0.37555078  0.12387223  1
  Fe  Fe3  1  0.75156510  0.49871897  0.74838327  1
  Fe  Fe4  1  0.62987555  0.87290132  0.87271930  1
  Fe  Fe5  1  0.37395758  0.87446458  0.87611621  1
  Fe  Fe6  1  0.62432933  0.62450427  0.62375449  1
  Fe  Fe7  1  -0.00429974  0.24456053  0.75539086  1
  Fe  Fe8  1  0.75238552  0.49645726  0.50098859  1
  Fe  Fe9  1  0.00020601  0.50067932  0.75316796  1
  Fe  Fe10  1  0.87243733  0.62966858  0.87747601  1
  Fe  Fe11  1  0.37583843  0.12318518  0.87529499  1
  Fe  Fe12  1  0.62498398  0.87499365  0.13376799  1
  Fe  Fe13  1  0.49743188  0.00266635  0.49660346  1
  Fe  Fe14  1  0.50202827  0.25048017  0.75198187  1
  Fe  Fe15  1  0.25092431  0.49785140  0.25035794  1
  Fe  Fe16  1  -0.00091150  0.00075073  0.50137741  1
  Fe  Fe17  1  0.87674597  0.62500779  0.62315389  1
  Fe  Fe18  1  0.87757207  0.87255196  0.12426855  1
  Fe  Fe19  1  0.49989346  0.74977016  0.74927759  1
  Fe  Fe20  1  0.50280724  0.75184305  0.00124715  1
  Fe  Fe21  1  0.24751551  0.50002293  -0.00148354  1
  Fe  Fe22  1  0.12563538  0.62556993  0.62405673  1
  Fe  Fe23  1  0.25186701  0.24531325  0.50349716  1
  Fe  Fe24  1  0.87630901  0.62668959  0.12625858  1
  Fe  Fe25  1  0.49954297  0.49897159  0.49847951  1
  Fe  Fe26  1  0.87768775  0.37474506  0.12535055  1
  Fe  Fe27  1  0.24342957  0.74952231  0.00461362  1
  Fe  Fe28  1  0.49862838  0.49922585  0.25026962  1
  Fe  Fe29  1  0.50046102  0.24853094  0.24970524  1
  Fe  Fe30  1  0.62614204  0.62661757  0.87483592  1
  Fe  Fe31  1  0.49929790  0.75223106  0.49624167  1
  Fe  Fe32  1  -0.00242665  0.25072226  0.49836833  1
  Fe  Fe33  1  -0.00125413  0.00238610  0.25094559  1
  Fe  Fe34  1  0.25028079  0.24990997  0.00026578  1
  Fe  Fe35  1  0.12462690  0.87562130  0.87532583  1
  Fe  Fe36  1  0.24813801  0.24717241  0.24640638  1
  Fe  Fe37  1  0.50337113  -0.00044142  0.00119445  1
  Fe  Fe38  1  0.37055552  0.62633977  0.37637567  1
  Fe  Fe39  1  0.24746457  0.00295102  0.74775831  1
  Fe  Fe40  1  0.37430766  0.37418573  0.87680292  1
  Fe  Fe41  1  0.62919975  0.12519670  0.87513199  1
  Fe  Fe42  1  0.37324575  0.62516407  0.62139675  1
  Fe  Fe43  1  0.00077649  0.49742632  0.49823247  1
  Fe  Fe44  1  -0.00264606  -0.00079853  -0.00510318  1
  Fe  Fe45  1  0.75052968  0.25296383  0.50403807  1
  Fe  Fe46  1  0.62507012  0.12562804  0.62595521  1
  Fe  Fe47  1  0.00223367  0.50179339  -0.00427474  1
  Fe  Fe48  1  0.25061022  0.75139429  0.74737730  1
  Fe  Fe49  1  0.62760069  0.62469259  0.37250170  1
  Fe  Fe50  1  0.75086254  0.25083955  -0.00037431  1
  Fe  Fe51  1  0.75217782  0.25037441  0.24841972  1
  Fe  Fe52  1  -0.00153708  0.24942410  -0.00420013  1
  Fe  Fe53  1  0.75133016  -0.00011459  0.50011348  1
  Fe  Fe54  1  0.12917963  0.87873528  0.37364297  1
  Fe  Fe55  1  0.12336823  0.87777167  0.62362912  1
  Fe  Fe56  1  -0.00309382  0.75334583  0.75117829  1
  Fe  Fe57  1  -0.00067913  0.49655675  0.25333520  1
  Fe  Fe58  1  0.87385650  0.62361295  0.37332744  1
  Fe  Fe59  1  0.37462918  0.62590309  0.12551415  1
  Fe  Fe60  1  0.87446023  0.87518611  0.37522174  1
  Fe  Fe61  1  0.50255263  -0.00113039  0.75218557  1
  Fe  Fe62  1  0.62629943  0.37478821  0.37468958  1
  Fe  Fe63  1  0.87546815  0.12559787  0.12434709  1
  Fe  Fe64  1  0.75039184  0.75078693  0.49899851  1
  Fe  Fe65  1  0.00365580  0.75075066  0.24994893  1
  Fe  Fe66  1  0.37032352  0.87780675  0.37162802  1
  Fe  Fe67  1  0.37557734  0.87806758  0.62481984  1
  Fe  Fe68  1  0.24948130  0.24674316  0.74953694  1
  Fe  Fe69  1  0.24997559  0.49902198  0.74913529  1
  Fe  Fe70  1  0.12631620  0.37169763  0.37538162  1
  Fe  Fe71  1  0.62286466  0.37327093  0.12452084  1
  Fe  Fe72  1  0.37832660  0.37275701  0.62321343  1
  Fe  Fe73  1  0.12607325  0.12403265  0.37601158  1
  Fe  Fe74  1  0.62671955  0.12297288  0.37197942  1
  Fe  Fe75  1  0.49946119  0.49945167  0.00018662  1
  Fe  Fe76  1  0.62574231  0.87488495  0.62301515  1
  Fe  Fe77  1  0.12193771  0.37238292  0.62728797  1
  Fe  Fe78  1  0.37882693  0.12555113  0.12392577  1
  Fe  Fe79  1  0.75008374  0.50052515  0.00271624  1
  Fe  Fe80  1  0.87430105  0.12726146  0.37569079  1
  Fe  Fe81  1  0.25023375  0.00037786  0.00203780  1
  Fe  Fe82  1  0.37487290  0.87446531  0.12777681  1
  Fe  Fe83  1  0.49809040  0.50097818  0.75079170  1
  Fe  Fe84  1  0.12156260  0.12348107  0.12210186  1
  Fe  Fe85  1  0.62517208  0.62696130  0.12938405  1
  Fe  Fe86  1  0.37465764  0.37101586  0.37600142  1
  Fe  Fe87  1  0.00141568  0.75060278  0.49880366  1
  Fe  Fe88  1  0.37318693  0.62812121  0.87710063  1
  Fe  Fe89  1  0.62678761  0.37558147  0.87508193  1
  Co  Co90  1  0.50039384  0.24889008  -0.00237790  1
  Co  Co91  1  0.12707810  0.62808260  0.87115888  1
  Co  Co92  1  0.25221732  0.00450872  0.50335724  1
  Co  Co93  1  0.62223604  0.37617590  0.62553873  1
  Co  Co94  1  0.11943491  0.12574645  0.62405472  1
  Co  Co95  1  0.24605843  0.74976626  0.24694964  1
  Co  Co96  1  0.12662986  0.12349122  0.87738872  1
  Co  Co97  1  0.00407216  0.74890590  -0.00034638  1
  Co  Co98  1  0.87472674  0.87608651  0.62375940  1
  Co  Co99  1  0.12189324  0.87996233  0.12533055  1
  Co  Co100  1  0.24820822  0.49544661  0.50160335  1
  Co  Co101  1  0.24929619  0.75347915  0.50103550  1
  Co  Co102  1  0.24898394  0.00465915  0.24603818  1
  Co  Co103  1  0.75528880  0.00055609  0.24909426  1
  Co  Co104  1  0.75257569  0.75196027  0.25157788  1
  Co  Co105  1  0.87382654  0.37682568  0.87562662  1
  Co  Co106  1  -0.00149610  0.00048361  0.75277789  1
  Co  Co107  1  0.00070430  0.24842657  0.25058296  1
  Co  Co108  1  0.12534031  0.37259440  0.87399922  1
  Co  Co109  1  0.49847738  0.00216726  0.25044694  1
  Co  Co110  1  0.75167544  -0.00040333  0.74630592  1
  Co  Co111  1  0.75168496  0.25234738  0.74771217  1
  Co  Co112  1  0.74741736  0.75112264  0.00422191  1
  Co  Co113  1  0.87949390  0.37479110  0.62688831  1
  Co  Co114  1  0.86817996  0.12112547  0.87585292  1
  Co  Co115  1  0.37984060  0.12425664  0.62878984  1
  Co  Co116  1  0.62633009  0.87858684  0.37306150  1
  Co  Co117  1  0.12224176  0.61953244  0.12822612  1
  Co  Co118  1  0.87592503  0.12448384  0.62417599  1
  Co  Co119  1  0.87049573  0.87362842  0.87589204  1
  Co  Co120  1  0.62540162  0.12623816  0.12632872  1
  Co  Co121  1  0.75079872  0.49729674  0.24729001  1
  Co  Co122  1  0.37557291  0.37429291  0.12457607  1
  Co  Co123  1  0.87315423  0.37367404  0.37404058  1
  Co  Co124  1  0.75057712  0.74886853  0.74588721  1
  Co  Co125  1  0.50201533  0.24677210  0.49849721  1
  Co  Co126  1  0.37333227  0.12601810  0.37247093  1
  Co  Co127  1  0.49850249  0.74968856  0.25405550  1
